MODEL        1
REMARK 921   NORMALIZED FREE ENERGY PREDICTED BY IDOCK:   -5.05 KCAL/MOL
REMARK 922        TOTAL FREE ENERGY PREDICTED BY IDOCK:   -7.15 KCAL/MOL
REMARK 923 INTER-LIGAND FREE ENERGY PREDICTED BY IDOCK:   -6.22 KCAL/MOL
REMARK 924 INTRA-LIGAND FREE ENERGY PREDICTED BY IDOCK:   -0.92 KCAL/MOL
REMARK 927      BINDING AFFINITY PREDICTED BY RF-SCORE:    0.00 PKD
ROOT
HETATM    1  C   UNL     1      -6.611  17.846  67.194  1.00  0.00    -0.196 C  
HETATM    2  C   UNL     1      -6.672  16.351  67.474  1.00  0.00    -0.153 C  
ENDROOT
BRANCH   2   3
HETATM    3  O   UNL     1      -7.761  15.728  66.766  1.00  0.00    -0.229 OA 
BRANCH   3   4
HETATM    4  C   UNL     1      -8.802  15.350  67.560  1.00  0.00    -0.180 C  
HETATM    5  O   UNL     1      -8.670  14.611  68.535  1.00  0.00    -0.166 OA 
BRANCH   4   6
HETATM    6  C   UNL     1     -10.177  15.884  67.083  1.00  0.00    -0.278 C  
HETATM    7  C   UNL     1     -11.406  15.233  67.770  1.00  0.00    -0.331 C  
HETATM    8  C   UNL     1     -10.245  15.495  65.579  1.00  0.00    -0.415 C  
HETATM    9  C   UNL     1     -10.303  13.974  65.402  1.00  0.00    -0.359 C  
HETATM   10  C   UNL     1     -12.702  13.656  65.280  1.00  0.00    -0.430 C  
HETATM   11  C   UNL     1     -11.580  13.741  67.452  1.00  0.00    -0.362 C  
HETATM   12  N   UNL     1     -11.481  13.381  66.035  1.00  0.00    -0.318 NA 
BRANCH   6  13
HETATM   13  C   UNL     1     -10.208  17.411  67.338  1.00  0.00    -0.326 A  
HETATM   14  C   UNL     1     -10.290  19.723  66.559  1.00  0.00    -0.621 A  
HETATM   15  C   UNL     1     -10.359  18.349  66.305  1.00  0.00    -0.440 A  
HETATM   16  C   UNL     1      -9.961  19.283  68.897  1.00  0.00    -0.495 A  
HETATM   17  C   UNL     1     -10.072  20.190  67.849  1.00  0.00    -0.533 A  
HETATM   18  C   UNL     1     -10.042  17.911  68.646  1.00  0.00    -0.394 A  
ENDBRANCH   6  13
ENDBRANCH   4   6
ENDBRANCH   3   4
ENDBRANCH   2   3
TORSDOF 4
ENDMDL
MODEL        2
REMARK 921   NORMALIZED FREE ENERGY PREDICTED BY IDOCK:   -4.96 KCAL/MOL
REMARK 922        TOTAL FREE ENERGY PREDICTED BY IDOCK:   -7.04 KCAL/MOL
REMARK 923 INTER-LIGAND FREE ENERGY PREDICTED BY IDOCK:   -6.79 KCAL/MOL
REMARK 924 INTRA-LIGAND FREE ENERGY PREDICTED BY IDOCK:   -0.25 KCAL/MOL
REMARK 927      BINDING AFFINITY PREDICTED BY RF-SCORE:    0.00 PKD
ROOT
HETATM    1  C   UNL     1     -12.031  13.840  64.024  1.00  0.00    -0.451 C  
HETATM    2  C   UNL     1     -12.535  12.976  65.172  1.00  0.00    -0.496 C  
ENDROOT
BRANCH   2   3
HETATM    3  O   UNL     1     -12.628  13.731  66.396  1.00  0.00    -0.389 OA 
BRANCH   3   4
HETATM    4  C   UNL     1     -11.974  13.171  67.451  1.00  0.00    -0.327 C  
HETATM    5  O   UNL     1     -11.971  11.961  67.675  1.00  0.00    -0.575 OA 
BRANCH   4   6
HETATM    6  C   UNL     1     -11.287  14.204  68.381  1.00  0.00    -0.315 C  
HETATM    7  C   UNL     1     -11.247  15.654  67.830  1.00  0.00    -0.328 C  
HETATM    8  C   UNL     1      -9.812  13.720  68.477  1.00  0.00    -0.204 C  
HETATM    9  C   UNL     1      -9.102  13.835  67.124  1.00  0.00    -0.239 C  
HETATM   10  C   UNL     1      -8.081  16.020  67.371  1.00  0.00    -0.164 C  
HETATM   11  C   UNL     1     -10.384  15.819  66.571  1.00  0.00    -0.294 C  
HETATM   12  N   UNL     1      -9.052  15.212  66.634  1.00  0.00    -0.261 NA 
BRANCH   6  13
HETATM   13  C   UNL     1     -12.038  14.200  69.734  1.00  0.00    -0.409 A  
HETATM   14  C   UNL     1     -12.942  13.055  71.692  1.00  0.00    -0.417 A  
HETATM   15  C   UNL     1     -12.178  13.045  70.520  1.00  0.00    -0.392 A  
HETATM   16  C   UNL     1     -13.422  15.387  71.370  1.00  0.00    -0.607 A  
HETATM   17  C   UNL     1     -13.578  14.219  72.107  1.00  0.00    -0.546 A  
HETATM   18  C   UNL     1     -12.650  15.380  70.205  1.00  0.00    -0.377 A  
ENDBRANCH   6  13
ENDBRANCH   4   6
ENDBRANCH   3   4
ENDBRANCH   2   3
TORSDOF 4
ENDMDL
MODEL        3
REMARK 921   NORMALIZED FREE ENERGY PREDICTED BY IDOCK:   -4.96 KCAL/MOL
REMARK 922        TOTAL FREE ENERGY PREDICTED BY IDOCK:   -7.04 KCAL/MOL
REMARK 923 INTER-LIGAND FREE ENERGY PREDICTED BY IDOCK:   -6.48 KCAL/MOL
REMARK 924 INTRA-LIGAND FREE ENERGY PREDICTED BY IDOCK:   -0.56 KCAL/MOL
REMARK 927      BINDING AFFINITY PREDICTED BY RF-SCORE:    0.00 PKD
ROOT
HETATM    1  C   UNL     1      -7.861  12.933  68.289  1.00  0.00    -0.142 C  
HETATM    2  C   UNL     1      -8.410  14.312  67.950  1.00  0.00    -0.162 C  
ENDROOT
BRANCH   2   3
HETATM    3  O   UNL     1      -9.068  14.314  66.668  1.00  0.00    -0.257 OA 
BRANCH   3   4
HETATM    4  C   UNL     1     -10.393  14.624  66.720  1.00  0.00    -0.268 C  
HETATM    5  O   UNL     1     -10.811  15.774  66.853  1.00  0.00    -0.319 OA 
BRANCH   4   6
HETATM    6  C   UNL     1     -11.326  13.387  66.658  1.00  0.00    -0.350 C  
HETATM    7  C   UNL     1     -10.729  12.153  65.934  1.00  0.00    -0.302 C  
HETATM    8  C   UNL     1     -12.542  13.859  65.811  1.00  0.00    -0.533 C  
HETATM    9  C   UNL     1     -12.131  14.146  64.363  1.00  0.00    -0.463 C  
HETATM   10  C   UNL     1     -12.644  12.006  63.349  1.00  0.00    -0.469 C  
HETATM   11  C   UNL     1     -10.481  12.369  64.434  1.00  0.00    -0.344 C  
HETATM   12  N   UNL     1     -11.594  12.965  63.689  1.00  0.00    -0.476 NA 
BRANCH   6  13
HETATM   13  C   UNL     1     -11.689  12.993  68.110  1.00  0.00    -0.391 A  
HETATM   14  C   UNL     1     -12.253  13.555  70.418  1.00  0.00    -0.426 A  
HETATM   15  C   UNL     1     -12.020  13.939  69.093  1.00  0.00    -0.404 A  
HETATM   16  C   UNL     1     -11.880  11.257  69.828  1.00  0.00    -0.437 A  
HETATM   17  C   UNL     1     -12.164  12.219  70.789  1.00  0.00    -0.354 A  
HETATM   18  C   UNL     1     -11.659  11.638  68.502  1.00  0.00    -0.379 A  
ENDBRANCH   6  13
ENDBRANCH   4   6
ENDBRANCH   3   4
ENDBRANCH   2   3
TORSDOF 4
ENDMDL
MODEL        4
REMARK 921   NORMALIZED FREE ENERGY PREDICTED BY IDOCK:   -4.95 KCAL/MOL
REMARK 922        TOTAL FREE ENERGY PREDICTED BY IDOCK:   -7.03 KCAL/MOL
REMARK 923 INTER-LIGAND FREE ENERGY PREDICTED BY IDOCK:   -6.62 KCAL/MOL
REMARK 924 INTRA-LIGAND FREE ENERGY PREDICTED BY IDOCK:   -0.41 KCAL/MOL
REMARK 927      BINDING AFFINITY PREDICTED BY RF-SCORE:    0.00 PKD
ROOT
HETATM    1  C   UNL     1     -10.403   9.469  70.587  1.00  0.00    -0.369 C  
HETATM    2  C   UNL     1     -10.179   9.925  69.151  1.00  0.00    -0.205 C  
ENDROOT
BRANCH   2   3
HETATM    3  O   UNL     1     -10.165  11.363  69.054  1.00  0.00    -0.193 OA 
BRANCH   3   4
HETATM    4  C   UNL     1     -11.257  11.893  68.436  1.00  0.00    -0.258 C  
HETATM    5  O   UNL     1     -12.052  11.220  67.781  1.00  0.00    -0.631 OA 
BRANCH   4   6
HETATM    6  C   UNL     1     -11.370  13.433  68.582  1.00  0.00    -0.322 C  
HETATM    7  C   UNL     1     -12.134  14.144  67.434  1.00  0.00    -0.379 C  
HETATM    8  C   UNL     1      -9.900  13.938  68.523  1.00  0.00    -0.214 C  
HETATM    9  C   UNL     1      -9.285  13.692  67.142  1.00  0.00    -0.244 C  
HETATM   10  C   UNL     1      -9.740  15.828  66.092  1.00  0.00    -0.322 C  
HETATM   11  C   UNL     1     -11.431  14.061  66.072  1.00  0.00    -0.338 C  
HETATM   12  N   UNL     1     -10.003  14.390  66.076  1.00  0.00    -0.304 NA 
BRANCH   6  13
HETATM   13  C   UNL     1     -12.083  13.732  69.923  1.00  0.00    -0.412 A  
HETATM   14  C   UNL     1     -13.225  13.023  71.960  1.00  0.00    -0.543 A  
HETATM   15  C   UNL     1     -12.502  12.721  70.802  1.00  0.00    -0.357 A  
HETATM   16  C   UNL     1     -13.101  15.364  71.439  1.00  0.00    -0.563 A  
HETATM   17  C   UNL     1     -13.541  14.340  72.270  1.00  0.00    -0.573 A  
HETATM   18  C   UNL     1     -12.369  15.064  70.287  1.00  0.00    -0.392 A  
ENDBRANCH   6  13
ENDBRANCH   4   6
ENDBRANCH   3   4
ENDBRANCH   2   3
TORSDOF 4
ENDMDL
MODEL        5
REMARK 921   NORMALIZED FREE ENERGY PREDICTED BY IDOCK:   -4.94 KCAL/MOL
REMARK 922        TOTAL FREE ENERGY PREDICTED BY IDOCK:   -7.02 KCAL/MOL
REMARK 923 INTER-LIGAND FREE ENERGY PREDICTED BY IDOCK:   -6.80 KCAL/MOL
REMARK 924 INTRA-LIGAND FREE ENERGY PREDICTED BY IDOCK:   -0.22 KCAL/MOL
REMARK 927      BINDING AFFINITY PREDICTED BY RF-SCORE:    0.00 PKD
ROOT
HETATM    1  C   UNL     1     -10.479  17.942  67.681  1.00  0.00    -0.406 C  
HETATM    2  C   UNL     1     -10.147  16.867  66.655  1.00  0.00    -0.304 C  
ENDROOT
BRANCH   2   3
HETATM    3  O   UNL     1     -10.991  15.711  66.815  1.00  0.00    -0.310 OA 
BRANCH   3   4
HETATM    4  C   UNL     1     -10.323  14.523  66.796  1.00  0.00    -0.269 C  
HETATM    5  O   UNL     1      -9.096  14.442  66.795  1.00  0.00    -0.248 OA 
BRANCH   4   6
HETATM    6  C   UNL     1     -11.254  13.286  66.711  1.00  0.00    -0.331 C  
HETATM    7  C   UNL     1     -10.668  12.080  65.931  1.00  0.00    -0.314 C  
HETATM    8  C   UNL     1     -12.489  13.782  65.906  1.00  0.00    -0.512 C  
HETATM    9  C   UNL     1     -12.109  14.121  64.461  1.00  0.00    -0.468 C  
HETATM   10  C   UNL     1     -12.635  12.015  63.383  1.00  0.00    -0.469 C  
HETATM   11  C   UNL     1     -10.452  12.348  64.436  1.00  0.00    -0.344 C  
HETATM   12  N   UNL     1     -11.582  12.966  63.735  1.00  0.00    -0.448 NA 
BRANCH   6  13
HETATM   13  C   UNL     1     -11.585  12.840  68.155  1.00  0.00    -0.380 A  
HETATM   14  C   UNL     1     -12.123  11.129  69.812  1.00  0.00    -0.414 A  
HETATM   15  C   UNL     1     -11.733  11.492  68.518  1.00  0.00    -0.379 A  
HETATM   16  C   UNL     1     -12.190  13.444  70.451  1.00  0.00    -0.415 A  
HETATM   17  C   UNL     1     -12.370  12.103  70.771  1.00  0.00    -0.391 A  
HETATM   18  C   UNL     1     -11.789  13.806  69.162  1.00  0.00    -0.398 A  
ENDBRANCH   6  13
ENDBRANCH   4   6
ENDBRANCH   3   4
ENDBRANCH   2   3
TORSDOF 4
ENDMDL
MODEL        6
REMARK 921   NORMALIZED FREE ENERGY PREDICTED BY IDOCK:   -4.93 KCAL/MOL
REMARK 922        TOTAL FREE ENERGY PREDICTED BY IDOCK:   -7.01 KCAL/MOL
REMARK 923 INTER-LIGAND FREE ENERGY PREDICTED BY IDOCK:   -6.77 KCAL/MOL
REMARK 924 INTRA-LIGAND FREE ENERGY PREDICTED BY IDOCK:   -0.24 KCAL/MOL
REMARK 927      BINDING AFFINITY PREDICTED BY RF-SCORE:    0.00 PKD
ROOT
HETATM    1  C   UNL     1     -10.582  18.815  67.241  1.00  0.00    -0.504 C  
HETATM    2  C   UNL     1     -10.276  17.848  68.376  1.00  0.00    -0.394 C  
ENDROOT
BRANCH   2   3
HETATM    3  O   UNL     1     -11.048  16.638  68.257  1.00  0.00    -0.361 OA 
BRANCH   3   4
HETATM    4  C   UNL     1     -10.497  15.558  68.878  1.00  0.00    -0.223 C  
HETATM    5  O   UNL     1      -9.396  15.587  69.428  1.00  0.00    -0.254 OA 
BRANCH   4   6
HETATM    6  C   UNL     1     -11.356  14.271  68.773  1.00  0.00    -0.303 C  
HETATM    7  C   UNL     1     -10.548  12.954  68.641  1.00  0.00    -0.256 C  
HETATM    8  C   UNL     1     -12.153  14.443  67.449  1.00  0.00    -0.348 C  
HETATM    9  C   UNL     1     -11.219  14.424  66.234  1.00  0.00    -0.338 C  
HETATM   10  C   UNL     1     -11.342  12.075  65.647  1.00  0.00    -0.329 C  
HETATM   11  C   UNL     1      -9.747  12.841  67.337  1.00  0.00    -0.197 C  
HETATM   12  N   UNL     1     -10.485  13.164  66.112  1.00  0.00    -0.276 NA 
BRANCH   6  13
HETATM   13  C   UNL     1     -12.248  14.191  70.035  1.00  0.00    -0.418 A  
HETATM   14  C   UNL     1     -13.570  15.226  71.808  1.00  0.00    -0.581 A  
HETATM   15  C   UNL     1     -12.846  15.322  70.615  1.00  0.00    -0.462 A  
HETATM   16  C   UNL     1     -13.171  12.858  71.872  1.00  0.00    -0.521 A  
HETATM   17  C   UNL     1     -13.716  14.001  72.446  1.00  0.00    -0.669 A  
HETATM   18  C   UNL     1     -12.457  12.951  70.674  1.00  0.00    -0.333 A  
ENDBRANCH   6  13
ENDBRANCH   4   6
ENDBRANCH   3   4
ENDBRANCH   2   3
TORSDOF 4
ENDMDL
MODEL        7
REMARK 921   NORMALIZED FREE ENERGY PREDICTED BY IDOCK:   -4.89 KCAL/MOL
REMARK 922        TOTAL FREE ENERGY PREDICTED BY IDOCK:   -6.96 KCAL/MOL
REMARK 923 INTER-LIGAND FREE ENERGY PREDICTED BY IDOCK:   -6.40 KCAL/MOL
REMARK 924 INTRA-LIGAND FREE ENERGY PREDICTED BY IDOCK:   -0.56 KCAL/MOL
REMARK 927      BINDING AFFINITY PREDICTED BY RF-SCORE:    0.00 PKD
ROOT
HETATM    1  C   UNL     1     -11.456  14.943  64.679  1.00  0.00    -0.380 C  
HETATM    2  C   UNL     1     -12.557  14.134  65.350  1.00  0.00    -0.466 C  
ENDROOT
BRANCH   2   3
HETATM    3  O   UNL     1     -12.397  14.118  66.782  1.00  0.00    -0.438 OA 
BRANCH   3   4
HETATM    4  C   UNL     1     -11.797  12.995  67.266  1.00  0.00    -0.363 C  
HETATM    5  O   UNL     1     -11.970  11.877  66.781  1.00  0.00    -0.613 OA 
BRANCH   4   6
HETATM    6  C   UNL     1     -10.926  13.245  68.524  1.00  0.00    -0.291 C  
HETATM    7  C   UNL     1     -10.238  14.634  68.577  1.00  0.00    -0.240 C  
HETATM    8  C   UNL     1      -9.791  12.186  68.428  1.00  0.00    -0.200 C  
HETATM    9  C   UNL     1      -8.880  12.458  67.226  1.00  0.00    -0.192 C  
HETATM   10  C   UNL     1      -7.148  13.771  68.300  1.00  0.00    -0.109 C  
HETATM   11  C   UNL     1      -9.185  14.851  67.482  1.00  0.00    -0.193 C  
HETATM   12  N   UNL     1      -8.221  13.761  67.306  1.00  0.00    -0.179 NA 
BRANCH   6  13
HETATM   13  C   UNL     1     -11.831  13.083  69.769  1.00  0.00    -0.381 A  
HETATM   14  C   UNL     1     -13.094  13.996  71.648  1.00  0.00    -0.435 A  
HETATM   15  C   UNL     1     -12.357  14.178  70.473  1.00  0.00    -0.434 A  
HETATM   16  C   UNL     1     -12.854  11.615  71.442  1.00  0.00    -0.461 A  
HETATM   17  C   UNL     1     -13.327  12.719  72.142  1.00  0.00    -0.593 A  
HETATM   18  C   UNL     1     -12.127  11.795  70.262  1.00  0.00    -0.426 A  
ENDBRANCH   6  13
ENDBRANCH   4   6
ENDBRANCH   3   4
ENDBRANCH   2   3
TORSDOF 4
ENDMDL
MODEL        8
REMARK 921   NORMALIZED FREE ENERGY PREDICTED BY IDOCK:   -4.88 KCAL/MOL
REMARK 922        TOTAL FREE ENERGY PREDICTED BY IDOCK:   -6.95 KCAL/MOL
REMARK 923 INTER-LIGAND FREE ENERGY PREDICTED BY IDOCK:   -6.10 KCAL/MOL
REMARK 924 INTRA-LIGAND FREE ENERGY PREDICTED BY IDOCK:   -0.85 KCAL/MOL
REMARK 927      BINDING AFFINITY PREDICTED BY RF-SCORE:    0.00 PKD
ROOT
HETATM    1  C   UNL     1     -12.234  11.582  70.744  1.00  0.00    -0.463 C  
HETATM    2  C   UNL     1     -12.047  11.791  69.247  1.00  0.00    -0.229 C  
ENDROOT
BRANCH   2   3
HETATM    3  O   UNL     1     -11.068  12.813  68.979  1.00  0.00    -0.251 OA 
BRANCH   3   4
HETATM    4  C   UNL     1     -11.587  13.968  68.475  1.00  0.00    -0.322 C  
HETATM    5  O   UNL     1     -12.246  14.012  67.437  1.00  0.00    -0.384 OA 
BRANCH   4   6
HETATM    6  C   UNL     1     -11.217  15.230  69.297  1.00  0.00    -0.291 C  
HETATM    7  C   UNL     1     -11.401  16.575  68.548  1.00  0.00    -0.231 C  
HETATM    8  C   UNL     1      -9.695  15.077  69.579  1.00  0.00    -0.113 C  
HETATM    9  C   UNL     1      -8.880  15.167  68.284  1.00  0.00    -0.173 C  
HETATM   10  C   UNL     1      -8.336  17.529  68.293  1.00  0.00    -0.265 C  
HETATM   11  C   UNL     1     -10.458  16.757  67.351  1.00  0.00    -0.310 C  
HETATM   12  N   UNL     1      -9.047  16.452  67.605  1.00  0.00    -0.198 NA 
BRANCH   6  13
HETATM   13  C   UNL     1     -12.093  15.239  70.573  1.00  0.00    -0.395 A  
HETATM   14  C   UNL     1     -14.258  15.213  71.700  1.00  0.00    -0.664 A  
HETATM   15  C   UNL     1     -13.490  15.108  70.536  1.00  0.00    -0.122 A  
HETATM   16  C   UNL     1     -12.264  15.538  72.998  1.00  0.00    -0.564 A  
HETATM   17  C   UNL     1     -13.649  15.447  72.927  1.00  0.00    -0.609 A  
HETATM   18  C   UNL     1     -11.495  15.422  71.837  1.00  0.00    -0.513 A  
ENDBRANCH   6  13
ENDBRANCH   4   6
ENDBRANCH   3   4
ENDBRANCH   2   3
TORSDOF 4
ENDMDL
MODEL        9
REMARK 921   NORMALIZED FREE ENERGY PREDICTED BY IDOCK:   -4.79 KCAL/MOL
REMARK 922        TOTAL FREE ENERGY PREDICTED BY IDOCK:   -6.83 KCAL/MOL
REMARK 923 INTER-LIGAND FREE ENERGY PREDICTED BY IDOCK:   -6.58 KCAL/MOL
REMARK 924 INTRA-LIGAND FREE ENERGY PREDICTED BY IDOCK:   -0.25 KCAL/MOL
REMARK 927      BINDING AFFINITY PREDICTED BY RF-SCORE:    0.00 PKD
ROOT
HETATM    1  C   UNL     1     -11.279  12.114  63.314  1.00  0.00    -0.409 C  
HETATM    2  C   UNL     1     -12.519  12.137  64.197  1.00  0.00    -0.396 C  
ENDROOT
BRANCH   2   3
HETATM    3  O   UNL     1     -12.170  12.287  65.587  1.00  0.00    -0.605 OA 
BRANCH   3   4
HETATM    4  C   UNL     1     -12.353  13.544  66.078  1.00  0.00    -0.433 C  
HETATM    5  O   UNL     1     -13.178  14.333  65.618  1.00  0.00    -0.558 OA 
BRANCH   4   6
HETATM    6  C   UNL     1     -11.380  13.913  67.228  1.00  0.00    -0.344 C  
HETATM    7  C   UNL     1     -11.332  15.421  67.586  1.00  0.00    -0.292 C  
HETATM    8  C   UNL     1      -9.973  13.535  66.683  1.00  0.00    -0.282 C  
HETATM    9  C   UNL     1      -9.580  14.427  65.500  1.00  0.00    -0.062 C  
HETATM   10  C   UNL     1      -8.332  16.146  66.667  1.00  0.00    -0.286 C  
HETATM   11  C   UNL     1     -10.765  16.309  66.470  1.00  0.00    -0.187 C  
HETATM   12  N   UNL     1      -9.515  15.842  65.863  1.00  0.00    -0.343 NA 
BRANCH   6  13
HETATM   13  C   UNL     1     -11.802  13.110  68.482  1.00  0.00    -0.377 A  
HETATM   14  C   UNL     1     -12.505  12.973  70.816  1.00  0.00    -0.384 A  
HETATM   15  C   UNL     1     -12.219  13.726  69.673  1.00  0.00    -0.359 A  
HETATM   16  C   UNL     1     -12.015  10.950  69.618  1.00  0.00    -0.414 A  
HETATM   17  C   UNL     1     -12.385  11.589  70.795  1.00  0.00    -0.472 A  
HETATM   18  C   UNL     1     -11.741  11.701  68.472  1.00  0.00    -0.378 A  
ENDBRANCH   6  13
ENDBRANCH   4   6
ENDBRANCH   3   4
ENDBRANCH   2   3
TORSDOF 4
ENDMDL
MODEL       10
REMARK 921   NORMALIZED FREE ENERGY PREDICTED BY IDOCK:   -4.76 KCAL/MOL
REMARK 922        TOTAL FREE ENERGY PREDICTED BY IDOCK:   -6.80 KCAL/MOL
REMARK 923 INTER-LIGAND FREE ENERGY PREDICTED BY IDOCK:   -5.92 KCAL/MOL
REMARK 924 INTRA-LIGAND FREE ENERGY PREDICTED BY IDOCK:   -0.87 KCAL/MOL
REMARK 927      BINDING AFFINITY PREDICTED BY RF-SCORE:    0.00 PKD
ROOT
HETATM    1  C   UNL     1     -11.130  10.557  67.651  1.00  0.00    -0.375 C  
HETATM    2  C   UNL     1      -9.937  11.362  68.146  1.00  0.00    -0.189 C  
ENDROOT
BRANCH   2   3
HETATM    3  O   UNL     1     -10.250  12.766  68.231  1.00  0.00    -0.233 OA 
BRANCH   3   4
HETATM    4  C   UNL     1      -9.487  13.559  67.427  1.00  0.00    -0.225 C  
HETATM    5  O   UNL     1      -8.257  13.547  67.443  1.00  0.00    -0.169 OA 
BRANCH   4   6
HETATM    6  C   UNL     1     -10.314  14.523  66.537  1.00  0.00    -0.283 C  
HETATM    7  C   UNL     1      -9.490  15.638  65.842  1.00  0.00    -0.376 C  
HETATM    8  C   UNL     1     -11.282  15.232  67.527  1.00  0.00    -0.317 C  
HETATM    9  C   UNL     1     -10.515  16.123  68.510  1.00  0.00    -0.269 C  
HETATM   10  C   UNL     1     -10.643  18.243  67.344  1.00  0.00    -0.401 C  
HETATM   11  C   UNL     1      -8.865  16.649  66.812  1.00  0.00    -0.231 C  
HETATM   12  N   UNL     1      -9.766  17.183  67.838  1.00  0.00    -0.263 NA 
BRANCH   6  13
HETATM   13  C   UNL     1     -11.030  13.677  65.457  1.00  0.00    -0.297 A  
HETATM   14  C   UNL     1     -13.007  12.570  64.549  1.00  0.00    -0.215 A  
HETATM   15  C   UNL     1     -12.409  13.415  65.489  1.00  0.00    -0.528 A  
HETATM   16  C   UNL     1     -10.884  12.248  63.473  1.00  0.00    -0.508 A  
HETATM   17  C   UNL     1     -12.244  11.972  63.554  1.00  0.00    -0.653 A  
HETATM   18  C   UNL     1     -10.288  13.101  64.406  1.00  0.00    -0.390 A  
ENDBRANCH   6  13
ENDBRANCH   4   6
ENDBRANCH   3   4
ENDBRANCH   2   3
TORSDOF 4
ENDMDL
MODEL       11
REMARK 921   NORMALIZED FREE ENERGY PREDICTED BY IDOCK:   -4.76 KCAL/MOL
REMARK 922        TOTAL FREE ENERGY PREDICTED BY IDOCK:   -6.79 KCAL/MOL
REMARK 923 INTER-LIGAND FREE ENERGY PREDICTED BY IDOCK:   -6.29 KCAL/MOL
REMARK 924 INTRA-LIGAND FREE ENERGY PREDICTED BY IDOCK:   -0.51 KCAL/MOL
REMARK 927      BINDING AFFINITY PREDICTED BY RF-SCORE:    0.00 PKD
ROOT
HETATM    1  C   UNL     1     -12.373  12.120  63.678  1.00  0.00    -0.673 C  
HETATM    2  C   UNL     1     -12.727  13.040  64.838  1.00  0.00    -0.390 C  
ENDROOT
BRANCH   2   3
HETATM    3  O   UNL     1     -12.410  12.432  66.105  1.00  0.00    -0.606 OA 
BRANCH   3   4
HETATM    4  C   UNL     1     -11.349  12.996  66.747  1.00  0.00    -0.324 C  
HETATM    5  O   UNL     1     -10.897  14.102  66.455  1.00  0.00    -0.293 OA 
BRANCH   4   6
HETATM    6  C   UNL     1     -10.725  12.088  67.838  1.00  0.00    -0.243 C  
HETATM    7  C   UNL     1      -9.226  12.355  68.133  1.00  0.00    -0.205 C  
HETATM    8  C   UNL     1     -10.817  10.652  67.247  1.00  0.00    -0.345 C  
HETATM    9  C   UNL     1      -9.920  10.502  66.014  1.00  0.00    -0.237 C  
HETATM   10  C   UNL     1      -7.918   9.617  67.054  1.00  0.00    -0.109 C  
HETATM   11  C   UNL     1      -8.292  12.033  66.958  1.00  0.00    -0.178 C  
HETATM   12  N   UNL     1      -8.508  10.733  66.317  1.00  0.00    -0.156 NA 
BRANCH   6  13
HETATM   13  C   UNL     1     -11.538  12.282  69.141  1.00  0.00    -0.373 A  
HETATM   14  C   UNL     1     -12.532  13.691  70.870  1.00  0.00    -0.448 A  
HETATM   15  C   UNL     1     -11.877  13.549  69.642  1.00  0.00    -0.398 A  
HETATM   16  C   UNL     1     -12.580  11.303  71.130  1.00  0.00    -0.501 A  
HETATM   17  C   UNL     1     -12.866  12.571  71.622  1.00  0.00    -0.368 A  
HETATM   18  C   UNL     1     -11.936  11.161  69.898  1.00  0.00    -0.439 A  
ENDBRANCH   6  13
ENDBRANCH   4   6
ENDBRANCH   3   4
ENDBRANCH   2   3
TORSDOF 4
ENDMDL
MODEL       12
REMARK 921   NORMALIZED FREE ENERGY PREDICTED BY IDOCK:   -4.75 KCAL/MOL
REMARK 922        TOTAL FREE ENERGY PREDICTED BY IDOCK:   -6.78 KCAL/MOL
REMARK 923 INTER-LIGAND FREE ENERGY PREDICTED BY IDOCK:   -6.14 KCAL/MOL
REMARK 924 INTRA-LIGAND FREE ENERGY PREDICTED BY IDOCK:   -0.64 KCAL/MOL
REMARK 927      BINDING AFFINITY PREDICTED BY RF-SCORE:    0.00 PKD
ROOT
HETATM    1  C   UNL     1     -12.754  11.458  71.105  1.00  0.00    -0.479 C  
HETATM    2  C   UNL     1     -12.197  10.639  69.949  1.00  0.00    -0.275 C  
ENDROOT
BRANCH   2   3
HETATM    3  O   UNL     1     -12.141  11.415  68.736  1.00  0.00    -0.480 OA 
BRANCH   3   4
HETATM    4  C   UNL     1     -10.905  11.912  68.446  1.00  0.00    -0.228 C  
HETATM    5  O   UNL     1      -9.869  11.466  68.938  1.00  0.00    -0.191 OA 
BRANCH   4   6
HETATM    6  C   UNL     1     -10.932  13.131  67.488  1.00  0.00    -0.282 C  
HETATM    7  C   UNL     1      -9.621  13.958  67.447  1.00  0.00    -0.235 C  
HETATM    8  C   UNL     1     -12.032  14.062  68.074  1.00  0.00    -0.386 C  
HETATM    9  C   UNL     1     -11.619  14.613  69.443  1.00  0.00    -0.305 C  
HETATM   10  C   UNL     1     -10.627  16.718  68.767  1.00  0.00    -0.348 C  
HETATM   11  C   UNL     1      -9.290  14.669  68.766  1.00  0.00    -0.191 C  
HETATM   12  N   UNL     1     -10.395  15.411  69.380  1.00  0.00    -0.242 NA 
BRANCH   6  13
HETATM   13  C   UNL     1     -11.244  12.610  66.065  1.00  0.00    -0.345 A  
HETATM   14  C   UNL     1     -10.677  11.326  64.068  1.00  0.00    -0.444 A  
HETATM   15  C   UNL     1     -10.413  11.704  65.388  1.00  0.00    -0.324 A  
HETATM   16  C   UNL     1     -12.643  12.706  64.056  1.00  0.00    -0.429 A  
HETATM   17  C   UNL     1     -11.779  11.840  63.395  1.00  0.00    -0.423 A  
HETATM   18  C   UNL     1     -12.386  13.075  65.379  1.00  0.00    -0.538 A  
ENDBRANCH   6  13
ENDBRANCH   4   6
ENDBRANCH   3   4
ENDBRANCH   2   3
TORSDOF 4
ENDMDL
MODEL       13
REMARK 921   NORMALIZED FREE ENERGY PREDICTED BY IDOCK:   -4.73 KCAL/MOL
REMARK 922        TOTAL FREE ENERGY PREDICTED BY IDOCK:   -6.76 KCAL/MOL
REMARK 923 INTER-LIGAND FREE ENERGY PREDICTED BY IDOCK:   -6.31 KCAL/MOL
REMARK 924 INTRA-LIGAND FREE ENERGY PREDICTED BY IDOCK:   -0.45 KCAL/MOL
REMARK 927      BINDING AFFINITY PREDICTED BY RF-SCORE:    0.00 PKD
ROOT
HETATM    1  C   UNL     1      -6.683  14.803  69.704  1.00  0.00    -0.166 C  
HETATM    2  C   UNL     1      -8.014  15.486  69.426  1.00  0.00    -0.229 C  
ENDROOT
BRANCH   2   3
HETATM    3  O   UNL     1      -8.711  14.853  68.336  1.00  0.00    -0.159 OA 
BRANCH   3   4
HETATM    4  C   UNL     1      -8.780  15.606  67.202  1.00  0.00    -0.210 C  
HETATM    5  O   UNL     1      -7.792  15.902  66.531  1.00  0.00    -0.241 OA 
BRANCH   4   6
HETATM    6  C   UNL     1     -10.209  16.107  66.871  1.00  0.00    -0.283 C  
HETATM    7  C   UNL     1     -11.341  15.454  67.707  1.00  0.00    -0.308 C  
HETATM    8  C   UNL     1     -10.439  15.679  65.394  1.00  0.00    -0.435 C  
HETATM    9  C   UNL     1     -10.489  14.154  65.260  1.00  0.00    -0.384 C  
HETATM   10  C   UNL     1     -12.881  13.796  65.416  1.00  0.00    -0.410 C  
HETATM   11  C   UNL     1     -11.523  13.953  67.445  1.00  0.00    -0.348 C  
HETATM   12  N   UNL     1     -11.577  13.559  66.035  1.00  0.00    -0.326 NA 
BRANCH   6  13
HETATM   13  C   UNL     1     -10.239  17.639  67.092  1.00  0.00    -0.342 A  
HETATM   14  C   UNL     1     -10.272  19.934  66.262  1.00  0.00    -0.614 A  
HETATM   15  C   UNL     1     -10.341  18.556  66.034  1.00  0.00    -0.423 A  
HETATM   16  C   UNL     1     -10.042  19.542  68.621  1.00  0.00    -0.535 A  
HETATM   17  C   UNL     1     -10.103  20.427  67.551  1.00  0.00    -0.495 A  
HETATM   18  C   UNL     1     -10.123  18.166  68.395  1.00  0.00    -0.401 A  
ENDBRANCH   6  13
ENDBRANCH   4   6
ENDBRANCH   3   4
ENDBRANCH   2   3
TORSDOF 4
ENDMDL
MODEL       14
REMARK 921   NORMALIZED FREE ENERGY PREDICTED BY IDOCK:   -4.71 KCAL/MOL
REMARK 922        TOTAL FREE ENERGY PREDICTED BY IDOCK:   -6.73 KCAL/MOL
REMARK 923 INTER-LIGAND FREE ENERGY PREDICTED BY IDOCK:   -5.84 KCAL/MOL
REMARK 924 INTRA-LIGAND FREE ENERGY PREDICTED BY IDOCK:   -0.89 KCAL/MOL
REMARK 927      BINDING AFFINITY PREDICTED BY RF-SCORE:    0.00 PKD
ROOT
HETATM    1  C   UNL     1      -9.600  20.499  67.322  1.00  0.00    -0.580 C  
HETATM    2  C   UNL     1     -10.545  19.731  66.408  1.00  0.00    -0.464 C  
ENDROOT
BRANCH   2   3
HETATM    3  O   UNL     1     -10.862  18.436  66.952  1.00  0.00    -0.325 OA 
BRANCH   3   4
HETATM    4  C   UNL     1     -10.309  17.392  66.273  1.00  0.00    -0.330 C  
HETATM    5  O   UNL     1     -10.541  17.163  65.087  1.00  0.00    -0.695 OA 
BRANCH   4   6
HETATM    6  C   UNL     1      -9.410  16.483  67.150  1.00  0.00    -0.242 C  
HETATM    7  C   UNL     1      -9.103  15.088  66.546  1.00  0.00    -0.319 C  
HETATM    8  C   UNL     1     -10.245  16.239  68.440  1.00  0.00    -0.249 C  
HETATM    9  C   UNL     1     -11.503  15.418  68.138  1.00  0.00    -0.343 C  
HETATM   10  C   UNL     1     -10.677  13.191  68.617  1.00  0.00    -0.250 C  
HETATM   11  C   UNL     1     -10.335  14.183  66.407  1.00  0.00    -0.287 C  
HETATM   12  N   UNL     1     -11.193  14.097  67.593  1.00  0.00    -0.285 NA 
BRANCH   6  13
HETATM   13  C   UNL     1      -8.077  17.230  67.399  1.00  0.00    -0.205 A  
HETATM   14  C   UNL     1      -6.508  18.412  68.848  1.00  0.00    -0.247 A  
HETATM   15  C   UNL     1      -7.674  17.659  68.673  1.00  0.00    -0.281 A  
HETATM   16  C   UNL     1      -6.071  18.300  66.489  1.00  0.00    -0.199 A  
HETATM   17  C   UNL     1      -5.718  18.749  67.756  1.00  0.00    -0.185 A  
HETATM   18  C   UNL     1      -7.229  17.538  66.315  1.00  0.00    -0.351 A  
ENDBRANCH   6  13
ENDBRANCH   4   6
ENDBRANCH   3   4
ENDBRANCH   2   3
TORSDOF 4
ENDMDL
MODEL       15
REMARK 921   NORMALIZED FREE ENERGY PREDICTED BY IDOCK:   -4.66 KCAL/MOL
REMARK 922        TOTAL FREE ENERGY PREDICTED BY IDOCK:   -6.67 KCAL/MOL
REMARK 923 INTER-LIGAND FREE ENERGY PREDICTED BY IDOCK:   -6.13 KCAL/MOL
REMARK 924 INTRA-LIGAND FREE ENERGY PREDICTED BY IDOCK:   -0.54 KCAL/MOL
REMARK 927      BINDING AFFINITY PREDICTED BY RF-SCORE:    0.00 PKD
ROOT
HETATM    1  C   UNL     1     -12.142  14.075  64.396  1.00  0.00    -0.486 C  
HETATM    2  C   UNL     1     -12.380  12.636  64.832  1.00  0.00    -0.498 C  
ENDROOT
BRANCH   2   3
HETATM    3  O   UNL     1     -12.382  12.516  66.267  1.00  0.00    -0.570 OA 
BRANCH   3   4
HETATM    4  C   UNL     1     -11.248  11.967  66.785  1.00  0.00    -0.322 C  
HETATM    5  O   UNL     1     -10.598  11.096  66.208  1.00  0.00    -0.253 OA 
BRANCH   4   6
HETATM    6  C   UNL     1     -10.888  12.495  68.198  1.00  0.00    -0.248 C  
HETATM    7  C   UNL     1     -11.727  13.708  68.677  1.00  0.00    -0.389 C  
HETATM    8  C   UNL     1      -9.419  12.991  68.065  1.00  0.00    -0.217 C  
HETATM    9  C   UNL     1      -9.326  14.201  67.128  1.00  0.00    -0.237 C  
HETATM   10  C   UNL     1      -9.464  15.998  68.749  1.00  0.00    -0.227 C  
HETATM   11  C   UNL     1     -11.504  14.985  67.855  1.00  0.00    -0.340 C  
HETATM   12  N   UNL     1     -10.104  15.342  67.609  1.00  0.00    -0.234 NA 
BRANCH   6  13
HETATM   13  C   UNL     1     -11.067  11.330  69.201  1.00  0.00    -0.312 A  
HETATM   14  C   UNL     1     -12.357  10.109  70.875  1.00  0.00    -0.461 A  
HETATM   15  C   UNL     1     -12.261  11.115  69.908  1.00  0.00    -0.385 A  
HETATM   16  C   UNL     1     -10.087   9.457  70.439  1.00  0.00    -0.310 A  
HETATM   17  C   UNL     1     -11.267   9.293  71.154  1.00  0.00    -0.413 A  
HETATM   18  C   UNL     1      -9.993  10.455  69.465  1.00  0.00    -0.229 A  
ENDBRANCH   6  13
ENDBRANCH   4   6
ENDBRANCH   3   4
ENDBRANCH   2   3
TORSDOF 4
ENDMDL
MODEL       16
REMARK 921   NORMALIZED FREE ENERGY PREDICTED BY IDOCK:   -4.64 KCAL/MOL
REMARK 922        TOTAL FREE ENERGY PREDICTED BY IDOCK:   -6.65 KCAL/MOL
REMARK 923 INTER-LIGAND FREE ENERGY PREDICTED BY IDOCK:   -5.79 KCAL/MOL
REMARK 924 INTRA-LIGAND FREE ENERGY PREDICTED BY IDOCK:   -0.86 KCAL/MOL
REMARK 927      BINDING AFFINITY PREDICTED BY RF-SCORE:    0.00 PKD
ROOT
HETATM    1  C   UNL     1     -10.578  11.571  63.482  1.00  0.00    -0.487 C  
HETATM    2  C   UNL     1     -11.589  12.707  63.551  1.00  0.00    -0.514 C  
ENDROOT
BRANCH   2   3
HETATM    3  O   UNL     1     -11.105  13.790  64.368  1.00  0.00    -0.379 OA 
BRANCH   3   4
HETATM    4  C   UNL     1     -11.733  13.908  65.571  1.00  0.00    -0.349 C  
HETATM    5  O   UNL     1     -12.948  14.069  65.683  1.00  0.00    -0.608 OA 
BRANCH   4   6
HETATM    6  C   UNL     1     -10.767  13.884  66.784  1.00  0.00    -0.281 C  
HETATM    7  C   UNL     1     -11.353  14.463  68.098  1.00  0.00    -0.317 C  
HETATM    8  C   UNL     1      -9.595  14.818  66.366  1.00  0.00    -0.324 C  
HETATM    9  C   UNL     1     -10.065  16.271  66.233  1.00  0.00    -0.324 C  
HETATM   10  C   UNL     1      -9.526  17.091  68.449  1.00  0.00    -0.269 C  
HETATM   11  C   UNL     1     -11.659  15.965  68.037  1.00  0.00    -0.168 C  
HETATM   12  N   UNL     1     -10.591  16.806  67.488  1.00  0.00    -0.324 NA 
BRANCH   6  13
HETATM   13  C   UNL     1     -10.342  12.416  67.025  1.00  0.00    -0.235 A  
HETATM   14  C   UNL     1     -10.805  10.130  67.748  1.00  0.00    -0.346 A  
HETATM   15  C   UNL     1     -11.242  11.426  67.451  1.00  0.00    -0.370 A  
HETATM   16  C   UNL     1      -8.558  10.742  67.159  1.00  0.00    -0.128 A  
HETATM   17  C   UNL     1      -9.463   9.794  67.621  1.00  0.00    -0.164 A  
HETATM   18  C   UNL     1      -8.996  12.033  66.852  1.00  0.00    -0.199 A  
ENDBRANCH   6  13
ENDBRANCH   4   6
ENDBRANCH   3   4
ENDBRANCH   2   3
TORSDOF 4
ENDMDL
MODEL       17
REMARK 921   NORMALIZED FREE ENERGY PREDICTED BY IDOCK:   -4.62 KCAL/MOL
REMARK 922        TOTAL FREE ENERGY PREDICTED BY IDOCK:   -6.62 KCAL/MOL
REMARK 923 INTER-LIGAND FREE ENERGY PREDICTED BY IDOCK:   -6.15 KCAL/MOL
REMARK 924 INTRA-LIGAND FREE ENERGY PREDICTED BY IDOCK:   -0.48 KCAL/MOL
REMARK 927      BINDING AFFINITY PREDICTED BY RF-SCORE:    0.00 PKD
ROOT
HETATM    1  C   UNL     1     -10.275  11.146  63.221  1.00  0.00    -0.403 C  
HETATM    2  C   UNL     1     -11.437  12.006  63.699  1.00  0.00    -0.468 C  
ENDROOT
BRANCH   2   3
HETATM    3  O   UNL     1     -10.971  13.220  64.319  1.00  0.00    -0.378 OA 
BRANCH   3   4
HETATM    4  C   UNL     1     -11.713  13.624  65.388  1.00  0.00    -0.332 C  
HETATM    5  O   UNL     1     -12.927  13.817  65.329  1.00  0.00    -0.731 OA 
BRANCH   4   6
HETATM    6  C   UNL     1     -10.876  13.878  66.668  1.00  0.00    -0.289 C  
HETATM    7  C   UNL     1      -9.448  13.274  66.647  1.00  0.00    -0.262 C  
HETATM    8  C   UNL     1     -11.657  13.142  67.795  1.00  0.00    -0.379 C  
HETATM    9  C   UNL     1     -11.643  11.625  67.579  1.00  0.00    -0.272 C  
HETATM   10  C   UNL     1      -9.726  11.026  68.935  1.00  0.00    -0.172 C  
HETATM   11  C   UNL     1      -9.419  11.740  66.615  1.00  0.00    -0.205 C  
HETATM   12  N   UNL     1     -10.290  11.071  67.587  1.00  0.00    -0.184 NA 
BRANCH   6  13
HETATM   13  C   UNL     1     -10.774  15.408  66.873  1.00  0.00    -0.314 A  
HETATM   14  C   UNL     1     -10.217  17.654  66.094  1.00  0.00    -0.345 A  
HETATM   15  C   UNL     1     -10.388  16.287  65.849  1.00  0.00    -0.381 A  
HETATM   16  C   UNL     1     -10.855  17.332  68.387  1.00  0.00    -0.273 A  
HETATM   17  C   UNL     1     -10.431  18.173  67.365  1.00  0.00    -0.414 A  
HETATM   18  C   UNL     1     -11.037  15.969  68.140  1.00  0.00    -0.344 A  
ENDBRANCH   6  13
ENDBRANCH   4   6
ENDBRANCH   3   4
ENDBRANCH   2   3
TORSDOF 4
ENDMDL
MODEL       18
REMARK 921   NORMALIZED FREE ENERGY PREDICTED BY IDOCK:   -4.54 KCAL/MOL
REMARK 922        TOTAL FREE ENERGY PREDICTED BY IDOCK:   -6.53 KCAL/MOL
REMARK 923 INTER-LIGAND FREE ENERGY PREDICTED BY IDOCK:   -6.34 KCAL/MOL
REMARK 924 INTRA-LIGAND FREE ENERGY PREDICTED BY IDOCK:   -0.18 KCAL/MOL
REMARK 927      BINDING AFFINITY PREDICTED BY RF-SCORE:    0.00 PKD
ROOT
HETATM    1  C   UNL     1     -13.127  15.382  71.314  1.00  0.00    -0.564 C  
HETATM    2  C   UNL     1     -11.752  15.778  70.794  1.00  0.00    -0.399 C  
ENDROOT
BRANCH   2   3
HETATM    3  O   UNL     1     -11.320  14.901  69.736  1.00  0.00    -0.258 OA 
BRANCH   3   4
HETATM    4  C   UNL     1     -10.175  15.298  69.112  1.00  0.00    -0.242 C  
HETATM    5  O   UNL     1      -9.096  15.409  69.693  1.00  0.00    -0.263 OA 
BRANCH   4   6
HETATM    6  C   UNL     1     -10.372  15.657  67.616  1.00  0.00    -0.275 C  
HETATM    7  C   UNL     1     -11.696  15.148  66.990  1.00  0.00    -0.119 C  
HETATM    8  C   UNL     1      -9.216  14.917  66.884  1.00  0.00    -0.265 C  
HETATM    9  C   UNL     1      -9.385  13.396  66.976  1.00  0.00    -0.243 C  
HETATM   10  C   UNL     1     -10.561  12.978  64.898  1.00  0.00    -0.337 C  
HETATM   11  C   UNL     1     -11.800  13.619  66.908  1.00  0.00    -0.411 C  
HETATM   12  N   UNL     1     -10.628  12.933  66.358  1.00  0.00    -0.269 NA 
BRANCH   6  13
HETATM   13  C   UNL     1     -10.311  17.197  67.485  1.00  0.00    -0.341 A  
HETATM   14  C   UNL     1     -10.238  19.440  68.448  1.00  0.00    -0.516 A  
HETATM   15  C   UNL     1     -10.197  18.050  68.595  1.00  0.00    -0.385 A  
HETATM   16  C   UNL     1     -10.463  19.191  66.069  1.00  0.00    -0.546 A  
HETATM   17  C   UNL     1     -10.390  20.010  67.190  1.00  0.00    -0.554 A  
HETATM   18  C   UNL     1     -10.410  17.802  66.215  1.00  0.00    -0.358 A  
ENDBRANCH   6  13
ENDBRANCH   4   6
ENDBRANCH   3   4
ENDBRANCH   2   3
TORSDOF 4
ENDMDL
MODEL       19
REMARK 921   NORMALIZED FREE ENERGY PREDICTED BY IDOCK:   -4.51 KCAL/MOL
REMARK 922        TOTAL FREE ENERGY PREDICTED BY IDOCK:   -6.49 KCAL/MOL
REMARK 923 INTER-LIGAND FREE ENERGY PREDICTED BY IDOCK:   -6.24 KCAL/MOL
REMARK 924 INTRA-LIGAND FREE ENERGY PREDICTED BY IDOCK:   -0.25 KCAL/MOL
REMARK 927      BINDING AFFINITY PREDICTED BY RF-SCORE:    0.00 PKD
ROOT
HETATM    1  C   UNL     1     -12.380  12.895  64.912  1.00  0.00    -0.532 C  
HETATM    2  C   UNL     1     -11.948  14.221  64.300  1.00  0.00    -0.425 C  
ENDROOT
BRANCH   2   3
HETATM    3  O   UNL     1     -10.693  14.667  64.848  1.00  0.00    -0.402 OA 
BRANCH   3   4
HETATM    4  C   UNL     1     -10.707  15.951  65.305  1.00  0.00    -0.424 C  
HETATM    5  O   UNL     1     -11.057  16.907  64.616  1.00  0.00    -0.934 OA 
BRANCH   4   6
HETATM    6  C   UNL     1     -10.179  16.102  66.756  1.00  0.00    -0.281 C  
HETATM    7  C   UNL     1     -10.600  17.411  67.472  1.00  0.00    -0.330 C  
HETATM    8  C   UNL     1      -8.632  16.151  66.603  1.00  0.00    -0.311 C  
HETATM    9  C   UNL     1      -8.189  17.417  65.862  1.00  0.00     0.006 C  
HETATM   10  C   UNL     1      -7.745  18.874  67.747  1.00  0.00    -0.242 C  
HETATM   11  C   UNL     1     -10.011  18.682  66.845  1.00  0.00    -0.345 C  
HETATM   12  N   UNL     1      -8.573  18.641  66.565  1.00  0.00    -0.294 NA 
BRANCH   6  13
HETATM   13  C   UNL     1     -10.689  14.892  67.575  1.00  0.00    -0.276 A  
HETATM   14  C   UNL     1     -12.254  13.852  69.134  1.00  0.00    -0.305 A  
HETATM   15  C   UNL     1     -11.871  14.932  68.331  1.00  0.00    -0.309 A  
HETATM   16  C   UNL     1     -10.314  12.625  68.425  1.00  0.00    -0.241 A  
HETATM   17  C   UNL     1     -11.468  12.708  69.196  1.00  0.00    -0.359 A  
HETATM   18  C   UNL     1      -9.938  13.699  67.614  1.00  0.00    -0.239 A  
ENDBRANCH   6  13
ENDBRANCH   4   6
ENDBRANCH   3   4
ENDBRANCH   2   3
TORSDOF 4
ENDMDL
MODEL       20
REMARK 921   NORMALIZED FREE ENERGY PREDICTED BY IDOCK:   -4.51 KCAL/MOL
REMARK 922        TOTAL FREE ENERGY PREDICTED BY IDOCK:   -6.48 KCAL/MOL
REMARK 923 INTER-LIGAND FREE ENERGY PREDICTED BY IDOCK:   -5.88 KCAL/MOL
REMARK 924 INTRA-LIGAND FREE ENERGY PREDICTED BY IDOCK:   -0.60 KCAL/MOL
REMARK 927      BINDING AFFINITY PREDICTED BY RF-SCORE:    0.00 PKD
ROOT
HETATM    1  C   UNL     1      -9.333   9.949  69.554  1.00  0.00    -0.236 C  
HETATM    2  C   UNL     1      -8.612  11.058  68.800  1.00  0.00    -0.144 C  
ENDROOT
BRANCH   2   3
HETATM    3  O   UNL     1      -9.499  11.735  67.889  1.00  0.00    -0.178 OA 
BRANCH   3   4
HETATM    4  C   UNL     1      -9.557  13.085  68.063  1.00  0.00    -0.224 C  
HETATM    5  O   UNL     1      -8.596  13.757  68.439  1.00  0.00    -0.166 OA 
BRANCH   4   6
HETATM    6  C   UNL     1     -10.962  13.688  67.806  1.00  0.00    -0.276 C  
HETATM    7  C   UNL     1     -11.901  12.811  66.938  1.00  0.00    -0.440 C  
HETATM    8  C   UNL     1     -10.686  14.987  66.997  1.00  0.00    -0.304 C  
HETATM    9  C   UNL     1     -10.108  14.666  65.614  1.00  0.00    -0.363 C  
HETATM   10  C   UNL     1     -12.146  14.646  64.302  1.00  0.00    -0.415 C  
HETATM   11  C   UNL     1     -11.424  12.632  65.490  1.00  0.00    -0.340 C  
HETATM   12  N   UNL     1     -11.018  13.860  64.801  1.00  0.00    -0.381 NA 
BRANCH   6  13
HETATM   13  C   UNL     1     -11.631  13.936  69.180  1.00  0.00    -0.359 A  
HETATM   14  C   UNL     1     -12.712  13.150  71.223  1.00  0.00    -0.396 A  
HETATM   15  C   UNL     1     -12.027  12.892  70.031  1.00  0.00    -0.380 A  
HETATM   16  C   UNL     1     -12.596  15.510  70.790  1.00  0.00    -0.505 A  
HETATM   17  C   UNL     1     -13.014  14.455  71.593  1.00  0.00    -0.412 A  
HETATM   18  C   UNL     1     -11.902  15.253  69.605  1.00  0.00    -0.363 A  
ENDBRANCH   6  13
ENDBRANCH   4   6
ENDBRANCH   3   4
ENDBRANCH   2   3
TORSDOF 4
ENDMDL
MODEL       21
REMARK 921   NORMALIZED FREE ENERGY PREDICTED BY IDOCK:   -4.51 KCAL/MOL
REMARK 922        TOTAL FREE ENERGY PREDICTED BY IDOCK:   -6.48 KCAL/MOL
REMARK 923 INTER-LIGAND FREE ENERGY PREDICTED BY IDOCK:   -5.89 KCAL/MOL
REMARK 924 INTRA-LIGAND FREE ENERGY PREDICTED BY IDOCK:   -0.59 KCAL/MOL
REMARK 927      BINDING AFFINITY PREDICTED BY RF-SCORE:    0.00 PKD
ROOT
HETATM    1  C   UNL     1      -7.067  15.640  67.337  1.00  0.00    -0.241 C  
HETATM    2  C   UNL     1      -7.462  14.406  68.137  1.00  0.00    -0.128 C  
ENDROOT
BRANCH   2   3
HETATM    3  O   UNL     1      -8.817  14.504  68.617  1.00  0.00    -0.181 OA 
BRANCH   3   4
HETATM    4  C   UNL     1      -9.608  13.447  68.281  1.00  0.00    -0.220 C  
HETATM    5  O   UNL     1      -9.189  12.294  68.194  1.00  0.00    -0.189 OA 
BRANCH   4   6
HETATM    6  C   UNL     1     -11.072  13.842  67.956  1.00  0.00    -0.284 C  
HETATM    7  C   UNL     1     -11.872  12.784  67.151  1.00  0.00    -0.415 C  
HETATM    8  C   UNL     1     -10.944  15.096  67.045  1.00  0.00    -0.322 C  
HETATM    9  C   UNL     1     -10.298  14.740  65.701  1.00  0.00    -0.349 C  
HETATM   10  C   UNL     1     -12.285  14.352  64.369  1.00  0.00    -0.458 C  
HETATM   11  C   UNL     1     -11.342  12.550  65.730  1.00  0.00    -0.336 C  
HETATM   12  N   UNL     1     -11.078  13.761  64.946  1.00  0.00    -0.344 NA 
BRANCH   6  13
HETATM   13  C   UNL     1     -11.800  14.112  69.295  1.00  0.00    -0.381 A  
HETATM   14  C   UNL     1     -12.619  15.614  71.036  1.00  0.00    -0.515 A  
HETATM   15  C   UNL     1     -12.041  15.408  69.779  1.00  0.00    -0.373 A  
HETATM   16  C   UNL     1     -12.783  13.240  71.362  1.00  0.00    -0.401 A  
HETATM   17  C   UNL     1     -12.971  14.534  71.835  1.00  0.00    -0.415 A  
HETATM   18  C   UNL     1     -12.217  13.033  70.102  1.00  0.00    -0.342 A  
ENDBRANCH   6  13
ENDBRANCH   4   6
ENDBRANCH   3   4
ENDBRANCH   2   3
TORSDOF 4
ENDMDL
MODEL       22
REMARK 921   NORMALIZED FREE ENERGY PREDICTED BY IDOCK:   -4.50 KCAL/MOL
REMARK 922        TOTAL FREE ENERGY PREDICTED BY IDOCK:   -6.48 KCAL/MOL
REMARK 923 INTER-LIGAND FREE ENERGY PREDICTED BY IDOCK:   -6.02 KCAL/MOL
REMARK 924 INTRA-LIGAND FREE ENERGY PREDICTED BY IDOCK:   -0.45 KCAL/MOL
REMARK 927      BINDING AFFINITY PREDICTED BY RF-SCORE:    0.00 PKD
ROOT
HETATM    1  C   UNL     1     -12.260  14.136  64.449  1.00  0.00    -0.466 C  
HETATM    2  C   UNL     1     -12.470  12.745  65.030  1.00  0.00    -0.506 C  
ENDROOT
BRANCH   2   3
HETATM    3  O   UNL     1     -12.379  12.758  66.468  1.00  0.00    -0.476 OA 
BRANCH   3   4
HETATM    4  C   UNL     1     -11.327  12.052  66.969  1.00  0.00    -0.336 C  
HETATM    5  O   UNL     1     -10.892  11.029  66.443  1.00  0.00    -0.257 OA 
BRANCH   4   6
HETATM    6  C   UNL     1     -10.770  12.623  68.299  1.00  0.00    -0.248 C  
HETATM    7  C   UNL     1     -11.327  14.014  68.699  1.00  0.00    -0.307 C  
HETATM    8  C   UNL     1      -9.248  12.809  68.035  1.00  0.00    -0.208 C  
HETATM    9  C   UNL     1      -8.998  13.889  66.978  1.00  0.00    -0.240 C  
HETATM   10  C   UNL     1      -8.673  15.815  68.414  1.00  0.00    -0.177 C  
HETATM   11  C   UNL     1     -10.928  15.145  67.741  1.00  0.00    -0.306 C  
HETATM   12  N   UNL     1      -9.508  15.199  67.383  1.00  0.00    -0.202 NA 
BRANCH   6  13
HETATM   13  C   UNL     1     -11.091  11.609  69.423  1.00  0.00    -0.268 A  
HETATM   14  C   UNL     1     -10.726   9.492  70.584  1.00  0.00    -0.375 A  
HETATM   15  C   UNL     1     -10.351  10.432  69.618  1.00  0.00    -0.261 A  
HETATM   16  C   UNL     1     -12.570  10.885  71.237  1.00  0.00    -0.526 A  
HETATM   17  C   UNL     1     -11.844   9.709  71.380  1.00  0.00    -0.484 A  
HETATM   18  C   UNL     1     -12.190  11.830  70.280  1.00  0.00    -0.381 A  
ENDBRANCH   6  13
ENDBRANCH   4   6
ENDBRANCH   3   4
ENDBRANCH   2   3
TORSDOF 4
ENDMDL
MODEL       23
REMARK 921   NORMALIZED FREE ENERGY PREDICTED BY IDOCK:   -4.48 KCAL/MOL
REMARK 922        TOTAL FREE ENERGY PREDICTED BY IDOCK:   -6.45 KCAL/MOL
REMARK 923 INTER-LIGAND FREE ENERGY PREDICTED BY IDOCK:   -6.09 KCAL/MOL
REMARK 924 INTRA-LIGAND FREE ENERGY PREDICTED BY IDOCK:   -0.36 KCAL/MOL
REMARK 927      BINDING AFFINITY PREDICTED BY RF-SCORE:    0.00 PKD
ROOT
HETATM    1  C   UNL     1      -7.723  16.250  69.196  1.00  0.00    -0.229 C  
HETATM    2  C   UNL     1      -8.507  15.457  68.160  1.00  0.00    -0.147 C  
ENDROOT
BRANCH   2   3
HETATM    3  O   UNL     1      -9.674  14.845  68.741  1.00  0.00    -0.213 OA 
BRANCH   3   4
HETATM    4  C   UNL     1      -9.791  13.511  68.491  1.00  0.00    -0.189 C  
HETATM    5  O   UNL     1      -8.824  12.754  68.413  1.00  0.00    -0.179 OA 
BRANCH   4   6
HETATM    6  C   UNL     1     -11.250  13.046  68.250  1.00  0.00    -0.309 C  
HETATM    7  C   UNL     1     -11.392  11.712  67.472  1.00  0.00    -0.364 C  
HETATM    8  C   UNL     1     -11.869  14.156  67.353  1.00  0.00    -0.447 C  
HETATM    9  C   UNL     1     -11.205  14.186  65.972  1.00  0.00    -0.319 C  
HETATM   10  C   UNL     1     -12.734  12.765  64.741  1.00  0.00    -0.393 C  
HETATM   11  C   UNL     1     -10.896  11.780  66.021  1.00  0.00    -0.296 C  
HETATM   12  N   UNL     1     -11.371  12.929  65.244  1.00  0.00    -0.293 NA 
BRANCH   6  13
HETATM   13  C   UNL     1     -11.936  12.900  69.629  1.00  0.00    -0.358 A  
HETATM   14  C   UNL     1     -12.857  11.554  71.446  1.00  0.00    -0.489 A  
HETATM   15  C   UNL     1     -12.151  11.656  70.243  1.00  0.00    -0.443 A  
HETATM   16  C   UNL     1     -13.124  13.941  71.502  1.00  0.00    -0.441 A  
HETATM   17  C   UNL     1     -13.359  12.692  72.066  1.00  0.00    -0.555 A  
HETATM   18  C   UNL     1     -12.409  14.044  70.306  1.00  0.00    -0.425 A  
ENDBRANCH   6  13
ENDBRANCH   4   6
ENDBRANCH   3   4
ENDBRANCH   2   3
TORSDOF 4
ENDMDL
MODEL       24
REMARK 921   NORMALIZED FREE ENERGY PREDICTED BY IDOCK:   -4.47 KCAL/MOL
REMARK 922        TOTAL FREE ENERGY PREDICTED BY IDOCK:   -6.43 KCAL/MOL
REMARK 923 INTER-LIGAND FREE ENERGY PREDICTED BY IDOCK:   -6.06 KCAL/MOL
REMARK 924 INTRA-LIGAND FREE ENERGY PREDICTED BY IDOCK:   -0.37 KCAL/MOL
REMARK 927      BINDING AFFINITY PREDICTED BY RF-SCORE:    0.00 PKD
ROOT
HETATM    1  C   UNL     1     -12.505  14.535  70.794  1.00  0.00    -0.420 C  
HETATM    2  C   UNL     1     -11.676  15.811  70.836  1.00  0.00    -0.406 C  
ENDROOT
BRANCH   2   3
HETATM    3  O   UNL     1     -11.434  16.324  69.512  1.00  0.00    -0.308 OA 
BRANCH   3   4
HETATM    4  C   UNL     1     -10.195  16.042  69.019  1.00  0.00    -0.236 C  
HETATM    5  O   UNL     1      -9.301  15.537  69.697  1.00  0.00    -0.275 OA 
BRANCH   4   6
HETATM    6  C   UNL     1      -9.997  16.474  67.543  1.00  0.00    -0.255 C  
HETATM    7  C   UNL     1      -8.521  16.537  67.072  1.00  0.00    -0.225 C  
HETATM    8  C   UNL     1     -10.549  17.927  67.486  1.00  0.00    -0.386 C  
HETATM    9  C   UNL     1      -9.686  18.880  68.321  1.00  0.00    -0.361 C  
HETATM   10  C   UNL     1      -8.189  19.705  66.603  1.00  0.00    -0.317 C  
HETATM   11  C   UNL     1      -7.688  17.617  67.776  1.00  0.00    -0.208 C  
HETATM   12  N   UNL     1      -8.304  18.945  67.847  1.00  0.00    -0.275 NA 
BRANCH   6  13
HETATM   13  C   UNL     1     -10.770  15.475  66.648  1.00  0.00    -0.306 A  
HETATM   14  C   UNL     1     -11.804  14.834  64.531  1.00  0.00    -0.428 A  
HETATM   15  C   UNL     1     -11.024  15.714  65.288  1.00  0.00    -0.375 A  
HETATM   16  C   UNL     1     -12.073  13.411  66.448  1.00  0.00    -0.464 A  
HETATM   17  C   UNL     1     -12.344  13.694  65.114  1.00  0.00    -0.486 A  
HETATM   18  C   UNL     1     -11.284  14.284  67.201  1.00  0.00    -0.333 A  
ENDBRANCH   6  13
ENDBRANCH   4   6
ENDBRANCH   3   4
ENDBRANCH   2   3
TORSDOF 4
ENDMDL
MODEL       25
REMARK 921   NORMALIZED FREE ENERGY PREDICTED BY IDOCK:   -4.43 KCAL/MOL
REMARK 922        TOTAL FREE ENERGY PREDICTED BY IDOCK:   -6.39 KCAL/MOL
REMARK 923 INTER-LIGAND FREE ENERGY PREDICTED BY IDOCK:   -5.77 KCAL/MOL
REMARK 924 INTRA-LIGAND FREE ENERGY PREDICTED BY IDOCK:   -0.62 KCAL/MOL
REMARK 927      BINDING AFFINITY PREDICTED BY RF-SCORE:    0.00 PKD
ROOT
HETATM    1  C   UNL     1     -11.806  11.304  68.332  1.00  0.00    -0.331 C  
HETATM    2  C   UNL     1     -11.551  12.500  69.239  1.00  0.00    -0.319 C  
ENDROOT
BRANCH   2   3
HETATM    3  O   UNL     1     -10.555  13.378  68.679  1.00  0.00    -0.245 OA 
BRANCH   3   4
HETATM    4  C   UNL     1     -11.065  14.483  68.065  1.00  0.00    -0.276 C  
HETATM    5  O   UNL     1     -12.010  15.128  68.516  1.00  0.00    -0.304 OA 
BRANCH   4   6
HETATM    6  C   UNL     1     -10.384  14.814  66.712  1.00  0.00    -0.268 C  
HETATM    7  C   UNL     1      -8.844  14.631  66.692  1.00  0.00    -0.240 C  
HETATM    8  C   UNL     1     -10.658  16.331  66.500  1.00  0.00    -0.256 C  
HETATM    9  C   UNL     1      -9.933  17.177  67.552  1.00  0.00    -0.279 C  
HETATM   10  C   UNL     1      -7.893  17.688  66.348  1.00  0.00    -0.283 C  
HETATM   11  C   UNL     1      -8.088  15.601  67.610  1.00  0.00    -0.150 C  
HETATM   12  N   UNL     1      -8.481  17.009  67.502  1.00  0.00    -0.198 NA 
BRANCH   6  13
HETATM   13  C   UNL     1     -11.014  13.907  65.628  1.00  0.00    -0.290 A  
HETATM   14  C   UNL     1     -12.898  12.686  64.669  1.00  0.00    -0.361 A  
HETATM   15  C   UNL     1     -12.380  13.583  65.609  1.00  0.00    -0.522 A  
HETATM   16  C   UNL     1     -10.717  12.431  63.695  1.00  0.00    -0.497 A  
HETATM   17  C   UNL     1     -12.066  12.096  63.726  1.00  0.00    -0.620 A  
HETATM   18  C   UNL     1     -10.201  13.336  64.626  1.00  0.00    -0.334 A  
ENDBRANCH   6  13
ENDBRANCH   4   6
ENDBRANCH   3   4
ENDBRANCH   2   3
TORSDOF 4
ENDMDL
MODEL       26
REMARK 921   NORMALIZED FREE ENERGY PREDICTED BY IDOCK:   -4.43 KCAL/MOL
REMARK 922        TOTAL FREE ENERGY PREDICTED BY IDOCK:   -6.38 KCAL/MOL
REMARK 923 INTER-LIGAND FREE ENERGY PREDICTED BY IDOCK:   -5.83 KCAL/MOL
REMARK 924 INTRA-LIGAND FREE ENERGY PREDICTED BY IDOCK:   -0.55 KCAL/MOL
REMARK 927      BINDING AFFINITY PREDICTED BY RF-SCORE:    0.00 PKD
ROOT
HETATM    1  C   UNL     1      -9.995  19.874  68.414  1.00  0.00    -0.531 C  
HETATM    2  C   UNL     1     -10.706  19.270  67.210  1.00  0.00    -0.488 C  
ENDROOT
BRANCH   2   3
HETATM    3  O   UNL     1     -10.821  17.839  67.333  1.00  0.00    -0.318 OA 
BRANCH   3   4
HETATM    4  C   UNL     1     -10.526  17.154  66.193  1.00  0.00    -0.275 C  
HETATM    5  O   UNL     1     -10.864  17.534  65.073  1.00  0.00    -0.727 OA 
BRANCH   4   6
HETATM    6  C   UNL     1      -9.778  15.818  66.443  1.00  0.00    -0.305 C  
HETATM    7  C   UNL     1      -9.876  14.788  65.289  1.00  0.00    -0.235 C  
HETATM    8  C   UNL     1     -10.504  15.191  67.667  1.00  0.00    -0.253 C  
HETATM    9  C   UNL     1     -11.946  14.805  67.318  1.00  0.00    -0.211 C  
HETATM   10  C   UNL     1     -11.623  12.483  66.704  1.00  0.00    -0.380 C  
HETATM   11  C   UNL     1     -11.294  14.253  65.047  1.00  0.00    -0.365 C  
HETATM   12  N   UNL     1     -12.017  13.814  66.245  1.00  0.00    -0.403 NA 
BRANCH   6  13
HETATM   13  C   UNL     1      -8.288  16.148  66.701  1.00  0.00    -0.321 A  
HETATM   14  C   UNL     1      -6.270  17.458  66.288  1.00  0.00    -0.241 A  
HETATM   15  C   UNL     1      -7.640  17.243  66.107  1.00  0.00    -0.318 A  
HETATM   16  C   UNL     1      -6.143  15.521  67.703  1.00  0.00    -0.158 A  
HETATM   17  C   UNL     1      -5.518  16.589  67.069  1.00  0.00    -0.087 A  
HETATM   18  C   UNL     1      -7.514  15.312  67.532  1.00  0.00    -0.216 A  
ENDBRANCH   6  13
ENDBRANCH   4   6
ENDBRANCH   3   4
ENDBRANCH   2   3
TORSDOF 4
ENDMDL
MODEL       27
REMARK 921   NORMALIZED FREE ENERGY PREDICTED BY IDOCK:   -4.43 KCAL/MOL
REMARK 922        TOTAL FREE ENERGY PREDICTED BY IDOCK:   -6.38 KCAL/MOL
REMARK 923 INTER-LIGAND FREE ENERGY PREDICTED BY IDOCK:   -5.83 KCAL/MOL
REMARK 924 INTRA-LIGAND FREE ENERGY PREDICTED BY IDOCK:   -0.55 KCAL/MOL
REMARK 927      BINDING AFFINITY PREDICTED BY RF-SCORE:    0.00 PKD
ROOT
HETATM    1  C   UNL     1     -12.712  15.375  70.598  1.00  0.00    -0.490 C  
HETATM    2  C   UNL     1     -12.032  14.099  70.121  1.00  0.00    -0.332 C  
ENDROOT
BRANCH   2   3
HETATM    3  O   UNL     1     -12.082  13.984  68.686  1.00  0.00    -0.351 OA 
BRANCH   3   4
HETATM    4  C   UNL     1     -10.882  13.705  68.104  1.00  0.00    -0.246 C  
HETATM    5  O   UNL     1     -10.008  13.036  68.654  1.00  0.00    -0.202 OA 
BRANCH   4   6
HETATM    6  C   UNL     1     -10.696  14.361  66.712  1.00  0.00    -0.292 C  
HETATM    7  C   UNL     1     -12.010  14.628  65.933  1.00  0.00    -0.242 C  
HETATM    8  C   UNL     1      -9.893  13.311  65.891  1.00  0.00    -0.241 C  
HETATM    9  C   UNL     1     -10.723  12.045  65.650  1.00  0.00    -0.272 C  
HETATM   10  C   UNL     1     -11.668  12.569  63.481  1.00  0.00    -0.518 C  
HETATM   11  C   UNL     1     -12.762  13.354  65.524  1.00  0.00    -0.410 C  
HETATM   12  N   UNL     1     -11.946  12.313  64.893  1.00  0.00    -0.377 NA 
BRANCH   6  13
HETATM   13  C   UNL     1      -9.948  15.701  66.914  1.00  0.00    -0.252 A  
HETATM   14  C   UNL     1      -9.827  17.998  67.734  1.00  0.00    -0.306 A  
HETATM   15  C   UNL     1     -10.489  16.768  67.649  1.00  0.00    -0.328 A  
HETATM   16  C   UNL     1      -8.031  17.134  66.393  1.00  0.00    -0.346 A  
HETATM   17  C   UNL     1      -8.610  18.187  67.092  1.00  0.00    -0.250 A  
HETATM   18  C   UNL     1      -8.687  15.903  66.317  1.00  0.00    -0.372 A  
ENDBRANCH   6  13
ENDBRANCH   4   6
ENDBRANCH   3   4
ENDBRANCH   2   3
TORSDOF 4
ENDMDL
MODEL       28
REMARK 921   NORMALIZED FREE ENERGY PREDICTED BY IDOCK:   -4.42 KCAL/MOL
REMARK 922        TOTAL FREE ENERGY PREDICTED BY IDOCK:   -6.38 KCAL/MOL
REMARK 923 INTER-LIGAND FREE ENERGY PREDICTED BY IDOCK:   -5.54 KCAL/MOL
REMARK 924 INTRA-LIGAND FREE ENERGY PREDICTED BY IDOCK:   -0.84 KCAL/MOL
REMARK 927      BINDING AFFINITY PREDICTED BY RF-SCORE:    0.00 PKD
ROOT
HETATM    1  C   UNL     1     -11.327  14.550  69.466  1.00  0.00    -0.313 C  
HETATM    2  C   UNL     1     -12.132  13.596  68.594  1.00  0.00    -0.290 C  
ENDROOT
BRANCH   2   3
HETATM    3  O   UNL     1     -11.270  12.763  67.795  1.00  0.00    -0.247 OA 
BRANCH   3   4
HETATM    4  C   UNL     1     -11.537  12.799  66.460  1.00  0.00    -0.376 C  
HETATM    5  O   UNL     1     -12.650  12.565  65.989  1.00  0.00    -0.456 OA 
BRANCH   4   6
HETATM    6  C   UNL     1     -10.294  13.101  65.583  1.00  0.00    -0.291 C  
HETATM    7  C   UNL     1     -10.517  12.942  64.056  1.00  0.00    -0.395 C  
HETATM    8  C   UNL     1      -9.254  12.023  65.999  1.00  0.00    -0.152 C  
HETATM    9  C   UNL     1      -9.719  10.619  65.597  1.00  0.00    -0.230 C  
HETATM   10  C   UNL     1      -8.620  10.412  63.447  1.00  0.00    -0.189 C  
HETATM   11  C   UNL     1     -10.805  11.501  63.615  1.00  0.00    -0.415 C  
HETATM   12  N   UNL     1      -9.899  10.482  64.152  1.00  0.00    -0.329 NA 
BRANCH   6  13
HETATM   13  C   UNL     1      -9.845  14.552  65.879  1.00  0.00    -0.347 A  
HETATM   14  C   UNL     1      -8.394  16.175  66.984  1.00  0.00    -0.247 A  
HETATM   15  C   UNL     1      -8.718  14.854  66.660  1.00  0.00    -0.262 A  
HETATM   16  C   UNL     1     -10.282  16.957  65.722  1.00  0.00    -0.287 A  
HETATM   17  C   UNL     1      -9.185  17.225  66.533  1.00  0.00    -0.282 A  
HETATM   18  C   UNL     1     -10.600  15.638  65.389  1.00  0.00    -0.436 A  
ENDBRANCH   6  13
ENDBRANCH   4   6
ENDBRANCH   3   4
ENDBRANCH   2   3
TORSDOF 4
ENDMDL
MODEL       29
REMARK 921   NORMALIZED FREE ENERGY PREDICTED BY IDOCK:   -4.41 KCAL/MOL
REMARK 922        TOTAL FREE ENERGY PREDICTED BY IDOCK:   -6.37 KCAL/MOL
REMARK 923 INTER-LIGAND FREE ENERGY PREDICTED BY IDOCK:   -6.00 KCAL/MOL
REMARK 924 INTRA-LIGAND FREE ENERGY PREDICTED BY IDOCK:   -0.37 KCAL/MOL
REMARK 927      BINDING AFFINITY PREDICTED BY RF-SCORE:    0.00 PKD
ROOT
HETATM    1  C   UNL     1     -10.592  17.331  68.425  1.00  0.00    -0.368 C  
HETATM    2  C   UNL     1     -10.494  16.406  67.219  1.00  0.00    -0.303 C  
ENDROOT
BRANCH   2   3
HETATM    3  O   UNL     1     -10.895  15.063  67.555  1.00  0.00    -0.281 OA 
BRANCH   3   4
HETATM    4  C   UNL     1     -10.147  14.091  66.962  1.00  0.00    -0.255 C  
HETATM    5  O   UNL     1      -8.973  14.252  66.632  1.00  0.00    -0.245 OA 
BRANCH   4   6
HETATM    6  C   UNL     1     -10.932  12.783  66.683  1.00  0.00    -0.300 C  
HETATM    7  C   UNL     1     -10.364  11.911  65.533  1.00  0.00    -0.303 C  
HETATM    8  C   UNL     1     -12.340  13.264  66.228  1.00  0.00    -0.382 C  
HETATM    9  C   UNL     1     -12.266  14.003  64.887  1.00  0.00    -0.437 C  
HETATM   10  C   UNL     1     -12.737  12.170  63.372  1.00  0.00    -0.381 C  
HETATM   11  C   UNL     1     -10.452  12.570  64.149  1.00  0.00    -0.403 C  
HETATM   12  N   UNL     1     -11.751  13.157  63.810  1.00  0.00    -0.457 NA 
BRANCH   6  13
HETATM   13  C   UNL     1     -10.947  11.950  67.987  1.00  0.00    -0.271 A  
HETATM   14  C   UNL     1     -10.232  10.044  69.334  1.00  0.00    -0.239 A  
HETATM   15  C   UNL     1     -10.127  10.827  68.180  1.00  0.00    -0.183 A  
HETATM   16  C   UNL     1     -11.949  11.497  70.176  1.00  0.00    -0.452 A  
HETATM   17  C   UNL     1     -11.154  10.366  70.322  1.00  0.00    -0.379 A  
HETATM   18  C   UNL     1     -11.837  12.286  69.029  1.00  0.00    -0.358 A  
ENDBRANCH   6  13
ENDBRANCH   4   6
ENDBRANCH   3   4
ENDBRANCH   2   3
TORSDOF 4
ENDMDL
MODEL       30
REMARK 921   NORMALIZED FREE ENERGY PREDICTED BY IDOCK:   -4.40 KCAL/MOL
REMARK 922        TOTAL FREE ENERGY PREDICTED BY IDOCK:   -6.35 KCAL/MOL
REMARK 923 INTER-LIGAND FREE ENERGY PREDICTED BY IDOCK:   -5.60 KCAL/MOL
REMARK 924 INTRA-LIGAND FREE ENERGY PREDICTED BY IDOCK:   -0.74 KCAL/MOL
REMARK 927      BINDING AFFINITY PREDICTED BY RF-SCORE:    0.00 PKD
ROOT
HETATM    1  C   UNL     1     -10.422  10.048  67.089  1.00  0.00    -0.305 C  
HETATM    2  C   UNL     1     -10.887  10.699  68.384  1.00  0.00    -0.237 C  
ENDROOT
BRANCH   2   3
HETATM    3  O   UNL     1     -10.271  11.988  68.574  1.00  0.00    -0.215 OA 
BRANCH   3   4
HETATM    4  C   UNL     1     -11.132  13.039  68.481  1.00  0.00    -0.266 C  
HETATM    5  O   UNL     1     -12.146  13.141  69.170  1.00  0.00    -0.294 OA 
BRANCH   4   6
HETATM    6  C   UNL     1     -10.749  14.064  67.382  1.00  0.00    -0.285 C  
HETATM    7  C   UNL     1      -9.240  14.417  67.313  1.00  0.00    -0.214 C  
HETATM    8  C   UNL     1     -11.497  15.367  67.788  1.00  0.00    -0.284 C  
HETATM    9  C   UNL     1     -10.946  15.935  69.101  1.00  0.00    -0.284 C  
HETATM   10  C   UNL     1      -9.317  17.504  68.229  1.00  0.00    -0.281 C  
HETATM   11  C   UNL     1      -8.715  15.154  68.553  1.00  0.00    -0.172 C  
HETATM   12  N   UNL     1      -9.529  16.285  69.009  1.00  0.00    -0.250 NA 
BRANCH   6  13
HETATM   13  C   UNL     1     -11.194  13.486  66.017  1.00  0.00    -0.305 A  
HETATM   14  C   UNL     1     -12.907  12.687  64.472  1.00  0.00    -0.356 A  
HETATM   15  C   UNL     1     -12.543  13.297  65.676  1.00  0.00    -0.469 A  
HETATM   16  C   UNL     1     -10.591  12.469  63.872  1.00  0.00    -0.472 A  
HETATM   17  C   UNL     1     -11.933  12.255  63.579  1.00  0.00    -0.625 A  
HETATM   18  C   UNL     1     -10.227  13.089  65.070  1.00  0.00    -0.287 A  
ENDBRANCH   6  13
ENDBRANCH   4   6
ENDBRANCH   3   4
ENDBRANCH   2   3
TORSDOF 4
ENDMDL
MODEL       31
REMARK 921   NORMALIZED FREE ENERGY PREDICTED BY IDOCK:   -4.39 KCAL/MOL
REMARK 922        TOTAL FREE ENERGY PREDICTED BY IDOCK:   -6.34 KCAL/MOL
REMARK 923 INTER-LIGAND FREE ENERGY PREDICTED BY IDOCK:   -5.74 KCAL/MOL
REMARK 924 INTRA-LIGAND FREE ENERGY PREDICTED BY IDOCK:   -0.60 KCAL/MOL
REMARK 927      BINDING AFFINITY PREDICTED BY RF-SCORE:    0.00 PKD
ROOT
HETATM    1  C   UNL     1     -10.071  11.248  63.344  1.00  0.00    -0.445 C  
HETATM    2  C   UNL     1     -10.740  12.561  63.723  1.00  0.00    -0.445 C  
ENDROOT
BRANCH   2   3
HETATM    3  O   UNL     1     -10.384  12.964  65.060  1.00  0.00    -0.304 OA 
BRANCH   3   4
HETATM    4  C   UNL     1     -11.287  12.602  66.014  1.00  0.00    -0.327 C  
HETATM    5  O   UNL     1     -12.495  12.518  65.799  1.00  0.00    -0.626 OA 
BRANCH   4   6
HETATM    6  C   UNL     1     -10.658  12.366  67.411  1.00  0.00    -0.237 C  
HETATM    7  C   UNL     1      -9.108  12.395  67.444  1.00  0.00    -0.183 C  
HETATM    8  C   UNL     1     -11.088  10.921  67.792  1.00  0.00    -0.371 C  
HETATM    9  C   UNL     1     -10.443   9.888  66.862  1.00  0.00    -0.215 C  
HETATM   10  C   UNL     1      -8.479   9.320  68.164  1.00  0.00    -0.121 C  
HETATM   11  C   UNL     1      -8.446  11.251  66.663  1.00  0.00    -0.168 C  
HETATM   12  N   UNL     1      -8.982   9.913  66.926  1.00  0.00    -0.138 NA 
BRANCH   6  13
HETATM   13  C   UNL     1     -11.202  13.455  68.367  1.00  0.00    -0.311 A  
HETATM   14  C   UNL     1     -12.425  14.154  70.361  1.00  0.00    -0.424 A  
HETATM   15  C   UNL     1     -11.864  13.149  69.567  1.00  0.00    -0.383 A  
HETATM   16  C   UNL     1     -11.647  15.821  68.816  1.00  0.00    -0.401 A  
HETATM   17  C   UNL     1     -12.334  15.487  69.978  1.00  0.00    -0.345 A  
HETATM   18  C   UNL     1     -11.077  14.818  68.029  1.00  0.00    -0.294 A  
ENDBRANCH   6  13
ENDBRANCH   4   6
ENDBRANCH   3   4
ENDBRANCH   2   3
TORSDOF 4
ENDMDL
MODEL       32
REMARK 921   NORMALIZED FREE ENERGY PREDICTED BY IDOCK:   -4.37 KCAL/MOL
REMARK 922        TOTAL FREE ENERGY PREDICTED BY IDOCK:   -6.31 KCAL/MOL
REMARK 923 INTER-LIGAND FREE ENERGY PREDICTED BY IDOCK:   -5.73 KCAL/MOL
REMARK 924 INTRA-LIGAND FREE ENERGY PREDICTED BY IDOCK:   -0.58 KCAL/MOL
REMARK 927      BINDING AFFINITY PREDICTED BY RF-SCORE:    0.00 PKD
ROOT
HETATM    1  C   UNL     1      -9.998  19.914  66.099  1.00  0.00    -0.593 C  
HETATM    2  C   UNL     1     -10.571  19.106  67.255  1.00  0.00    -0.478 C  
ENDROOT
BRANCH   2   3
HETATM    3  O   UNL     1     -10.767  17.727  66.885  1.00  0.00    -0.284 OA 
BRANCH   3   4
HETATM    4  C   UNL     1     -10.406  16.832  67.846  1.00  0.00    -0.319 C  
HETATM    5  O   UNL     1     -10.657  16.989  69.040  1.00  0.00    -0.325 OA 
BRANCH   4   6
HETATM    6  C   UNL     1      -9.594  15.627  67.303  1.00  0.00    -0.220 C  
HETATM    7  C   UNL     1      -8.888  14.773  68.388  1.00  0.00    -0.181 C  
HETATM    8  C   UNL     1      -8.473  16.272  66.439  1.00  0.00    -0.365 C  
HETATM    9  C   UNL     1      -7.499  17.078  67.306  1.00  0.00    -0.163 C  
HETATM   10  C   UNL     1      -5.802  15.394  67.706  1.00  0.00    -0.130 C  
HETATM   11  C   UNL     1      -7.778  15.518  69.143  1.00  0.00    -0.210 C  
HETATM   12  N   UNL     1      -6.824  16.251  68.306  1.00  0.00    -0.128 NA 
BRANCH   6  13
HETATM   13  C   UNL     1     -10.562  14.724  66.502  1.00  0.00    -0.299 A  
HETATM   14  C   UNL     1     -12.395  13.117  66.366  1.00  0.00    -0.300 A  
HETATM   15  C   UNL     1     -11.597  13.995  67.108  1.00  0.00    -0.397 A  
HETATM   16  C   UNL     1     -11.189  13.693  64.370  1.00  0.00    -0.382 A  
HETATM   17  C   UNL     1     -12.180  12.951  65.004  1.00  0.00    -0.515 A  
HETATM   18  C   UNL     1     -10.400  14.578  65.108  1.00  0.00    -0.438 A  
ENDBRANCH   6  13
ENDBRANCH   4   6
ENDBRANCH   3   4
ENDBRANCH   2   3
TORSDOF 4
ENDMDL
MODEL       33
REMARK 921   NORMALIZED FREE ENERGY PREDICTED BY IDOCK:   -4.36 KCAL/MOL
REMARK 922        TOTAL FREE ENERGY PREDICTED BY IDOCK:   -6.31 KCAL/MOL
REMARK 923 INTER-LIGAND FREE ENERGY PREDICTED BY IDOCK:   -5.74 KCAL/MOL
REMARK 924 INTRA-LIGAND FREE ENERGY PREDICTED BY IDOCK:   -0.56 KCAL/MOL
REMARK 927      BINDING AFFINITY PREDICTED BY RF-SCORE:    0.00 PKD
ROOT
HETATM    1  C   UNL     1      -8.122  11.065  66.577  1.00  0.00    -0.161 C  
HETATM    2  C   UNL     1      -8.030  11.688  67.963  1.00  0.00    -0.132 C  
ENDROOT
BRANCH   2   3
HETATM    3  O   UNL     1      -9.287  12.268  68.362  1.00  0.00    -0.203 OA 
BRANCH   3   4
HETATM    4  C   UNL     1      -9.387  13.606  68.127  1.00  0.00    -0.212 C  
HETATM    5  O   UNL     1      -8.423  14.369  68.166  1.00  0.00    -0.145 OA 
BRANCH   4   6
HETATM    6  C   UNL     1     -10.838  14.088  67.869  1.00  0.00    -0.255 C  
HETATM    7  C   UNL     1     -11.745  13.066  67.135  1.00  0.00    -0.439 C  
HETATM    8  C   UNL     1     -10.678  15.309  66.919  1.00  0.00    -0.313 C  
HETATM    9  C   UNL     1     -10.129  14.882  65.554  1.00  0.00    -0.370 C  
HETATM   10  C   UNL     1     -12.205  14.594  64.337  1.00  0.00    -0.452 C  
HETATM   11  C   UNL     1     -11.308  12.766  65.695  1.00  0.00    -0.319 C  
HETATM   12  N   UNL     1     -11.010  13.938  64.867  1.00  0.00    -0.364 NA 
BRANCH   6  13
HETATM   13  C   UNL     1     -11.474  14.436  69.236  1.00  0.00    -0.323 A  
HETATM   14  C   UNL     1     -11.878  15.964  71.097  1.00  0.00    -0.483 A  
HETATM   15  C   UNL     1     -11.371  15.709  69.819  1.00  0.00    -0.327 A  
HETATM   16  C   UNL     1     -12.655  13.696  71.250  1.00  0.00    -0.435 A  
HETATM   17  C   UNL     1     -12.502  14.954  71.820  1.00  0.00    -0.405 A  
HETATM   18  C   UNL     1     -12.159  13.445  69.968  1.00  0.00    -0.404 A  
ENDBRANCH   6  13
ENDBRANCH   4   6
ENDBRANCH   3   4
ENDBRANCH   2   3
TORSDOF 4
ENDMDL
MODEL       34
REMARK 921   NORMALIZED FREE ENERGY PREDICTED BY IDOCK:   -4.36 KCAL/MOL
REMARK 922        TOTAL FREE ENERGY PREDICTED BY IDOCK:   -6.30 KCAL/MOL
REMARK 923 INTER-LIGAND FREE ENERGY PREDICTED BY IDOCK:   -5.84 KCAL/MOL
REMARK 924 INTRA-LIGAND FREE ENERGY PREDICTED BY IDOCK:   -0.46 KCAL/MOL
REMARK 927      BINDING AFFINITY PREDICTED BY RF-SCORE:    0.00 PKD
ROOT
HETATM    1  C   UNL     1      -6.718  14.293  68.737  1.00  0.00    -0.095 C  
HETATM    2  C   UNL     1      -7.634  15.506  68.825  1.00  0.00    -0.152 C  
ENDROOT
BRANCH   2   3
HETATM    3  O   UNL     1      -8.770  15.244  69.672  1.00  0.00    -0.235 OA 
BRANCH   3   4
HETATM    4  C   UNL     1      -9.881  15.968  69.358  1.00  0.00    -0.254 C  
HETATM    5  O   UNL     1      -9.867  17.188  69.201  1.00  0.00    -0.258 OA 
BRANCH   4   6
HETATM    6  C   UNL     1     -11.176  15.119  69.278  1.00  0.00    -0.287 C  
HETATM    7  C   UNL     1     -10.950  13.600  69.064  1.00  0.00    -0.271 C  
HETATM    8  C   UNL     1     -11.908  15.647  68.011  1.00  0.00    -0.032 C  
HETATM    9  C   UNL     1     -11.117  15.324  66.739  1.00  0.00    -0.278 C  
HETATM   10  C   UNL     1     -12.171  13.235  66.106  1.00  0.00    -0.405 C  
HETATM   11  C   UNL     1     -10.322  13.247  67.708  1.00  0.00    -0.233 C  
HETATM   12  N   UNL     1     -10.936  13.886  66.541  1.00  0.00    -0.298 NA 
BRANCH   6  13
HETATM   13  C   UNL     1     -11.965  15.331  70.592  1.00  0.00    -0.386 A  
HETATM   14  C   UNL     1     -12.076  15.682  73.005  1.00  0.00    -0.590 A  
HETATM   15  C   UNL     1     -11.338  15.587  71.821  1.00  0.00    -0.463 A  
HETATM   16  C   UNL     1     -14.109  15.318  71.778  1.00  0.00    -0.654 A  
HETATM   17  C   UNL     1     -13.457  15.529  72.987  1.00  0.00    -0.632 A  
HETATM   18  C   UNL     1     -13.372  15.234  70.593  1.00  0.00    -0.320 A  
ENDBRANCH   6  13
ENDBRANCH   4   6
ENDBRANCH   3   4
ENDBRANCH   2   3
TORSDOF 4
ENDMDL
MODEL       35
REMARK 921   NORMALIZED FREE ENERGY PREDICTED BY IDOCK:   -4.36 KCAL/MOL
REMARK 922        TOTAL FREE ENERGY PREDICTED BY IDOCK:   -6.30 KCAL/MOL
REMARK 923 INTER-LIGAND FREE ENERGY PREDICTED BY IDOCK:   -6.06 KCAL/MOL
REMARK 924 INTRA-LIGAND FREE ENERGY PREDICTED BY IDOCK:   -0.24 KCAL/MOL
REMARK 927      BINDING AFFINITY PREDICTED BY RF-SCORE:    0.00 PKD
ROOT
HETATM    1  C   UNL     1      -9.881   8.418  66.472  1.00  0.00    -0.338 C  
HETATM    2  C   UNL     1     -10.495   9.235  67.601  1.00  0.00    -0.264 C  
ENDROOT
BRANCH   2   3
HETATM    3  O   UNL     1     -10.715  10.601  67.199  1.00  0.00    -0.252 OA 
BRANCH   3   4
HETATM    4  C   UNL     1     -10.145  11.525  68.021  1.00  0.00    -0.186 C  
HETATM    5  O   UNL     1      -9.076  11.341  68.601  1.00  0.00    -0.172 OA 
BRANCH   4   6
HETATM    6  C   UNL     1     -11.000  12.806  68.209  1.00  0.00    -0.278 C  
HETATM    7  C   UNL     1     -11.965  13.125  67.038  1.00  0.00    -0.412 C  
HETATM    8  C   UNL     1      -9.961  13.962  68.263  1.00  0.00    -0.238 C  
HETATM    9  C   UNL     1      -9.247  14.128  66.917  1.00  0.00    -0.257 C  
HETATM   10  C   UNL     1     -10.641  15.835  65.909  1.00  0.00    -0.339 C  
HETATM   11  C   UNL     1     -11.255  13.474  65.722  1.00  0.00    -0.297 C  
HETATM   12  N   UNL     1     -10.169  14.454  65.830  1.00  0.00    -0.320 NA 
BRANCH   6  13
HETATM   13  C   UNL     1     -11.823  12.642  69.509  1.00  0.00    -0.376 A  
HETATM   14  C   UNL     1     -12.924  13.549  71.490  1.00  0.00    -0.440 A  
HETATM   15  C   UNL     1     -12.263  13.735  70.272  1.00  0.00    -0.429 A  
HETATM   16  C   UNL     1     -12.777  11.167  71.216  1.00  0.00    -0.531 A  
HETATM   17  C   UNL     1     -13.164  12.268  71.972  1.00  0.00    -0.508 A  
HETATM   18  C   UNL     1     -12.127  11.352  69.994  1.00  0.00    -0.417 A  
ENDBRANCH   6  13
ENDBRANCH   4   6
ENDBRANCH   3   4
ENDBRANCH   2   3
TORSDOF 4
ENDMDL
MODEL       36
REMARK 921   NORMALIZED FREE ENERGY PREDICTED BY IDOCK:   -4.34 KCAL/MOL
REMARK 922        TOTAL FREE ENERGY PREDICTED BY IDOCK:   -6.28 KCAL/MOL
REMARK 923 INTER-LIGAND FREE ENERGY PREDICTED BY IDOCK:   -5.65 KCAL/MOL
REMARK 924 INTRA-LIGAND FREE ENERGY PREDICTED BY IDOCK:   -0.63 KCAL/MOL
REMARK 927      BINDING AFFINITY PREDICTED BY RF-SCORE:    0.00 PKD
ROOT
HETATM    1  C   UNL     1     -11.652  15.804  68.702  1.00  0.00    -0.392 C  
HETATM    2  C   UNL     1     -10.271  15.166  68.775  1.00  0.00    -0.235 C  
ENDROOT
BRANCH   2   3
HETATM    3  O   UNL     1     -10.361  13.747  69.005  1.00  0.00    -0.184 OA 
BRANCH   3   4
HETATM    4  C   UNL     1      -9.781  12.984  68.036  1.00  0.00    -0.224 C  
HETATM    5  O   UNL     1      -8.695  13.255  67.526  1.00  0.00    -0.178 OA 
BRANCH   4   6
HETATM    6  C   UNL     1     -10.648  11.778  67.589  1.00  0.00    -0.237 C  
HETATM    7  C   UNL     1     -11.867  11.476  68.499  1.00  0.00    -0.365 C  
HETATM    8  C   UNL     1      -9.694  10.554  67.697  1.00  0.00    -0.187 C  
HETATM    9  C   UNL     1      -9.310  10.277  69.154  1.00  0.00    -0.204 C  
HETATM   10  C   UNL     1     -10.993   8.631  69.727  1.00  0.00    -0.127 C  
HETATM   11  C   UNL     1     -11.491  11.019  69.915  1.00  0.00    -0.320 C  
HETATM   12  N   UNL     1     -10.470   9.970  69.991  1.00  0.00    -0.273 NA 
BRANCH   6  13
HETATM   13  C   UNL     1     -11.148  12.058  66.152  1.00  0.00    -0.367 A  
HETATM   14  C   UNL     1     -11.069  11.709  63.737  1.00  0.00    -0.499 A  
HETATM   15  C   UNL     1     -10.663  11.366  65.031  1.00  0.00    -0.340 A  
HETATM   16  C   UNL     1     -12.500  13.419  64.629  1.00  0.00    -0.385 A  
HETATM   17  C   UNL     1     -11.971  12.746  63.534  1.00  0.00    -0.633 A  
HETATM   18  C   UNL     1     -12.103  13.070  65.922  1.00  0.00    -0.503 A  
ENDBRANCH   6  13
ENDBRANCH   4   6
ENDBRANCH   3   4
ENDBRANCH   2   3
TORSDOF 4
ENDMDL
MODEL       37
REMARK 921   NORMALIZED FREE ENERGY PREDICTED BY IDOCK:   -4.33 KCAL/MOL
REMARK 922        TOTAL FREE ENERGY PREDICTED BY IDOCK:   -6.27 KCAL/MOL
REMARK 923 INTER-LIGAND FREE ENERGY PREDICTED BY IDOCK:   -5.78 KCAL/MOL
REMARK 924 INTRA-LIGAND FREE ENERGY PREDICTED BY IDOCK:   -0.49 KCAL/MOL
REMARK 927      BINDING AFFINITY PREDICTED BY RF-SCORE:    0.00 PKD
ROOT
HETATM    1  C   UNL     1      -9.474  20.188  67.421  1.00  0.00    -0.531 C  
HETATM    2  C   UNL     1     -10.873  19.587  67.433  1.00  0.00    -0.414 C  
ENDROOT
BRANCH   2   3
HETATM    3  O   UNL     1     -10.840  18.189  67.778  1.00  0.00    -0.385 OA 
BRANCH   3   4
HETATM    4  C   UNL     1     -10.244  17.396  66.844  1.00  0.00    -0.322 C  
HETATM    5  O   UNL     1     -10.397  17.552  65.633  1.00  0.00    -0.601 OA 
BRANCH   4   6
HETATM    6  C   UNL     1      -9.408  16.239  67.449  1.00  0.00    -0.224 C  
HETATM    7  C   UNL     1      -8.762  16.548  68.824  1.00  0.00    -0.259 C  
HETATM    8  C   UNL     1      -8.241  16.034  66.441  1.00  0.00    -0.309 C  
HETATM    9  C   UNL     1      -7.312  17.253  66.414  1.00  0.00    -0.301 C  
HETATM   10  C   UNL     1      -5.643  16.545  68.022  1.00  0.00    -0.112 C  
HETATM   11  C   UNL     1      -7.692  17.648  68.778  1.00  0.00    -0.246 C  
HETATM   12  N   UNL     1      -6.693  17.514  67.713  1.00  0.00    -0.170 NA 
BRANCH   6  13
HETATM   13  C   UNL     1     -10.334  15.007  67.593  1.00  0.00    -0.243 A  
HETATM   14  C   UNL     1     -11.880  13.611  68.866  1.00  0.00    -0.402 A  
HETATM   15  C   UNL     1     -11.125  14.781  68.730  1.00  0.00    -0.277 A  
HETATM   16  C   UNL     1     -11.124  12.862  66.713  1.00  0.00    -0.315 A  
HETATM   17  C   UNL     1     -11.865  12.644  67.869  1.00  0.00    -0.388 A  
HETATM   18  C   UNL     1     -10.379  14.036  66.571  1.00  0.00    -0.285 A  
ENDBRANCH   6  13
ENDBRANCH   4   6
ENDBRANCH   3   4
ENDBRANCH   2   3
TORSDOF 4
ENDMDL
MODEL       38
REMARK 921   NORMALIZED FREE ENERGY PREDICTED BY IDOCK:   -4.32 KCAL/MOL
REMARK 922        TOTAL FREE ENERGY PREDICTED BY IDOCK:   -6.25 KCAL/MOL
REMARK 923 INTER-LIGAND FREE ENERGY PREDICTED BY IDOCK:   -5.82 KCAL/MOL
REMARK 924 INTRA-LIGAND FREE ENERGY PREDICTED BY IDOCK:   -0.43 KCAL/MOL
REMARK 927      BINDING AFFINITY PREDICTED BY RF-SCORE:    0.00 PKD
ROOT
HETATM    1  C   UNL     1     -11.566  11.199  69.393  1.00  0.00    -0.388 C  
HETATM    2  C   UNL     1     -11.678  12.712  69.509  1.00  0.00    -0.308 C  
ENDROOT
BRANCH   2   3
HETATM    3  O   UNL     1     -10.676  13.375  68.714  1.00  0.00    -0.247 OA 
BRANCH   3   4
HETATM    4  C   UNL     1     -11.173  14.287  67.832  1.00  0.00    -0.285 C  
HETATM    5  O   UNL     1     -12.156  14.987  68.071  1.00  0.00    -0.230 OA 
BRANCH   4   6
HETATM    6  C   UNL     1     -10.424  14.316  66.475  1.00  0.00    -0.287 C  
HETATM    7  C   UNL     1     -11.150  15.088  65.343  1.00  0.00    -0.377 C  
HETATM    8  C   UNL     1     -10.361  12.826  66.033  1.00  0.00    -0.291 C  
HETATM    9  C   UNL     1     -11.760  12.279  65.728  1.00  0.00    -0.385 C  
HETATM   10  C   UNL     1     -11.850  12.667  63.337  1.00  0.00    -0.514 C  
HETATM   11  C   UNL     1     -12.472  14.446  64.898  1.00  0.00    -0.357 C  
HETATM   12  N   UNL     1     -12.419  13.003  64.641  1.00  0.00    -0.585 NA 
BRANCH   6  13
HETATM   13  C   UNL     1      -9.036  14.958  66.712  1.00  0.00    -0.295 A  
HETATM   14  C   UNL     1      -6.761  14.905  67.598  1.00  0.00    -0.200 A  
HETATM   15  C   UNL     1      -7.973  14.266  67.315  1.00  0.00    -0.191 A  
HETATM   16  C   UNL     1      -7.603  16.943  66.645  1.00  0.00    -0.301 A  
HETATM   17  C   UNL     1      -6.582  16.246  67.282  1.00  0.00    -0.228 A  
HETATM   18  C   UNL     1      -8.809  16.302  66.352  1.00  0.00    -0.346 A  
ENDBRANCH   6  13
ENDBRANCH   4   6
ENDBRANCH   3   4
ENDBRANCH   2   3
TORSDOF 4
ENDMDL
MODEL       39
REMARK 921   NORMALIZED FREE ENERGY PREDICTED BY IDOCK:   -4.29 KCAL/MOL
REMARK 922        TOTAL FREE ENERGY PREDICTED BY IDOCK:   -6.22 KCAL/MOL
REMARK 923 INTER-LIGAND FREE ENERGY PREDICTED BY IDOCK:   -5.73 KCAL/MOL
REMARK 924 INTRA-LIGAND FREE ENERGY PREDICTED BY IDOCK:   -0.49 KCAL/MOL
REMARK 927      BINDING AFFINITY PREDICTED BY RF-SCORE:    0.00 PKD
ROOT
HETATM    1  C   UNL     1     -12.154  12.245  70.208  1.00  0.00    -0.376 C  
HETATM    2  C   UNL     1     -11.879  12.330  68.713  1.00  0.00    -0.306 C  
ENDROOT
BRANCH   2   3
HETATM    3  O   UNL     1     -11.489  13.661  68.326  1.00  0.00    -0.274 OA 
BRANCH   3   4
HETATM    4  C   UNL     1     -11.576  13.904  66.989  1.00  0.00    -0.369 C  
HETATM    5  O   UNL     1     -12.647  14.033  66.397  1.00  0.00    -0.428 OA 
BRANCH   4   6
HETATM    6  C   UNL     1     -10.203  13.940  66.270  1.00  0.00    -0.299 C  
HETATM    7  C   UNL     1      -8.975  14.061  67.209  1.00  0.00    -0.223 C  
HETATM    8  C   UNL     1     -10.245  15.239  65.416  1.00  0.00    -0.414 C  
HETATM    9  C   UNL     1     -10.284  16.486  66.306  1.00  0.00    -0.332 C  
HETATM   10  C   UNL     1      -7.917  16.998  66.417  1.00  0.00    -0.307 C  
HETATM   11  C   UNL     1      -8.905  15.390  67.975  1.00  0.00    -0.165 C  
HETATM   12  N   UNL     1      -9.106  16.597  67.167  1.00  0.00    -0.211 NA 
BRANCH   6  13
HETATM   13  C   UNL     1     -10.071  12.644  65.433  1.00  0.00    -0.277 A  
HETATM   14  C   UNL     1      -9.369  10.323  65.153  1.00  0.00    -0.279 A  
HETATM   15  C   UNL     1      -9.560  11.448  65.961  1.00  0.00    -0.247 A  
HETATM   16  C   UNL     1     -10.233  11.524  63.260  1.00  0.00    -0.432 A  
HETATM   17  C   UNL     1      -9.686  10.366  63.801  1.00  0.00    -0.351 A  
HETATM   18  C   UNL     1     -10.435  12.645  64.070  1.00  0.00    -0.443 A  
ENDBRANCH   6  13
ENDBRANCH   4   6
ENDBRANCH   3   4
ENDBRANCH   2   3
TORSDOF 4
ENDMDL
MODEL       40
REMARK 921   NORMALIZED FREE ENERGY PREDICTED BY IDOCK:   -4.27 KCAL/MOL
REMARK 922        TOTAL FREE ENERGY PREDICTED BY IDOCK:   -6.19 KCAL/MOL
REMARK 923 INTER-LIGAND FREE ENERGY PREDICTED BY IDOCK:   -5.64 KCAL/MOL
REMARK 924 INTRA-LIGAND FREE ENERGY PREDICTED BY IDOCK:   -0.55 KCAL/MOL
REMARK 927      BINDING AFFINITY PREDICTED BY RF-SCORE:    0.00 PKD
ROOT
HETATM    1  C   UNL     1     -12.542  12.760  64.720  1.00  0.00    -0.518 C  
HETATM    2  C   UNL     1     -12.701  14.105  65.416  1.00  0.00    -0.431 C  
ENDROOT
BRANCH   2   3
HETATM    3  O   UNL     1     -12.454  13.996  66.831  1.00  0.00    -0.364 OA 
BRANCH   3   4
HETATM    4  C   UNL     1     -11.313  14.611  67.250  1.00  0.00    -0.353 C  
HETATM    5  O   UNL     1     -10.764  15.513  66.618  1.00  0.00    -0.306 OA 
BRANCH   4   6
HETATM    6  C   UNL     1     -10.735  14.026  68.564  1.00  0.00    -0.266 C  
HETATM    7  C   UNL     1      -9.212  14.244  68.763  1.00  0.00    -0.112 C  
HETATM    8  C   UNL     1     -10.955  12.492  68.437  1.00  0.00    -0.277 C  
HETATM    9  C   UNL     1     -10.105  11.902  67.306  1.00  0.00    -0.196 C  
HETATM   10  C   UNL     1      -8.154  11.209  68.565  1.00  0.00    -0.146 C  
HETATM   11  C   UNL     1      -8.337  13.506  67.741  1.00  0.00    -0.181 C  
HETATM   12  N   UNL     1      -8.672  12.095  67.524  1.00  0.00    -0.165 NA 
BRANCH   6  13
HETATM   13  C   UNL     1     -11.495  14.672  69.747  1.00  0.00    -0.325 A  
HETATM   14  C   UNL     1     -11.782  16.422  71.426  1.00  0.00    -0.293 A  
HETATM   15  C   UNL     1     -11.130  15.911  70.298  1.00  0.00    -0.381 A  
HETATM   16  C   UNL     1     -13.224  14.502  71.474  1.00  0.00    -0.431 A  
HETATM   17  C   UNL     1     -12.814  15.710  72.025  1.00  0.00    -0.518 A  
HETATM   18  C   UNL     1     -12.581  13.996  70.341  1.00  0.00    -0.374 A  
ENDBRANCH   6  13
ENDBRANCH   4   6
ENDBRANCH   3   4
ENDBRANCH   2   3
TORSDOF 4
ENDMDL
MODEL       41
REMARK 921   NORMALIZED FREE ENERGY PREDICTED BY IDOCK:   -4.26 KCAL/MOL
REMARK 922        TOTAL FREE ENERGY PREDICTED BY IDOCK:   -6.18 KCAL/MOL
REMARK 923 INTER-LIGAND FREE ENERGY PREDICTED BY IDOCK:   -5.81 KCAL/MOL
REMARK 924 INTRA-LIGAND FREE ENERGY PREDICTED BY IDOCK:   -0.37 KCAL/MOL
REMARK 927      BINDING AFFINITY PREDICTED BY RF-SCORE:    0.00 PKD
ROOT
HETATM    1  C   UNL     1     -10.464  19.703  65.834  1.00  0.00    -0.591 C  
HETATM    2  C   UNL     1     -10.125  18.435  66.605  1.00  0.00    -0.380 C  
ENDROOT
BRANCH   2   3
HETATM    3  O   UNL     1     -10.401  17.257  65.824  1.00  0.00    -0.531 OA 
BRANCH   3   4
HETATM    4  C   UNL     1      -9.634  16.178  66.148  1.00  0.00    -0.327 C  
HETATM    5  O   UNL     1      -8.414  16.148  65.991  1.00  0.00    -0.319 OA 
BRANCH   4   6
HETATM    6  C   UNL     1     -10.449  14.968  66.673  1.00  0.00    -0.284 C  
HETATM    7  C   UNL     1     -11.782  15.333  67.376  1.00  0.00    -0.120 C  
HETATM    8  C   UNL     1      -9.534  14.323  67.753  1.00  0.00    -0.216 C  
HETATM    9  C   UNL     1      -9.351  15.257  68.954  1.00  0.00    -0.213 C  
HETATM   10  C   UNL     1     -11.117  14.439  70.397  1.00  0.00     0.080 C  
HETATM   11  C   UNL     1     -11.604  16.116  68.684  1.00  0.00    -0.283 C  
HETATM   12  N   UNL     1     -10.616  15.570  69.618  1.00  0.00    -0.261 NA 
BRANCH   6  13
HETATM   13  C   UNL     1     -10.750  14.040  65.471  1.00  0.00    -0.317 A  
HETATM   14  C   UNL     1     -12.131  13.338  63.585  1.00  0.00    -0.551 A  
HETATM   15  C   UNL     1     -11.835  14.248  64.605  1.00  0.00    -0.459 A  
HETATM   16  C   UNL     1     -10.245  11.995  64.222  1.00  0.00    -0.347 A  
HETATM   17  C   UNL     1     -11.350  12.203  63.405  1.00  0.00    -0.495 A  
HETATM   18  C   UNL     1      -9.941  12.910  65.234  1.00  0.00    -0.192 A  
ENDBRANCH   6  13
ENDBRANCH   4   6
ENDBRANCH   3   4
ENDBRANCH   2   3
TORSDOF 4
ENDMDL
MODEL       42
REMARK 921   NORMALIZED FREE ENERGY PREDICTED BY IDOCK:   -4.23 KCAL/MOL
REMARK 922        TOTAL FREE ENERGY PREDICTED BY IDOCK:   -6.15 KCAL/MOL
REMARK 923 INTER-LIGAND FREE ENERGY PREDICTED BY IDOCK:   -5.63 KCAL/MOL
REMARK 924 INTRA-LIGAND FREE ENERGY PREDICTED BY IDOCK:   -0.52 KCAL/MOL
REMARK 927      BINDING AFFINITY PREDICTED BY RF-SCORE:    0.00 PKD
ROOT
HETATM    1  C   UNL     1     -10.746  16.839  68.515  1.00  0.00    -0.358 C  
HETATM    2  C   UNL     1      -9.895  15.608  68.795  1.00  0.00    -0.213 C  
ENDROOT
BRANCH   2   3
HETATM    3  O   UNL     1     -10.579  14.399  68.413  1.00  0.00    -0.235 OA 
BRANCH   3   4
HETATM    4  C   UNL     1      -9.936  13.670  67.459  1.00  0.00    -0.230 C  
HETATM    5  O   UNL     1      -8.881  14.027  66.936  1.00  0.00    -0.226 OA 
BRANCH   4   6
HETATM    6  C   UNL     1     -10.690  12.378  67.047  1.00  0.00    -0.268 C  
HETATM    7  C   UNL     1     -10.096  11.638  65.821  1.00  0.00    -0.278 C  
HETATM    8  C   UNL     1     -12.106  12.870  66.632  1.00  0.00    -0.360 C  
HETATM    9  C   UNL     1     -12.043  13.739  65.371  1.00  0.00    -0.407 C  
HETATM   10  C   UNL     1     -12.465  12.055  63.680  1.00  0.00    -0.525 C  
HETATM   11  C   UNL     1     -10.193  12.427  64.508  1.00  0.00    -0.299 C  
HETATM   12  N   UNL     1     -11.504  13.016  64.219  1.00  0.00    -0.360 NA 
BRANCH   6  13
HETATM   13  C   UNL     1     -10.691  11.421  68.263  1.00  0.00    -0.240 A  
HETATM   14  C   UNL     1     -11.770  10.401  70.201  1.00  0.00    -0.394 A  
HETATM   15  C   UNL     1     -11.829  11.201  69.055  1.00  0.00    -0.418 A  
HETATM   16  C   UNL     1      -9.443   9.966  69.789  1.00  0.00    -0.254 A  
HETATM   17  C   UNL     1     -10.575   9.800  70.579  1.00  0.00    -0.376 A  
HETATM   18  C   UNL     1      -9.505  10.756  68.638  1.00  0.00    -0.188 A  
ENDBRANCH   6  13
ENDBRANCH   4   6
ENDBRANCH   3   4
ENDBRANCH   2   3
TORSDOF 4
ENDMDL
MODEL       43
REMARK 921   NORMALIZED FREE ENERGY PREDICTED BY IDOCK:   -4.23 KCAL/MOL
REMARK 922        TOTAL FREE ENERGY PREDICTED BY IDOCK:   -6.15 KCAL/MOL
REMARK 923 INTER-LIGAND FREE ENERGY PREDICTED BY IDOCK:   -5.62 KCAL/MOL
REMARK 924 INTRA-LIGAND FREE ENERGY PREDICTED BY IDOCK:   -0.52 KCAL/MOL
REMARK 927      BINDING AFFINITY PREDICTED BY RF-SCORE:    0.00 PKD
ROOT
HETATM    1  C   UNL     1     -12.331  11.426  70.583  1.00  0.00    -0.466 C  
HETATM    2  C   UNL     1     -13.006  10.321  71.383  1.00  0.00    -0.440 C  
ENDROOT
BRANCH   2   3
HETATM    3  O   UNL     1     -12.043   9.374  71.884  1.00  0.00    -0.367 OA 
BRANCH   3   4
HETATM    4  C   UNL     1     -12.312   8.077  71.562  1.00  0.00    -0.308 C  
HETATM    5  O   UNL     1     -13.438   7.587  71.631  1.00  0.00    -0.362 OA 
BRANCH   4   6
HETATM    6  C   UNL     1     -11.057   7.260  71.160  1.00  0.00    -0.275 C  
HETATM    7  C   UNL     1     -11.111   5.755  71.528  1.00  0.00    -0.281 C  
HETATM    8  C   UNL     1      -9.903   7.885  71.996  1.00  0.00    -0.250 C  
HETATM    9  C   UNL     1     -10.105   7.633  73.494  1.00  0.00    -0.285 C  
HETATM   10  C   UNL     1      -8.796   5.611  73.761  1.00  0.00    -0.124 C  
HETATM   11  C   UNL     1     -11.130   5.481  73.038  1.00  0.00    -0.300 C  
HETATM   12  N   UNL     1     -10.129   6.208  73.824  1.00  0.00    -0.214 NA 
BRANCH   6  13
HETATM   13  C   UNL     1     -10.868   7.400  69.630  1.00  0.00    -0.222 A  
HETATM   14  C   UNL     1     -10.872   6.484  67.367  1.00  0.00    -0.449 A  
HETATM   15  C   UNL     1     -11.141   6.355  68.734  1.00  0.00    -0.404 A  
HETATM   16  C   UNL     1     -10.088   8.727  67.725  1.00  0.00    -0.261 A  
HETATM   17  C   UNL     1     -10.329   7.661  66.866  1.00  0.00    -0.388 A  
HETATM   18  C   UNL     1     -10.368   8.602  69.088  1.00  0.00    -0.227 A  
ENDBRANCH   6  13
ENDBRANCH   4   6
ENDBRANCH   3   4
ENDBRANCH   2   3
TORSDOF 4
ENDMDL
MODEL       44
REMARK 921   NORMALIZED FREE ENERGY PREDICTED BY IDOCK:   -4.23 KCAL/MOL
REMARK 922        TOTAL FREE ENERGY PREDICTED BY IDOCK:   -6.14 KCAL/MOL
REMARK 923 INTER-LIGAND FREE ENERGY PREDICTED BY IDOCK:   -5.86 KCAL/MOL
REMARK 924 INTRA-LIGAND FREE ENERGY PREDICTED BY IDOCK:   -0.28 KCAL/MOL
REMARK 927      BINDING AFFINITY PREDICTED BY RF-SCORE:    0.00 PKD
ROOT
HETATM    1  C   UNL     1     -12.697  10.141  71.145  1.00  0.00    -0.494 C  
HETATM    2  C   UNL     1     -12.323  11.448  70.460  1.00  0.00    -0.349 C  
ENDROOT
BRANCH   2   3
HETATM    3  O   UNL     1     -12.288  11.298  69.027  1.00  0.00    -0.446 OA 
BRANCH   3   4
HETATM    4  C   UNL     1     -11.309  12.019  68.412  1.00  0.00    -0.279 C  
HETATM    5  O   UNL     1     -11.075  13.198  68.676  1.00  0.00    -0.245 OA 
BRANCH   4   6
HETATM    6  C   UNL     1     -10.560  11.235  67.303  1.00  0.00    -0.271 C  
HETATM    7  C   UNL     1     -10.748   9.696  67.349  1.00  0.00    -0.308 C  
HETATM    8  C   UNL     1      -9.055  11.512  67.581  1.00  0.00    -0.168 C  
HETATM    9  C   UNL     1      -8.612  10.887  68.908  1.00  0.00    -0.140 C  
HETATM   10  C   UNL     1      -7.761   8.763  68.109  1.00  0.00    -0.101 C  
HETATM   11  C   UNL     1     -10.144   9.031  68.594  1.00  0.00    -0.189 C  
HETATM   12  N   UNL     1      -8.773   9.433  68.923  1.00  0.00    -0.129 NA 
BRANCH   6  13
HETATM   13  C   UNL     1     -11.052  11.762  65.934  1.00  0.00    -0.355 A  
HETATM   14  C   UNL     1     -12.522  13.145  64.559  1.00  0.00    -0.406 A  
HETATM   15  C   UNL     1     -12.035  12.758  65.812  1.00  0.00    -0.502 A  
HETATM   16  C   UNL     1     -11.033  11.592  63.490  1.00  0.00    -0.485 A  
HETATM   17  C   UNL     1     -12.036  12.550  63.401  1.00  0.00    -0.621 A  
HETATM   18  C   UNL     1     -10.538  11.213  64.741  1.00  0.00    -0.371 A  
ENDBRANCH   6  13
ENDBRANCH   4   6
ENDBRANCH   3   4
ENDBRANCH   2   3
TORSDOF 4
ENDMDL
MODEL       45
REMARK 921   NORMALIZED FREE ENERGY PREDICTED BY IDOCK:   -4.20 KCAL/MOL
REMARK 922        TOTAL FREE ENERGY PREDICTED BY IDOCK:   -6.11 KCAL/MOL
REMARK 923 INTER-LIGAND FREE ENERGY PREDICTED BY IDOCK:   -5.20 KCAL/MOL
REMARK 924 INTRA-LIGAND FREE ENERGY PREDICTED BY IDOCK:   -0.91 KCAL/MOL
REMARK 927      BINDING AFFINITY PREDICTED BY RF-SCORE:    0.00 PKD
ROOT
HETATM    1  C   UNL     1     -10.258  11.507  63.075  1.00  0.00    -0.312 C  
HETATM    2  C   UNL     1      -9.532  10.313  63.680  1.00  0.00    -0.299 C  
ENDROOT
BRANCH   2   3
HETATM    3  O   UNL     1      -9.980  10.053  65.024  1.00  0.00    -0.326 OA 
BRANCH   3   4
HETATM    4  C   UNL     1      -9.231  10.653  65.991  1.00  0.00    -0.182 C  
HETATM    5  O   UNL     1      -8.003  10.576  66.036  1.00  0.00    -0.139 OA 
BRANCH   4   6
HETATM    6  C   UNL     1     -10.072  11.389  67.066  1.00  0.00    -0.237 C  
HETATM    7  C   UNL     1      -9.297  11.775  68.352  1.00  0.00    -0.185 C  
HETATM    8  C   UNL     1     -11.155  10.355  67.487  1.00  0.00    -0.336 C  
HETATM    9  C   UNL     1     -10.525   9.153  68.199  1.00  0.00    -0.211 C  
HETATM   10  C   UNL     1     -10.745   9.867  70.504  1.00  0.00    -0.317 C  
HETATM   11  C   UNL     1      -8.816  10.572  69.175  1.00  0.00    -0.151 C  
HETATM   12  N   UNL     1      -9.820   9.533  69.423  1.00  0.00    -0.177 NA 
BRANCH   6  13
HETATM   13  C   UNL     1     -10.649  12.672  66.420  1.00  0.00    -0.272 A  
HETATM   14  C   UNL     1     -12.477  13.950  65.427  1.00  0.00    -0.528 A  
HETATM   15  C   UNL     1     -12.007  12.813  66.094  1.00  0.00    -0.476 A  
HETATM   16  C   UNL     1     -10.262  14.877  65.426  1.00  0.00    -0.409 A  
HETATM   17  C   UNL     1     -11.604  14.972  65.077  1.00  0.00    -0.332 A  
HETATM   18  C   UNL     1      -9.793  13.747  66.102  1.00  0.00    -0.310 A  
ENDBRANCH   6  13
ENDBRANCH   4   6
ENDBRANCH   3   4
ENDBRANCH   2   3
TORSDOF 4
ENDMDL
MODEL       46
REMARK 921   NORMALIZED FREE ENERGY PREDICTED BY IDOCK:   -4.20 KCAL/MOL
REMARK 922        TOTAL FREE ENERGY PREDICTED BY IDOCK:   -6.10 KCAL/MOL
REMARK 923 INTER-LIGAND FREE ENERGY PREDICTED BY IDOCK:   -5.27 KCAL/MOL
REMARK 924 INTRA-LIGAND FREE ENERGY PREDICTED BY IDOCK:   -0.83 KCAL/MOL
REMARK 927      BINDING AFFINITY PREDICTED BY RF-SCORE:    0.00 PKD
ROOT
HETATM    1  C   UNL     1     -12.493  14.155  65.468  1.00  0.00    -0.495 C  
HETATM    2  C   UNL     1     -12.168  12.742  65.002  1.00  0.00    -0.473 C  
ENDROOT
BRANCH   2   3
HETATM    3  O   UNL     1     -11.874  11.877  66.116  1.00  0.00    -0.528 OA 
BRANCH   3   4
HETATM    4  C   UNL     1     -10.574  11.909  66.522  1.00  0.00    -0.243 C  
HETATM    5  O   UNL     1      -9.627  11.986  65.741  1.00  0.00    -0.241 OA 
BRANCH   4   6
HETATM    6  C   UNL     1     -10.396  11.775  68.057  1.00  0.00    -0.212 C  
HETATM    7  C   UNL     1      -8.938  11.536  68.528  1.00  0.00    -0.146 C  
HETATM    8  C   UNL     1     -11.203  10.499  68.432  1.00  0.00    -0.339 C  
HETATM    9  C   UNL     1     -10.568   9.243  67.825  1.00  0.00    -0.246 C  
HETATM   10  C   UNL     1      -9.176   8.539  69.680  1.00  0.00    -0.157 C  
HETATM   11  C   UNL     1      -8.349  10.193  68.077  1.00  0.00    -0.117 C  
HETATM   12  N   UNL     1      -9.202   9.022  68.300  1.00  0.00    -0.136 NA 
BRANCH   6  13
HETATM   13  C   UNL     1     -10.932  13.070  68.712  1.00  0.00    -0.295 A  
HETATM   14  C   UNL     1     -10.815  15.468  69.156  1.00  0.00    -0.251 A  
HETATM   15  C   UNL     1     -10.364  14.332  68.475  1.00  0.00    -0.244 A  
HETATM   16  C   UNL     1     -12.453  14.141  70.306  1.00  0.00    -0.416 A  
HETATM   17  C   UNL     1     -11.844  15.371  70.084  1.00  0.00    -0.362 A  
HETATM   18  C   UNL     1     -12.011  13.008  69.619  1.00  0.00    -0.367 A  
ENDBRANCH   6  13
ENDBRANCH   4   6
ENDBRANCH   3   4
ENDBRANCH   2   3
TORSDOF 4
ENDMDL
MODEL       47
REMARK 921   NORMALIZED FREE ENERGY PREDICTED BY IDOCK:   -4.18 KCAL/MOL
REMARK 922        TOTAL FREE ENERGY PREDICTED BY IDOCK:   -6.08 KCAL/MOL
REMARK 923 INTER-LIGAND FREE ENERGY PREDICTED BY IDOCK:   -5.27 KCAL/MOL
REMARK 924 INTRA-LIGAND FREE ENERGY PREDICTED BY IDOCK:   -0.82 KCAL/MOL
REMARK 927      BINDING AFFINITY PREDICTED BY RF-SCORE:    0.00 PKD
ROOT
HETATM    1  C   UNL     1      -9.554  11.185  63.089  1.00  0.00    -0.388 C  
HETATM    2  C   UNL     1     -10.871  11.826  63.503  1.00  0.00    -0.426 C  
ENDROOT
BRANCH   2   3
HETATM    3  O   UNL     1     -10.666  12.855  64.491  1.00  0.00    -0.327 OA 
BRANCH   3   4
HETATM    4  C   UNL     1     -11.389  12.687  65.633  1.00  0.00    -0.322 C  
HETATM    5  O   UNL     1     -12.619  12.711  65.661  1.00  0.00    -0.611 OA 
BRANCH   4   6
HETATM    6  C   UNL     1     -10.517  12.526  66.906  1.00  0.00    -0.244 C  
HETATM    7  C   UNL     1     -11.307  12.499  68.240  1.00  0.00    -0.331 C  
HETATM    8  C   UNL     1      -9.632  13.804  66.934  1.00  0.00    -0.263 C  
HETATM    9  C   UNL     1     -10.479  15.060  67.163  1.00  0.00    -0.277 C  
HETATM   10  C   UNL     1     -10.303  15.253  69.572  1.00  0.00    -0.262 C  
HETATM   11  C   UNL     1     -12.015  13.820  68.573  1.00  0.00    -0.367 C  
HETATM   12  N   UNL     1     -11.196  15.028  68.437  1.00  0.00    -0.279 NA 
BRANCH   6  13
HETATM   13  C   UNL     1      -9.714  11.210  66.768  1.00  0.00    -0.220 A  
HETATM   14  C   UNL     1      -9.545   8.775  66.811  1.00  0.00    -0.267 A  
HETATM   15  C   UNL     1     -10.314   9.943  66.847  1.00  0.00    -0.300 A  
HETATM   16  C   UNL     1      -7.547  10.086  66.569  1.00  0.00    -0.106 A  
HETATM   17  C   UNL     1      -8.163   8.846  66.692  1.00  0.00    -0.111 A  
HETATM   18  C   UNL     1      -8.316  11.253  66.593  1.00  0.00    -0.163 A  
ENDBRANCH   6  13
ENDBRANCH   4   6
ENDBRANCH   3   4
ENDBRANCH   2   3
TORSDOF 4
ENDMDL
MODEL       48
REMARK 921   NORMALIZED FREE ENERGY PREDICTED BY IDOCK:   -4.17 KCAL/MOL
REMARK 922        TOTAL FREE ENERGY PREDICTED BY IDOCK:   -6.06 KCAL/MOL
REMARK 923 INTER-LIGAND FREE ENERGY PREDICTED BY IDOCK:   -5.50 KCAL/MOL
REMARK 924 INTRA-LIGAND FREE ENERGY PREDICTED BY IDOCK:   -0.57 KCAL/MOL
REMARK 927      BINDING AFFINITY PREDICTED BY RF-SCORE:    0.00 PKD
ROOT
HETATM    1  C   UNL     1      -6.172  15.986  68.740  1.00  0.00    -0.115 C  
HETATM    2  C   UNL     1      -6.485  15.411  67.365  1.00  0.00    -0.080 C  
ENDROOT
BRANCH   2   3
HETATM    3  O   UNL     1      -7.897  15.463  67.085  1.00  0.00    -0.185 OA 
BRANCH   3   4
HETATM    4  C   UNL     1      -8.302  16.602  66.457  1.00  0.00    -0.287 C  
HETATM    5  O   UNL     1      -7.573  17.255  65.712  1.00  0.00    -0.440 OA 
BRANCH   4   6
HETATM    6  C   UNL     1      -9.747  17.034  66.817  1.00  0.00    -0.276 C  
HETATM    7  C   UNL     1     -10.217  18.358  66.162  1.00  0.00    -0.408 C  
HETATM    8  C   UNL     1      -9.707  17.282  68.352  1.00  0.00    -0.293 C  
HETATM    9  C   UNL     1      -8.813  18.479  68.696  1.00  0.00    -0.298 C  
HETATM   10  C   UNL     1     -10.478  20.240  68.763  1.00  0.00     0.081 C  
HETATM   11  C   UNL     1      -9.447  19.597  66.639  1.00  0.00    -0.375 C  
HETATM   12  N   UNL     1      -9.286  19.723  68.090  1.00  0.00    -0.345 NA 
BRANCH   6  13
HETATM   13  C   UNL     1     -10.704  15.894  66.392  1.00  0.00    -0.256 A  
HETATM   14  C   UNL     1     -12.049  13.916  66.880  1.00  0.00    -0.467 A  
HETATM   15  C   UNL     1     -11.262  14.990  67.310  1.00  0.00    -0.339 A  
HETATM   16  C   UNL     1     -11.794  14.628  64.601  1.00  0.00    -0.459 A  
HETATM   17  C   UNL     1     -12.298  13.723  65.527  1.00  0.00    -0.507 A  
HETATM   18  C   UNL     1     -11.017  15.707  65.030  1.00  0.00    -0.445 A  
ENDBRANCH   6  13
ENDBRANCH   4   6
ENDBRANCH   3   4
ENDBRANCH   2   3
TORSDOF 4
ENDMDL
MODEL       49
REMARK 921   NORMALIZED FREE ENERGY PREDICTED BY IDOCK:   -4.15 KCAL/MOL
REMARK 922        TOTAL FREE ENERGY PREDICTED BY IDOCK:   -6.04 KCAL/MOL
REMARK 923 INTER-LIGAND FREE ENERGY PREDICTED BY IDOCK:   -5.86 KCAL/MOL
REMARK 924 INTRA-LIGAND FREE ENERGY PREDICTED BY IDOCK:   -0.19 KCAL/MOL
REMARK 927      BINDING AFFINITY PREDICTED BY RF-SCORE:    0.00 PKD
ROOT
HETATM    1  C   UNL     1     -13.672  15.218  71.239  1.00  0.00    -0.570 C  
HETATM    2  C   UNL     1     -12.298  14.669  70.881  1.00  0.00    -0.336 C  
ENDROOT
BRANCH   2   3
HETATM    3  O   UNL     1     -12.258  14.201  69.519  1.00  0.00    -0.326 OA 
BRANCH   3   4
HETATM    4  C   UNL     1     -11.012  14.187  68.968  1.00  0.00    -0.261 C  
HETATM    5  O   UNL     1     -10.174  15.063  69.176  1.00  0.00    -0.228 OA 
BRANCH   4   6
HETATM    6  C   UNL     1     -10.770  12.996  68.004  1.00  0.00    -0.248 C  
HETATM    7  C   UNL     1      -9.497  13.115  67.125  1.00  0.00    -0.239 C  
HETATM    8  C   UNL     1     -11.987  13.026  67.037  1.00  0.00    -0.409 C  
HETATM    9  C   UNL     1     -11.970  14.284  66.162  1.00  0.00    -0.407 C  
HETATM   10  C   UNL     1     -10.826  13.420  64.207  1.00  0.00    -0.363 C  
HETATM   11  C   UNL     1      -9.544  14.267  66.112  1.00  0.00    -0.275 C  
HETATM   12  N   UNL     1     -10.775  14.365  65.322  1.00  0.00    -0.349 NA 
BRANCH   6  13
HETATM   13  C   UNL     1     -10.677  11.707  68.855  1.00  0.00    -0.244 A  
HETATM   14  C   UNL     1     -11.581  10.134  70.488  1.00  0.00    -0.411 A  
HETATM   15  C   UNL     1     -11.732  11.252  69.661  1.00  0.00    -0.420 A  
HETATM   16  C   UNL     1      -9.328   9.848  69.706  1.00  0.00    -0.248 A  
HETATM   17  C   UNL     1     -10.376   9.444  70.526  1.00  0.00    -0.341 A  
HETATM   18  C   UNL     1      -9.482  10.957  68.871  1.00  0.00    -0.182 A  
ENDBRANCH   6  13
ENDBRANCH   4   6
ENDBRANCH   3   4
ENDBRANCH   2   3
TORSDOF 4
ENDMDL
MODEL       50
REMARK 921   NORMALIZED FREE ENERGY PREDICTED BY IDOCK:   -4.15 KCAL/MOL
REMARK 922        TOTAL FREE ENERGY PREDICTED BY IDOCK:   -6.04 KCAL/MOL
REMARK 923 INTER-LIGAND FREE ENERGY PREDICTED BY IDOCK:   -5.54 KCAL/MOL
REMARK 924 INTRA-LIGAND FREE ENERGY PREDICTED BY IDOCK:   -0.50 KCAL/MOL
REMARK 927      BINDING AFFINITY PREDICTED BY RF-SCORE:    0.00 PKD
ROOT
HETATM    1  C   UNL     1     -10.360   3.477  72.775  1.00  0.00    -0.239 C  
HETATM    2  C   UNL     1     -11.224   4.514  73.479  1.00  0.00    -0.303 C  
ENDROOT
BRANCH   2   3
HETATM    3  O   UNL     1     -11.622   5.564  72.577  1.00  0.00    -0.283 OA 
BRANCH   3   4
HETATM    4  C   UNL     1     -10.843   6.680  72.637  1.00  0.00    -0.248 C  
HETATM    5  O   UNL     1     -10.356   7.105  73.685  1.00  0.00    -0.330 OA 
BRANCH   4   6
HETATM    6  C   UNL     1     -10.677   7.400  71.274  1.00  0.00    -0.238 C  
HETATM    7  C   UNL     1     -11.144   6.583  70.042  1.00  0.00    -0.422 C  
HETATM    8  C   UNL     1      -9.142   7.600  71.124  1.00  0.00    -0.152 C  
HETATM    9  C   UNL     1      -8.420   6.256  70.979  1.00  0.00    -0.128 C  
HETATM   10  C   UNL     1      -8.327   6.089  68.563  1.00  0.00    -0.113 C  
HETATM   11  C   UNL     1     -10.309   5.323  69.775  1.00  0.00    -0.299 C  
HETATM   12  N   UNL     1      -8.855   5.511  69.798  1.00  0.00    -0.118 NA 
BRANCH   6  13
HETATM   13  C   UNL     1     -11.478   8.723  71.335  1.00  0.00    -0.366 A  
HETATM   14  C   UNL     1     -13.411  10.041  72.033  1.00  0.00    -0.513 A  
HETATM   15  C   UNL     1     -12.663   8.859  72.075  1.00  0.00    -0.456 A  
HETATM   16  C   UNL     1     -11.797  11.021  70.548  1.00  0.00    -0.464 A  
HETATM   17  C   UNL     1     -12.989  11.114  71.257  1.00  0.00    -0.457 A  
HETATM   18  C   UNL     1     -11.044   9.845  70.598  1.00  0.00    -0.409 A  
ENDBRANCH   6  13
ENDBRANCH   4   6
ENDBRANCH   3   4
ENDBRANCH   2   3
TORSDOF 4
ENDMDL
MODEL       51
REMARK 921   NORMALIZED FREE ENERGY PREDICTED BY IDOCK:   -4.14 KCAL/MOL
REMARK 922        TOTAL FREE ENERGY PREDICTED BY IDOCK:   -6.03 KCAL/MOL
REMARK 923 INTER-LIGAND FREE ENERGY PREDICTED BY IDOCK:   -5.48 KCAL/MOL
REMARK 924 INTRA-LIGAND FREE ENERGY PREDICTED BY IDOCK:   -0.55 KCAL/MOL
REMARK 927      BINDING AFFINITY PREDICTED BY RF-SCORE:    0.00 PKD
ROOT
HETATM    1  C   UNL     1      -8.339  11.342  66.554  1.00  0.00    -0.168 C  
HETATM    2  C   UNL     1      -8.515  11.610  68.042  1.00  0.00    -0.151 C  
ENDROOT
BRANCH   2   3
HETATM    3  O   UNL     1      -9.834  12.113  68.331  1.00  0.00    -0.209 OA 
BRANCH   3   4
HETATM    4  C   UNL     1      -9.913  13.472  68.394  1.00  0.00    -0.232 C  
HETATM    5  O   UNL     1      -8.957  14.190  68.684  1.00  0.00    -0.187 OA 
BRANCH   4   6
HETATM    6  C   UNL     1     -11.337  14.027  68.127  1.00  0.00    -0.320 C  
HETATM    7  C   UNL     1     -11.548  15.509  68.532  1.00  0.00    -0.379 C  
HETATM    8  C   UNL     1     -12.263  13.175  69.042  1.00  0.00    -0.114 C  
HETATM    9  C   UNL     1     -11.979  13.446  70.523  1.00  0.00    -0.255 C  
HETATM   10  C   UNL     1     -13.632  15.162  70.962  1.00  0.00    -0.409 C  
HETATM   11  C   UNL     1     -11.446  15.763  70.042  1.00  0.00    -0.356 C  
HETATM   12  N   UNL     1     -12.207  14.842  70.892  1.00  0.00    -0.301 NA 
BRANCH   6  13
HETATM   13  C   UNL     1     -11.633  13.870  66.616  1.00  0.00    -0.392 A  
HETATM   14  C   UNL     1     -11.855  14.774  64.359  1.00  0.00    -0.393 A  
HETATM   15  C   UNL     1     -11.491  14.925  65.701  1.00  0.00    -0.290 A  
HETATM   16  C   UNL     1     -12.476  12.491  64.776  1.00  0.00    -0.532 A  
HETATM   17  C   UNL     1     -12.365  13.565  63.901  1.00  0.00    -0.397 A  
HETATM   18  C   UNL     1     -12.102  12.638  66.114  1.00  0.00    -0.399 A  
ENDBRANCH   6  13
ENDBRANCH   4   6
ENDBRANCH   3   4
ENDBRANCH   2   3
TORSDOF 4
ENDMDL
MODEL       52
REMARK 921   NORMALIZED FREE ENERGY PREDICTED BY IDOCK:   -4.09 KCAL/MOL
REMARK 922        TOTAL FREE ENERGY PREDICTED BY IDOCK:   -5.97 KCAL/MOL
REMARK 923 INTER-LIGAND FREE ENERGY PREDICTED BY IDOCK:   -5.70 KCAL/MOL
REMARK 924 INTRA-LIGAND FREE ENERGY PREDICTED BY IDOCK:   -0.26 KCAL/MOL
REMARK 927      BINDING AFFINITY PREDICTED BY RF-SCORE:    0.00 PKD
ROOT
HETATM    1  C   UNL     1     -12.003  12.521  64.853  1.00  0.00    -0.468 C  
HETATM    2  C   UNL     1     -12.121  12.951  66.309  1.00  0.00    -0.365 C  
ENDROOT
BRANCH   2   3
HETATM    3  O   UNL     1     -12.016  11.823  67.199  1.00  0.00    -0.617 OA 
BRANCH   3   4
HETATM    4  C   UNL     1     -10.995  11.912  68.098  1.00  0.00    -0.227 C  
HETATM    5  O   UNL     1     -10.423  12.968  68.363  1.00  0.00    -0.242 OA 
BRANCH   4   6
HETATM    6  C   UNL     1     -10.580  10.548  68.708  1.00  0.00    -0.233 C  
HETATM    7  C   UNL     1      -9.076  10.421  69.063  1.00  0.00    -0.193 C  
HETATM    8  C   UNL     1     -10.864   9.515  67.580  1.00  0.00    -0.253 C  
HETATM    9  C   UNL     1      -9.937   9.737  66.380  1.00  0.00    -0.247 C  
HETATM   10  C   UNL     1      -8.157   8.188  66.932  1.00  0.00    -0.104 C  
HETATM   11  C   UNL     1      -8.143  10.458  67.845  1.00  0.00    -0.102 C  
HETATM   12  N   UNL     1      -8.525   9.588  66.728  1.00  0.00    -0.126 NA 
BRANCH   6  13
HETATM   13  C   UNL     1     -11.421  10.325  69.988  1.00  0.00    -0.367 A  
HETATM   14  C   UNL     1     -12.296   8.903  71.770  1.00  0.00    -0.424 A  
HETATM   15  C   UNL     1     -11.454   9.098  70.670  1.00  0.00    -0.310 A  
HETATM   16  C   UNL     1     -13.075  11.168  71.586  1.00  0.00    -0.529 A  
HETATM   17  C   UNL     1     -13.119   9.930  72.216  1.00  0.00    -0.419 A  
HETATM   18  C   UNL     1     -12.225  11.367  70.494  1.00  0.00    -0.478 A  
ENDBRANCH   6  13
ENDBRANCH   4   6
ENDBRANCH   3   4
ENDBRANCH   2   3
TORSDOF 4
ENDMDL
MODEL       53
REMARK 921   NORMALIZED FREE ENERGY PREDICTED BY IDOCK:   -4.05 KCAL/MOL
REMARK 922        TOTAL FREE ENERGY PREDICTED BY IDOCK:   -5.91 KCAL/MOL
REMARK 923 INTER-LIGAND FREE ENERGY PREDICTED BY IDOCK:   -5.31 KCAL/MOL
REMARK 924 INTRA-LIGAND FREE ENERGY PREDICTED BY IDOCK:   -0.60 KCAL/MOL
REMARK 927      BINDING AFFINITY PREDICTED BY RF-SCORE:    0.00 PKD
ROOT
HETATM    1  C   UNL     1     -10.184   6.856  73.980  1.00  0.00    -0.384 C  
HETATM    2  C   UNL     1      -9.190   7.750  73.252  1.00  0.00    -0.258 C  
ENDROOT
BRANCH   2   3
HETATM    3  O   UNL     1      -9.097   7.402  71.857  1.00  0.00    -0.129 OA 
BRANCH   3   4
HETATM    4  C   UNL     1      -9.169   8.466  71.008  1.00  0.00    -0.168 C  
HETATM    5  O   UNL     1      -8.316   9.352  70.967  1.00  0.00    -0.294 OA 
BRANCH   4   6
HETATM    6  C   UNL     1     -10.457   8.490  70.145  1.00  0.00    -0.226 C  
HETATM    7  C   UNL     1     -11.314   7.200  70.213  1.00  0.00    -0.305 C  
HETATM    8  C   UNL     1      -9.942   8.610  68.682  1.00  0.00    -0.197 C  
HETATM    9  C   UNL     1      -9.177   7.351  68.259  1.00  0.00    -0.137 C  
HETATM   10  C   UNL     1     -10.969   6.106  67.204  1.00  0.00    -0.331 C  
HETATM   11  C   UNL     1     -10.626   5.962  69.622  1.00  0.00    -0.313 C  
HETATM   12  N   UNL     1     -10.009   6.148  68.306  1.00  0.00    -0.135 NA 
BRANCH   6  13
HETATM   13  C   UNL     1     -11.316   9.692  70.606  1.00  0.00    -0.379 A  
HETATM   14  C   UNL     1     -13.090  10.676  71.964  1.00  0.00    -0.501 A  
HETATM   15  C   UNL     1     -12.266   9.594  71.635  1.00  0.00    -0.484 A  
HETATM   16  C   UNL     1     -12.020  12.015  70.282  1.00  0.00    -0.398 A  
HETATM   17  C   UNL     1     -12.981  11.878  71.277  1.00  0.00    -0.334 A  
HETATM   18  C   UNL     1     -11.189  10.939  69.961  1.00  0.00    -0.340 A  
ENDBRANCH   6  13
ENDBRANCH   4   6
ENDBRANCH   3   4
ENDBRANCH   2   3
TORSDOF 4
ENDMDL
MODEL       54
REMARK 921   NORMALIZED FREE ENERGY PREDICTED BY IDOCK:   -4.03 KCAL/MOL
REMARK 922        TOTAL FREE ENERGY PREDICTED BY IDOCK:   -5.90 KCAL/MOL
REMARK 923 INTER-LIGAND FREE ENERGY PREDICTED BY IDOCK:   -5.30 KCAL/MOL
REMARK 924 INTRA-LIGAND FREE ENERGY PREDICTED BY IDOCK:   -0.60 KCAL/MOL
REMARK 927      BINDING AFFINITY PREDICTED BY RF-SCORE:    0.00 PKD
ROOT
HETATM    1  C   UNL     1      -6.343   8.551  73.551  1.00  0.00    -0.117 C  
HETATM    2  C   UNL     1      -7.662   8.281  74.262  1.00  0.00    -0.222 C  
ENDROOT
BRANCH   2   3
HETATM    3  O   UNL     1      -8.786   8.546  73.401  1.00  0.00    -0.331 OA 
BRANCH   3   4
HETATM    4  C   UNL     1      -9.751   7.585  73.429  1.00  0.00    -0.291 C  
HETATM    5  O   UNL     1     -10.035   6.946  74.441  1.00  0.00    -0.309 OA 
BRANCH   4   6
HETATM    6  C   UNL     1     -10.414   7.327  72.051  1.00  0.00    -0.228 C  
HETATM    7  C   UNL     1     -11.266   6.033  71.967  1.00  0.00    -0.341 C  
HETATM    8  C   UNL     1      -9.219   7.141  71.073  1.00  0.00    -0.158 C  
HETATM    9  C   UNL     1      -8.427   5.871  71.402  1.00  0.00    -0.128 C  
HETATM   10  C   UNL     1      -9.504   4.303  69.900  1.00  0.00    -0.189 C  
HETATM   11  C   UNL     1     -10.452   4.740  72.113  1.00  0.00    -0.175 C  
HETATM   12  N   UNL     1      -9.240   4.660  71.293  1.00  0.00    -0.133 NA 
BRANCH   6  13
HETATM   13  C   UNL     1     -11.311   8.544  71.720  1.00  0.00    -0.377 A  
HETATM   14  C   UNL     1     -11.741  10.653  70.569  1.00  0.00    -0.451 A  
HETATM   15  C   UNL     1     -10.950   9.518  70.776  1.00  0.00    -0.389 A  
HETATM   16  C   UNL     1     -13.314   9.868  72.205  1.00  0.00    -0.498 A  
HETATM   17  C   UNL     1     -12.911  10.838  71.295  1.00  0.00    -0.540 A  
HETATM   18  C   UNL     1     -12.530   8.728  72.404  1.00  0.00    -0.421 A  
ENDBRANCH   6  13
ENDBRANCH   4   6
ENDBRANCH   3   4
ENDBRANCH   2   3
TORSDOF 4
ENDMDL
MODEL       55
REMARK 921   NORMALIZED FREE ENERGY PREDICTED BY IDOCK:   -3.97 KCAL/MOL
REMARK 922        TOTAL FREE ENERGY PREDICTED BY IDOCK:   -5.83 KCAL/MOL
REMARK 923 INTER-LIGAND FREE ENERGY PREDICTED BY IDOCK:   -5.18 KCAL/MOL
REMARK 924 INTRA-LIGAND FREE ENERGY PREDICTED BY IDOCK:   -0.65 KCAL/MOL
REMARK 927      BINDING AFFINITY PREDICTED BY RF-SCORE:    0.00 PKD
ROOT
HETATM    1  C   UNL     1      -6.564  11.469  69.020  1.00  0.00    -0.089 C  
HETATM    2  C   UNL     1      -6.884  12.637  68.098  1.00  0.00    -0.090 C  
ENDROOT
BRANCH   2   3
HETATM    3  O   UNL     1      -8.083  12.391  67.337  1.00  0.00    -0.159 OA 
BRANCH   3   4
HETATM    4  C   UNL     1      -9.209  12.942  67.872  1.00  0.00    -0.208 C  
HETATM    5  O   UNL     1      -9.204  13.987  68.520  1.00  0.00    -0.198 OA 
BRANCH   4   6
HETATM    6  C   UNL     1     -10.487  12.095  67.641  1.00  0.00    -0.225 C  
HETATM    7  C   UNL     1     -10.429  11.142  66.419  1.00  0.00    -0.311 C  
HETATM    8  C   UNL     1     -11.598  13.142  67.341  1.00  0.00    -0.403 C  
HETATM    9  C   UNL     1     -11.332  13.869  66.018  1.00  0.00    -0.324 C  
HETATM   10  C   UNL     1     -12.645  12.496  64.514  1.00  0.00    -0.421 C  
HETATM   11  C   UNL     1     -10.347  11.866  65.067  1.00  0.00    -0.289 C  
HETATM   12  N   UNL     1     -11.305  12.957  64.875  1.00  0.00    -0.298 NA 
BRANCH   6  13
HETATM   13  C   UNL     1     -10.742  11.261  68.919  1.00  0.00    -0.246 A  
HETATM   14  C   UNL     1     -10.250   9.382  70.399  1.00  0.00    -0.310 A  
HETATM   15  C   UNL     1      -9.936  10.171  69.287  1.00  0.00    -0.234 A  
HETATM   16  C   UNL     1     -12.162  10.764  70.853  1.00  0.00    -0.487 A  
HETATM   17  C   UNL     1     -11.371   9.666  71.170  1.00  0.00    -0.456 A  
HETATM   18  C   UNL     1     -11.842  11.559  69.749  1.00  0.00    -0.429 A  
ENDBRANCH   6  13
ENDBRANCH   4   6
ENDBRANCH   3   4
ENDBRANCH   2   3
TORSDOF 4
ENDMDL
MODEL       56
REMARK 921   NORMALIZED FREE ENERGY PREDICTED BY IDOCK:   -3.97 KCAL/MOL
REMARK 922        TOTAL FREE ENERGY PREDICTED BY IDOCK:   -5.82 KCAL/MOL
REMARK 923 INTER-LIGAND FREE ENERGY PREDICTED BY IDOCK:   -5.37 KCAL/MOL
REMARK 924 INTRA-LIGAND FREE ENERGY PREDICTED BY IDOCK:   -0.45 KCAL/MOL
REMARK 927      BINDING AFFINITY PREDICTED BY RF-SCORE:    0.00 PKD
ROOT
HETATM    1  C   UNL     1      -5.994  13.920  68.658  1.00  0.00    -0.088 C  
HETATM    2  C   UNL     1      -6.806  15.120  68.190  1.00  0.00    -0.128 C  
ENDROOT
BRANCH   2   3
HETATM    3  O   UNL     1      -7.933  14.712  67.391  1.00  0.00    -0.176 OA 
BRANCH   3   4
HETATM    4  C   UNL     1      -9.145  15.010  67.938  1.00  0.00    -0.180 C  
HETATM    5  O   UNL     1      -9.480  14.650  69.066  1.00  0.00    -0.196 OA 
BRANCH   4   6
HETATM    6  C   UNL     1     -10.086  15.789  66.984  1.00  0.00    -0.261 C  
HETATM    7  C   UNL     1      -9.378  16.813  66.059  1.00  0.00    -0.245 C  
HETATM    8  C   UNL     1     -11.010  16.606  67.931  1.00  0.00    -0.276 C  
HETATM    9  C   UNL     1     -10.217  17.669  68.699  1.00  0.00    -0.377 C  
HETATM   10  C   UNL     1     -10.544  19.574  67.236  1.00  0.00    -0.490 C  
HETATM   11  C   UNL     1      -8.732  17.987  66.806  1.00  0.00    -0.255 C  
HETATM   12  N   UNL     1      -9.577  18.640  67.811  1.00  0.00    -0.297 NA 
BRANCH   6  13
HETATM   13  C   UNL     1     -10.839  14.757  66.111  1.00  0.00    -0.321 A  
HETATM   14  C   UNL     1     -11.046  13.369  64.113  1.00  0.00    -0.353 A  
HETATM   15  C   UNL     1     -10.301  14.229  64.926  1.00  0.00    -0.429 A  
HETATM   16  C   UNL     1     -12.884  13.487  65.656  1.00  0.00    -0.380 A  
HETATM   17  C   UNL     1     -12.342  13.013  64.467  1.00  0.00    -0.461 A  
HETATM   18  C   UNL     1     -12.135  14.338  66.474  1.00  0.00    -0.454 A  
ENDBRANCH   6  13
ENDBRANCH   4   6
ENDBRANCH   3   4
ENDBRANCH   2   3
TORSDOF 4
ENDMDL
MODEL       57
REMARK 921   NORMALIZED FREE ENERGY PREDICTED BY IDOCK:   -3.95 KCAL/MOL
REMARK 922        TOTAL FREE ENERGY PREDICTED BY IDOCK:   -5.79 KCAL/MOL
REMARK 923 INTER-LIGAND FREE ENERGY PREDICTED BY IDOCK:   -5.33 KCAL/MOL
REMARK 924 INTRA-LIGAND FREE ENERGY PREDICTED BY IDOCK:   -0.47 KCAL/MOL
REMARK 927      BINDING AFFINITY PREDICTED BY RF-SCORE:    0.00 PKD
ROOT
HETATM    1  C   UNL     1     -11.633   9.535  70.942  1.00  0.00    -0.398 C  
HETATM    2  C   UNL     1     -12.364  10.844  70.676  1.00  0.00    -0.376 C  
ENDROOT
BRANCH   2   3
HETATM    3  O   UNL     1     -12.359  11.172  69.274  1.00  0.00    -0.381 OA 
BRANCH   3   4
HETATM    4  C   UNL     1     -11.690  12.319  68.969  1.00  0.00    -0.324 C  
HETATM    5  O   UNL     1     -11.864  13.379  69.569  1.00  0.00    -0.298 OA 
BRANCH   4   6
HETATM    6  C   UNL     1     -10.734  12.180  67.756  1.00  0.00    -0.241 C  
HETATM    7  C   UNL     1      -9.652  13.286  67.646  1.00  0.00    -0.213 C  
HETATM    8  C   UNL     1     -11.658  12.331  66.514  1.00  0.00    -0.440 C  
HETATM    9  C   UNL     1     -12.243  13.745  66.427  1.00  0.00    -0.436 C  
HETATM   10  C   UNL     1     -10.615  14.784  64.962  1.00  0.00    -0.429 C  
HETATM   11  C   UNL     1     -10.218  14.687  67.375  1.00  0.00    -0.240 C  
HETATM   12  N   UNL     1     -11.209  14.772  66.298  1.00  0.00    -0.342 NA 
BRANCH   6  13
HETATM   13  C   UNL     1     -10.038  10.802  67.855  1.00  0.00    -0.197 A  
HETATM   14  C   UNL     1      -9.863   8.431  67.297  1.00  0.00    -0.264 A  
HETATM   15  C   UNL     1     -10.457   9.685  67.114  1.00  0.00    -0.317 A  
HETATM   16  C   UNL     1      -8.374   9.364  68.934  1.00  0.00    -0.120 A  
HETATM   17  C   UNL     1      -8.837   8.266  68.219  1.00  0.00    -0.140 A  
HETATM   18  C   UNL     1      -8.958  10.619  68.744  1.00  0.00    -0.172 A  
ENDBRANCH   6  13
ENDBRANCH   4   6
ENDBRANCH   3   4
ENDBRANCH   2   3
TORSDOF 4
ENDMDL
MODEL       58
REMARK 921   NORMALIZED FREE ENERGY PREDICTED BY IDOCK:   -3.91 KCAL/MOL
REMARK 922        TOTAL FREE ENERGY PREDICTED BY IDOCK:   -5.75 KCAL/MOL
REMARK 923 INTER-LIGAND FREE ENERGY PREDICTED BY IDOCK:   -5.05 KCAL/MOL
REMARK 924 INTRA-LIGAND FREE ENERGY PREDICTED BY IDOCK:   -0.70 KCAL/MOL
REMARK 927      BINDING AFFINITY PREDICTED BY RF-SCORE:    0.00 PKD
ROOT
HETATM    1  C   UNL     1     -11.224   4.415  73.353  1.00  0.00    -0.386 C  
HETATM    2  C   UNL     1      -9.876   5.102  73.183  1.00  0.00    -0.153 C  
ENDROOT
BRANCH   2   3
HETATM    3  O   UNL     1      -9.643   5.466  71.809  1.00  0.00    -0.145 OA 
BRANCH   3   4
HETATM    4  C   UNL     1      -9.614   6.809  71.583  1.00  0.00    -0.162 C  
HETATM    5  O   UNL     1      -8.914   7.586  72.231  1.00  0.00    -0.127 OA 
BRANCH   4   6
HETATM    6  C   UNL     1     -10.593   7.277  70.475  1.00  0.00    -0.237 C  
HETATM    7  C   UNL     1     -10.979   6.188  69.441  1.00  0.00    -0.454 C  
HETATM    8  C   UNL     1      -9.807   8.373  69.700  1.00  0.00    -0.184 C  
HETATM    9  C   UNL     1      -8.600   7.776  68.968  1.00  0.00    -0.135 C  
HETATM   10  C   UNL     1      -9.586   7.373  66.791  1.00  0.00    -0.192 C  
HETATM   11  C   UNL     1      -9.808   5.710  68.571  1.00  0.00    -0.143 C  
HETATM   12  N   UNL     1      -8.986   6.769  67.980  1.00  0.00    -0.119 NA 
BRANCH   6  13
HETATM   13  C   UNL     1     -11.878   7.796  71.164  1.00  0.00    -0.311 A  
HETATM   14  C   UNL     1     -14.192   7.525  71.891  1.00  0.00    -0.477 A  
HETATM   15  C   UNL     1     -13.016   6.996  71.348  1.00  0.00    -0.395 A  
HETATM   16  C   UNL     1     -13.129   9.665  72.134  1.00  0.00    -0.520 A  
HETATM   17  C   UNL     1     -14.256   8.861  72.266  1.00  0.00    -0.474 A  
HETATM   18  C   UNL     1     -11.951   9.135  71.602  1.00  0.00    -0.437 A  
ENDBRANCH   6  13
ENDBRANCH   4   6
ENDBRANCH   3   4
ENDBRANCH   2   3
TORSDOF 4
ENDMDL
MODEL       59
REMARK 921   NORMALIZED FREE ENERGY PREDICTED BY IDOCK:   -3.87 KCAL/MOL
REMARK 922        TOTAL FREE ENERGY PREDICTED BY IDOCK:   -5.69 KCAL/MOL
REMARK 923 INTER-LIGAND FREE ENERGY PREDICTED BY IDOCK:   -5.20 KCAL/MOL
REMARK 924 INTRA-LIGAND FREE ENERGY PREDICTED BY IDOCK:   -0.49 KCAL/MOL
REMARK 927      BINDING AFFINITY PREDICTED BY RF-SCORE:    0.00 PKD
ROOT
HETATM    1  C   UNL     1     -13.204  14.364  70.755  1.00  0.00    -0.288 C  
HETATM    2  C   UNL     1     -12.186  13.233  70.721  1.00  0.00    -0.308 C  
ENDROOT
BRANCH   2   3
HETATM    3  O   UNL     1     -11.516  13.168  69.447  1.00  0.00    -0.269 OA 
BRANCH   3   4
HETATM    4  C   UNL     1     -11.710  12.002  68.770  1.00  0.00    -0.321 C  
HETATM    5  O   UNL     1     -12.503  11.136  69.137  1.00  0.00    -0.418 OA 
BRANCH   4   6
HETATM    6  C   UNL     1     -10.792  11.839  67.531  1.00  0.00    -0.286 C  
HETATM    7  C   UNL     1     -10.938  10.489  66.782  1.00  0.00    -0.150 C  
HETATM    8  C   UNL     1      -9.348  11.878  68.109  1.00  0.00    -0.191 C  
HETATM    9  C   UNL     1      -9.074  10.659  68.996  1.00  0.00    -0.166 C  
HETATM   10  C   UNL     1      -8.058   9.176  67.371  1.00  0.00    -0.107 C  
HETATM   11  C   UNL     1     -10.492   9.270  67.600  1.00  0.00    -0.264 C  
HETATM   12  N   UNL     1      -9.192   9.397  68.266  1.00  0.00    -0.131 NA 
BRANCH   6  13
HETATM   13  C   UNL     1     -11.106  12.996  66.552  1.00  0.00    -0.315 A  
HETATM   14  C   UNL     1     -12.513  14.076  64.874  1.00  0.00    -0.419 A  
HETATM   15  C   UNL     1     -12.301  13.066  65.818  1.00  0.00    -0.477 A  
HETATM   16  C   UNL     1     -10.364  15.019  65.387  1.00  0.00    -0.410 A  
HETATM   17  C   UNL     1     -11.538  15.040  64.644  1.00  0.00    -0.386 A  
HETATM   18  C   UNL     1     -10.157  14.017  66.339  1.00  0.00    -0.299 A  
ENDBRANCH   6  13
ENDBRANCH   4   6
ENDBRANCH   3   4
ENDBRANCH   2   3
TORSDOF 4
ENDMDL
MODEL       60
REMARK 921   NORMALIZED FREE ENERGY PREDICTED BY IDOCK:   -3.85 KCAL/MOL
REMARK 922        TOTAL FREE ENERGY PREDICTED BY IDOCK:   -5.67 KCAL/MOL
REMARK 923 INTER-LIGAND FREE ENERGY PREDICTED BY IDOCK:   -5.03 KCAL/MOL
REMARK 924 INTRA-LIGAND FREE ENERGY PREDICTED BY IDOCK:   -0.64 KCAL/MOL
REMARK 927      BINDING AFFINITY PREDICTED BY RF-SCORE:    0.00 PKD
ROOT
HETATM    1  C   UNL     1      -7.050  10.521  69.358  1.00  0.00    -0.110 C  
HETATM    2  C   UNL     1      -7.400  11.897  68.809  1.00  0.00    -0.105 C  
ENDROOT
BRANCH   2   3
HETATM    3  O   UNL     1      -8.724  11.913  68.240  1.00  0.00    -0.163 OA 
BRANCH   3   4
HETATM    4  C   UNL     1      -8.792  11.442  66.964  1.00  0.00    -0.168 C  
HETATM    5  O   UNL     1      -7.876  11.566  66.151  1.00  0.00    -0.034 OA 
BRANCH   4   6
HETATM    6  C   UNL     1     -10.154  10.790  66.610  1.00  0.00    -0.265 C  
HETATM    7  C   UNL     1     -11.020  10.381  67.830  1.00  0.00    -0.369 C  
HETATM    8  C   UNL     1      -9.775   9.477  65.868  1.00  0.00    -0.352 C  
HETATM    9  C   UNL     1      -9.071   8.492  66.808  1.00  0.00    -0.151 C  
HETATM   10  C   UNL     1     -10.971   7.175  67.536  1.00  0.00    -0.190 C  
HETATM   11  C   UNL     1     -10.407   9.261  68.682  1.00  0.00    -0.205 C  
HETATM   12  N   UNL     1      -9.912   8.099  67.939  1.00  0.00    -0.173 NA 
BRANCH   6  13
HETATM   13  C   UNL     1     -10.949  11.794  65.741  1.00  0.00    -0.353 A  
HETATM   14  C   UNL     1     -11.603  12.728  63.582  1.00  0.00    -0.572 A  
HETATM   15  C   UNL     1     -10.948  11.750  64.338  1.00  0.00    -0.397 A  
HETATM   16  C   UNL     1     -12.329  13.812  65.599  1.00  0.00    -0.517 A  
HETATM   17  C   UNL     1     -12.276  13.768  64.210  1.00  0.00    -0.444 A  
HETATM   18  C   UNL     1     -11.685  12.829  66.354  1.00  0.00    -0.464 A  
ENDBRANCH   6  13
ENDBRANCH   4   6
ENDBRANCH   3   4
ENDBRANCH   2   3
TORSDOF 4
ENDMDL
MODEL       61
REMARK 921   NORMALIZED FREE ENERGY PREDICTED BY IDOCK:   -3.85 KCAL/MOL
REMARK 922        TOTAL FREE ENERGY PREDICTED BY IDOCK:   -5.67 KCAL/MOL
REMARK 923 INTER-LIGAND FREE ENERGY PREDICTED BY IDOCK:   -4.88 KCAL/MOL
REMARK 924 INTRA-LIGAND FREE ENERGY PREDICTED BY IDOCK:   -0.79 KCAL/MOL
REMARK 927      BINDING AFFINITY PREDICTED BY RF-SCORE:    0.00 PKD
ROOT
HETATM    1  C   UNL     1      -8.842  14.605  67.093  1.00  0.00    -0.238 C  
HETATM    2  C   UNL     1      -7.928  13.545  67.692  1.00  0.00    -0.176 C  
ENDROOT
BRANCH   2   3
HETATM    3  O   UNL     1      -8.104  12.272  67.041  1.00  0.00    -0.176 OA 
BRANCH   3   4
HETATM    4  C   UNL     1      -9.112  11.514  67.557  1.00  0.00    -0.166 C  
HETATM    5  O   UNL     1      -9.419  11.522  68.748  1.00  0.00    -0.175 OA 
BRANCH   4   6
HETATM    6  C   UNL     1      -9.797  10.592  66.514  1.00  0.00    -0.250 C  
HETATM    7  C   UNL     1     -10.747   9.522  67.110  1.00  0.00    -0.252 C  
HETATM    8  C   UNL     1      -8.621   9.825  65.843  1.00  0.00    -0.149 C  
HETATM    9  C   UNL     1      -7.930   8.889  66.840  1.00  0.00    -0.101 C  
HETATM   10  C   UNL     1      -9.130   6.833  66.386  1.00  0.00    -0.152 C  
HETATM   11  C   UNL     1     -10.036   8.465  67.967  1.00  0.00    -0.199 C  
HETATM   12  N   UNL     1      -8.836   7.871  67.372  1.00  0.00    -0.127 NA 
BRANCH   6  13
HETATM   13  C   UNL     1     -10.597  11.490  65.539  1.00  0.00    -0.334 A  
HETATM   14  C   UNL     1     -12.365  13.101  65.054  1.00  0.00    -0.511 A  
HETATM   15  C   UNL     1     -11.599  12.374  65.970  1.00  0.00    -0.455 A  
HETATM   16  C   UNL     1     -11.131  12.131  63.236  1.00  0.00    -0.408 A  
HETATM   17  C   UNL     1     -12.145  12.966  63.688  1.00  0.00    -0.611 A  
HETATM   18  C   UNL     1     -10.357  11.412  64.151  1.00  0.00    -0.400 A  
ENDBRANCH   6  13
ENDBRANCH   4   6
ENDBRANCH   3   4
ENDBRANCH   2   3
TORSDOF 4
ENDMDL
MODEL       62
REMARK 921   NORMALIZED FREE ENERGY PREDICTED BY IDOCK:   -3.84 KCAL/MOL
REMARK 922        TOTAL FREE ENERGY PREDICTED BY IDOCK:   -5.66 KCAL/MOL
REMARK 923 INTER-LIGAND FREE ENERGY PREDICTED BY IDOCK:   -5.29 KCAL/MOL
REMARK 924 INTRA-LIGAND FREE ENERGY PREDICTED BY IDOCK:   -0.38 KCAL/MOL
REMARK 927      BINDING AFFINITY PREDICTED BY RF-SCORE:    0.00 PKD
ROOT
HETATM    1  C   UNL     1      -7.298  15.081  68.949  1.00  0.00    -0.139 C  
HETATM    2  C   UNL     1      -7.886  14.177  67.874  1.00  0.00    -0.155 C  
ENDROOT
BRANCH   2   3
HETATM    3  O   UNL     1      -9.215  13.745  68.221  1.00  0.00    -0.198 OA 
BRANCH   3   4
HETATM    4  C   UNL     1      -9.419  12.403  68.095  1.00  0.00    -0.214 C  
HETATM    5  O   UNL     1      -8.511  11.576  68.168  1.00  0.00    -0.140 OA 
BRANCH   4   6
HETATM    6  C   UNL     1     -10.890  12.021  67.790  1.00  0.00    -0.256 C  
HETATM    7  C   UNL     1     -11.952  12.801  68.608  1.00  0.00    -0.272 C  
HETATM    8  C   UNL     1     -11.001  10.530  68.217  1.00  0.00    -0.314 C  
HETATM    9  C   UNL     1     -10.834  10.374  69.733  1.00  0.00    -0.292 C  
HETATM   10  C   UNL     1     -13.157  10.427  70.419  1.00  0.00    -0.056 C  
HETATM   11  C   UNL     1     -11.914  12.512  70.115  1.00  0.00    -0.301 C  
HETATM   12  N   UNL     1     -11.859  11.095  70.486  1.00  0.00    -0.355 NA 
BRANCH   6  13
HETATM   13  C   UNL     1     -11.140  12.260  66.281  1.00  0.00    -0.342 A  
HETATM   14  C   UNL     1     -12.185  13.470  64.436  1.00  0.00    -0.440 A  
HETATM   15  C   UNL     1     -11.902  13.336  65.799  1.00  0.00    -0.428 A  
HETATM   16  C   UNL     1     -10.916  11.485  63.968  1.00  0.00    -0.454 A  
HETATM   17  C   UNL     1     -11.710  12.536  63.524  1.00  0.00    -0.595 A  
HETATM   18  C   UNL     1     -10.624  11.357  65.329  1.00  0.00    -0.336 A  
ENDBRANCH   6  13
ENDBRANCH   4   6
ENDBRANCH   3   4
ENDBRANCH   2   3
TORSDOF 4
ENDMDL
MODEL       63
REMARK 921   NORMALIZED FREE ENERGY PREDICTED BY IDOCK:   -3.84 KCAL/MOL
REMARK 922        TOTAL FREE ENERGY PREDICTED BY IDOCK:   -5.66 KCAL/MOL
REMARK 923 INTER-LIGAND FREE ENERGY PREDICTED BY IDOCK:   -5.31 KCAL/MOL
REMARK 924 INTRA-LIGAND FREE ENERGY PREDICTED BY IDOCK:   -0.36 KCAL/MOL
REMARK 927      BINDING AFFINITY PREDICTED BY RF-SCORE:    0.00 PKD
ROOT
HETATM    1  C   UNL     1     -10.167   5.657  67.656  1.00  0.00    -0.243 C  
HETATM    2  C   UNL     1     -10.827   6.951  68.112  1.00  0.00    -0.194 C  
ENDROOT
BRANCH   2   3
HETATM    3  O   UNL     1     -10.344   7.358  69.406  1.00  0.00    -0.200 OA 
BRANCH   3   4
HETATM    4  C   UNL     1     -11.304   7.409  70.371  1.00  0.00    -0.249 C  
HETATM    5  O   UNL     1     -12.281   6.662  70.389  1.00  0.00    -0.332 OA 
BRANCH   4   6
HETATM    6  C   UNL     1     -11.085   8.539  71.410  1.00  0.00    -0.328 C  
HETATM    7  C   UNL     1     -12.383   9.131  72.017  1.00  0.00    -0.448 C  
HETATM    8  C   UNL     1     -10.405   9.682  70.604  1.00  0.00    -0.365 C  
HETATM    9  C   UNL     1     -11.357  10.260  69.551  1.00  0.00    -0.241 C  
HETATM   10  C   UNL     1     -12.293  12.112  70.803  1.00  0.00    -0.297 C  
HETATM   11  C   UNL     1     -13.263   9.875  71.003  1.00  0.00    -0.304 C  
HETATM   12  N   UNL     1     -12.564  10.836  70.144  1.00  0.00    -0.299 NA 
BRANCH   6  13
HETATM   13  C   UNL     1     -10.208   7.971  72.552  1.00  0.00    -0.361 A  
HETATM   14  C   UNL     1      -8.088   7.777  73.748  1.00  0.00    -0.234 A  
HETATM   15  C   UNL     1      -8.881   8.378  72.765  1.00  0.00    -0.276 A  
HETATM   16  C   UNL     1      -9.927   6.368  74.383  1.00  0.00    -0.362 A  
HETATM   17  C   UNL     1      -8.603   6.760  74.543  1.00  0.00    -0.195 A  
HETATM   18  C   UNL     1     -10.723   6.976  73.409  1.00  0.00    -0.379 A  
ENDBRANCH   6  13
ENDBRANCH   4   6
ENDBRANCH   3   4
ENDBRANCH   2   3
TORSDOF 4
ENDMDL
MODEL       64
REMARK 921   NORMALIZED FREE ENERGY PREDICTED BY IDOCK:   -3.83 KCAL/MOL
REMARK 922        TOTAL FREE ENERGY PREDICTED BY IDOCK:   -5.64 KCAL/MOL
REMARK 923 INTER-LIGAND FREE ENERGY PREDICTED BY IDOCK:   -5.18 KCAL/MOL
REMARK 924 INTRA-LIGAND FREE ENERGY PREDICTED BY IDOCK:   -0.46 KCAL/MOL
REMARK 927      BINDING AFFINITY PREDICTED BY RF-SCORE:    0.00 PKD
ROOT
HETATM    1  C   UNL     1      -6.383  12.513  69.442  1.00  0.00    -0.114 C  
HETATM    2  C   UNL     1      -7.178  13.056  68.262  1.00  0.00    -0.113 C  
ENDROOT
BRANCH   2   3
HETATM    3  O   UNL     1      -8.295  13.851  68.704  1.00  0.00    -0.152 OA 
BRANCH   3   4
HETATM    4  C   UNL     1      -9.226  14.093  67.739  1.00  0.00    -0.193 C  
HETATM    5  O   UNL     1      -9.250  13.498  66.662  1.00  0.00    -0.248 OA 
BRANCH   4   6
HETATM    6  C   UNL     1     -10.214  15.234  68.097  1.00  0.00    -0.230 C  
HETATM    7  C   UNL     1     -11.235  15.588  66.985  1.00  0.00    -0.177 C  
HETATM    8  C   UNL     1      -9.310  16.485  68.291  1.00  0.00    -0.217 C  
HETATM    9  C   UNL     1      -8.650  16.901  66.972  1.00  0.00    -0.205 C  
HETATM   10  C   UNL     1     -10.248  18.553  66.205  1.00  0.00    -0.418 C  
HETATM   11  C   UNL     1     -10.599  16.181  65.720  1.00  0.00    -0.334 C  
HETATM   12  N   UNL     1      -9.628  17.255  65.944  1.00  0.00    -0.527 NA 
BRANCH   6  13
HETATM   13  C   UNL     1     -10.983  14.813  69.372  1.00  0.00    -0.282 A  
HETATM   14  C   UNL     1     -12.420  13.279  70.614  1.00  0.00    -0.373 A  
HETATM   15  C   UNL     1     -11.658  13.587  69.482  1.00  0.00    -0.355 A  
HETATM   16  C   UNL     1     -11.828  15.388  71.598  1.00  0.00    -0.468 A  
HETATM   17  C   UNL     1     -12.521  14.185  71.662  1.00  0.00    -0.395 A  
HETATM   18  C   UNL     1     -11.058  15.692  70.473  1.00  0.00    -0.375 A  
ENDBRANCH   6  13
ENDBRANCH   4   6
ENDBRANCH   3   4
ENDBRANCH   2   3
TORSDOF 4
ENDMDL
MODEL       65
REMARK 921   NORMALIZED FREE ENERGY PREDICTED BY IDOCK:   -3.78 KCAL/MOL
REMARK 922        TOTAL FREE ENERGY PREDICTED BY IDOCK:   -5.59 KCAL/MOL
REMARK 923 INTER-LIGAND FREE ENERGY PREDICTED BY IDOCK:   -5.20 KCAL/MOL
REMARK 924 INTRA-LIGAND FREE ENERGY PREDICTED BY IDOCK:   -0.39 KCAL/MOL
REMARK 927      BINDING AFFINITY PREDICTED BY RF-SCORE:    0.00 PKD
ROOT
HETATM    1  C   UNL     1     -10.512  19.953  65.943  1.00  0.00    -0.567 C  
HETATM    2  C   UNL     1     -10.786  19.221  67.250  1.00  0.00    -0.488 C  
ENDROOT
BRANCH   2   3
HETATM    3  O   UNL     1     -10.462  17.821  67.145  1.00  0.00    -0.350 OA 
BRANCH   3   4
HETATM    4  C   UNL     1     -10.050  17.252  68.312  1.00  0.00    -0.321 C  
HETATM    5  O   UNL     1     -10.618  17.437  69.388  1.00  0.00    -0.269 OA 
BRANCH   4   6
HETATM    6  C   UNL     1      -8.762  16.401  68.171  1.00  0.00    -0.191 C  
HETATM    7  C   UNL     1      -8.456  15.911  66.732  1.00  0.00    -0.297 C  
HETATM    8  C   UNL     1      -9.039  15.132  69.028  1.00  0.00    -0.218 C  
HETATM    9  C   UNL     1     -10.167  14.290  68.421  1.00  0.00    -0.245 C  
HETATM   10  C   UNL     1      -8.864  12.737  67.093  1.00  0.00    -0.202 C  
HETATM   11  C   UNL     1      -9.488  14.918  66.178  1.00  0.00    -0.295 C  
HETATM   12  N   UNL     1      -9.850  13.816  67.074  1.00  0.00    -0.245 NA 
BRANCH   6  13
HETATM   13  C   UNL     1      -7.572  17.251  68.678  1.00  0.00    -0.260 A  
HETATM   14  C   UNL     1      -6.473  19.393  69.080  1.00  0.00    -0.338 A  
HETATM   15  C   UNL     1      -7.599  18.654  68.703  1.00  0.00    -0.341 A  
HETATM   16  C   UNL     1      -5.257  17.358  69.469  1.00  0.00    -0.172 A  
HETATM   17  C   UNL     1      -5.297  18.747  69.444  1.00  0.00    -0.206 A  
HETATM   18  C   UNL     1      -6.385  16.620  69.104  1.00  0.00    -0.196 A  
ENDBRANCH   6  13
ENDBRANCH   4   6
ENDBRANCH   3   4
ENDBRANCH   2   3
TORSDOF 4
ENDMDL
MODEL       66
REMARK 921   NORMALIZED FREE ENERGY PREDICTED BY IDOCK:   -3.77 KCAL/MOL
REMARK 922        TOTAL FREE ENERGY PREDICTED BY IDOCK:   -5.57 KCAL/MOL
REMARK 923 INTER-LIGAND FREE ENERGY PREDICTED BY IDOCK:   -5.07 KCAL/MOL
REMARK 924 INTRA-LIGAND FREE ENERGY PREDICTED BY IDOCK:   -0.51 KCAL/MOL
REMARK 927      BINDING AFFINITY PREDICTED BY RF-SCORE:    0.00 PKD
ROOT
HETATM    1  C   UNL     1      -9.889   8.476  66.586  1.00  0.00    -0.342 C  
HETATM    2  C   UNL     1     -10.323   8.721  68.024  1.00  0.00    -0.220 C  
ENDROOT
BRANCH   2   3
HETATM    3  O   UNL     1      -9.659   7.821  68.933  1.00  0.00    -0.153 OA 
BRANCH   3   4
HETATM    4  C   UNL     1     -10.486   6.918  69.530  1.00  0.00    -0.223 C  
HETATM    5  O   UNL     1     -11.124   6.073  68.904  1.00  0.00    -0.343 OA 
BRANCH   4   6
HETATM    6  C   UNL     1     -10.595   7.094  71.067  1.00  0.00    -0.239 C  
HETATM    7  C   UNL     1      -9.425   7.872  71.722  1.00  0.00    -0.205 C  
HETATM    8  C   UNL     1     -10.541   5.644  71.629  1.00  0.00    -0.301 C  
HETATM    9  C   UNL     1      -9.171   5.004  71.377  1.00  0.00    -0.146 C  
HETATM   10  C   UNL     1      -8.069   5.532  73.471  1.00  0.00    -0.113 C  
HETATM   11  C   UNL     1      -8.072   7.152  71.637  1.00  0.00    -0.102 C  
HETATM   12  N   UNL     1      -8.083   5.738  72.023  1.00  0.00    -0.111 NA 
BRANCH   6  13
HETATM   13  C   UNL     1     -11.922   7.832  71.367  1.00  0.00    -0.331 A  
HETATM   14  C   UNL     1     -13.199   9.855  71.855  1.00  0.00    -0.558 A  
HETATM   15  C   UNL     1     -12.002   9.228  71.492  1.00  0.00    -0.439 A  
HETATM   16  C   UNL     1     -14.301   7.722  71.939  1.00  0.00    -0.545 A  
HETATM   17  C   UNL     1     -14.342   9.103  72.097  1.00  0.00    -0.272 A  
HETATM   18  C   UNL     1     -13.109   7.097  71.566  1.00  0.00    -0.427 A  
ENDBRANCH   6  13
ENDBRANCH   4   6
ENDBRANCH   3   4
ENDBRANCH   2   3
TORSDOF 4
ENDMDL
MODEL       67
REMARK 921   NORMALIZED FREE ENERGY PREDICTED BY IDOCK:   -3.77 KCAL/MOL
REMARK 922        TOTAL FREE ENERGY PREDICTED BY IDOCK:   -5.57 KCAL/MOL
REMARK 923 INTER-LIGAND FREE ENERGY PREDICTED BY IDOCK:   -5.10 KCAL/MOL
REMARK 924 INTRA-LIGAND FREE ENERGY PREDICTED BY IDOCK:   -0.47 KCAL/MOL
REMARK 927      BINDING AFFINITY PREDICTED BY RF-SCORE:    0.00 PKD
ROOT
HETATM    1  C   UNL     1     -10.031   5.463  67.329  1.00  0.00    -0.198 C  
HETATM    2  C   UNL     1     -10.540   6.785  67.887  1.00  0.00    -0.242 C  
ENDROOT
BRANCH   2   3
HETATM    3  O   UNL     1     -10.062   7.007  69.228  1.00  0.00    -0.166 OA 
BRANCH   3   4
HETATM    4  C   UNL     1     -11.047   7.150  70.158  1.00  0.00    -0.272 C  
HETATM    5  O   UNL     1     -12.127   6.564  70.089  1.00  0.00    -0.323 OA 
BRANCH   4   6
HETATM    6  C   UNL     1     -10.707   8.167  71.278  1.00  0.00    -0.270 C  
HETATM    7  C   UNL     1      -9.192   8.405  71.507  1.00  0.00    -0.257 C  
HETATM    8  C   UNL     1     -11.261   7.515  72.577  1.00  0.00    -0.381 C  
HETATM    9  C   UNL     1     -10.492   6.235  72.925  1.00  0.00    -0.218 C  
HETATM   10  C   UNL     1      -8.837   7.141  74.447  1.00  0.00    -0.203 C  
HETATM   11  C   UNL     1      -8.440   7.175  72.033  1.00  0.00    -0.107 C  
HETATM   12  N   UNL     1      -9.070   6.484  73.162  1.00  0.00    -0.128 NA 
BRANCH   6  13
HETATM   13  C   UNL     1     -11.380   9.513  70.917  1.00  0.00    -0.410 A  
HETATM   14  C   UNL     1     -11.563  11.535  69.561  1.00  0.00    -0.400 A  
HETATM   15  C   UNL     1     -10.997  10.280  69.805  1.00  0.00    -0.338 A  
HETATM   16  C   UNL     1     -12.956  11.295  71.504  1.00  0.00    -0.520 A  
HETATM   17  C   UNL     1     -12.527  12.051  70.419  1.00  0.00    -0.235 A  
HETATM   18  C   UNL     1     -12.398  10.036  71.741  1.00  0.00    -0.434 A  
ENDBRANCH   6  13
ENDBRANCH   4   6
ENDBRANCH   3   4
ENDBRANCH   2   3
TORSDOF 4
ENDMDL
MODEL       68
REMARK 921   NORMALIZED FREE ENERGY PREDICTED BY IDOCK:   -3.77 KCAL/MOL
REMARK 922        TOTAL FREE ENERGY PREDICTED BY IDOCK:   -5.57 KCAL/MOL
REMARK 923 INTER-LIGAND FREE ENERGY PREDICTED BY IDOCK:   -5.30 KCAL/MOL
REMARK 924 INTRA-LIGAND FREE ENERGY PREDICTED BY IDOCK:   -0.28 KCAL/MOL
REMARK 927      BINDING AFFINITY PREDICTED BY RF-SCORE:    0.00 PKD
ROOT
HETATM    1  C   UNL     1      -9.015   7.305  66.129  1.00  0.00    -0.179 C  
HETATM    2  C   UNL     1     -10.084   8.143  66.816  1.00  0.00    -0.295 C  
ENDROOT
BRANCH   2   3
HETATM    3  O   UNL     1     -10.047   9.512  66.367  1.00  0.00    -0.254 OA 
BRANCH   3   4
HETATM    4  C   UNL     1      -9.397  10.361  67.211  1.00  0.00    -0.146 C  
HETATM    5  O   UNL     1      -8.177  10.347  67.371  1.00  0.00    -0.117 OA 
BRANCH   4   6
HETATM    6  C   UNL     1     -10.344  11.304  67.998  1.00  0.00    -0.204 C  
HETATM    7  C   UNL     1     -11.656  11.677  67.262  1.00  0.00    -0.316 C  
HETATM    8  C   UNL     1      -9.531  12.620  68.163  1.00  0.00    -0.218 C  
HETATM    9  C   UNL     1      -9.295  13.299  66.809  1.00  0.00    -0.252 C  
HETATM   10  C   UNL     1     -11.178  14.824  66.769  1.00  0.00    -0.344 C  
HETATM   11  C   UNL     1     -11.443  12.518  65.995  1.00  0.00    -0.377 C  
HETATM   12  N   UNL     1     -10.544  13.666  66.142  1.00  0.00    -0.287 NA 
BRANCH   6  13
HETATM   13  C   UNL     1     -10.696  10.613  69.338  1.00  0.00    -0.281 A  
HETATM   14  C   UNL     1     -10.153   9.151  71.216  1.00  0.00    -0.388 A  
HETATM   15  C   UNL     1      -9.774   9.836  70.057  1.00  0.00    -0.292 A  
HETATM   16  C   UNL     1     -12.381  10.026  71.016  1.00  0.00    -0.458 A  
HETATM   17  C   UNL     1     -11.459   9.230  71.685  1.00  0.00    -0.468 A  
HETATM   18  C   UNL     1     -12.000  10.720  69.865  1.00  0.00    -0.418 A  
ENDBRANCH   6  13
ENDBRANCH   4   6
ENDBRANCH   3   4
ENDBRANCH   2   3
TORSDOF 4
ENDMDL
MODEL       69
REMARK 921   NORMALIZED FREE ENERGY PREDICTED BY IDOCK:   -3.74 KCAL/MOL
REMARK 922        TOTAL FREE ENERGY PREDICTED BY IDOCK:   -5.54 KCAL/MOL
REMARK 923 INTER-LIGAND FREE ENERGY PREDICTED BY IDOCK:   -4.88 KCAL/MOL
REMARK 924 INTRA-LIGAND FREE ENERGY PREDICTED BY IDOCK:   -0.66 KCAL/MOL
REMARK 927      BINDING AFFINITY PREDICTED BY RF-SCORE:    0.00 PKD
ROOT
HETATM    1  C   UNL     1     -12.556  12.609  64.395  1.00  0.00    -0.470 C  
HETATM    2  C   UNL     1     -11.444  13.631  64.585  1.00  0.00    -0.365 C  
ENDROOT
BRANCH   2   3
HETATM    3  O   UNL     1     -11.626  14.384  65.800  1.00  0.00    -0.343 OA 
BRANCH   3   4
HETATM    4  C   UNL     1     -10.496  14.520  66.549  1.00  0.00    -0.285 C  
HETATM    5  O   UNL     1      -9.513  15.157  66.174  1.00  0.00    -0.282 OA 
BRANCH   4   6
HETATM    6  C   UNL     1     -10.540  13.744  67.892  1.00  0.00    -0.257 C  
HETATM    7  C   UNL     1     -11.911  13.769  68.617  1.00  0.00    -0.409 C  
HETATM    8  C   UNL     1      -9.534  14.497  68.808  1.00  0.00    -0.183 C  
HETATM    9  C   UNL     1     -10.027  15.913  69.126  1.00  0.00    -0.245 C  
HETATM   10  C   UNL     1     -11.164  15.501  71.227  1.00  0.00    -0.356 C  
HETATM   11  C   UNL     1     -12.333  15.161  69.105  1.00  0.00    -0.052 C  
HETATM   12  N   UNL     1     -11.308  15.915  69.832  1.00  0.00    -0.323 NA 
BRANCH   6  13
HETATM   13  C   UNL     1     -10.147  12.275  67.605  1.00  0.00    -0.204 A  
HETATM   14  C   UNL     1      -8.533  10.566  66.948  1.00  0.00    -0.125 A  
HETATM   15  C   UNL     1      -8.835  11.888  67.292  1.00  0.00    -0.179 A  
HETATM   16  C   UNL     1     -10.833   9.949  67.258  1.00  0.00    -0.268 A  
HETATM   17  C   UNL     1      -9.533   9.602  66.912  1.00  0.00    -0.198 A  
HETATM   18  C   UNL     1     -11.133  11.267  67.613  1.00  0.00    -0.336 A  
ENDBRANCH   6  13
ENDBRANCH   4   6
ENDBRANCH   3   4
ENDBRANCH   2   3
TORSDOF 4
ENDMDL
MODEL       70
REMARK 921   NORMALIZED FREE ENERGY PREDICTED BY IDOCK:   -3.73 KCAL/MOL
REMARK 922        TOTAL FREE ENERGY PREDICTED BY IDOCK:   -5.53 KCAL/MOL
REMARK 923 INTER-LIGAND FREE ENERGY PREDICTED BY IDOCK:   -5.43 KCAL/MOL
REMARK 924 INTRA-LIGAND FREE ENERGY PREDICTED BY IDOCK:   -0.10 KCAL/MOL
REMARK 927      BINDING AFFINITY PREDICTED BY RF-SCORE:    0.00 PKD
ROOT
HETATM    1  C   UNL     1     -12.532  13.116  65.195  1.00  0.00    -0.539 C  
HETATM    2  C   UNL     1     -11.613  14.327  65.116  1.00  0.00    -0.355 C  
ENDROOT
BRANCH   2   3
HETATM    3  O   UNL     1     -11.646  15.091  66.337  1.00  0.00    -0.294 OA 
BRANCH   3   4
HETATM    4  C   UNL     1     -10.423  15.510  66.769  1.00  0.00    -0.295 C  
HETATM    5  O   UNL     1      -9.367  15.147  66.253  1.00  0.00    -0.277 OA 
BRANCH   4   6
HETATM    6  C   UNL     1     -10.484  16.436  68.011  1.00  0.00    -0.303 C  
HETATM    7  C   UNL     1      -9.457  16.104  69.125  1.00  0.00    -0.251 C  
HETATM    8  C   UNL     1     -11.895  16.186  68.614  1.00  0.00    -0.083 C  
HETATM    9  C   UNL     1     -12.023  14.756  69.151  1.00  0.00    -0.282 C  
HETATM   10  C   UNL     1     -11.431  15.124  71.472  1.00  0.00    -0.365 C  
HETATM   11  C   UNL     1      -9.686  14.745  69.800  1.00  0.00     0.215 C  
HETATM   12  N   UNL     1     -11.064  14.470  70.217  1.00  0.00    -0.109 NA 
BRANCH   6  13
HETATM   13  C   UNL     1     -10.256  17.890  67.531  1.00  0.00    -0.366 A  
HETATM   14  C   UNL     1      -9.676  20.226  67.938  1.00  0.00    -0.472 A  
HETATM   15  C   UNL     1      -9.783  18.904  68.380  1.00  0.00    -0.432 A  
HETATM   16  C   UNL     1     -10.466  19.574  65.765  1.00  0.00    -0.518 A  
HETATM   17  C   UNL     1     -10.035  20.565  66.639  1.00  0.00    -0.378 A  
HETATM   18  C   UNL     1     -10.562  18.250  66.203  1.00  0.00    -0.326 A  
ENDBRANCH   6  13
ENDBRANCH   4   6
ENDBRANCH   3   4
ENDBRANCH   2   3
TORSDOF 4
ENDMDL
MODEL       71
REMARK 921   NORMALIZED FREE ENERGY PREDICTED BY IDOCK:   -3.73 KCAL/MOL
REMARK 922        TOTAL FREE ENERGY PREDICTED BY IDOCK:   -5.52 KCAL/MOL
REMARK 923 INTER-LIGAND FREE ENERGY PREDICTED BY IDOCK:   -5.07 KCAL/MOL
REMARK 924 INTRA-LIGAND FREE ENERGY PREDICTED BY IDOCK:   -0.45 KCAL/MOL
REMARK 927      BINDING AFFINITY PREDICTED BY RF-SCORE:    0.00 PKD
ROOT
HETATM    1  C   UNL     1      -5.621  19.535  63.026  1.00  0.00    -0.328 C  
HETATM    2  C   UNL     1      -6.032  19.762  64.474  1.00  0.00    -0.265 C  
ENDROOT
BRANCH   2   3
HETATM    3  O   UNL     1      -6.693  18.604  65.019  1.00  0.00    -0.526 OA 
BRANCH   3   4
HETATM    4  C   UNL     1      -7.595  18.884  66.001  1.00  0.00    -0.231 C  
HETATM    5  O   UNL     1      -8.256  19.921  66.031  1.00  0.00    -0.353 OA 
BRANCH   4   6
HETATM    6  C   UNL     1      -7.665  17.804  67.111  1.00  0.00    -0.224 C  
HETATM    7  C   UNL     1      -8.236  18.295  68.467  1.00  0.00    -0.329 C  
HETATM    8  C   UNL     1      -6.182  17.411  67.365  1.00  0.00    -0.166 C  
HETATM    9  C   UNL     1      -5.394  18.580  67.967  1.00  0.00    -0.170 C  
HETATM   10  C   UNL     1      -5.616  18.066  70.325  1.00  0.00    -0.237 C  
HETATM   11  C   UNL     1      -7.359  19.339  69.172  1.00  0.00    -0.306 C  
HETATM   12  N   UNL     1      -5.932  19.013  69.257  1.00  0.00    -0.238 NA 
BRANCH   6  13
HETATM   13  C   UNL     1      -8.540  16.640  66.587  1.00  0.00    -0.293 A  
HETATM   14  C   UNL     1     -10.550  15.774  65.505  1.00  0.00    -0.424 A  
HETATM   15  C   UNL     1      -9.737  16.848  65.883  1.00  0.00    -0.205 A  
HETATM   16  C   UNL     1      -8.984  14.233  66.476  1.00  0.00    -0.161 A  
HETATM   17  C   UNL     1     -10.185  14.471  65.817  1.00  0.00    -0.354 A  
HETATM   18  C   UNL     1      -8.166  15.305  66.844  1.00  0.00    -0.263 A  
ENDBRANCH   6  13
ENDBRANCH   4   6
ENDBRANCH   3   4
ENDBRANCH   2   3
TORSDOF 4
ENDMDL
MODEL       72
REMARK 921   NORMALIZED FREE ENERGY PREDICTED BY IDOCK:   -3.72 KCAL/MOL
REMARK 922        TOTAL FREE ENERGY PREDICTED BY IDOCK:   -5.51 KCAL/MOL
REMARK 923 INTER-LIGAND FREE ENERGY PREDICTED BY IDOCK:   -5.32 KCAL/MOL
REMARK 924 INTRA-LIGAND FREE ENERGY PREDICTED BY IDOCK:   -0.19 KCAL/MOL
REMARK 927      BINDING AFFINITY PREDICTED BY RF-SCORE:    0.00 PKD
ROOT
HETATM    1  C   UNL     1      -6.216  20.459  64.544  1.00  0.00    -0.340 C  
HETATM    2  C   UNL     1      -6.254  19.250  65.469  1.00  0.00    -0.232 C  
ENDROOT
BRANCH   2   3
HETATM    3  O   UNL     1      -7.527  18.579  65.403  1.00  0.00    -0.484 OA 
BRANCH   3   4
HETATM    4  C   UNL     1      -8.357  18.848  66.450  1.00  0.00    -0.296 C  
HETATM    5  O   UNL     1      -9.074  19.847  66.500  1.00  0.00    -0.350 OA 
BRANCH   4   6
HETATM    6  C   UNL     1      -8.268  17.813  67.600  1.00  0.00    -0.230 C  
HETATM    7  C   UNL     1      -7.915  16.370  67.155  1.00  0.00    -0.215 C  
HETATM    8  C   UNL     1      -9.706  17.762  68.190  1.00  0.00    -0.313 C  
HETATM    9  C   UNL     1     -10.699  17.180  67.179  1.00  0.00    -0.177 C  
HETATM   10  C   UNL     1     -10.669  14.852  67.852  1.00  0.00    -0.265 C  
HETATM   11  C   UNL     1      -8.992  15.704  66.287  1.00  0.00    -0.342 C  
HETATM   12  N   UNL     1     -10.365  15.810  66.791  1.00  0.00    -0.287 NA 
BRANCH   6  13
HETATM   13  C   UNL     1      -7.197  18.307  68.602  1.00  0.00    -0.293 A  
HETATM   14  C   UNL     1      -5.401  17.908  70.208  1.00  0.00    -0.249 A  
HETATM   15  C   UNL     1      -6.295  17.440  69.239  1.00  0.00    -0.244 A  
HETATM   16  C   UNL     1      -6.238  20.140  69.915  1.00  0.00    -0.380 A  
HETATM   17  C   UNL     1      -5.386  19.252  70.560  1.00  0.00    -0.234 A  
HETATM   18  C   UNL     1      -7.123  19.675  68.938  1.00  0.00    -0.388 A  
ENDBRANCH   6  13
ENDBRANCH   4   6
ENDBRANCH   3   4
ENDBRANCH   2   3
TORSDOF 4
ENDMDL
MODEL       73
REMARK 921   NORMALIZED FREE ENERGY PREDICTED BY IDOCK:   -3.69 KCAL/MOL
REMARK 922        TOTAL FREE ENERGY PREDICTED BY IDOCK:   -5.47 KCAL/MOL
REMARK 923 INTER-LIGAND FREE ENERGY PREDICTED BY IDOCK:   -4.64 KCAL/MOL
REMARK 924 INTRA-LIGAND FREE ENERGY PREDICTED BY IDOCK:   -0.83 KCAL/MOL
REMARK 927      BINDING AFFINITY PREDICTED BY RF-SCORE:    0.00 PKD
ROOT
HETATM    1  C   UNL     1     -11.425  14.657  69.432  1.00  0.00    -0.330 C  
HETATM    2  C   UNL     1     -11.904  13.230  69.662  1.00  0.00    -0.327 C  
ENDROOT
BRANCH   2   3
HETATM    3  O   UNL     1     -10.914  12.271  69.244  1.00  0.00    -0.195 OA 
BRANCH   3   4
HETATM    4  C   UNL     1     -10.969  11.949  67.921  1.00  0.00    -0.222 C  
HETATM    5  O   UNL     1     -12.008  11.612  67.354  1.00  0.00    -0.621 OA 
BRANCH   4   6
HETATM    6  C   UNL     1      -9.591  11.984  67.211  1.00  0.00    -0.185 C  
HETATM    7  C   UNL     1      -9.479  11.082  65.954  1.00  0.00    -0.244 C  
HETATM    8  C   UNL     1      -8.598  11.413  68.263  1.00  0.00    -0.156 C  
HETATM    9  C   UNL     1      -8.884   9.935  68.550  1.00  0.00    -0.122 C  
HETATM   10  C   UNL     1      -7.349   8.899  66.986  1.00  0.00    -0.083 C  
HETATM   11  C   UNL     1      -9.582   9.580  66.253  1.00  0.00    -0.226 C  
HETATM   12  N   UNL     1      -8.749   9.097  67.358  1.00  0.00    -0.115 NA 
BRANCH   6  13
HETATM   13  C   UNL     1      -9.302  13.450  66.808  1.00  0.00    -0.260 A  
HETATM   14  C   UNL     1      -8.126  15.570  67.092  1.00  0.00    -0.249 A  
HETATM   15  C   UNL     1      -8.299  14.221  67.417  1.00  0.00    -0.212 A  
HETATM   16  C   UNL     1      -9.920  15.427  65.501  1.00  0.00    -0.379 A  
HETATM   17  C   UNL     1      -8.947  16.178  66.151  1.00  0.00    -0.372 A  
HETATM   18  C   UNL     1     -10.086  14.076  65.817  1.00  0.00    -0.345 A  
ENDBRANCH   6  13
ENDBRANCH   4   6
ENDBRANCH   3   4
ENDBRANCH   2   3
TORSDOF 4
ENDMDL
MODEL       74
REMARK 921   NORMALIZED FREE ENERGY PREDICTED BY IDOCK:   -3.66 KCAL/MOL
REMARK 922        TOTAL FREE ENERGY PREDICTED BY IDOCK:   -5.44 KCAL/MOL
REMARK 923 INTER-LIGAND FREE ENERGY PREDICTED BY IDOCK:   -4.92 KCAL/MOL
REMARK 924 INTRA-LIGAND FREE ENERGY PREDICTED BY IDOCK:   -0.52 KCAL/MOL
REMARK 927      BINDING AFFINITY PREDICTED BY RF-SCORE:    0.00 PKD
ROOT
HETATM    1  C   UNL     1      -9.143   9.570  70.285  1.00  0.00    -0.296 C  
HETATM    2  C   UNL     1     -10.359  10.228  69.648  1.00  0.00    -0.248 C  
ENDROOT
BRANCH   2   3
HETATM    3  O   UNL     1     -10.206  10.343  68.220  1.00  0.00    -0.151 OA 
BRANCH   3   4
HETATM    4  C   UNL     1     -10.942  11.342  67.657  1.00  0.00    -0.259 C  
HETATM    5  O   UNL     1     -12.151  11.472  67.841  1.00  0.00    -0.630 OA 
BRANCH   4   6
HETATM    6  C   UNL     1     -10.126  12.261  66.711  1.00  0.00    -0.224 C  
HETATM    7  C   UNL     1     -10.956  12.965  65.606  1.00  0.00    -0.297 C  
HETATM    8  C   UNL     1      -9.142  11.298  65.987  1.00  0.00    -0.221 C  
HETATM    9  C   UNL     1      -9.892  10.320  65.077  1.00  0.00    -0.329 C  
HETATM   10  C   UNL     1      -9.776  11.527  62.978  1.00  0.00    -0.359 C  
HETATM   11  C   UNL     1     -11.566  12.004  64.576  1.00  0.00    -0.317 C  
HETATM   12  N   UNL     1     -10.649  11.001  64.027  1.00  0.00    -0.370 NA 
BRANCH   6  13
HETATM   13  C   UNL     1      -9.427  13.335  67.578  1.00  0.00    -0.220 A  
HETATM   14  C   UNL     1      -7.467  14.250  68.710  1.00  0.00    -0.129 A  
HETATM   15  C   UNL     1      -8.049  13.316  67.846  1.00  0.00    -0.159 A  
HETATM   16  C   UNL     1      -9.605  15.293  69.040  1.00  0.00    -0.237 A  
HETATM   17  C   UNL     1      -8.245  15.225  69.321  1.00  0.00    -0.244 A  
HETATM   18  C   UNL     1     -10.186  14.368  68.168  1.00  0.00    -0.232 A  
ENDBRANCH   6  13
ENDBRANCH   4   6
ENDBRANCH   3   4
ENDBRANCH   2   3
TORSDOF 4
ENDMDL
MODEL       75
REMARK 921   NORMALIZED FREE ENERGY PREDICTED BY IDOCK:   -3.66 KCAL/MOL
REMARK 922        TOTAL FREE ENERGY PREDICTED BY IDOCK:   -5.43 KCAL/MOL
REMARK 923 INTER-LIGAND FREE ENERGY PREDICTED BY IDOCK:   -4.85 KCAL/MOL
REMARK 924 INTRA-LIGAND FREE ENERGY PREDICTED BY IDOCK:   -0.59 KCAL/MOL
REMARK 927      BINDING AFFINITY PREDICTED BY RF-SCORE:    0.00 PKD
ROOT
HETATM    1  C   UNL     1      -9.994   7.104  73.600  1.00  0.00    -0.367 C  
HETATM    2  C   UNL     1      -8.720   6.795  72.826  1.00  0.00    -0.121 C  
ENDROOT
BRANCH   2   3
HETATM    3  O   UNL     1      -8.900   7.011  71.413  1.00  0.00    -0.129 OA 
BRANCH   3   4
HETATM    4  C   UNL     1      -9.047   8.319  71.061  1.00  0.00    -0.158 C  
HETATM    5  O   UNL     1      -8.394   9.230  71.569  1.00  0.00    -0.323 OA 
BRANCH   4   6
HETATM    6  C   UNL     1     -10.158   8.561  70.007  1.00  0.00    -0.195 C  
HETATM    7  C   UNL     1     -10.330   7.424  68.965  1.00  0.00    -0.214 C  
HETATM    8  C   UNL     1      -9.685   9.819  69.224  1.00  0.00    -0.204 C  
HETATM    9  C   UNL     1      -8.408   9.528  68.428  1.00  0.00    -0.118 C  
HETATM   10  C   UNL     1      -9.375   8.935  66.286  1.00  0.00    -0.219 C  
HETATM   11  C   UNL     1      -9.122   7.243  68.036  1.00  0.00    -0.133 C  
HETATM   12  N   UNL     1      -8.596   8.472  67.434  1.00  0.00    -0.126 NA 
BRANCH   6  13
HETATM   13  C   UNL     1     -11.495   8.758  70.762  1.00  0.00    -0.309 A  
HETATM   14  C   UNL     1     -13.123  10.153  71.930  1.00  0.00    -0.571 A  
HETATM   15  C   UNL     1     -11.957  10.020  71.169  1.00  0.00    -0.484 A  
HETATM   16  C   UNL     1     -13.443   7.773  71.872  1.00  0.00    -0.318 A  
HETATM   17  C   UNL     1     -13.855   9.030  72.298  1.00  0.00    -0.547 A  
HETATM   18  C   UNL     1     -12.285   7.641  71.102  1.00  0.00    -0.310 A  
ENDBRANCH   6  13
ENDBRANCH   4   6
ENDBRANCH   3   4
ENDBRANCH   2   3
TORSDOF 4
ENDMDL
MODEL       76
REMARK 921   NORMALIZED FREE ENERGY PREDICTED BY IDOCK:   -3.64 KCAL/MOL
REMARK 922        TOTAL FREE ENERGY PREDICTED BY IDOCK:   -5.41 KCAL/MOL
REMARK 923 INTER-LIGAND FREE ENERGY PREDICTED BY IDOCK:   -5.06 KCAL/MOL
REMARK 924 INTRA-LIGAND FREE ENERGY PREDICTED BY IDOCK:   -0.35 KCAL/MOL
REMARK 927      BINDING AFFINITY PREDICTED BY RF-SCORE:    0.00 PKD
ROOT
HETATM    1  C   UNL     1     -10.545   7.702  73.047  1.00  0.00    -0.433 C  
HETATM    2  C   UNL     1      -9.618   7.593  71.844  1.00  0.00    -0.153 C  
ENDROOT
BRANCH   2   3
HETATM    3  O   UNL     1      -9.624   8.806  71.066  1.00  0.00    -0.188 OA 
BRANCH   3   4
HETATM    4  C   UNL     1     -10.417   8.757  69.959  1.00  0.00    -0.212 C  
HETATM    5  O   UNL     1     -10.898   7.712  69.522  1.00  0.00    -0.234 OA 
BRANCH   4   6
HETATM    6  C   UNL     1     -10.604  10.131  69.264  1.00  0.00    -0.254 C  
HETATM    7  C   UNL     1     -11.142  10.061  67.811  1.00  0.00    -0.246 C  
HETATM    8  C   UNL     1      -9.169  10.724  69.184  1.00  0.00    -0.131 C  
HETATM    9  C   UNL     1      -8.280   9.898  68.247  1.00  0.00    -0.109 C  
HETATM   10  C   UNL     1      -8.579  11.136  66.185  1.00  0.00    -0.172 C  
HETATM   11  C   UNL     1     -10.177   9.396  66.820  1.00  0.00    -0.250 C  
HETATM   12  N   UNL     1      -8.789   9.865  66.877  1.00  0.00    -0.134 NA 
BRANCH   6  13
HETATM   13  C   UNL     1     -11.581  10.969  70.124  1.00  0.00    -0.421 A  
HETATM   14  C   UNL     1     -12.632  13.082  70.747  1.00  0.00    -0.321 A  
HETATM   15  C   UNL     1     -11.814  12.334  69.894  1.00  0.00    -0.383 A  
HETATM   16  C   UNL     1     -13.059  11.123  72.071  1.00  0.00    -0.433 A  
HETATM   17  C   UNL     1     -13.239  12.483  71.845  1.00  0.00    -0.495 A  
HETATM   18  C   UNL     1     -12.251  10.373  71.212  1.00  0.00    -0.491 A  
ENDBRANCH   6  13
ENDBRANCH   4   6
ENDBRANCH   3   4
ENDBRANCH   2   3
TORSDOF 4
ENDMDL
MODEL       77
REMARK 921   NORMALIZED FREE ENERGY PREDICTED BY IDOCK:   -3.61 KCAL/MOL
REMARK 922        TOTAL FREE ENERGY PREDICTED BY IDOCK:   -5.37 KCAL/MOL
REMARK 923 INTER-LIGAND FREE ENERGY PREDICTED BY IDOCK:   -4.98 KCAL/MOL
REMARK 924 INTRA-LIGAND FREE ENERGY PREDICTED BY IDOCK:   -0.39 KCAL/MOL
REMARK 927      BINDING AFFINITY PREDICTED BY RF-SCORE:    0.00 PKD
ROOT
HETATM    1  C   UNL     1      -5.152  16.832  70.755  1.00  0.00    -0.224 C  
HETATM    2  C   UNL     1      -6.168  16.836  69.622  1.00  0.00    -0.228 C  
ENDROOT
BRANCH   2   3
HETATM    3  O   UNL     1      -5.861  17.851  68.646  1.00  0.00    -0.173 OA 
BRANCH   3   4
HETATM    4  C   UNL     1      -6.857  18.759  68.449  1.00  0.00    -0.249 C  
HETATM    5  O   UNL     1      -7.258  19.519  69.330  1.00  0.00    -0.356 OA 
BRANCH   4   6
HETATM    6  C   UNL     1      -7.482  18.702  67.031  1.00  0.00    -0.229 C  
HETATM    7  C   UNL     1      -6.515  18.248  65.908  1.00  0.00    -0.294 C  
HETATM    8  C   UNL     1      -7.873  20.175  66.719  1.00  0.00    -0.342 C  
HETATM    9  C   UNL     1      -6.630  21.063  66.594  1.00  0.00    -0.288 C  
HETATM   10  C   UNL     1      -6.285  20.967  64.197  1.00  0.00    -0.323 C  
HETATM   11  C   UNL     1      -5.360  19.225  65.646  1.00  0.00    -0.152 C  
HETATM   12  N   UNL     1      -5.742  20.634  65.513  1.00  0.00    -0.201 NA 
BRANCH   6  13
HETATM   13  C   UNL     1      -8.687  17.732  67.082  1.00  0.00    -0.252 A  
HETATM   14  C   UNL     1     -10.778  16.944  68.065  1.00  0.00    -0.364 A  
HETATM   15  C   UNL     1      -9.752  17.890  67.983  1.00  0.00    -0.303 A  
HETATM   16  C   UNL     1      -9.747  15.662  66.315  1.00  0.00    -0.328 A  
HETATM   17  C   UNL     1     -10.767  15.821  67.246  1.00  0.00    -0.313 A  
HETATM   18  C   UNL     1      -8.728  16.613  66.225  1.00  0.00    -0.359 A  
ENDBRANCH   6  13
ENDBRANCH   4   6
ENDBRANCH   3   4
ENDBRANCH   2   3
TORSDOF 4
ENDMDL
MODEL       78
REMARK 921   NORMALIZED FREE ENERGY PREDICTED BY IDOCK:   -3.60 KCAL/MOL
REMARK 922        TOTAL FREE ENERGY PREDICTED BY IDOCK:   -5.37 KCAL/MOL
REMARK 923 INTER-LIGAND FREE ENERGY PREDICTED BY IDOCK:   -5.44 KCAL/MOL
REMARK 924 INTRA-LIGAND FREE ENERGY PREDICTED BY IDOCK:    0.08 KCAL/MOL
REMARK 927      BINDING AFFINITY PREDICTED BY RF-SCORE:    0.00 PKD
ROOT
HETATM    1  C   UNL     1      -7.451  10.545  66.897  1.00  0.00    -0.110 C  
HETATM    2  C   UNL     1      -8.051  11.902  67.237  1.00  0.00    -0.171 C  
ENDROOT
BRANCH   2   3
HETATM    3  O   UNL     1      -9.196  11.768  68.100  1.00  0.00    -0.174 OA 
BRANCH   3   4
HETATM    4  C   UNL     1     -10.365  12.203  67.552  1.00  0.00    -0.205 C  
HETATM    5  O   UNL     1     -10.812  11.769  66.490  1.00  0.00    -0.257 OA 
BRANCH   4   6
HETATM    6  C   UNL     1     -11.047  13.340  68.356  1.00  0.00    -0.299 C  
HETATM    7  C   UNL     1     -12.104  14.156  67.567  1.00  0.00    -0.363 C  
HETATM    8  C   UNL     1      -9.890  14.320  68.701  1.00  0.00    -0.228 C  
HETATM    9  C   UNL     1      -9.327  14.980  67.437  1.00  0.00    -0.201 C  
HETATM   10  C   UNL     1     -10.637  17.018  67.408  1.00  0.00    -0.289 C  
HETATM   11  C   UNL     1     -11.522  14.970  66.403  1.00  0.00    -0.225 C  
HETATM   12  N   UNL     1     -10.332  15.765  66.721  1.00  0.00    -0.287 NA 
BRANCH   6  13
HETATM   13  C   UNL     1     -11.722  12.706  69.596  1.00  0.00    -0.373 A  
HETATM   14  C   UNL     1     -12.446  10.776  70.904  1.00  0.00    -0.500 A  
HETATM   15  C   UNL     1     -11.747  11.321  69.821  1.00  0.00    -0.422 A  
HETATM   16  C   UNL     1     -13.087  12.980  71.612  1.00  0.00    -0.440 A  
HETATM   17  C   UNL     1     -13.130  11.602  71.787  1.00  0.00    -0.487 A  
HETATM   18  C   UNL     1     -12.380  13.525  70.537  1.00  0.00    -0.412 A  
ENDBRANCH   6  13
ENDBRANCH   4   6
ENDBRANCH   3   4
ENDBRANCH   2   3
TORSDOF 4
ENDMDL
MODEL       79
REMARK 921   NORMALIZED FREE ENERGY PREDICTED BY IDOCK:   -3.60 KCAL/MOL
REMARK 922        TOTAL FREE ENERGY PREDICTED BY IDOCK:   -5.36 KCAL/MOL
REMARK 923 INTER-LIGAND FREE ENERGY PREDICTED BY IDOCK:   -5.27 KCAL/MOL
REMARK 924 INTRA-LIGAND FREE ENERGY PREDICTED BY IDOCK:   -0.09 KCAL/MOL
REMARK 927      BINDING AFFINITY PREDICTED BY RF-SCORE:    0.00 PKD
ROOT
HETATM    1  C   UNL     1      -6.607  16.143  68.007  1.00  0.00    -0.142 C  
HETATM    2  C   UNL     1      -7.468  16.558  69.193  1.00  0.00    -0.218 C  
ENDROOT
BRANCH   2   3
HETATM    3  O   UNL     1      -8.285  15.466  69.656  1.00  0.00    -0.235 OA 
BRANCH   3   4
HETATM    4  C   UNL     1      -9.262  15.088  68.785  1.00  0.00    -0.200 C  
HETATM    5  O   UNL     1      -9.112  14.196  67.952  1.00  0.00    -0.176 OA 
BRANCH   4   6
HETATM    6  C   UNL     1     -10.559  15.931  68.898  1.00  0.00    -0.244 C  
HETATM    7  C   UNL     1     -10.917  16.390  70.336  1.00  0.00    -0.218 C  
HETATM    8  C   UNL     1     -11.690  14.967  68.440  1.00  0.00    -0.336 C  
HETATM    9  C   UNL     1     -11.859  13.804  69.423  1.00  0.00    -0.341 C  
HETATM   10  C   UNL     1     -13.612  14.700  70.837  1.00  0.00    -0.183 C  
HETATM   11  C   UNL     1     -11.268  15.239  71.288  1.00  0.00    -0.323 C  
HETATM   12  N   UNL     1     -12.221  14.255  70.767  1.00  0.00    -0.330 NA 
BRANCH   6  13
HETATM   13  C   UNL     1     -10.395  17.178  67.997  1.00  0.00    -0.353 A  
HETATM   14  C   UNL     1     -10.126  19.583  67.675  1.00  0.00    -0.526 A  
HETATM   15  C   UNL     1     -10.177  18.465  68.514  1.00  0.00    -0.394 A  
HETATM   16  C   UNL     1     -10.462  18.173  65.759  1.00  0.00    -0.215 A  
HETATM   17  C   UNL     1     -10.288  19.441  66.302  1.00  0.00    -0.584 A  
HETATM   18  C   UNL     1     -10.501  17.055  66.596  1.00  0.00    -0.253 A  
ENDBRANCH   6  13
ENDBRANCH   4   6
ENDBRANCH   3   4
ENDBRANCH   2   3
TORSDOF 4
ENDMDL
MODEL       80
REMARK 921   NORMALIZED FREE ENERGY PREDICTED BY IDOCK:   -3.57 KCAL/MOL
REMARK 922        TOTAL FREE ENERGY PREDICTED BY IDOCK:   -5.33 KCAL/MOL
REMARK 923 INTER-LIGAND FREE ENERGY PREDICTED BY IDOCK:   -4.84 KCAL/MOL
REMARK 924 INTRA-LIGAND FREE ENERGY PREDICTED BY IDOCK:   -0.49 KCAL/MOL
REMARK 927      BINDING AFFINITY PREDICTED BY RF-SCORE:    0.00 PKD
ROOT
HETATM    1  C   UNL     1     -14.265   8.595  71.988  1.00  0.00    -0.524 C  
HETATM    2  C   UNL     1     -12.794   8.371  71.667  1.00  0.00    -0.334 C  
ENDROOT
BRANCH   2   3
HETATM    3  O   UNL     1     -12.368   7.050  72.053  1.00  0.00    -0.310 OA 
BRANCH   3   4
HETATM    4  C   UNL     1     -11.421   6.506  71.239  1.00  0.00    -0.318 C  
HETATM    5  O   UNL     1     -11.567   6.387  70.023  1.00  0.00    -0.425 OA 
BRANCH   4   6
HETATM    6  C   UNL     1     -10.167   5.995  71.994  1.00  0.00    -0.228 C  
HETATM    7  C   UNL     1      -9.862   6.728  73.326  1.00  0.00    -0.214 C  
HETATM    8  C   UNL     1      -8.983   6.299  71.033  1.00  0.00    -0.143 C  
HETATM    9  C   UNL     1      -8.782   7.809  70.862  1.00  0.00    -0.137 C  
HETATM   10  C   UNL     1      -7.103   8.205  72.565  1.00  0.00    -0.099 C  
HETATM   11  C   UNL     1      -9.478   8.204  73.152  1.00  0.00    -0.246 C  
HETATM   12  N   UNL     1      -8.470   8.478  72.124  1.00  0.00    -0.278 NA 
BRANCH   6  13
HETATM   13  C   UNL     1     -10.369   4.487  72.283  1.00  0.00    -0.243 A  
HETATM   14  C   UNL     1     -11.188   2.649  73.665  1.00  0.00    -0.315 A  
HETATM   15  C   UNL     1     -11.104   4.017  73.383  1.00  0.00    -0.341 A  
HETATM   16  C   UNL     1      -9.845   2.158  71.735  1.00  0.00    -0.218 A  
HETATM   17  C   UNL     1     -10.544   1.722  72.855  1.00  0.00    -0.233 A  
HETATM   18  C   UNL     1      -9.770   3.523  71.446  1.00  0.00    -0.236 A  
ENDBRANCH   6  13
ENDBRANCH   4   6
ENDBRANCH   3   4
ENDBRANCH   2   3
TORSDOF 4
ENDMDL
MODEL       81
REMARK 921   NORMALIZED FREE ENERGY PREDICTED BY IDOCK:   -3.57 KCAL/MOL
REMARK 922        TOTAL FREE ENERGY PREDICTED BY IDOCK:   -5.32 KCAL/MOL
REMARK 923 INTER-LIGAND FREE ENERGY PREDICTED BY IDOCK:   -4.88 KCAL/MOL
REMARK 924 INTRA-LIGAND FREE ENERGY PREDICTED BY IDOCK:   -0.45 KCAL/MOL
REMARK 927      BINDING AFFINITY PREDICTED BY RF-SCORE:    0.00 PKD
ROOT
HETATM    1  C   UNL     1      -8.764  16.740  66.106  1.00  0.00    -0.299 C  
HETATM    2  C   UNL     1      -9.925  15.766  65.955  1.00  0.00    -0.332 C  
ENDROOT
BRANCH   2   3
HETATM    3  O   UNL     1     -10.859  15.892  67.044  1.00  0.00    -0.316 OA 
BRANCH   3   4
HETATM    4  C   UNL     1     -11.401  14.711  67.456  1.00  0.00    -0.348 C  
HETATM    5  O   UNL     1     -12.383  14.198  66.920  1.00  0.00    -0.419 OA 
BRANCH   4   6
HETATM    6  C   UNL     1     -10.706  14.106  68.703  1.00  0.00    -0.263 C  
HETATM    7  C   UNL     1     -11.645  13.334  69.666  1.00  0.00    -0.329 C  
HETATM    8  C   UNL     1     -10.174  15.339  69.488  1.00  0.00    -0.265 C  
HETATM    9  C   UNL     1     -11.327  16.194  70.025  1.00  0.00    -0.328 C  
HETATM   10  C   UNL     1     -11.546  15.255  72.248  1.00  0.00    -0.435 C  
HETATM   11  C   UNL     1     -12.695  14.217  70.354  1.00  0.00    -0.279 C  
HETATM   12  N   UNL     1     -12.187  15.456  70.950  1.00  0.00    -0.339 NA 
BRANCH   6  13
HETATM   13  C   UNL     1      -9.593  13.151  68.209  1.00  0.00    -0.218 A  
HETATM   14  C   UNL     1      -8.825  10.992  67.367  1.00  0.00    -0.138 A  
HETATM   15  C   UNL     1      -9.861  11.863  67.718  1.00  0.00    -0.187 A  
HETATM   16  C   UNL     1      -7.206  12.672  67.938  1.00  0.00    -0.116 A  
HETATM   17  C   UNL     1      -7.499  11.388  67.495  1.00  0.00    -0.113 A  
HETATM   18  C   UNL     1      -8.241  13.547  68.278  1.00  0.00    -0.157 A  
ENDBRANCH   6  13
ENDBRANCH   4   6
ENDBRANCH   3   4
ENDBRANCH   2   3
TORSDOF 4
ENDMDL
MODEL       82
REMARK 921   NORMALIZED FREE ENERGY PREDICTED BY IDOCK:   -3.56 KCAL/MOL
REMARK 922        TOTAL FREE ENERGY PREDICTED BY IDOCK:   -5.32 KCAL/MOL
REMARK 923 INTER-LIGAND FREE ENERGY PREDICTED BY IDOCK:   -4.53 KCAL/MOL
REMARK 924 INTRA-LIGAND FREE ENERGY PREDICTED BY IDOCK:   -0.79 KCAL/MOL
REMARK 927      BINDING AFFINITY PREDICTED BY RF-SCORE:    0.00 PKD
ROOT
HETATM    1  C   UNL     1     -10.290   9.149  68.695  1.00  0.00    -0.233 C  
HETATM    2  C   UNL     1     -11.094  10.397  69.032  1.00  0.00    -0.248 C  
ENDROOT
BRANCH   2   3
HETATM    3  O   UNL     1     -11.598  11.033  67.842  1.00  0.00    -0.483 OA 
BRANCH   3   4
HETATM    4  C   UNL     1     -11.114  12.290  67.631  1.00  0.00    -0.268 C  
HETATM    5  O   UNL     1     -11.120  13.166  68.494  1.00  0.00    -0.241 OA 
BRANCH   4   6
HETATM    6  C   UNL     1     -10.615  12.531  66.183  1.00  0.00    -0.279 C  
HETATM    7  C   UNL     1     -10.058  13.953  65.912  1.00  0.00    -0.331 C  
HETATM    8  C   UNL     1     -11.886  12.371  65.301  1.00  0.00    -0.451 C  
HETATM    9  C   UNL     1     -12.901  13.484  65.585  1.00  0.00    -0.321 C  
HETATM   10  C   UNL     1     -12.277  15.071  63.863  1.00  0.00     0.084 C  
HETATM   11  C   UNL     1     -11.111  15.065  66.014  1.00  0.00    -0.329 C  
HETATM   12  N   UNL     1     -12.366  14.815  65.300  1.00  0.00    -0.192 NA 
BRANCH   6  13
HETATM   13  C   UNL     1      -9.509  11.491  65.882  1.00  0.00    -0.251 A  
HETATM   14  C   UNL     1      -7.292  10.536  66.249  1.00  0.00    -0.133 A  
HETATM   15  C   UNL     1      -8.308  11.428  66.607  1.00  0.00    -0.172 A  
HETATM   16  C   UNL     1      -8.649   9.696  64.454  1.00  0.00    -0.208 A  
HETATM   17  C   UNL     1      -7.454   9.685  65.163  1.00  0.00    -0.115 A  
HETATM   18  C   UNL     1      -9.669  10.579  64.818  1.00  0.00    -0.365 A  
ENDBRANCH   6  13
ENDBRANCH   4   6
ENDBRANCH   3   4
ENDBRANCH   2   3
TORSDOF 4
ENDMDL
MODEL       83
REMARK 921   NORMALIZED FREE ENERGY PREDICTED BY IDOCK:   -3.56 KCAL/MOL
REMARK 922        TOTAL FREE ENERGY PREDICTED BY IDOCK:   -5.31 KCAL/MOL
REMARK 923 INTER-LIGAND FREE ENERGY PREDICTED BY IDOCK:   -4.72 KCAL/MOL
REMARK 924 INTRA-LIGAND FREE ENERGY PREDICTED BY IDOCK:   -0.58 KCAL/MOL
REMARK 927      BINDING AFFINITY PREDICTED BY RF-SCORE:    0.00 PKD
ROOT
HETATM    1  C   UNL     1      -6.716   9.581  66.955  1.00  0.00    -0.072 C  
HETATM    2  C   UNL     1      -7.181   8.609  68.030  1.00  0.00    -0.087 C  
ENDROOT
BRANCH   2   3
HETATM    3  O   UNL     1      -8.587   8.762  68.303  1.00  0.00    -0.132 OA 
BRANCH   3   4
HETATM    4  C   UNL     1      -8.897   9.857  69.051  1.00  0.00    -0.156 C  
HETATM    5  O   UNL     1      -8.153  10.312  69.918  1.00  0.00    -0.157 OA 
BRANCH   4   6
HETATM    6  C   UNL     1     -10.302  10.441  68.750  1.00  0.00    -0.213 C  
HETATM    7  C   UNL     1     -10.970   9.906  67.457  1.00  0.00    -0.239 C  
HETATM    8  C   UNL     1     -10.053  11.960  68.531  1.00  0.00    -0.211 C  
HETATM    9  C   UNL     1      -9.218  12.209  67.270  1.00  0.00    -0.185 C  
HETATM   10  C   UNL     1     -10.991  12.577  65.659  1.00  0.00    -0.288 C  
HETATM   11  C   UNL     1     -10.240  10.304  66.167  1.00  0.00    -0.217 C  
HETATM   12  N   UNL     1      -9.875  11.720  66.058  1.00  0.00    -0.226 NA 
BRANCH   6  13
HETATM   13  C   UNL     1     -11.216  10.124  69.958  1.00  0.00    -0.361 A  
HETATM   14  C   UNL     1     -12.209   8.571  71.559  1.00  0.00    -0.355 A  
HETATM   15  C   UNL     1     -11.304   8.844  70.528  1.00  0.00    -0.268 A  
HETATM   16  C   UNL     1     -12.945  10.857  71.531  1.00  0.00    -0.556 A  
HETATM   17  C   UNL     1     -13.042   9.571  72.047  1.00  0.00    -0.528 A  
HETATM   18  C   UNL     1     -12.034  11.133  70.508  1.00  0.00    -0.475 A  
ENDBRANCH   6  13
ENDBRANCH   4   6
ENDBRANCH   3   4
ENDBRANCH   2   3
TORSDOF 4
ENDMDL
MODEL       84
REMARK 921   NORMALIZED FREE ENERGY PREDICTED BY IDOCK:   -3.55 KCAL/MOL
REMARK 922        TOTAL FREE ENERGY PREDICTED BY IDOCK:   -5.31 KCAL/MOL
REMARK 923 INTER-LIGAND FREE ENERGY PREDICTED BY IDOCK:   -4.60 KCAL/MOL
REMARK 924 INTRA-LIGAND FREE ENERGY PREDICTED BY IDOCK:   -0.71 KCAL/MOL
REMARK 927      BINDING AFFINITY PREDICTED BY RF-SCORE:    0.00 PKD
ROOT
HETATM    1  C   UNL     1      -7.002  10.551  69.135  1.00  0.00    -0.080 C  
HETATM    2  C   UNL     1      -7.044   9.741  70.423  1.00  0.00    -0.141 C  
ENDROOT
BRANCH   2   3
HETATM    3  O   UNL     1      -8.398   9.549  70.877  1.00  0.00    -0.280 OA 
BRANCH   3   4
HETATM    4  C   UNL     1      -8.970   8.386  70.457  1.00  0.00    -0.150 C  
HETATM    5  O   UNL     1      -8.404   7.296  70.520  1.00  0.00    -0.129 OA 
BRANCH   4   6
HETATM    6  C   UNL     1     -10.377   8.573  69.832  1.00  0.00    -0.210 C  
HETATM    7  C   UNL     1     -11.327   9.507  70.626  1.00  0.00    -0.364 C  
HETATM    8  C   UNL     1     -11.011   7.153  69.870  1.00  0.00    -0.278 C  
HETATM    9  C   UNL     1     -11.250   6.691  71.311  1.00  0.00    -0.282 C  
HETATM   10  C   UNL     1     -13.552   7.393  71.601  1.00  0.00    -0.366 C  
HETATM   11  C   UNL     1     -11.723   8.967  72.007  1.00  0.00    -0.367 C  
HETATM   12  N   UNL     1     -12.167   7.570  72.036  1.00  0.00    -0.291 NA 
BRANCH   6  13
HETATM   13  C   UNL     1     -10.192   9.139  68.404  1.00  0.00    -0.230 A  
HETATM   14  C   UNL     1     -10.554  10.850  66.701  1.00  0.00    -0.305 A  
HETATM   15  C   UNL     1     -10.656  10.408  68.024  1.00  0.00    -0.259 A  
HETATM   16  C   UNL     1      -9.475   8.793  66.087  1.00  0.00    -0.315 A  
HETATM   17  C   UNL     1      -9.982  10.037  65.729  1.00  0.00    -0.346 A  
HETATM   18  C   UNL     1      -9.567   8.356  67.411  1.00  0.00    -0.202 A  
ENDBRANCH   6  13
ENDBRANCH   4   6
ENDBRANCH   3   4
ENDBRANCH   2   3
TORSDOF 4
ENDMDL
MODEL       85
REMARK 921   NORMALIZED FREE ENERGY PREDICTED BY IDOCK:   -3.55 KCAL/MOL
REMARK 922        TOTAL FREE ENERGY PREDICTED BY IDOCK:   -5.30 KCAL/MOL
REMARK 923 INTER-LIGAND FREE ENERGY PREDICTED BY IDOCK:   -4.98 KCAL/MOL
REMARK 924 INTRA-LIGAND FREE ENERGY PREDICTED BY IDOCK:   -0.32 KCAL/MOL
REMARK 927      BINDING AFFINITY PREDICTED BY RF-SCORE:    0.00 PKD
ROOT
HETATM    1  C   UNL     1      -8.625   7.150  74.481  1.00  0.00    -0.230 C  
HETATM    2  C   UNL     1     -10.051   7.057  73.955  1.00  0.00    -0.348 C  
ENDROOT
BRANCH   2   3
HETATM    3  O   UNL     1     -10.330   8.106  73.009  1.00  0.00    -0.321 OA 
BRANCH   3   4
HETATM    4  C   UNL     1     -10.897   7.676  71.846  1.00  0.00    -0.233 C  
HETATM    5  O   UNL     1     -11.600   6.670  71.773  1.00  0.00    -0.272 OA 
BRANCH   4   6
HETATM    6  C   UNL     1     -10.520   8.537  70.613  1.00  0.00    -0.234 C  
HETATM    7  C   UNL     1     -10.764   7.857  69.241  1.00  0.00    -0.145 C  
HETATM    8  C   UNL     1      -8.985   8.750  70.742  1.00  0.00    -0.231 C  
HETATM    9  C   UNL     1      -8.227   7.428  70.577  1.00  0.00    -0.127 C  
HETATM   10  C   UNL     1      -7.734   7.519  68.206  1.00  0.00    -0.120 C  
HETATM   11  C   UNL     1      -9.876   6.631  68.986  1.00  0.00    -0.144 C  
HETATM   12  N   UNL     1      -8.449   6.814  69.268  1.00  0.00    -0.128 NA 
BRANCH   6  13
HETATM   13  C   UNL     1     -11.342   9.848  70.679  1.00  0.00    -0.413 A  
HETATM   14  C   UNL     1     -11.794  12.144  69.985  1.00  0.00    -0.383 A  
HETATM   15  C   UNL     1     -11.094  10.942  69.836  1.00  0.00    -0.311 A  
HETATM   16  C   UNL     1     -13.054  11.196  71.797  1.00  0.00    -0.536 A  
HETATM   17  C   UNL     1     -12.759  12.278  70.976  1.00  0.00    -0.319 A  
HETATM   18  C   UNL     1     -12.363   9.992  71.641  1.00  0.00    -0.486 A  
ENDBRANCH   6  13
ENDBRANCH   4   6
ENDBRANCH   3   4
ENDBRANCH   2   3
TORSDOF 4
ENDMDL
MODEL       86
REMARK 921   NORMALIZED FREE ENERGY PREDICTED BY IDOCK:   -3.53 KCAL/MOL
REMARK 922        TOTAL FREE ENERGY PREDICTED BY IDOCK:   -5.28 KCAL/MOL
REMARK 923 INTER-LIGAND FREE ENERGY PREDICTED BY IDOCK:   -5.07 KCAL/MOL
REMARK 924 INTRA-LIGAND FREE ENERGY PREDICTED BY IDOCK:   -0.20 KCAL/MOL
REMARK 927      BINDING AFFINITY PREDICTED BY RF-SCORE:    0.00 PKD
ROOT
HETATM    1  C   UNL     1     -11.844  15.614  71.075  1.00  0.00    -0.442 C  
HETATM    2  C   UNL     1     -12.054  14.573  69.985  1.00  0.00    -0.339 C  
ENDROOT
BRANCH   2   3
HETATM    3  O   UNL     1     -10.916  14.498  69.105  1.00  0.00    -0.252 OA 
BRANCH   3   4
HETATM    4  C   UNL     1     -11.117  15.059  67.880  1.00  0.00    -0.307 C  
HETATM    5  O   UNL     1     -11.849  16.031  67.698  1.00  0.00     0.083 OA 
BRANCH   4   6
HETATM    6  C   UNL     1     -10.388  14.321  66.728  1.00  0.00    -0.274 C  
HETATM    7  C   UNL     1     -10.328  15.099  65.387  1.00  0.00    -0.415 C  
HETATM    8  C   UNL     1     -11.251  13.053  66.471  1.00  0.00    -0.335 C  
HETATM    9  C   UNL     1     -12.633  13.424  65.923  1.00  0.00    -0.348 C  
HETATM   10  C   UNL     1     -12.205  13.241  63.545  1.00  0.00    -0.441 C  
HETATM   11  C   UNL     1     -11.698  15.320  64.732  1.00  0.00    -0.276 C  
HETATM   12  N   UNL     1     -12.557  14.135  64.647  1.00  0.00    -0.667 NA 
BRANCH   6  13
HETATM   13  C   UNL     1      -8.946  14.013  67.198  1.00  0.00    -0.241 A  
HETATM   14  C   UNL     1      -7.256  12.513  68.122  1.00  0.00    -0.106 A  
HETATM   15  C   UNL     1      -8.541  12.736  67.616  1.00  0.00    -0.181 A  
HETATM   16  C   UNL     1      -6.707  14.825  67.770  1.00  0.00    -0.193 A  
HETATM   17  C   UNL     1      -6.346  13.560  68.217  1.00  0.00    -0.104 A  
HETATM   18  C   UNL     1      -7.987  15.045  67.254  1.00  0.00    -0.234 A  
ENDBRANCH   6  13
ENDBRANCH   4   6
ENDBRANCH   3   4
ENDBRANCH   2   3
TORSDOF 4
ENDMDL
MODEL       87
REMARK 921   NORMALIZED FREE ENERGY PREDICTED BY IDOCK:   -3.53 KCAL/MOL
REMARK 922        TOTAL FREE ENERGY PREDICTED BY IDOCK:   -5.27 KCAL/MOL
REMARK 923 INTER-LIGAND FREE ENERGY PREDICTED BY IDOCK:   -4.97 KCAL/MOL
REMARK 924 INTRA-LIGAND FREE ENERGY PREDICTED BY IDOCK:   -0.30 KCAL/MOL
REMARK 927      BINDING AFFINITY PREDICTED BY RF-SCORE:    0.00 PKD
ROOT
HETATM    1  C   UNL     1     -10.510   7.867  67.414  1.00  0.00    -0.360 C  
HETATM    2  C   UNL     1     -10.617   9.109  68.288  1.00  0.00    -0.174 C  
ENDROOT
BRANCH   2   3
HETATM    3  O   UNL     1     -11.023  10.258  67.520  1.00  0.00    -0.297 OA 
BRANCH   3   4
HETATM    4  C   UNL     1     -10.255  11.366  67.721  1.00  0.00    -0.181 C  
HETATM    5  O   UNL     1      -9.203  11.349  68.359  1.00  0.00    -0.173 OA 
BRANCH   4   6
HETATM    6  C   UNL     1     -10.862  12.663  67.125  1.00  0.00    -0.282 C  
HETATM    7  C   UNL     1      -9.982  13.929  67.283  1.00  0.00    -0.242 C  
HETATM    8  C   UNL     1     -12.152  12.906  67.959  1.00  0.00    -0.202 C  
HETATM    9  C   UNL     1     -11.815  13.233  69.418  1.00  0.00    -0.329 C  
HETATM   10  C   UNL     1     -11.792  15.654  69.312  1.00  0.00    -0.363 C  
HETATM   11  C   UNL     1      -9.786  14.376  68.738  1.00  0.00    -0.214 C  
HETATM   12  N   UNL     1     -11.006  14.444  69.548  1.00  0.00    -0.230 NA 
BRANCH   6  13
HETATM   13  C   UNL     1     -11.126  12.416  65.620  1.00  0.00    -0.343 A  
HETATM   14  C   UNL     1     -12.562  12.479  63.647  1.00  0.00    -0.495 A  
HETATM   15  C   UNL     1     -12.319  12.800  64.986  1.00  0.00    -0.559 A  
HETATM   16  C   UNL     1     -10.412  11.417  63.501  1.00  0.00    -0.477 A  
HETATM   17  C   UNL     1     -11.619  11.772  62.910  1.00  0.00     0.265 A  
HETATM   18  C   UNL     1     -10.164  11.747  64.836  1.00  0.00    -0.315 A  
ENDBRANCH   6  13
ENDBRANCH   4   6
ENDBRANCH   3   4
ENDBRANCH   2   3
TORSDOF 4
ENDMDL
MODEL       88
REMARK 921   NORMALIZED FREE ENERGY PREDICTED BY IDOCK:   -3.50 KCAL/MOL
REMARK 922        TOTAL FREE ENERGY PREDICTED BY IDOCK:   -5.24 KCAL/MOL
REMARK 923 INTER-LIGAND FREE ENERGY PREDICTED BY IDOCK:   -5.01 KCAL/MOL
REMARK 924 INTRA-LIGAND FREE ENERGY PREDICTED BY IDOCK:   -0.23 KCAL/MOL
REMARK 927      BINDING AFFINITY PREDICTED BY RF-SCORE:    0.00 PKD
ROOT
HETATM    1  C   UNL     1      -8.238   6.450  65.431  1.00  0.00    -0.142 C  
HETATM    2  C   UNL     1      -8.059   7.898  64.997  1.00  0.00    -0.144 C  
ENDROOT
BRANCH   2   3
HETATM    3  O   UNL     1      -9.159   8.718  65.437  1.00  0.00    -0.200 OA 
BRANCH   3   4
HETATM    4  C   UNL     1      -8.787   9.916  65.968  1.00  0.00    -0.146 C  
HETATM    5  O   UNL     1      -7.640  10.358  65.895  1.00  0.00    -0.135 OA 
BRANCH   4   6
HETATM    6  C   UNL     1      -9.926  10.644  66.727  1.00  0.00    -0.254 C  
HETATM    7  C   UNL     1      -9.458  11.565  67.884  1.00  0.00    -0.178 C  
HETATM    8  C   UNL     1     -10.755   9.498  67.374  1.00  0.00    -0.297 C  
HETATM    9  C   UNL     1      -9.942   8.761  68.444  1.00  0.00    -0.179 C  
HETATM   10  C   UNL     1     -10.649   9.976  70.419  1.00  0.00    -0.280 C  
HETATM   11  C   UNL     1      -8.802  10.815  69.051  1.00  0.00    -0.127 C  
HETATM   12  N   UNL     1      -9.531   9.641  69.538  1.00  0.00    -0.186 NA 
BRANCH   6  13
HETATM   13  C   UNL     1     -10.719  11.488  65.700  1.00  0.00    -0.323 A  
HETATM   14  C   UNL     1     -12.535  13.005  65.103  1.00  0.00    -0.552 A  
HETATM   15  C   UNL     1     -11.782  12.328  66.067  1.00  0.00    -0.451 A  
HETATM   16  C   UNL     1     -11.169  12.069  63.363  1.00  0.00    -0.481 A  
HETATM   17  C   UNL     1     -12.243  12.861  63.752  1.00  0.00    -0.555 A  
HETATM   18  C   UNL     1     -10.408  11.402  64.327  1.00  0.00    -0.383 A  
ENDBRANCH   6  13
ENDBRANCH   4   6
ENDBRANCH   3   4
ENDBRANCH   2   3
TORSDOF 4
ENDMDL
MODEL       89
REMARK 921   NORMALIZED FREE ENERGY PREDICTED BY IDOCK:   -3.49 KCAL/MOL
REMARK 922        TOTAL FREE ENERGY PREDICTED BY IDOCK:   -5.23 KCAL/MOL
REMARK 923 INTER-LIGAND FREE ENERGY PREDICTED BY IDOCK:   -4.68 KCAL/MOL
REMARK 924 INTRA-LIGAND FREE ENERGY PREDICTED BY IDOCK:   -0.55 KCAL/MOL
REMARK 927      BINDING AFFINITY PREDICTED BY RF-SCORE:    0.00 PKD
ROOT
HETATM    1  C   UNL     1      -5.866  10.134  70.813  1.00  0.00    -0.094 C  
HETATM    2  C   UNL     1      -6.942   9.084  71.055  1.00  0.00    -0.097 C  
ENDROOT
BRANCH   2   3
HETATM    3  O   UNL     1      -8.252   9.593  70.740  1.00  0.00    -0.273 OA 
BRANCH   3   4
HETATM    4  C   UNL     1      -8.925   8.867  69.803  1.00  0.00    -0.149 C  
HETATM    5  O   UNL     1      -8.607   7.722  69.484  1.00  0.00    -0.133 OA 
BRANCH   4   6
HETATM    6  C   UNL     1     -10.089   9.640  69.132  1.00  0.00    -0.196 C  
HETATM    7  C   UNL     1     -10.640   8.995  67.834  1.00  0.00    -0.256 C  
HETATM    8  C   UNL     1      -9.465  11.005  68.724  1.00  0.00    -0.190 C  
HETATM    9  C   UNL     1      -8.399  10.825  67.637  1.00  0.00    -0.119 C  
HETATM   10  C   UNL     1      -9.750  11.197  65.659  1.00  0.00    -0.225 C  
HETATM   11  C   UNL     1      -9.636   8.973  66.673  1.00  0.00    -0.213 C  
HETATM   12  N   UNL     1      -8.943  10.238  66.412  1.00  0.00    -0.147 NA 
BRANCH   6  13
HETATM   13  C   UNL     1     -11.237   9.760  70.162  1.00  0.00    -0.324 A  
HETATM   14  C   UNL     1     -12.905  11.054  71.389  1.00  0.00    -0.548 A  
HETATM   15  C   UNL     1     -11.936  10.957  70.385  1.00  0.00    -0.453 A  
HETATM   16  C   UNL     1     -12.555   8.747  71.962  1.00  0.00    -0.447 A  
HETATM   17  C   UNL     1     -13.201   9.957  72.189  1.00  0.00    -0.511 A  
HETATM   18  C   UNL     1     -11.595   8.647  70.952  1.00  0.00    -0.307 A  
ENDBRANCH   6  13
ENDBRANCH   4   6
ENDBRANCH   3   4
ENDBRANCH   2   3
TORSDOF 4
ENDMDL
MODEL       90
REMARK 921   NORMALIZED FREE ENERGY PREDICTED BY IDOCK:   -3.49 KCAL/MOL
REMARK 922        TOTAL FREE ENERGY PREDICTED BY IDOCK:   -5.23 KCAL/MOL
REMARK 923 INTER-LIGAND FREE ENERGY PREDICTED BY IDOCK:   -4.91 KCAL/MOL
REMARK 924 INTRA-LIGAND FREE ENERGY PREDICTED BY IDOCK:   -0.32 KCAL/MOL
REMARK 927      BINDING AFFINITY PREDICTED BY RF-SCORE:    0.00 PKD
ROOT
HETATM    1  C   UNL     1     -11.294  15.397  71.030  1.00  0.00    -0.411 C  
HETATM    2  C   UNL     1     -12.120  15.394  69.751  1.00  0.00    -0.347 C  
ENDROOT
BRANCH   2   3
HETATM    3  O   UNL     1     -11.517  14.564  68.740  1.00  0.00    -0.264 OA 
BRANCH   3   4
HETATM    4  C   UNL     1     -11.000  15.252  67.684  1.00  0.00    -0.311 C  
HETATM    5  O   UNL     1     -11.326  16.406  67.409  1.00  0.00    -0.046 OA 
BRANCH   4   6
HETATM    6  C   UNL     1     -10.009  14.425  66.824  1.00  0.00    -0.265 C  
HETATM    7  C   UNL     1      -9.212  13.345  67.601  1.00  0.00    -0.212 C  
HETATM    8  C   UNL     1      -8.973  15.467  66.314  1.00  0.00    -0.362 C  
HETATM    9  C   UNL     1      -8.147  16.039  67.472  1.00  0.00    -0.148 C  
HETATM   10  C   UNL     1      -6.234  14.553  67.397  1.00  0.00     0.198 C  
HETATM   11  C   UNL     1      -8.241  13.916  68.643  1.00  0.00    -0.088 C  
HETATM   12  N   UNL     1      -7.383  15.010  68.176  1.00  0.00    -0.106 NA 
BRANCH   6  13
HETATM   13  C   UNL     1     -10.817  13.740  65.695  1.00  0.00    -0.287 A  
HETATM   14  C   UNL     1     -12.899  12.882  64.752  1.00  0.00    -0.359 A  
HETATM   15  C   UNL     1     -12.212  13.588  65.745  1.00  0.00    -0.505 A  
HETATM   16  C   UNL     1     -10.834  12.491  63.588  1.00  0.00    -0.486 A  
HETATM   17  C   UNL     1     -12.210  12.318  63.685  1.00  0.00    -0.665 A  
HETATM   18  C   UNL     1     -10.149  13.205  64.575  1.00  0.00    -0.244 A  
ENDBRANCH   6  13
ENDBRANCH   4   6
ENDBRANCH   3   4
ENDBRANCH   2   3
TORSDOF 4
ENDMDL
MODEL       91
REMARK 921   NORMALIZED FREE ENERGY PREDICTED BY IDOCK:   -3.49 KCAL/MOL
REMARK 922        TOTAL FREE ENERGY PREDICTED BY IDOCK:   -5.22 KCAL/MOL
REMARK 923 INTER-LIGAND FREE ENERGY PREDICTED BY IDOCK:   -4.76 KCAL/MOL
REMARK 924 INTRA-LIGAND FREE ENERGY PREDICTED BY IDOCK:   -0.46 KCAL/MOL
REMARK 927      BINDING AFFINITY PREDICTED BY RF-SCORE:    0.00 PKD
ROOT
HETATM    1  C   UNL     1      -9.814   2.761  72.405  1.00  0.00    -0.227 C  
HETATM    2  C   UNL     1     -10.140   4.111  73.028  1.00  0.00    -0.154 C  
ENDROOT
BRANCH   2   3
HETATM    3  O   UNL     1     -10.750   4.998  72.070  1.00  0.00    -0.206 OA 
BRANCH   3   4
HETATM    4  C   UNL     1      -9.926   5.982  71.614  1.00  0.00    -0.179 C  
HETATM    5  O   UNL     1      -8.845   6.250  72.137  1.00  0.00    -0.137 OA 
BRANCH   4   6
HETATM    6  C   UNL     1     -10.506   6.776  70.414  1.00  0.00    -0.236 C  
HETATM    7  C   UNL     1      -9.830   8.146  70.149  1.00  0.00    -0.184 C  
HETATM    8  C   UNL     1     -11.978   7.072  70.820  1.00  0.00    -0.392 C  
HETATM    9  C   UNL     1     -12.041   8.022  72.021  1.00  0.00    -0.331 C  
HETATM   10  C   UNL     1     -12.252  10.144  70.867  1.00  0.00    -0.356 C  
HETATM   11  C   UNL     1     -10.042   9.174  71.269  1.00  0.00    -0.318 C  
HETATM   12  N   UNL     1     -11.422   9.318  71.743  1.00  0.00    -0.384 NA 
BRANCH   6  13
HETATM   13  C   UNL     1     -10.370   5.893  69.150  1.00  0.00    -0.303 A  
HETATM   14  C   UNL     1      -9.411   4.006  67.934  1.00  0.00    -0.225 A  
HETATM   15  C   UNL     1      -9.586   4.729  69.119  1.00  0.00    -0.237 A  
HETATM   16  C   UNL     1     -10.834   5.552  66.770  1.00  0.00    -0.252 A  
HETATM   17  C   UNL     1     -10.018   4.427  66.757  1.00  0.00    -0.223 A  
HETATM   18  C   UNL     1     -11.018   6.268  67.955  1.00  0.00    -0.418 A  
ENDBRANCH   6  13
ENDBRANCH   4   6
ENDBRANCH   3   4
ENDBRANCH   2   3
TORSDOF 4
ENDMDL
MODEL       92
REMARK 921   NORMALIZED FREE ENERGY PREDICTED BY IDOCK:   -3.46 KCAL/MOL
REMARK 922        TOTAL FREE ENERGY PREDICTED BY IDOCK:   -5.20 KCAL/MOL
REMARK 923 INTER-LIGAND FREE ENERGY PREDICTED BY IDOCK:   -4.62 KCAL/MOL
REMARK 924 INTRA-LIGAND FREE ENERGY PREDICTED BY IDOCK:   -0.58 KCAL/MOL
REMARK 927      BINDING AFFINITY PREDICTED BY RF-SCORE:    0.00 PKD
ROOT
HETATM    1  C   UNL     1     -12.190  13.918  63.938  1.00  0.00    -0.375 C  
HETATM    2  C   UNL     1     -12.339  12.419  64.158  1.00  0.00    -0.467 C  
ENDROOT
BRANCH   2   3
HETATM    3  O   UNL     1     -11.961  12.045  65.497  1.00  0.00    -0.443 OA 
BRANCH   3   4
HETATM    4  C   UNL     1     -10.628  11.810  65.658  1.00  0.00    -0.268 C  
HETATM    5  O   UNL     1      -9.914  11.352  64.767  1.00  0.00    -0.241 OA 
BRANCH   4   6
HETATM    6  C   UNL     1     -10.109  12.113  67.087  1.00  0.00    -0.220 C  
HETATM    7  C   UNL     1      -8.726  11.496  67.425  1.00  0.00    -0.147 C  
HETATM    8  C   UNL     1     -11.145  11.435  68.029  1.00  0.00    -0.317 C  
HETATM    9  C   UNL     1     -11.109   9.909  67.884  1.00  0.00    -0.152 C  
HETATM   10  C   UNL     1      -9.573   9.353  69.675  1.00  0.00    -0.188 C  
HETATM   11  C   UNL     1      -8.720   9.962  67.463  1.00  0.00    -0.121 C  
HETATM   12  N   UNL     1      -9.806   9.344  68.231  1.00  0.00    -0.156 NA 
BRANCH   6  13
HETATM   13  C   UNL     1     -10.028  13.650  67.248  1.00  0.00    -0.240 A  
HETATM   14  C   UNL     1     -11.063  15.851  67.460  1.00  0.00    -0.235 A  
HETATM   15  C   UNL     1     -11.165  14.457  67.411  1.00  0.00    -0.337 A  
HETATM   16  C   UNL     1      -8.677  15.693  67.233  1.00  0.00    -0.213 A  
HETATM   17  C   UNL     1      -9.824  16.470  67.352  1.00  0.00    -0.253 A  
HETATM   18  C   UNL     1      -8.778  14.300  67.195  1.00  0.00    -0.243 A  
ENDBRANCH   6  13
ENDBRANCH   4   6
ENDBRANCH   3   4
ENDBRANCH   2   3
TORSDOF 4
ENDMDL
MODEL       93
REMARK 921   NORMALIZED FREE ENERGY PREDICTED BY IDOCK:   -3.46 KCAL/MOL
REMARK 922        TOTAL FREE ENERGY PREDICTED BY IDOCK:   -5.19 KCAL/MOL
REMARK 923 INTER-LIGAND FREE ENERGY PREDICTED BY IDOCK:   -4.74 KCAL/MOL
REMARK 924 INTRA-LIGAND FREE ENERGY PREDICTED BY IDOCK:   -0.45 KCAL/MOL
REMARK 927      BINDING AFFINITY PREDICTED BY RF-SCORE:    0.00 PKD
ROOT
HETATM    1  C   UNL     1     -10.003  10.770  66.024  1.00  0.00    -0.295 C  
HETATM    2  C   UNL     1     -10.942  10.819  67.222  1.00  0.00    -0.297 C  
ENDROOT
BRANCH   2   3
HETATM    3  O   UNL     1     -10.780   9.660  68.063  1.00  0.00    -0.240 OA 
BRANCH   3   4
HETATM    4  C   UNL     1     -10.047   9.883  69.189  1.00  0.00    -0.200 C  
HETATM    5  O   UNL     1      -9.408  10.917  69.382  1.00  0.00    -0.079 OA 
BRANCH   4   6
HETATM    6  C   UNL     1     -10.042   8.688  70.177  1.00  0.00    -0.196 C  
HETATM    7  C   UNL     1      -8.911   8.722  71.238  1.00  0.00    -0.295 C  
HETATM    8  C   UNL     1      -9.780   7.444  69.281  1.00  0.00    -0.165 C  
HETATM    9  C   UNL     1      -8.376   7.488  68.669  1.00  0.00    -0.129 C  
HETATM   10  C   UNL     1      -7.161   6.183  70.310  1.00  0.00    -0.083 C  
HETATM   11  C   UNL     1      -7.500   8.582  70.650  1.00  0.00    -0.066 C  
HETATM   12  N   UNL     1      -7.323   7.494  69.684  1.00  0.00    -0.087 NA 
BRANCH   6  13
HETATM   13  C   UNL     1     -11.411   8.663  70.900  1.00  0.00    -0.314 A  
HETATM   14  C   UNL     1     -13.435   7.517  71.639  1.00  0.00    -0.429 A  
HETATM   15  C   UNL     1     -12.161   7.488  71.063  1.00  0.00    -0.305 A  
HETATM   16  C   UNL     1     -13.248   9.890  71.957  1.00  0.00    -0.555 A  
HETATM   17  C   UNL     1     -13.987   8.718  72.068  1.00  0.00    -0.511 A  
HETATM   18  C   UNL     1     -11.970   9.860  71.392  1.00  0.00    -0.489 A  
ENDBRANCH   6  13
ENDBRANCH   4   6
ENDBRANCH   3   4
ENDBRANCH   2   3
TORSDOF 4
ENDMDL
MODEL       94
REMARK 921   NORMALIZED FREE ENERGY PREDICTED BY IDOCK:   -3.45 KCAL/MOL
REMARK 922        TOTAL FREE ENERGY PREDICTED BY IDOCK:   -5.17 KCAL/MOL
REMARK 923 INTER-LIGAND FREE ENERGY PREDICTED BY IDOCK:   -4.69 KCAL/MOL
REMARK 924 INTRA-LIGAND FREE ENERGY PREDICTED BY IDOCK:   -0.49 KCAL/MOL
REMARK 927      BINDING AFFINITY PREDICTED BY RF-SCORE:    0.00 PKD
ROOT
HETATM    1  C   UNL     1     -11.712  15.806  64.259  1.00  0.00    -0.162 C  
HETATM    2  C   UNL     1     -12.397  14.463  64.470  1.00  0.00    -0.418 C  
ENDROOT
BRANCH   2   3
HETATM    3  O   UNL     1     -11.535  13.537  65.158  1.00  0.00    -0.294 OA 
BRANCH   3   4
HETATM    4  C   UNL     1     -11.464  13.730  66.504  1.00  0.00    -0.348 C  
HETATM    5  O   UNL     1     -12.341  14.307  67.148  1.00  0.00    -0.360 OA 
BRANCH   4   6
HETATM    6  C   UNL     1     -10.148  13.214  67.142  1.00  0.00    -0.242 C  
HETATM    7  C   UNL     1      -9.376  12.172  66.292  1.00  0.00    -0.221 C  
HETATM    8  C   UNL     1     -10.604  12.486  68.438  1.00  0.00    -0.256 C  
HETATM    9  C   UNL     1     -11.431  11.237  68.112  1.00  0.00    -0.306 C  
HETATM   10  C   UNL     1      -9.684   9.557  68.146  1.00  0.00    -0.147 C  
HETATM   11  C   UNL     1     -10.118  10.841  66.109  1.00  0.00    -0.242 C  
HETATM   12  N   UNL     1     -10.677  10.256  67.332  1.00  0.00    -0.275 NA 
BRANCH   6  13
HETATM   13  C   UNL     1      -9.233  14.435  67.398  1.00  0.00    -0.199 A  
HETATM   14  C   UNL     1      -7.985  15.918  68.882  1.00  0.00    -0.204 A  
HETATM   15  C   UNL     1      -8.733  14.756  68.670  1.00  0.00    -0.178 A  
HETATM   16  C   UNL     1      -8.160  16.468  66.550  1.00  0.00    -0.341 A  
HETATM   17  C   UNL     1      -7.715  16.783  67.828  1.00  0.00    -0.180 A  
HETATM   18  C   UNL     1      -8.899  15.301  66.336  1.00  0.00    -0.311 A  
ENDBRANCH   6  13
ENDBRANCH   4   6
ENDBRANCH   3   4
ENDBRANCH   2   3
TORSDOF 4
ENDMDL
MODEL       95
REMARK 921   NORMALIZED FREE ENERGY PREDICTED BY IDOCK:   -3.43 KCAL/MOL
REMARK 922        TOTAL FREE ENERGY PREDICTED BY IDOCK:   -5.16 KCAL/MOL
REMARK 923 INTER-LIGAND FREE ENERGY PREDICTED BY IDOCK:   -4.96 KCAL/MOL
REMARK 924 INTRA-LIGAND FREE ENERGY PREDICTED BY IDOCK:   -0.20 KCAL/MOL
REMARK 927      BINDING AFFINITY PREDICTED BY RF-SCORE:    0.00 PKD
ROOT
HETATM    1  C   UNL     1      -9.855   4.234  71.017  1.00  0.00    -0.251 C  
HETATM    2  C   UNL     1     -10.657   5.440  71.488  1.00  0.00    -0.216 C  
ENDROOT
BRANCH   2   3
HETATM    3  O   UNL     1     -10.133   6.665  70.938  1.00  0.00    -0.187 OA 
BRANCH   3   4
HETATM    4  C   UNL     1     -10.794   7.111  69.834  1.00  0.00    -0.254 C  
HETATM    5  O   UNL     1     -11.526   6.394  69.153  1.00  0.00    -0.364 OA 
BRANCH   4   6
HETATM    6  C   UNL     1     -10.490   8.589  69.479  1.00  0.00    -0.222 C  
HETATM    7  C   UNL     1     -10.683   8.957  67.985  1.00  0.00    -0.168 C  
HETATM    8  C   UNL     1      -8.975   8.759  69.790  1.00  0.00    -0.146 C  
HETATM    9  C   UNL     1      -8.117   7.915  68.842  1.00  0.00    -0.125 C  
HETATM   10  C   UNL     1      -7.639   9.562  67.129  1.00  0.00    -0.091 C  
HETATM   11  C   UNL     1      -9.703   8.252  67.037  1.00  0.00    -0.211 C  
HETATM   12  N   UNL     1      -8.294   8.293  67.440  1.00  0.00    -0.124 NA 
BRANCH   6  13
HETATM   13  C   UNL     1     -11.411   9.485  70.342  1.00  0.00    -0.318 A  
HETATM   14  C   UNL     1     -13.126   9.797  72.051  1.00  0.00    -0.546 A  
HETATM   15  C   UNL     1     -12.238   8.971  71.353  1.00  0.00    -0.387 A  
HETATM   16  C   UNL     1     -12.366  11.696  70.791  1.00  0.00    -0.454 A  
HETATM   17  C   UNL     1     -13.204  11.153  71.758  1.00  0.00    -0.486 A  
HETATM   18  C   UNL     1     -11.470  10.874  70.102  1.00  0.00    -0.405 A  
ENDBRANCH   6  13
ENDBRANCH   4   6
ENDBRANCH   3   4
ENDBRANCH   2   3
TORSDOF 4
ENDMDL
MODEL       96
REMARK 921   NORMALIZED FREE ENERGY PREDICTED BY IDOCK:   -3.43 KCAL/MOL
REMARK 922        TOTAL FREE ENERGY PREDICTED BY IDOCK:   -5.15 KCAL/MOL
REMARK 923 INTER-LIGAND FREE ENERGY PREDICTED BY IDOCK:   -4.89 KCAL/MOL
REMARK 924 INTRA-LIGAND FREE ENERGY PREDICTED BY IDOCK:   -0.27 KCAL/MOL
REMARK 927      BINDING AFFINITY PREDICTED BY RF-SCORE:    0.00 PKD
ROOT
HETATM    1  C   UNL     1      -5.559  19.648  70.845  1.00  0.00    -0.284 C  
HETATM    2  C   UNL     1      -5.905  18.570  69.827  1.00  0.00    -0.254 C  
ENDROOT
BRANCH   2   3
HETATM    3  O   UNL     1      -6.231  19.143  68.546  1.00  0.00    -0.227 OA 
BRANCH   3   4
HETATM    4  C   UNL     1      -7.566  19.190  68.277  1.00  0.00    -0.304 C  
HETATM    5  O   UNL     1      -8.396  19.645  69.064  1.00  0.00    -0.302 OA 
BRANCH   4   6
HETATM    6  C   UNL     1      -7.950  18.559  66.914  1.00  0.00    -0.250 C  
HETATM    7  C   UNL     1      -9.410  18.821  66.460  1.00  0.00    -0.345 C  
HETATM    8  C   UNL     1      -7.821  17.026  67.145  1.00  0.00    -0.203 C  
HETATM    9  C   UNL     1      -8.867  16.527  68.148  1.00  0.00    -0.203 C  
HETATM   10  C   UNL     1     -10.620  15.841  66.621  1.00  0.00    -0.307 C  
HETATM   11  C   UNL     1     -10.470  18.169  67.358  1.00  0.00    -0.399 C  
HETATM   12  N   UNL     1     -10.237  16.761  67.691  1.00  0.00    -0.280 NA 
BRANCH   6  13
HETATM   13  C   UNL     1      -6.981  19.114  65.843  1.00  0.00    -0.301 A  
HETATM   14  C   UNL     1      -6.204  20.884  64.351  1.00  0.00    -0.338 A  
HETATM   15  C   UNL     1      -7.034  20.441  65.386  1.00  0.00    -0.249 A  
HETATM   16  C   UNL     1      -5.197  18.707  64.214  1.00  0.00    -0.173 A  
HETATM   17  C   UNL     1      -5.300  20.014  63.753  1.00  0.00    -0.254 A  
HETATM   18  C   UNL     1      -6.018  18.267  65.256  1.00  0.00    -0.215 A  
ENDBRANCH   6  13
ENDBRANCH   4   6
ENDBRANCH   3   4
ENDBRANCH   2   3
TORSDOF 4
ENDMDL
MODEL       97
REMARK 921   NORMALIZED FREE ENERGY PREDICTED BY IDOCK:   -3.40 KCAL/MOL
REMARK 922        TOTAL FREE ENERGY PREDICTED BY IDOCK:   -5.12 KCAL/MOL
REMARK 923 INTER-LIGAND FREE ENERGY PREDICTED BY IDOCK:   -4.37 KCAL/MOL
REMARK 924 INTRA-LIGAND FREE ENERGY PREDICTED BY IDOCK:   -0.75 KCAL/MOL
REMARK 927      BINDING AFFINITY PREDICTED BY RF-SCORE:    0.00 PKD
ROOT
HETATM    1  C   UNL     1      -7.253   7.928  68.192  1.00  0.00    -0.090 C  
HETATM    2  C   UNL     1      -7.108   7.873  69.707  1.00  0.00    -0.061 C  
ENDROOT
BRANCH   2   3
HETATM    3  O   UNL     1      -8.299   8.348  70.365  1.00  0.00    -0.112 OA 
BRANCH   3   4
HETATM    4  C   UNL     1      -9.038   7.371  70.960  1.00  0.00    -0.152 C  
HETATM    5  O   UNL     1      -8.602   6.651  71.858  1.00  0.00    -0.124 OA 
BRANCH   4   6
HETATM    6  C   UNL     1     -10.457   7.207  70.359  1.00  0.00    -0.234 C  
HETATM    7  C   UNL     1     -11.120   8.525  69.879  1.00  0.00    -0.114 C  
HETATM    8  C   UNL     1     -11.320   6.674  71.538  1.00  0.00    -0.326 C  
HETATM    9  C   UNL     1     -11.453   7.725  72.646  1.00  0.00    -0.375 C  
HETATM   10  C   UNL     1     -13.540   8.767  71.990  1.00  0.00    -0.427 C  
HETATM   11  C   UNL     1     -11.428   9.516  71.010  1.00  0.00    -0.349 C  
HETATM   12  N   UNL     1     -12.103   8.950  72.181  1.00  0.00    -0.366 NA 
BRANCH   6  13
HETATM   13  C   UNL     1     -10.358   6.229  69.164  1.00  0.00    -0.262 A  
HETATM   14  C   UNL     1      -9.607   4.140  68.146  1.00  0.00    -0.195 A  
HETATM   15  C   UNL     1      -9.763   4.961  69.268  1.00  0.00    -0.258 A  
HETATM   16  C   UNL     1     -10.674   5.797  66.773  1.00  0.00    -0.369 A  
HETATM   17  C   UNL     1     -10.044   4.565  66.898  1.00  0.00    -0.200 A  
HETATM   18  C   UNL     1     -10.841   6.613  67.896  1.00  0.00    -0.353 A  
ENDBRANCH   6  13
ENDBRANCH   4   6
ENDBRANCH   3   4
ENDBRANCH   2   3
TORSDOF 4
ENDMDL
MODEL       98
REMARK 921   NORMALIZED FREE ENERGY PREDICTED BY IDOCK:   -3.38 KCAL/MOL
REMARK 922        TOTAL FREE ENERGY PREDICTED BY IDOCK:   -5.09 KCAL/MOL
REMARK 923 INTER-LIGAND FREE ENERGY PREDICTED BY IDOCK:   -4.94 KCAL/MOL
REMARK 924 INTRA-LIGAND FREE ENERGY PREDICTED BY IDOCK:   -0.14 KCAL/MOL
REMARK 927      BINDING AFFINITY PREDICTED BY RF-SCORE:    0.00 PKD
ROOT
HETATM    1  C   UNL     1     -11.628  13.396  64.437  1.00  0.00    -0.421 C  
HETATM    2  C   UNL     1     -10.665  13.713  65.573  1.00  0.00    -0.296 C  
ENDROOT
BRANCH   2   3
HETATM    3  O   UNL     1     -10.462  15.133  65.708  1.00  0.00    -0.297 OA 
BRANCH   3   4
HETATM    4  C   UNL     1     -10.520  15.588  66.991  1.00  0.00    -0.304 C  
HETATM    5  O   UNL     1     -11.513  15.461  67.706  1.00  0.00    -0.334 OA 
BRANCH   4   6
HETATM    6  C   UNL     1      -9.240  16.336  67.446  1.00  0.00    -0.217 C  
HETATM    7  C   UNL     1      -7.916  15.784  66.860  1.00  0.00    -0.285 C  
HETATM    8  C   UNL     1      -9.181  16.106  68.983  1.00  0.00    -0.252 C  
HETATM    9  C   UNL     1      -8.942  14.628  69.313  1.00  0.00     0.048 C  
HETATM   10  C   UNL     1      -6.528  14.631  69.527  1.00  0.00    -0.138 C  
HETATM   11  C   UNL     1      -7.569  14.364  67.330  1.00  0.00    -0.108 C  
HETATM   12  N   UNL     1      -7.676  14.132  68.773  1.00  0.00    -0.133 NA 
BRANCH   6  13
HETATM   13  C   UNL     1      -9.390  17.822  67.041  1.00  0.00    -0.259 A  
HETATM   14  C   UNL     1      -8.785  20.180  67.236  1.00  0.00    -0.429 A  
HETATM   15  C   UNL     1      -8.563  18.835  67.552  1.00  0.00    -0.292 A  
HETATM   16  C   UNL     1     -10.642  19.556  65.846  1.00  0.00    -0.572 A  
HETATM   17  C   UNL     1      -9.834  20.542  66.400  1.00  0.00    -0.279 A  
HETATM   18  C   UNL     1     -10.414  18.212  66.152  1.00  0.00    -0.377 A  
ENDBRANCH   6  13
ENDBRANCH   4   6
ENDBRANCH   3   4
ENDBRANCH   2   3
TORSDOF 4
ENDMDL
MODEL       99
REMARK 921   NORMALIZED FREE ENERGY PREDICTED BY IDOCK:   -3.36 KCAL/MOL
REMARK 922        TOTAL FREE ENERGY PREDICTED BY IDOCK:   -5.07 KCAL/MOL
REMARK 923 INTER-LIGAND FREE ENERGY PREDICTED BY IDOCK:   -4.56 KCAL/MOL
REMARK 924 INTRA-LIGAND FREE ENERGY PREDICTED BY IDOCK:   -0.52 KCAL/MOL
REMARK 927      BINDING AFFINITY PREDICTED BY RF-SCORE:    0.00 PKD
ROOT
HETATM    1  C   UNL     1      -7.449   5.223  70.985  1.00  0.00    -0.087 C  
HETATM    2  C   UNL     1      -7.950   6.573  71.478  1.00  0.00    -0.104 C  
ENDROOT
BRANCH   2   3
HETATM    3  O   UNL     1      -8.693   7.263  70.455  1.00  0.00    -0.143 OA 
BRANCH   3   4
HETATM    4  C   UNL     1      -9.448   8.300  70.914  1.00  0.00    -0.162 C  
HETATM    5  O   UNL     1      -9.135   8.979  71.890  1.00  0.00    -0.365 OA 
BRANCH   4   6
HETATM    6  C   UNL     1     -10.770   8.505  70.129  1.00  0.00    -0.240 C  
HETATM    7  C   UNL     1     -11.771   9.494  70.781  1.00  0.00    -0.370 C  
HETATM    8  C   UNL     1     -11.449   7.106  70.141  1.00  0.00    -0.245 C  
HETATM    9  C   UNL     1     -11.863   6.703  71.560  1.00  0.00    -0.337 C  
HETATM   10  C   UNL     1     -14.158   7.481  71.566  1.00  0.00    -0.427 C  
HETATM   11  C   UNL     1     -12.336   9.015  72.125  1.00  0.00    -0.372 C  
HETATM   12  N   UNL     1     -12.826   7.633  72.149  1.00  0.00    -0.192 NA 
BRANCH   6  13
HETATM   13  C   UNL     1     -10.408   9.014  68.713  1.00  0.00    -0.236 A  
HETATM   14  C   UNL     1      -9.965   8.647  66.340  1.00  0.00    -0.331 A  
HETATM   15  C   UNL     1     -10.386   8.174  67.588  1.00  0.00    -0.313 A  
HETATM   16  C   UNL     1      -9.614  10.832  67.276  1.00  0.00    -0.182 A  
HETATM   17  C   UNL     1      -9.561   9.968  66.188  1.00  0.00    -0.265 A  
HETATM   18  C   UNL     1     -10.045  10.363  68.519  1.00  0.00    -0.186 A  
ENDBRANCH   6  13
ENDBRANCH   4   6
ENDBRANCH   3   4
ENDBRANCH   2   3
TORSDOF 4
ENDMDL
MODEL      100
REMARK 921   NORMALIZED FREE ENERGY PREDICTED BY IDOCK:   -3.36 KCAL/MOL
REMARK 922        TOTAL FREE ENERGY PREDICTED BY IDOCK:   -5.07 KCAL/MOL
REMARK 923 INTER-LIGAND FREE ENERGY PREDICTED BY IDOCK:   -4.67 KCAL/MOL
REMARK 924 INTRA-LIGAND FREE ENERGY PREDICTED BY IDOCK:   -0.40 KCAL/MOL
REMARK 927      BINDING AFFINITY PREDICTED BY RF-SCORE:    0.00 PKD
ROOT
HETATM    1  C   UNL     1      -9.534   6.753  66.289  1.00  0.00    -0.116 C  
HETATM    2  C   UNL     1     -10.287   7.763  67.145  1.00  0.00    -0.319 C  
ENDROOT
BRANCH   2   3
HETATM    3  O   UNL     1      -9.477   8.920  67.427  1.00  0.00    -0.139 OA 
BRANCH   3   4
HETATM    4  C   UNL     1     -10.108  10.109  67.220  1.00  0.00    -0.206 C  
HETATM    5  O   UNL     1     -10.681  10.394  66.168  1.00  0.00    -0.131 OA 
BRANCH   4   6
HETATM    6  C   UNL     1      -9.984  11.097  68.409  1.00  0.00    -0.193 C  
HETATM    7  C   UNL     1     -10.466  12.541  68.113  1.00  0.00    -0.238 C  
HETATM    8  C   UNL     1      -8.456  11.181  68.686  1.00  0.00    -0.153 C  
HETATM    9  C   UNL     1      -7.717  11.839  67.516  1.00  0.00    -0.143 C  
HETATM   10  C   UNL     1      -7.674  14.137  68.285  1.00  0.00    -0.139 C  
HETATM   11  C   UNL     1      -9.617  13.280  67.070  1.00  0.00    -0.243 C  
HETATM   12  N   UNL     1      -8.167  13.209  67.269  1.00  0.00    -0.184 NA 
BRANCH   6  13
HETATM   13  C   UNL     1     -10.804  10.524  69.590  1.00  0.00    -0.320 A  
HETATM   14  C   UNL     1     -12.812  10.436  70.977  1.00  0.00    -0.494 A  
HETATM   15  C   UNL     1     -12.131  10.903  69.848  1.00  0.00    -0.428 A  
HETATM   16  C   UNL     1     -10.886   9.152  71.617  1.00  0.00    -0.442 A  
HETATM   17  C   UNL     1     -12.185   9.577  71.871  1.00  0.00    -0.432 A  
HETATM   18  C   UNL     1     -10.210   9.609  70.483  1.00  0.00    -0.351 A  
ENDBRANCH   6  13
ENDBRANCH   4   6
ENDBRANCH   3   4
ENDBRANCH   2   3
TORSDOF 4
ENDMDL
MODEL      101
REMARK 921   NORMALIZED FREE ENERGY PREDICTED BY IDOCK:   -3.36 KCAL/MOL
REMARK 922        TOTAL FREE ENERGY PREDICTED BY IDOCK:   -5.07 KCAL/MOL
REMARK 923 INTER-LIGAND FREE ENERGY PREDICTED BY IDOCK:   -4.81 KCAL/MOL
REMARK 924 INTRA-LIGAND FREE ENERGY PREDICTED BY IDOCK:   -0.26 KCAL/MOL
REMARK 927      BINDING AFFINITY PREDICTED BY RF-SCORE:    0.00 PKD
ROOT
HETATM    1  C   UNL     1      -7.219   9.355  69.024  1.00  0.00    -0.071 C  
HETATM    2  C   UNL     1      -8.292   9.521  70.091  1.00  0.00    -0.192 C  
ENDROOT
BRANCH   2   3
HETATM    3  O   UNL     1      -8.977   8.279  70.342  1.00  0.00    -0.141 OA 
BRANCH   3   4
HETATM    4  C   UNL     1      -9.357   8.101  71.639  1.00  0.00    -0.174 C  
HETATM    5  O   UNL     1      -8.828   8.689  72.581  1.00  0.00    -0.371 OA 
BRANCH   4   6
HETATM    6  C   UNL     1     -10.475   7.042  71.822  1.00  0.00    -0.223 C  
HETATM    7  C   UNL     1     -10.416   6.253  73.156  1.00  0.00    -0.259 C  
HETATM    8  C   UNL     1     -10.226   6.013  70.681  1.00  0.00    -0.260 C  
HETATM    9  C   UNL     1      -8.904   5.267  70.887  1.00  0.00    -0.136 C  
HETATM   10  C   UNL     1      -9.706   3.307  72.065  1.00  0.00    -0.165 C  
HETATM   11  C   UNL     1      -9.179   5.355  73.296  1.00  0.00    -0.132 C  
HETATM   12  N   UNL     1      -8.877   4.509  72.138  1.00  0.00    -0.120 NA 
BRANCH   6  13
HETATM   13  C   UNL     1     -11.838   7.768  71.725  1.00  0.00    -0.328 A  
HETATM   14  C   UNL     1     -13.206   9.790  71.714  1.00  0.00    -0.532 A  
HETATM   15  C   UNL     1     -11.954   9.167  71.709  1.00  0.00    -0.449 A  
HETATM   16  C   UNL     1     -14.284   7.643  71.703  1.00  0.00    -0.578 A  
HETATM   17  C   UNL     1     -14.369   9.031  71.730  1.00  0.00    -0.272 A  
HETATM   18  C   UNL     1     -13.034   7.021  71.686  1.00  0.00    -0.400 A  
ENDBRANCH   6  13
ENDBRANCH   4   6
ENDBRANCH   3   4
ENDBRANCH   2   3
TORSDOF 4
ENDMDL
MODEL      102
REMARK 921   NORMALIZED FREE ENERGY PREDICTED BY IDOCK:   -3.36 KCAL/MOL
REMARK 922        TOTAL FREE ENERGY PREDICTED BY IDOCK:   -5.07 KCAL/MOL
REMARK 923 INTER-LIGAND FREE ENERGY PREDICTED BY IDOCK:   -4.66 KCAL/MOL
REMARK 924 INTRA-LIGAND FREE ENERGY PREDICTED BY IDOCK:   -0.40 KCAL/MOL
REMARK 927      BINDING AFFINITY PREDICTED BY RF-SCORE:    0.00 PKD
ROOT
HETATM    1  C   UNL     1     -10.382   5.934  66.393  1.00  0.00    -0.170 C  
HETATM    2  C   UNL     1     -10.669   7.197  67.193  1.00  0.00    -0.352 C  
ENDROOT
BRANCH   2   3
HETATM    3  O   UNL     1     -10.729   8.356  66.340  1.00  0.00     0.061 OA 
BRANCH   3   4
HETATM    4  C   UNL     1      -9.981   9.410  66.772  1.00  0.00    -0.239 C  
HETATM    5  O   UNL     1      -9.801   9.664  67.963  1.00  0.00    -0.144 OA 
BRANCH   4   6
HETATM    6  C   UNL     1      -9.430  10.297  65.626  1.00  0.00    -0.274 C  
HETATM    7  C   UNL     1      -8.996   9.525  64.353  1.00  0.00    -0.255 C  
HETATM    8  C   UNL     1      -8.145  10.943  66.218  1.00  0.00    -0.165 C  
HETATM    9  C   UNL     1      -7.067   9.888  66.487  1.00  0.00    -0.094 C  
HETATM   10  C   UNL     1      -5.816  10.028  64.416  1.00  0.00    -0.116 C  
HETATM   11  C   UNL     1      -7.793   8.595  64.566  1.00  0.00    -0.132 C  
HETATM   12  N   UNL     1      -6.653   9.188  65.271  1.00  0.00    -0.068 NA 
BRANCH   6  13
HETATM   13  C   UNL     1     -10.527  11.319  65.246  1.00  0.00    -0.341 A  
HETATM   14  C   UNL     1     -11.911  12.485  63.607  1.00  0.00    -0.621 A  
HETATM   15  C   UNL     1     -10.985  11.488  63.929  1.00  0.00    -0.474 A  
HETATM   16  C   UNL     1     -12.002  13.159  65.910  1.00  0.00    -0.479 A  
HETATM   17  C   UNL     1     -12.405  13.332  64.591  1.00  0.00    -0.447 A  
HETATM   18  C   UNL     1     -11.085  12.156  66.235  1.00  0.00    -0.353 A  
ENDBRANCH   6  13
ENDBRANCH   4   6
ENDBRANCH   3   4
ENDBRANCH   2   3
TORSDOF 4
ENDMDL
MODEL      103
REMARK 921   NORMALIZED FREE ENERGY PREDICTED BY IDOCK:   -3.32 KCAL/MOL
REMARK 922        TOTAL FREE ENERGY PREDICTED BY IDOCK:   -5.02 KCAL/MOL
REMARK 923 INTER-LIGAND FREE ENERGY PREDICTED BY IDOCK:   -4.42 KCAL/MOL
REMARK 924 INTRA-LIGAND FREE ENERGY PREDICTED BY IDOCK:   -0.59 KCAL/MOL
REMARK 927      BINDING AFFINITY PREDICTED BY RF-SCORE:    0.00 PKD
ROOT
HETATM    1  C   UNL     1     -11.709  13.148  66.981  1.00  0.00    -0.431 C  
HETATM    2  C   UNL     1     -11.343  11.776  66.434  1.00  0.00    -0.297 C  
ENDROOT
BRANCH   2   3
HETATM    3  O   UNL     1     -10.173  11.245  67.086  1.00  0.00    -0.192 OA 
BRANCH   3   4
HETATM    4  C   UNL     1     -10.304   9.957  67.510  1.00  0.00    -0.236 C  
HETATM    5  O   UNL     1     -10.891   9.092  66.862  1.00  0.00    -0.155 OA 
BRANCH   4   6
HETATM    6  C   UNL     1      -9.701   9.699  68.915  1.00  0.00    -0.163 C  
HETATM    7  C   UNL     1      -8.578  10.683  69.336  1.00  0.00    -0.046 C  
HETATM    8  C   UNL     1      -9.046   8.292  68.804  1.00  0.00    -0.144 C  
HETATM    9  C   UNL     1      -7.859   8.309  67.835  1.00  0.00    -0.114 C  
HETATM   10  C   UNL     1      -6.046   8.694  69.396  1.00  0.00    -0.041 C  
HETATM   11  C   UNL     1      -7.307  10.581  68.482  1.00  0.00    -0.088 C  
HETATM   12  N   UNL     1      -6.800   9.223  68.261  1.00  0.00    -0.064 NA 
BRANCH   6  13
HETATM   13  C   UNL     1     -10.851   9.774  69.948  1.00  0.00    -0.306 A  
HETATM   14  C   UNL     1     -12.580  10.999  71.162  1.00  0.00    -0.522 A  
HETATM   15  C   UNL     1     -11.609  10.937  70.156  1.00  0.00    -0.425 A  
HETATM   16  C   UNL     1     -12.111   8.722  71.766  1.00  0.00    -0.418 A  
HETATM   17  C   UNL     1     -12.817   9.900  71.978  1.00  0.00    -0.488 A  
HETATM   18  C   UNL     1     -11.150   8.656  70.754  1.00  0.00    -0.295 A  
ENDBRANCH   6  13
ENDBRANCH   4   6
ENDBRANCH   3   4
ENDBRANCH   2   3
TORSDOF 4
ENDMDL
MODEL      104
REMARK 921   NORMALIZED FREE ENERGY PREDICTED BY IDOCK:   -3.31 KCAL/MOL
REMARK 922        TOTAL FREE ENERGY PREDICTED BY IDOCK:   -5.01 KCAL/MOL
REMARK 923 INTER-LIGAND FREE ENERGY PREDICTED BY IDOCK:   -4.80 KCAL/MOL
REMARK 924 INTRA-LIGAND FREE ENERGY PREDICTED BY IDOCK:   -0.21 KCAL/MOL
REMARK 927      BINDING AFFINITY PREDICTED BY RF-SCORE:    0.00 PKD
ROOT
HETATM    1  C   UNL     1     -10.110   6.958  73.848  1.00  0.00    -0.391 C  
HETATM    2  C   UNL     1     -11.188   7.549  72.951  1.00  0.00    -0.346 C  
ENDROOT
BRANCH   2   3
HETATM    3  O   UNL     1     -10.619   8.140  71.767  1.00  0.00    -0.225 OA 
BRANCH   3   4
HETATM    4  C   UNL     1     -11.148   7.676  70.600  1.00  0.00    -0.257 C  
HETATM    5  O   UNL     1     -12.115   6.917  70.555  1.00  0.00    -0.353 OA 
BRANCH   4   6
HETATM    6  C   UNL     1     -10.379   8.142  69.337  1.00  0.00    -0.219 C  
HETATM    7  C   UNL     1     -10.604   7.270  68.075  1.00  0.00    -0.247 C  
HETATM    8  C   UNL     1      -8.878   7.999  69.720  1.00  0.00    -0.144 C  
HETATM    9  C   UNL     1      -8.497   6.528  69.924  1.00  0.00    -0.135 C  
HETATM   10  C   UNL     1      -7.668   5.999  67.709  1.00  0.00    -0.101 C  
HETATM   11  C   UNL     1     -10.059   5.840  68.200  1.00  0.00    -0.165 C  
HETATM   12  N   UNL     1      -8.692   5.727  68.716  1.00  0.00    -0.108 NA 
BRANCH   6  13
HETATM   13  C   UNL     1     -10.810   9.596  69.028  1.00  0.00    -0.206 A  
HETATM   14  C   UNL     1     -11.759  11.748  69.685  1.00  0.00    -0.413 A  
HETATM   15  C   UNL     1     -11.291  10.471  70.015  1.00  0.00    -0.392 A  
HETATM   16  C   UNL     1     -11.243  11.350  67.373  1.00  0.00    -0.370 A  
HETATM   17  C   UNL     1     -11.753  12.180  68.364  1.00  0.00    -0.388 A  
HETATM   18  C   UNL     1     -10.765  10.079  67.703  1.00  0.00    -0.340 A  
ENDBRANCH   6  13
ENDBRANCH   4   6
ENDBRANCH   3   4
ENDBRANCH   2   3
TORSDOF 4
ENDMDL
MODEL      105
REMARK 921   NORMALIZED FREE ENERGY PREDICTED BY IDOCK:   -3.27 KCAL/MOL
REMARK 922        TOTAL FREE ENERGY PREDICTED BY IDOCK:   -4.96 KCAL/MOL
REMARK 923 INTER-LIGAND FREE ENERGY PREDICTED BY IDOCK:   -4.43 KCAL/MOL
REMARK 924 INTRA-LIGAND FREE ENERGY PREDICTED BY IDOCK:   -0.52 KCAL/MOL
REMARK 927      BINDING AFFINITY PREDICTED BY RF-SCORE:    0.00 PKD
ROOT
HETATM    1  C   UNL     1      -9.802  13.530  66.686  1.00  0.00    -0.279 C  
HETATM    2  C   UNL     1      -9.707  12.114  66.135  1.00  0.00    -0.240 C  
ENDROOT
BRANCH   2   3
HETATM    3  O   UNL     1      -9.400  11.166  67.176  1.00  0.00    -0.163 OA 
BRANCH   3   4
HETATM    4  C   UNL     1     -10.489  10.532  67.694  1.00  0.00    -0.234 C  
HETATM    5  O   UNL     1     -11.533  10.365  67.064  1.00  0.00    -0.189 OA 
BRANCH   4   6
HETATM    6  C   UNL     1     -10.313  10.096  69.171  1.00  0.00    -0.237 C  
HETATM    7  C   UNL     1      -8.873  10.238  69.728  1.00  0.00    -0.070 C  
HETATM    8  C   UNL     1     -10.645   8.576  69.170  1.00  0.00    -0.188 C  
HETATM    9  C   UNL     1      -9.605   7.782  68.372  1.00  0.00    -0.152 C  
HETATM   10  C   UNL     1      -8.102   7.142  70.161  1.00  0.00    -0.130 C  
HETATM   11  C   UNL     1      -7.850   9.311  69.057  1.00  0.00    -0.082 C  
HETATM   12  N   UNL     1      -8.258   7.909  68.927  1.00  0.00    -0.125 NA 
BRANCH   6  13
HETATM   13  C   UNL     1     -11.274  10.946  70.036  1.00  0.00    -0.340 A  
HETATM   14  C   UNL     1     -12.985  11.178  71.762  1.00  0.00    -0.526 A  
HETATM   15  C   UNL     1     -12.059  10.397  71.063  1.00  0.00    -0.488 A  
HETATM   16  C   UNL     1     -12.351  13.103  70.473  1.00  0.00    -0.380 A  
HETATM   17  C   UNL     1     -13.145  12.524  71.456  1.00  0.00    -0.373 A  
HETATM   18  C   UNL     1     -11.418  12.326  69.781  1.00  0.00    -0.237 A  
ENDBRANCH   6  13
ENDBRANCH   4   6
ENDBRANCH   3   4
ENDBRANCH   2   3
TORSDOF 4
ENDMDL
MODEL      106
REMARK 921   NORMALIZED FREE ENERGY PREDICTED BY IDOCK:   -3.26 KCAL/MOL
REMARK 922        TOTAL FREE ENERGY PREDICTED BY IDOCK:   -4.95 KCAL/MOL
REMARK 923 INTER-LIGAND FREE ENERGY PREDICTED BY IDOCK:   -4.32 KCAL/MOL
REMARK 924 INTRA-LIGAND FREE ENERGY PREDICTED BY IDOCK:   -0.62 KCAL/MOL
REMARK 927      BINDING AFFINITY PREDICTED BY RF-SCORE:    0.00 PKD
ROOT
HETATM    1  C   UNL     1      -7.544   9.499  70.084  1.00  0.00    -0.146 C  
HETATM    2  C   UNL     1      -7.595  10.711  69.163  1.00  0.00    -0.131 C  
ENDROOT
BRANCH   2   3
HETATM    3  O   UNL     1      -8.840  10.769  68.440  1.00  0.00    -0.133 OA 
BRANCH   3   4
HETATM    4  C   UNL     1      -8.699  10.867  67.089  1.00  0.00    -0.132 C  
HETATM    5  O   UNL     1      -7.752  11.438  66.550  1.00  0.00    -0.149 OA 
BRANCH   4   6
HETATM    6  C   UNL     1      -9.877  10.247  66.292  1.00  0.00    -0.276 C  
HETATM    7  C   UNL     1      -9.892  10.584  64.778  1.00  0.00    -0.387 C  
HETATM    8  C   UNL     1     -11.148  10.897  66.909  1.00  0.00    -0.236 C  
HETATM    9  C   UNL     1     -11.195  12.402  66.624  1.00  0.00    -0.315 C  
HETATM   10  C   UNL     1     -12.542  12.405  64.609  1.00  0.00    -0.375 C  
HETATM   11  C   UNL     1     -10.122  12.071  64.473  1.00  0.00    -0.265 C  
HETATM   12  N   UNL     1     -11.234  12.699  65.192  1.00  0.00    -0.293 NA 
BRANCH   6  13
HETATM   13  C   UNL     1      -9.811   8.710  66.465  1.00  0.00    -0.348 A  
HETATM   14  C   UNL     1      -8.800   6.533  66.021  1.00  0.00    -0.154 A  
HETATM   15  C   UNL     1      -8.778   7.929  65.924  1.00  0.00    -0.180 A  
HETATM   16  C   UNL     1     -10.863   6.640  67.246  1.00  0.00    -0.456 A  
HETATM   17  C   UNL     1      -9.849   5.889  66.664  1.00  0.00    -0.197 A  
HETATM   18  C   UNL     1     -10.836   8.035  67.159  1.00  0.00    -0.150 A  
ENDBRANCH   6  13
ENDBRANCH   4   6
ENDBRANCH   3   4
ENDBRANCH   2   3
TORSDOF 4
ENDMDL
MODEL      107
REMARK 921   NORMALIZED FREE ENERGY PREDICTED BY IDOCK:   -3.25 KCAL/MOL
REMARK 922        TOTAL FREE ENERGY PREDICTED BY IDOCK:   -4.94 KCAL/MOL
REMARK 923 INTER-LIGAND FREE ENERGY PREDICTED BY IDOCK:   -4.62 KCAL/MOL
REMARK 924 INTRA-LIGAND FREE ENERGY PREDICTED BY IDOCK:   -0.32 KCAL/MOL
REMARK 927      BINDING AFFINITY PREDICTED BY RF-SCORE:    0.00 PKD
ROOT
HETATM    1  C   UNL     1      -7.532  17.109  66.114  1.00  0.00    -0.295 C  
HETATM    2  C   UNL     1      -8.363  16.301  67.101  1.00  0.00    -0.191 C  
ENDROOT
BRANCH   2   3
HETATM    3  O   UNL     1      -8.617  14.971  66.608  1.00  0.00    -0.258 OA 
BRANCH   3   4
HETATM    4  C   UNL     1      -9.915  14.742  66.261  1.00  0.00    -0.291 C  
HETATM    5  O   UNL     1     -10.612  15.572  65.679  1.00  0.00    -0.327 OA 
BRANCH   4   6
HETATM    6  C   UNL     1     -10.449  13.362  66.723  1.00  0.00    -0.275 C  
HETATM    7  C   UNL     1     -11.981  13.299  66.959  1.00  0.00    -0.419 C  
HETATM    8  C   UNL     1      -9.773  13.125  68.104  1.00  0.00    -0.228 C  
HETATM    9  C   UNL     1     -10.269  14.137  69.144  1.00  0.00    -0.051 C  
HETATM   10  C   UNL     1     -12.067  12.860  70.148  1.00  0.00    -0.302 C  
HETATM   11  C   UNL     1     -12.469  14.172  68.122  1.00  0.00     0.247 C  
HETATM   12  N   UNL     1     -11.711  14.045  69.370  1.00  0.00    -0.293 NA 
BRANCH   6  13
HETATM   13  C   UNL     1     -10.061  12.317  65.649  1.00  0.00    -0.275 A  
HETATM   14  C   UNL     1     -10.102  11.461  63.363  1.00  0.00    -0.444 A  
HETATM   15  C   UNL     1     -10.387  12.468  64.292  1.00  0.00    -0.396 A  
HETATM   16  C   UNL     1      -9.110  10.128  65.098  1.00  0.00    -0.242 A  
HETATM   17  C   UNL     1      -9.482  10.285  63.768  1.00  0.00    -0.352 A  
HETATM   18  C   UNL     1      -9.384  11.138  66.024  1.00  0.00    -0.228 A  
ENDBRANCH   6  13
ENDBRANCH   4   6
ENDBRANCH   3   4
ENDBRANCH   2   3
TORSDOF 4
ENDMDL
MODEL      108
REMARK 921   NORMALIZED FREE ENERGY PREDICTED BY IDOCK:   -3.23 KCAL/MOL
REMARK 922        TOTAL FREE ENERGY PREDICTED BY IDOCK:   -4.90 KCAL/MOL
REMARK 923 INTER-LIGAND FREE ENERGY PREDICTED BY IDOCK:   -4.88 KCAL/MOL
REMARK 924 INTRA-LIGAND FREE ENERGY PREDICTED BY IDOCK:   -0.02 KCAL/MOL
REMARK 927      BINDING AFFINITY PREDICTED BY RF-SCORE:    0.00 PKD
ROOT
HETATM    1  C   UNL     1     -10.360  14.280  68.820  1.00  0.00    -0.239 C  
HETATM    2  C   UNL     1     -11.644  13.702  69.399  1.00  0.00    -0.312 C  
ENDROOT
BRANCH   2   3
HETATM    3  O   UNL     1     -11.478  12.318  69.765  1.00  0.00    -0.247 OA 
BRANCH   3   4
HETATM    4  C   UNL     1     -11.487  11.455  68.711  1.00  0.00    -0.290 C  
HETATM    5  O   UNL     1     -12.376  11.441  67.861  1.00  0.00    -0.380 OA 
BRANCH   4   6
HETATM    6  C   UNL     1     -10.307  10.450  68.718  1.00  0.00    -0.213 C  
HETATM    7  C   UNL     1      -8.898  11.095  68.657  1.00  0.00    -0.155 C  
HETATM    8  C   UNL     1     -10.484   9.634  67.405  1.00  0.00    -0.319 C  
HETATM    9  C   UNL     1     -10.274  10.518  66.171  1.00  0.00    -0.236 C  
HETATM   10  C   UNL     1      -7.924  10.104  65.751  1.00  0.00    -0.140 C  
HETATM   11  C   UNL     1      -8.606  11.833  67.343  1.00  0.00    -0.160 C  
HETATM   12  N   UNL     1      -8.932  11.097  66.118  1.00  0.00    -0.191 NA 
BRANCH   6  13
HETATM   13  C   UNL     1     -10.416   9.597  70.004  1.00  0.00    -0.301 A  
HETATM   14  C   UNL     1     -11.714   8.453  71.727  1.00  0.00    -0.371 A  
HETATM   15  C   UNL     1     -11.643   9.143  70.512  1.00  0.00    -0.238 A  
HETATM   16  C   UNL     1      -9.327   8.599  71.959  1.00  0.00    -0.362 A  
HETATM   17  C   UNL     1     -10.561   8.198  72.459  1.00  0.00    -0.411 A  
HETATM   18  C   UNL     1      -9.255   9.278  70.740  1.00  0.00    -0.316 A  
ENDBRANCH   6  13
ENDBRANCH   4   6
ENDBRANCH   3   4
ENDBRANCH   2   3
TORSDOF 4
ENDMDL
MODEL      109
REMARK 921   NORMALIZED FREE ENERGY PREDICTED BY IDOCK:   -3.22 KCAL/MOL
REMARK 922        TOTAL FREE ENERGY PREDICTED BY IDOCK:   -4.90 KCAL/MOL
REMARK 923 INTER-LIGAND FREE ENERGY PREDICTED BY IDOCK:   -4.47 KCAL/MOL
REMARK 924 INTRA-LIGAND FREE ENERGY PREDICTED BY IDOCK:   -0.43 KCAL/MOL
REMARK 927      BINDING AFFINITY PREDICTED BY RF-SCORE:    0.00 PKD
ROOT
HETATM    1  C   UNL     1     -14.231   8.802  72.355  1.00  0.00    -0.464 C  
HETATM    2  C   UNL     1     -12.999   8.945  71.472  1.00  0.00    -0.332 C  
ENDROOT
BRANCH   2   3
HETATM    3  O   UNL     1     -11.786   8.821  72.239  1.00  0.00    -0.363 OA 
BRANCH   3   4
HETATM    4  C   UNL     1     -10.648   8.820  71.490  1.00  0.00    -0.309 C  
HETATM    5  O   UNL     1     -10.244   9.808  70.877  1.00  0.00    -0.271 OA 
BRANCH   4   6
HETATM    6  C   UNL     1      -9.941   7.441  71.430  1.00  0.00    -0.195 C  
HETATM    7  C   UNL     1     -10.590   6.335  72.303  1.00  0.00    -0.244 C  
HETATM    8  C   UNL     1      -8.526   7.704  72.019  1.00  0.00    -0.133 C  
HETATM    9  C   UNL     1      -8.603   8.071  73.505  1.00  0.00    -0.256 C  
HETATM   10  C   UNL     1      -8.276   5.883  74.496  1.00  0.00    -0.112 C  
HETATM   11  C   UNL     1     -10.512   6.604  73.812  1.00  0.00    -0.333 C  
HETATM   12  N   UNL     1      -9.195   7.006  74.315  1.00  0.00    -0.222 NA 
BRANCH   6  13
HETATM   13  C   UNL     1      -9.929   6.977  69.954  1.00  0.00    -0.183 A  
HETATM   14  C   UNL     1     -11.060   6.270  67.909  1.00  0.00    -0.360 A  
HETATM   15  C   UNL     1     -11.104   6.779  69.211  1.00  0.00    -0.289 A  
HETATM   16  C   UNL     1      -8.662   6.178  68.016  1.00  0.00    -0.113 A  
HETATM   17  C   UNL     1      -9.843   5.952  67.319  1.00  0.00    -0.155 A  
HETATM   18  C   UNL     1      -8.705   6.697  69.313  1.00  0.00    -0.131 A  
ENDBRANCH   6  13
ENDBRANCH   4   6
ENDBRANCH   3   4
ENDBRANCH   2   3
TORSDOF 4
ENDMDL
MODEL      110
REMARK 921   NORMALIZED FREE ENERGY PREDICTED BY IDOCK:   -3.19 KCAL/MOL
REMARK 922        TOTAL FREE ENERGY PREDICTED BY IDOCK:   -4.85 KCAL/MOL
REMARK 923 INTER-LIGAND FREE ENERGY PREDICTED BY IDOCK:   -5.32 KCAL/MOL
REMARK 924 INTRA-LIGAND FREE ENERGY PREDICTED BY IDOCK:    0.47 KCAL/MOL
REMARK 927      BINDING AFFINITY PREDICTED BY RF-SCORE:    0.00 PKD
ROOT
HETATM    1  C   UNL     1     -10.405  15.724  67.665  1.00  0.00    -0.281 C  
HETATM    2  C   UNL     1      -9.829  15.323  69.016  1.00  0.00    -0.230 C  
ENDROOT
BRANCH   2   3
HETATM    3  O   UNL     1     -10.536  14.199  69.575  1.00  0.00    -0.112 OA 
BRANCH   3   4
HETATM    4  C   UNL     1     -11.371  13.572  68.701  1.00  0.00    -0.288 C  
HETATM    5  O   UNL     1     -12.370  14.108  68.221  1.00  0.00    -0.246 OA 
BRANCH   4   6
HETATM    6  C   UNL     1     -10.983  12.098  68.414  1.00  0.00    -0.271 C  
HETATM    7  C   UNL     1      -9.485  11.869  68.085  1.00  0.00    -0.195 C  
HETATM    8  C   UNL     1     -11.786  11.725  67.136  1.00  0.00    -0.267 C  
HETATM    9  C   UNL     1     -11.302  12.529  65.924  1.00  0.00    -0.340 C  
HETATM   10  C   UNL     1      -9.694  10.969  65.000  1.00  0.00    -0.254 C  
HETATM   11  C   UNL     1      -9.028  12.520  66.772  1.00  0.00    -0.198 C  
HETATM   12  N   UNL     1      -9.894  12.281  65.613  1.00  0.00    -0.248 NA 
BRANCH   6  13
HETATM   13  C   UNL     1     -11.359  11.257  69.658  1.00  0.00    -0.359 A  
HETATM   14  C   UNL     1     -11.071   9.322  71.118  1.00  0.00    -0.411 A  
HETATM   15  C   UNL     1     -10.647  10.110  70.043  1.00  0.00    -0.338 A  
HETATM   16  C   UNL     1     -12.911  10.817  71.502  1.00  0.00    -0.567 A  
HETATM   17  C   UNL     1     -12.211   9.663  71.834  1.00  0.00    -0.413 A  
HETATM   18  C   UNL     1     -12.482  11.611  70.435  1.00  0.00    -0.304 A  
ENDBRANCH   6  13
ENDBRANCH   4   6
ENDBRANCH   3   4
ENDBRANCH   2   3
TORSDOF 4
ENDMDL
MODEL      111
REMARK 921   NORMALIZED FREE ENERGY PREDICTED BY IDOCK:   -3.18 KCAL/MOL
REMARK 922        TOTAL FREE ENERGY PREDICTED BY IDOCK:   -4.84 KCAL/MOL
REMARK 923 INTER-LIGAND FREE ENERGY PREDICTED BY IDOCK:   -4.42 KCAL/MOL
REMARK 924 INTRA-LIGAND FREE ENERGY PREDICTED BY IDOCK:   -0.42 KCAL/MOL
REMARK 927      BINDING AFFINITY PREDICTED BY RF-SCORE:    0.00 PKD
ROOT
HETATM    1  C   UNL     1     -12.119   8.405  72.249  1.00  0.00    -0.456 C  
HETATM    2  C   UNL     1     -11.724   9.564  71.345  1.00  0.00    -0.393 C  
ENDROOT
BRANCH   2   3
HETATM    3  O   UNL     1     -11.319   9.099  70.043  1.00  0.00    -0.204 OA 
BRANCH   3   4
HETATM    4  C   UNL     1     -10.037   9.417  69.708  1.00  0.00    -0.211 C  
HETATM    5  O   UNL     1      -9.126   9.490  70.532  1.00  0.00    -0.247 OA 
BRANCH   4   6
HETATM    6  C   UNL     1      -9.846   9.739  68.204  1.00  0.00    -0.170 C  
HETATM    7  C   UNL     1     -10.655   8.839  67.234  1.00  0.00    -0.303 C  
HETATM    8  C   UNL     1      -8.342   9.453  67.933  1.00  0.00    -0.115 C  
HETATM    9  C   UNL     1      -8.026   7.961  68.085  1.00  0.00    -0.125 C  
HETATM   10  C   UNL     1      -8.263   7.244  65.782  1.00  0.00    -0.135 C  
HETATM   11  C   UNL     1     -10.222   7.366  67.243  1.00  0.00    -0.260 C  
HETATM   12  N   UNL     1      -8.779   7.130  67.146  1.00  0.00    -0.120 NA 
BRANCH   6  13
HETATM   13  C   UNL     1     -10.253  11.215  67.979  1.00  0.00    -0.201 A  
HETATM   14  C   UNL     1     -11.829  12.927  67.238  1.00  0.00    -0.416 A  
HETATM   15  C   UNL     1     -11.525  11.590  67.518  1.00  0.00    -0.355 A  
HETATM   16  C   UNL     1      -9.617  13.580  67.910  1.00  0.00    -0.218 A  
HETATM   17  C   UNL     1     -10.871  13.918  67.415  1.00  0.00    -0.291 A  
HETATM   18  C   UNL     1      -9.317  12.247  68.201  1.00  0.00    -0.205 A  
ENDBRANCH   6  13
ENDBRANCH   4   6
ENDBRANCH   3   4
ENDBRANCH   2   3
TORSDOF 4
ENDMDL
MODEL      112
REMARK 921   NORMALIZED FREE ENERGY PREDICTED BY IDOCK:   -3.16 KCAL/MOL
REMARK 922        TOTAL FREE ENERGY PREDICTED BY IDOCK:   -4.82 KCAL/MOL
REMARK 923 INTER-LIGAND FREE ENERGY PREDICTED BY IDOCK:   -4.20 KCAL/MOL
REMARK 924 INTRA-LIGAND FREE ENERGY PREDICTED BY IDOCK:   -0.63 KCAL/MOL
REMARK 927      BINDING AFFINITY PREDICTED BY RF-SCORE:    0.00 PKD
ROOT
HETATM    1  C   UNL     1     -12.359  13.802  64.886  1.00  0.00    -0.435 C  
HETATM    2  C   UNL     1     -10.910  13.517  64.520  1.00  0.00    -0.410 C  
ENDROOT
BRANCH   2   3
HETATM    3  O   UNL     1     -10.078  13.436  65.694  1.00  0.00    -0.289 OA 
BRANCH   3   4
HETATM    4  C   UNL     1      -9.933  12.176  66.191  1.00  0.00    -0.233 C  
HETATM    5  O   UNL     1     -10.119  11.162  65.520  1.00  0.00    -0.234 OA 
BRANCH   4   6
HETATM    6  C   UNL     1      -9.572  12.138  67.699  1.00  0.00    -0.190 C  
HETATM    7  C   UNL     1      -9.626  10.732  68.349  1.00  0.00    -0.177 C  
HETATM    8  C   UNL     1     -10.676  12.993  68.384  1.00  0.00    -0.273 C  
HETATM    9  C   UNL     1     -12.049  12.323  68.265  1.00  0.00    -0.026 C  
HETATM   10  C   UNL     1     -12.109  11.113  70.364  1.00  0.00    -0.385 C  
HETATM   11  C   UNL     1     -11.034  10.123  68.402  1.00  0.00    -0.244 C  
HETATM   12  N   UNL     1     -12.088  11.009  68.906  1.00  0.00    -0.511 NA 
BRANCH   6  13
HETATM   13  C   UNL     1      -8.144  12.713  67.860  1.00  0.00    -0.165 A  
HETATM   14  C   UNL     1      -6.598  14.509  68.449  1.00  0.00    -0.103 A  
HETATM   15  C   UNL     1      -7.894  13.984  68.403  1.00  0.00    -0.144 A  
HETATM   16  C   UNL     1      -5.737  12.499  67.455  1.00  0.00    -0.124 A  
HETATM   17  C   UNL     1      -5.524  13.777  67.958  1.00  0.00    -0.115 A  
HETATM   18  C   UNL     1      -7.030  11.969  67.419  1.00  0.00    -0.139 A  
ENDBRANCH   6  13
ENDBRANCH   4   6
ENDBRANCH   3   4
ENDBRANCH   2   3
TORSDOF 4
ENDMDL
MODEL      113
REMARK 921   NORMALIZED FREE ENERGY PREDICTED BY IDOCK:   -3.12 KCAL/MOL
REMARK 922        TOTAL FREE ENERGY PREDICTED BY IDOCK:   -4.78 KCAL/MOL
REMARK 923 INTER-LIGAND FREE ENERGY PREDICTED BY IDOCK:   -4.47 KCAL/MOL
REMARK 924 INTRA-LIGAND FREE ENERGY PREDICTED BY IDOCK:   -0.31 KCAL/MOL
REMARK 927      BINDING AFFINITY PREDICTED BY RF-SCORE:    0.00 PKD
ROOT
HETATM    1  C   UNL     1     -11.333   6.332  70.926  1.00  0.00    -0.389 C  
HETATM    2  C   UNL     1     -11.193   6.417  69.413  1.00  0.00    -0.394 C  
ENDROOT
BRANCH   2   3
HETATM    3  O   UNL     1     -10.690   7.703  69.004  1.00  0.00    -0.202 OA 
BRANCH   3   4
HETATM    4  C   UNL     1     -10.627   7.877  67.654  1.00  0.00    -0.206 C  
HETATM    5  O   UNL     1     -11.281   7.205  66.858  1.00  0.00    -0.243 OA 
BRANCH   4   6
HETATM    6  C   UNL     1      -9.608   8.958  67.211  1.00  0.00    -0.212 C  
HETATM    7  C   UNL     1      -8.872   8.657  65.879  1.00  0.00    -0.221 C  
HETATM    8  C   UNL     1      -8.528   8.957  68.331  1.00  0.00    -0.129 C  
HETATM    9  C   UNL     1      -7.754   7.634  68.352  1.00  0.00    -0.119 C  
HETATM   10  C   UNL     1      -5.866   8.230  66.953  1.00  0.00    -0.049 C  
HETATM   11  C   UNL     1      -7.947   7.434  65.941  1.00  0.00    -0.118 C  
HETATM   12  N   UNL     1      -7.047   7.379  67.097  1.00  0.00    -0.082 NA 
BRANCH   6  13
HETATM   13  C   UNL     1     -10.367  10.300  67.075  1.00  0.00    -0.299 A  
HETATM   14  C   UNL     1     -11.705  12.122  67.999  1.00  0.00    -0.409 A  
HETATM   15  C   UNL     1     -10.947  10.958  68.171  1.00  0.00    -0.302 A  
HETATM   16  C   UNL     1     -11.298  12.047  65.632  1.00  0.00    -0.381 A  
HETATM   17  C   UNL     1     -11.896  12.655  66.730  1.00  0.00    -0.440 A  
HETATM   18  C   UNL     1     -10.531  10.892  65.805  1.00  0.00    -0.275 A  
ENDBRANCH   6  13
ENDBRANCH   4   6
ENDBRANCH   3   4
ENDBRANCH   2   3
TORSDOF 4
ENDMDL
MODEL      114
REMARK 921   NORMALIZED FREE ENERGY PREDICTED BY IDOCK:   -3.12 KCAL/MOL
REMARK 922        TOTAL FREE ENERGY PREDICTED BY IDOCK:   -4.77 KCAL/MOL
REMARK 923 INTER-LIGAND FREE ENERGY PREDICTED BY IDOCK:   -4.70 KCAL/MOL
REMARK 924 INTRA-LIGAND FREE ENERGY PREDICTED BY IDOCK:   -0.07 KCAL/MOL
REMARK 927      BINDING AFFINITY PREDICTED BY RF-SCORE:    0.00 PKD
ROOT
HETATM    1  C   UNL     1      -6.462  11.917  67.070  1.00  0.00    -0.136 C  
HETATM    2  C   UNL     1      -7.317  12.852  67.915  1.00  0.00    -0.127 C  
ENDROOT
BRANCH   2   3
HETATM    3  O   UNL     1      -8.531  12.206  68.345  1.00  0.00    -0.169 OA 
BRANCH   3   4
HETATM    4  C   UNL     1      -9.671  12.857  67.979  1.00  0.00    -0.224 C  
HETATM    5  O   UNL     1     -10.088  13.860  68.555  1.00  0.00    -0.232 OA 
BRANCH   4   6
HETATM    6  C   UNL     1     -10.428  12.177  66.809  1.00  0.00    -0.245 C  
HETATM    7  C   UNL     1      -9.941  12.580  65.393  1.00  0.00    -0.236 C  
HETATM    8  C   UNL     1     -11.891  12.690  66.943  1.00  0.00    -0.425 C  
HETATM    9  C   UNL     1     -11.976  14.197  66.678  1.00  0.00    -0.444 C  
HETATM   10  C   UNL     1     -12.521  14.179  64.317  1.00  0.00    -0.266 C  
HETATM   11  C   UNL     1     -10.189  14.054  65.044  1.00  0.00    -0.368 C  
HETATM   12  N   UNL     1     -11.536  14.555  65.330  1.00  0.00    -0.349 NA 
BRANCH   6  13
HETATM   13  C   UNL     1     -10.284  10.645  66.974  1.00  0.00    -0.267 A  
HETATM   14  C   UNL     1      -9.577   8.449  66.176  1.00  0.00    -0.246 A  
HETATM   15  C   UNL     1      -9.609   9.841  66.042  1.00  0.00    -0.296 A  
HETATM   16  C   UNL     1     -10.853   8.605  68.205  1.00  0.00    -0.018 A  
HETATM   17  C   UNL     1     -10.214   7.830  67.244  1.00  0.00    -0.343 A  
HETATM   18  C   UNL     1     -10.875   9.996  68.078  1.00  0.00    -0.311 A  
ENDBRANCH   6  13
ENDBRANCH   4   6
ENDBRANCH   3   4
ENDBRANCH   2   3
TORSDOF 4
ENDMDL
MODEL      115
REMARK 921   NORMALIZED FREE ENERGY PREDICTED BY IDOCK:   -3.11 KCAL/MOL
REMARK 922        TOTAL FREE ENERGY PREDICTED BY IDOCK:   -4.75 KCAL/MOL
REMARK 923 INTER-LIGAND FREE ENERGY PREDICTED BY IDOCK:   -4.47 KCAL/MOL
REMARK 924 INTRA-LIGAND FREE ENERGY PREDICTED BY IDOCK:   -0.28 KCAL/MOL
REMARK 927      BINDING AFFINITY PREDICTED BY RF-SCORE:    0.00 PKD
ROOT
HETATM    1  C   UNL     1      -8.880   4.445  68.081  1.00  0.00    -0.128 C  
HETATM    2  C   UNL     1      -9.581   4.218  69.413  1.00  0.00    -0.197 C  
ENDROOT
BRANCH   2   3
HETATM    3  O   UNL     1     -10.409   5.341  69.769  1.00  0.00    -0.270 OA 
BRANCH   3   4
HETATM    4  C   UNL     1     -10.443   5.612  71.104  1.00  0.00    -0.241 C  
HETATM    5  O   UNL     1     -10.599   4.745  71.962  1.00  0.00    -0.186 OA 
BRANCH   4   6
HETATM    6  C   UNL     1     -10.330   7.122  71.438  1.00  0.00    -0.210 C  
HETATM    7  C   UNL     1      -9.480   7.951  70.440  1.00  0.00    -0.163 C  
HETATM    8  C   UNL     1      -9.587   7.164  72.803  1.00  0.00    -0.183 C  
HETATM    9  C   UNL     1      -8.147   6.657  72.665  1.00  0.00    -0.102 C  
HETATM   10  C   UNL     1      -6.992   8.759  72.317  1.00  0.00     0.039 C  
HETATM   11  C   UNL     1      -7.993   7.575  70.425  1.00  0.00    -0.102 C  
HETATM   12  N   UNL     1      -7.354   7.466  71.740  1.00  0.00    -0.078 NA 
BRANCH   6  13
HETATM   13  C   UNL     1     -11.763   7.706  71.486  1.00  0.00    -0.310 A  
HETATM   14  C   UNL     1     -13.323   9.570  71.718  1.00  0.00    -0.501 A  
HETATM   15  C   UNL     1     -12.018   9.083  71.583  1.00  0.00    -0.426 A  
HETATM   16  C   UNL     1     -14.179   7.328  71.618  1.00  0.00    -0.558 A  
HETATM   17  C   UNL     1     -14.400   8.694  71.755  1.00  0.00    -0.476 A  
HETATM   18  C   UNL     1     -12.877   6.842  71.472  1.00  0.00    -0.384 A  
ENDBRANCH   6  13
ENDBRANCH   4   6
ENDBRANCH   3   4
ENDBRANCH   2   3
TORSDOF 4
ENDMDL
MODEL      116
REMARK 921   NORMALIZED FREE ENERGY PREDICTED BY IDOCK:   -3.10 KCAL/MOL
REMARK 922        TOTAL FREE ENERGY PREDICTED BY IDOCK:   -4.75 KCAL/MOL
REMARK 923 INTER-LIGAND FREE ENERGY PREDICTED BY IDOCK:   -4.16 KCAL/MOL
REMARK 924 INTRA-LIGAND FREE ENERGY PREDICTED BY IDOCK:   -0.59 KCAL/MOL
REMARK 927      BINDING AFFINITY PREDICTED BY RF-SCORE:    0.00 PKD
ROOT
HETATM    1  C   UNL     1     -11.987   8.540  72.257  1.00  0.00    -0.454 C  
HETATM    2  C   UNL     1     -11.672   9.689  71.310  1.00  0.00    -0.382 C  
ENDROOT
BRANCH   2   3
HETATM    3  O   UNL     1     -11.336   9.208  69.994  1.00  0.00    -0.204 OA 
BRANCH   3   4
HETATM    4  C   UNL     1     -10.011   8.943  69.816  1.00  0.00    -0.191 C  
HETATM    5  O   UNL     1      -9.117   9.601  70.345  1.00  0.00    -0.246 OA 
BRANCH   4   6
HETATM    6  C   UNL     1      -9.735   7.774  68.835  1.00  0.00    -0.160 C  
HETATM    7  C   UNL     1     -10.927   6.806  68.618  1.00  0.00    -0.261 C  
HETATM    8  C   UNL     1      -8.607   6.951  69.519  1.00  0.00    -0.134 C  
HETATM    9  C   UNL     1      -9.104   6.301  70.815  1.00  0.00    -0.147 C  
HETATM   10  C   UNL     1      -9.761   4.127  69.970  1.00  0.00    -0.212 C  
HETATM   11  C   UNL     1     -11.319   6.010  69.870  1.00  0.00    -0.285 C  
HETATM   12  N   UNL     1     -10.211   5.373  70.588  1.00  0.00    -0.235 NA 
BRANCH   6  13
HETATM   13  C   UNL     1      -9.327   8.384  67.472  1.00  0.00    -0.172 A  
HETATM   14  C   UNL     1      -7.693   8.827  65.713  1.00  0.00    -0.094 A  
HETATM   15  C   UNL     1      -8.060   8.185  66.901  1.00  0.00    -0.104 A  
HETATM   16  C   UNL     1      -9.859   9.859  65.590  1.00  0.00    -0.368 A  
HETATM   17  C   UNL     1      -8.583   9.677  65.069  1.00  0.00    -0.180 A  
HETATM   18  C   UNL     1     -10.230   9.209  66.770  1.00  0.00    -0.331 A  
ENDBRANCH   6  13
ENDBRANCH   4   6
ENDBRANCH   3   4
ENDBRANCH   2   3
TORSDOF 4
ENDMDL
MODEL      117
REMARK 921   NORMALIZED FREE ENERGY PREDICTED BY IDOCK:   -3.10 KCAL/MOL
REMARK 922        TOTAL FREE ENERGY PREDICTED BY IDOCK:   -4.75 KCAL/MOL
REMARK 923 INTER-LIGAND FREE ENERGY PREDICTED BY IDOCK:   -4.42 KCAL/MOL
REMARK 924 INTRA-LIGAND FREE ENERGY PREDICTED BY IDOCK:   -0.33 KCAL/MOL
REMARK 927      BINDING AFFINITY PREDICTED BY RF-SCORE:    0.00 PKD
ROOT
HETATM    1  C   UNL     1     -11.774   8.004  72.548  1.00  0.00    -0.446 C  
HETATM    2  C   UNL     1     -12.102   9.303  71.824  1.00  0.00    -0.387 C  
ENDROOT
BRANCH   2   3
HETATM    3  O   UNL     1     -10.955   9.813  71.117  1.00  0.00    -0.348 OA 
BRANCH   3   4
HETATM    4  C   UNL     1     -11.136   9.942  69.773  1.00  0.00    -0.254 C  
HETATM    5  O   UNL     1     -12.095  10.533  69.278  1.00  0.00    -0.203 OA 
BRANCH   4   6
HETATM    6  C   UNL     1     -10.056   9.222  68.926  1.00  0.00    -0.207 C  
HETATM    7  C   UNL     1      -8.663   9.904  68.925  1.00  0.00    -0.140 C  
HETATM    8  C   UNL     1     -10.593   9.296  67.468  1.00  0.00    -0.329 C  
HETATM    9  C   UNL     1     -10.626  10.743  66.963  1.00  0.00    -0.260 C  
HETATM   10  C   UNL     1      -8.475  10.850  65.852  1.00  0.00    -0.158 C  
HETATM   11  C   UNL     1      -8.645  11.284  68.254  1.00  0.00    -0.153 C  
HETATM   12  N   UNL     1      -9.301  11.360  66.945  1.00  0.00    -0.177 NA 
BRANCH   6  13
HETATM   13  C   UNL     1      -9.911   7.779  69.467  1.00  0.00    -0.187 A  
HETATM   14  C   UNL     1      -8.668   6.030  70.631  1.00  0.00    -0.138 A  
HETATM   15  C   UNL     1      -8.812   7.364  70.236  1.00  0.00    -0.147 A  
HETATM   16  C   UNL     1     -10.738   5.475  69.545  1.00  0.00    -0.332 A  
HETATM   17  C   UNL     1      -9.618   5.083  70.270  1.00  0.00    -0.255 A  
HETATM   18  C   UNL     1     -10.888   6.810  69.161  1.00  0.00    -0.298 A  
ENDBRANCH   6  13
ENDBRANCH   4   6
ENDBRANCH   3   4
ENDBRANCH   2   3
TORSDOF 4
ENDMDL
MODEL      118
REMARK 921   NORMALIZED FREE ENERGY PREDICTED BY IDOCK:   -3.10 KCAL/MOL
REMARK 922        TOTAL FREE ENERGY PREDICTED BY IDOCK:   -4.74 KCAL/MOL
REMARK 923 INTER-LIGAND FREE ENERGY PREDICTED BY IDOCK:   -3.93 KCAL/MOL
REMARK 924 INTRA-LIGAND FREE ENERGY PREDICTED BY IDOCK:   -0.81 KCAL/MOL
REMARK 927      BINDING AFFINITY PREDICTED BY RF-SCORE:    0.00 PKD
ROOT
HETATM    1  C   UNL     1     -12.448   9.936  70.819  1.00  0.00    -0.344 C  
HETATM    2  C   UNL     1     -12.120   9.111  72.056  1.00  0.00    -0.361 C  
ENDROOT
BRANCH   2   3
HETATM    3  O   UNL     1     -10.703   8.883  72.174  1.00  0.00    -0.342 OA 
BRANCH   3   4
HETATM    4  C   UNL     1     -10.349   7.568  72.220  1.00  0.00    -0.218 C  
HETATM    5  O   UNL     1     -10.861   6.760  72.993  1.00  0.00    -0.259 OA 
BRANCH   4   6
HETATM    6  C   UNL     1      -9.197   7.198  71.250  1.00  0.00    -0.151 C  
HETATM    7  C   UNL     1      -8.578   5.794  71.475  1.00  0.00    -0.132 C  
HETATM    8  C   UNL     1      -8.080   8.235  71.560  1.00  0.00    -0.158 C  
HETATM    9  C   UNL     1      -7.518   8.039  72.973  1.00  0.00    -0.127 C  
HETATM   10  C   UNL     1      -5.628   6.606  72.478  1.00  0.00    -0.038 C  
HETATM   11  C   UNL     1      -7.850   5.641  72.818  1.00  0.00    -0.102 C  
HETATM   12  N   UNL     1      -6.917   6.719  73.158  1.00  0.00    -0.075 NA 
BRANCH   6  13
HETATM   13  C   UNL     1      -9.746   7.281  69.806  1.00  0.00    -0.166 A  
HETATM   14  C   UNL     1     -11.106   6.431  67.966  1.00  0.00    -0.365 A  
HETATM   15  C   UNL     1     -10.701   6.383  69.304  1.00  0.00    -0.349 A  
HETATM   16  C   UNL     1      -9.655   8.306  67.583  1.00  0.00    -0.187 A  
HETATM   17  C   UNL     1     -10.571   7.378  67.101  1.00  0.00    -0.413 A  
HETATM   18  C   UNL     1      -9.258   8.266  68.922  1.00  0.00    -0.147 A  
ENDBRANCH   6  13
ENDBRANCH   4   6
ENDBRANCH   3   4
ENDBRANCH   2   3
TORSDOF 4
ENDMDL
MODEL      119
REMARK 921   NORMALIZED FREE ENERGY PREDICTED BY IDOCK:   -3.09 KCAL/MOL
REMARK 922        TOTAL FREE ENERGY PREDICTED BY IDOCK:   -4.73 KCAL/MOL
REMARK 923 INTER-LIGAND FREE ENERGY PREDICTED BY IDOCK:   -4.45 KCAL/MOL
REMARK 924 INTRA-LIGAND FREE ENERGY PREDICTED BY IDOCK:   -0.28 KCAL/MOL
REMARK 927      BINDING AFFINITY PREDICTED BY RF-SCORE:    0.00 PKD
ROOT
HETATM    1  C   UNL     1     -10.083   7.136  68.941  1.00  0.00    -0.177 C  
HETATM    2  C   UNL     1     -10.646   8.543  68.795  1.00  0.00    -0.133 C  
ENDROOT
BRANCH   2   3
HETATM    3  O   UNL     1     -10.229   9.149  67.557  1.00  0.00    -0.212 OA 
BRANCH   3   4
HETATM    4  C   UNL     1     -10.567  10.463  67.435  1.00  0.00    -0.269 C  
HETATM    5  O   UNL     1     -11.570  10.951  67.954  1.00  0.00    -0.497 OA 
BRANCH   4   6
HETATM    6  C   UNL     1      -9.603  11.274  66.530  1.00  0.00    -0.215 C  
HETATM    7  C   UNL     1      -8.486  10.439  65.851  1.00  0.00    -0.160 C  
HETATM    8  C   UNL     1      -8.898  12.263  67.500  1.00  0.00    -0.182 C  
HETATM    9  C   UNL     1      -8.006  11.518  68.500  1.00  0.00    -0.143 C  
HETATM   10  C   UNL     1      -5.885  11.627  67.333  1.00  0.00    -0.092 C  
HETATM   11  C   UNL     1      -7.474   9.835  66.835  1.00  0.00    -0.091 C  
HETATM   12  N   UNL     1      -6.943  10.757  67.843  1.00  0.00    -0.073 NA 
BRANCH   6  13
HETATM   13  C   UNL     1     -10.450  11.967  65.435  1.00  0.00    -0.312 A  
HETATM   14  C   UNL     1     -11.571  11.982  63.266  1.00  0.00    -0.409 A  
HETATM   15  C   UNL     1     -10.887  11.301  64.279  1.00  0.00    -0.398 A  
HETATM   16  C   UNL     1     -11.454  14.015  64.542  1.00  0.00    -0.380 A  
HETATM   17  C   UNL     1     -11.838  13.341  63.388  1.00  0.00    -0.415 A  
HETATM   18  C   UNL     1     -10.780  13.332  65.558  1.00  0.00    -0.299 A  
ENDBRANCH   6  13
ENDBRANCH   4   6
ENDBRANCH   3   4
ENDBRANCH   2   3
TORSDOF 4
ENDMDL
MODEL      120
REMARK 921   NORMALIZED FREE ENERGY PREDICTED BY IDOCK:   -3.08 KCAL/MOL
REMARK 922        TOTAL FREE ENERGY PREDICTED BY IDOCK:   -4.73 KCAL/MOL
REMARK 923 INTER-LIGAND FREE ENERGY PREDICTED BY IDOCK:   -4.49 KCAL/MOL
REMARK 924 INTRA-LIGAND FREE ENERGY PREDICTED BY IDOCK:   -0.24 KCAL/MOL
REMARK 927      BINDING AFFINITY PREDICTED BY RF-SCORE:    0.00 PKD
ROOT
HETATM    1  C   UNL     1     -10.595   7.612  69.263  1.00  0.00    -0.206 C  
HETATM    2  C   UNL     1     -10.173   7.958  67.842  1.00  0.00    -0.209 C  
ENDROOT
BRANCH   2   3
HETATM    3  O   UNL     1     -10.633   9.269  67.462  1.00  0.00    -0.268 OA 
BRANCH   3   4
HETATM    4  C   UNL     1      -9.665  10.228  67.475  1.00  0.00    -0.169 C  
HETATM    5  O   UNL     1      -8.680  10.180  68.211  1.00  0.00    -0.117 OA 
BRANCH   4   6
HETATM    6  C   UNL     1      -9.953  11.418  66.523  1.00  0.00    -0.243 C  
HETATM    7  C   UNL     1      -9.213  12.734  66.878  1.00  0.00    -0.229 C  
HETATM    8  C   UNL     1     -11.473  11.697  66.697  1.00  0.00    -0.280 C  
HETATM    9  C   UNL     1     -11.784  12.205  68.109  1.00  0.00    -0.341 C  
HETATM   10  C   UNL     1     -11.700  14.596  67.722  1.00  0.00    -0.359 C  
HETATM   11  C   UNL     1      -9.650  13.354  68.212  1.00  0.00    -0.220 C  
HETATM   12  N   UNL     1     -11.098  13.460  68.416  1.00  0.00    -0.259 NA 
BRANCH   6  13
HETATM   13  C   UNL     1      -9.555  10.987  65.090  1.00  0.00    -0.281 A  
HETATM   14  C   UNL     1      -9.643  11.236  62.663  1.00  0.00    -0.239 A  
HETATM   15  C   UNL     1      -9.941  11.704  63.947  1.00  0.00    -0.358 A  
HETATM   16  C   UNL     1      -8.518   9.335  63.608  1.00  0.00    -0.200 A  
HETATM   17  C   UNL     1      -8.949  10.044  62.493  1.00  0.00    -0.285 A  
HETATM   18  C   UNL     1      -8.805   9.809  64.891  1.00  0.00    -0.230 A  
ENDBRANCH   6  13
ENDBRANCH   4   6
ENDBRANCH   3   4
ENDBRANCH   2   3
TORSDOF 4
ENDMDL
MODEL      121
REMARK 921   NORMALIZED FREE ENERGY PREDICTED BY IDOCK:   -3.04 KCAL/MOL
REMARK 922        TOTAL FREE ENERGY PREDICTED BY IDOCK:   -4.67 KCAL/MOL
REMARK 923 INTER-LIGAND FREE ENERGY PREDICTED BY IDOCK:   -4.45 KCAL/MOL
REMARK 924 INTRA-LIGAND FREE ENERGY PREDICTED BY IDOCK:   -0.22 KCAL/MOL
REMARK 927      BINDING AFFINITY PREDICTED BY RF-SCORE:    0.00 PKD
ROOT
HETATM    1  C   UNL     1      -8.064  10.722  67.142  1.00  0.00    -0.124 C  
HETATM    2  C   UNL     1      -7.843   9.482  67.997  1.00  0.00    -0.087 C  
ENDROOT
BRANCH   2   3
HETATM    3  O   UNL     1      -9.033   9.132  68.731  1.00  0.00    -0.135 OA 
BRANCH   3   4
HETATM    4  C   UNL     1      -8.893   9.193  70.084  1.00  0.00    -0.197 C  
HETATM    5  O   UNL     1      -7.927   9.715  70.639  1.00  0.00    -0.241 OA 
BRANCH   4   6
HETATM    6  C   UNL     1     -10.035   8.487  70.862  1.00  0.00    -0.237 C  
HETATM    7  C   UNL     1      -9.613   7.859  72.215  1.00  0.00    -0.255 C  
HETATM    8  C   UNL     1     -10.466   7.313  69.937  1.00  0.00    -0.236 C  
HETATM    9  C   UNL     1      -9.347   6.275  69.801  1.00  0.00    -0.145 C  
HETATM   10  C   UNL     1      -9.992   4.730  71.554  1.00  0.00    -0.194 C  
HETATM   11  C   UNL     1      -8.627   6.691  72.080  1.00  0.00    -0.118 C  
HETATM   12  N   UNL     1      -8.981   5.675  71.084  1.00  0.00    -0.138 NA 
BRANCH   6  13
HETATM   13  C   UNL     1     -11.152   9.528  71.115  1.00  0.00    -0.450 A  
HETATM   14  C   UNL     1     -13.217  10.251  72.197  1.00  0.00    -0.443 A  
HETATM   15  C   UNL     1     -12.172   9.332  72.059  1.00  0.00    -0.418 A  
HETATM   16  C   UNL     1     -12.244  11.628  70.487  1.00  0.00    -0.451 A  
HETATM   17  C   UNL     1     -13.265  11.388  71.399  1.00  0.00    -0.245 A  
HETATM   18  C   UNL     1     -11.194  10.716  70.356  1.00  0.00    -0.334 A  
ENDBRANCH   6  13
ENDBRANCH   4   6
ENDBRANCH   3   4
ENDBRANCH   2   3
TORSDOF 4
ENDMDL
MODEL      122
REMARK 921   NORMALIZED FREE ENERGY PREDICTED BY IDOCK:   -3.04 KCAL/MOL
REMARK 922        TOTAL FREE ENERGY PREDICTED BY IDOCK:   -4.67 KCAL/MOL
REMARK 923 INTER-LIGAND FREE ENERGY PREDICTED BY IDOCK:   -4.48 KCAL/MOL
REMARK 924 INTRA-LIGAND FREE ENERGY PREDICTED BY IDOCK:   -0.19 KCAL/MOL
REMARK 927      BINDING AFFINITY PREDICTED BY RF-SCORE:    0.00 PKD
ROOT
HETATM    1  C   UNL     1      -8.814   3.915  69.775  1.00  0.00    -0.143 C  
HETATM    2  C   UNL     1     -10.050   4.746  70.093  1.00  0.00    -0.240 C  
ENDROOT
BRANCH   2   3
HETATM    3  O   UNL     1      -9.709   6.128  70.316  1.00  0.00    -0.161 OA 
BRANCH   3   4
HETATM    4  C   UNL     1     -10.308   6.998  69.455  1.00  0.00    -0.213 C  
HETATM    5  O   UNL     1     -10.741   6.664  68.353  1.00  0.00    -0.218 OA 
BRANCH   4   6
HETATM    6  C   UNL     1     -10.336   8.462  69.967  1.00  0.00    -0.211 C  
HETATM    7  C   UNL     1     -10.239   9.544  68.860  1.00  0.00    -0.213 C  
HETATM    8  C   UNL     1      -9.054   8.594  70.837  1.00  0.00    -0.229 C  
HETATM    9  C   UNL     1      -7.788   8.474  69.980  1.00  0.00    -0.102 C  
HETATM   10  C   UNL     1      -7.359  10.817  69.533  1.00  0.00    -0.124 C  
HETATM   11  C   UNL     1      -8.899   9.553  68.112  1.00  0.00    -0.124 C  
HETATM   12  N   UNL     1      -7.703   9.517  68.959  1.00  0.00    -0.074 NA 
BRANCH   6  13
HETATM   13  C   UNL     1     -11.652   8.664  70.756  1.00  0.00    -0.273 A  
HETATM   14  C   UNL     1     -13.233  10.059  71.987  1.00  0.00    -0.545 A  
HETATM   15  C   UNL     1     -12.086   9.924  71.197  1.00  0.00    -0.466 A  
HETATM   16  C   UNL     1     -13.589   7.686  71.892  1.00  0.00    -0.321 A  
HETATM   17  C   UNL     1     -13.973   8.940  72.351  1.00  0.00    -0.516 A  
HETATM   18  C   UNL     1     -12.450   7.552  71.093  1.00  0.00    -0.306 A  
ENDBRANCH   6  13
ENDBRANCH   4   6
ENDBRANCH   3   4
ENDBRANCH   2   3
TORSDOF 4
ENDMDL
MODEL      123
REMARK 921   NORMALIZED FREE ENERGY PREDICTED BY IDOCK:   -3.04 KCAL/MOL
REMARK 922        TOTAL FREE ENERGY PREDICTED BY IDOCK:   -4.67 KCAL/MOL
REMARK 923 INTER-LIGAND FREE ENERGY PREDICTED BY IDOCK:   -4.40 KCAL/MOL
REMARK 924 INTRA-LIGAND FREE ENERGY PREDICTED BY IDOCK:   -0.27 KCAL/MOL
REMARK 927      BINDING AFFINITY PREDICTED BY RF-SCORE:    0.00 PKD
ROOT
HETATM    1  C   UNL     1      -6.914   7.220  67.205  1.00  0.00    -0.078 C  
HETATM    2  C   UNL     1      -8.002   8.112  67.786  1.00  0.00    -0.127 C  
ENDROOT
BRANCH   2   3
HETATM    3  O   UNL     1      -8.531   7.565  69.010  1.00  0.00    -0.131 OA 
BRANCH   3   4
HETATM    4  C   UNL     1      -9.885   7.420  69.020  1.00  0.00    -0.168 C  
HETATM    5  O   UNL     1     -10.526   7.021  68.048  1.00  0.00    -0.185 OA 
BRANCH   4   6
HETATM    6  C   UNL     1     -10.551   7.866  70.347  1.00  0.00    -0.228 C  
HETATM    7  C   UNL     1      -9.611   7.873  71.580  1.00  0.00    -0.206 C  
HETATM    8  C   UNL     1     -11.639   6.788  70.618  1.00  0.00    -0.422 C  
HETATM    9  C   UNL     1     -11.006   5.422  70.905  1.00  0.00    -0.048 C  
HETATM   10  C   UNL     1     -10.915   5.501  73.325  1.00  0.00    -0.292 C  
HETATM   11  C   UNL     1      -9.113   6.480  71.992  1.00  0.00    -0.140 C  
HETATM   12  N   UNL     1     -10.143   5.442  72.085  1.00  0.00    -0.184 NA 
BRANCH   6  13
HETATM   13  C   UNL     1     -11.119   9.291  70.139  1.00  0.00    -0.260 A  
HETATM   14  C   UNL     1     -11.359  11.346  68.843  1.00  0.00    -0.334 A  
HETATM   15  C   UNL     1     -10.910  10.027  68.961  1.00  0.00    -0.253 A  
HETATM   16  C   UNL     1     -12.287  11.239  71.056  1.00  0.00    -0.472 A  
HETATM   17  C   UNL     1     -12.030  11.958  69.895  1.00  0.00    -0.398 A  
HETATM   18  C   UNL     1     -11.849   9.917  71.171  1.00  0.00    -0.472 A  
ENDBRANCH   6  13
ENDBRANCH   4   6
ENDBRANCH   3   4
ENDBRANCH   2   3
TORSDOF 4
ENDMDL
MODEL      124
REMARK 921   NORMALIZED FREE ENERGY PREDICTED BY IDOCK:   -3.02 KCAL/MOL
REMARK 922        TOTAL FREE ENERGY PREDICTED BY IDOCK:   -4.65 KCAL/MOL
REMARK 923 INTER-LIGAND FREE ENERGY PREDICTED BY IDOCK:   -4.66 KCAL/MOL
REMARK 924 INTRA-LIGAND FREE ENERGY PREDICTED BY IDOCK:    0.00 KCAL/MOL
REMARK 927      BINDING AFFINITY PREDICTED BY RF-SCORE:    0.00 PKD
ROOT
HETATM    1  C   UNL     1     -12.326  11.337  69.638  1.00  0.00    -0.262 C  
HETATM    2  C   UNL     1     -11.781  12.757  69.712  1.00  0.00    -0.282 C  
ENDROOT
BRANCH   2   3
HETATM    3  O   UNL     1     -12.169  13.529  68.559  1.00  0.00    -0.320 OA 
BRANCH   3   4
HETATM    4  C   UNL     1     -11.709  13.037  67.375  1.00  0.00    -0.374 C  
HETATM    5  O   UNL     1     -12.410  12.395  66.595  1.00  0.00    -0.477 OA 
BRANCH   4   6
HETATM    6  C   UNL     1     -10.201  13.308  67.131  1.00  0.00    -0.246 C  
HETATM    7  C   UNL     1      -9.540  14.281  68.140  1.00  0.00    -0.218 C  
HETATM    8  C   UNL     1     -10.152  14.002  65.740  1.00  0.00    -0.345 C  
HETATM    9  C   UNL     1     -10.823  15.379  65.784  1.00  0.00    -0.343 C  
HETATM   10  C   UNL     1      -8.889  16.775  66.211  1.00  0.00    -0.299 C  
HETATM   11  C   UNL     1     -10.078  15.716  68.068  1.00  0.00    -0.224 C  
HETATM   12  N   UNL     1     -10.170  16.290  66.722  1.00  0.00    -0.274 NA 
BRANCH   6  13
HETATM   13  C   UNL     1      -9.461  11.949  67.180  1.00  0.00    -0.180 A  
HETATM   14  C   UNL     1      -8.945   9.743  66.271  1.00  0.00    -0.180 A  
HETATM   15  C   UNL     1      -9.553  10.997  66.152  1.00  0.00    -0.240 A  
HETATM   16  C   UNL     1      -8.086  10.353  68.430  1.00  0.00    -0.112 A  
HETATM   17  C   UNL     1      -8.229   9.414  67.416  1.00  0.00    -0.121 A  
HETATM   18  C   UNL     1      -8.684  11.610  68.307  1.00  0.00    -0.163 A  
ENDBRANCH   6  13
ENDBRANCH   4   6
ENDBRANCH   3   4
ENDBRANCH   2   3
TORSDOF 4
ENDMDL
MODEL      125
REMARK 921   NORMALIZED FREE ENERGY PREDICTED BY IDOCK:   -3.02 KCAL/MOL
REMARK 922        TOTAL FREE ENERGY PREDICTED BY IDOCK:   -4.65 KCAL/MOL
REMARK 923 INTER-LIGAND FREE ENERGY PREDICTED BY IDOCK:   -4.37 KCAL/MOL
REMARK 924 INTRA-LIGAND FREE ENERGY PREDICTED BY IDOCK:   -0.28 KCAL/MOL
REMARK 927      BINDING AFFINITY PREDICTED BY RF-SCORE:    0.00 PKD
ROOT
HETATM    1  C   UNL     1      -8.564  15.171  67.967  1.00  0.00    -0.156 C  
HETATM    2  C   UNL     1      -9.999  15.659  67.819  1.00  0.00    -0.223 C  
ENDROOT
BRANCH   2   3
HETATM    3  O   UNL     1     -10.721  15.549  69.060  1.00  0.00    -0.223 OA 
BRANCH   3   4
HETATM    4  C   UNL     1     -11.806  14.727  69.006  1.00  0.00    -0.302 C  
HETATM    5  O   UNL     1     -12.563  14.675  68.037  1.00  0.00     0.130 OA 
BRANCH   4   6
HETATM    6  C   UNL     1     -12.034  13.908  70.303  1.00  0.00    -0.401 C  
HETATM    7  C   UNL     1     -13.496  13.898  70.821  1.00  0.00     0.069 C  
HETATM    8  C   UNL     1     -11.182  14.640  71.379  1.00  0.00     0.169 C  
HETATM    9  C   UNL     1     -11.734  16.041  71.664  1.00  0.00    -0.506 C  
HETATM   10  C   UNL     1     -13.159  15.553  73.563  1.00  0.00    -0.489 C  
HETATM   11  C   UNL     1     -14.004  15.271  71.284  1.00  0.00    -0.457 C  
HETATM   12  N   UNL     1     -13.104  16.010  72.176  1.00  0.00    -0.362 NA 
BRANCH   6  13
HETATM   13  C   UNL     1     -11.585  12.452  70.032  1.00  0.00    -0.216 A  
HETATM   14  C   UNL     1     -10.346  10.783  68.752  1.00  0.00    -0.209 A  
HETATM   15  C   UNL     1     -10.660  12.118  69.031  1.00  0.00    -0.117 A  
HETATM   16  C   UNL     1     -11.834  10.060  70.494  1.00  0.00    -0.387 A  
HETATM   17  C   UNL     1     -10.946   9.755  69.468  1.00  0.00    -0.256 A  
HETATM   18  C   UNL     1     -12.139  11.393  70.781  1.00  0.00    -0.433 A  
ENDBRANCH   6  13
ENDBRANCH   4   6
ENDBRANCH   3   4
ENDBRANCH   2   3
TORSDOF 4
ENDMDL
MODEL      126
REMARK 921   NORMALIZED FREE ENERGY PREDICTED BY IDOCK:   -3.02 KCAL/MOL
REMARK 922        TOTAL FREE ENERGY PREDICTED BY IDOCK:   -4.64 KCAL/MOL
REMARK 923 INTER-LIGAND FREE ENERGY PREDICTED BY IDOCK:   -4.09 KCAL/MOL
REMARK 924 INTRA-LIGAND FREE ENERGY PREDICTED BY IDOCK:   -0.56 KCAL/MOL
REMARK 927      BINDING AFFINITY PREDICTED BY RF-SCORE:    0.00 PKD
ROOT
HETATM    1  C   UNL     1      -7.458  15.757  68.026  1.00  0.00    -0.136 C  
HETATM    2  C   UNL     1      -8.936  15.516  68.302  1.00  0.00    -0.185 C  
ENDROOT
BRANCH   2   3
HETATM    3  O   UNL     1      -9.575  14.853  67.195  1.00  0.00    -0.217 OA 
BRANCH   3   4
HETATM    4  C   UNL     1     -10.397  13.827  67.556  1.00  0.00    -0.241 C  
HETATM    5  O   UNL     1     -11.060  13.828  68.592  1.00  0.00    -0.246 OA 
BRANCH   4   6
HETATM    6  C   UNL     1     -10.369  12.630  66.570  1.00  0.00    -0.256 C  
HETATM    7  C   UNL     1      -9.912  12.979  65.130  1.00  0.00    -0.170 C  
HETATM    8  C   UNL     1     -11.853  12.174  66.472  1.00  0.00    -0.322 C  
HETATM    9  C   UNL     1     -12.720  13.247  65.804  1.00  0.00    -0.231 C  
HETATM   10  C   UNL     1     -12.648  12.475  63.508  1.00  0.00    -0.367 C  
HETATM   11  C   UNL     1     -10.872  13.913  64.380  1.00  0.00    -0.290 C  
HETATM   12  N   UNL     1     -12.289  13.544  64.438  1.00  0.00    -0.581 NA 
BRANCH   6  13
HETATM   13  C   UNL     1      -9.421  11.555  67.154  1.00  0.00    -0.186 A  
HETATM   14  C   UNL     1      -7.210  10.559  67.439  1.00  0.00    -0.092 A  
HETATM   15  C   UNL     1      -8.029  11.595  66.977  1.00  0.00    -0.164 A  
HETATM   16  C   UNL     1      -9.134   9.418  68.316  1.00  0.00    -0.128 A  
HETATM   17  C   UNL     1      -7.763   9.463  68.090  1.00  0.00    -0.083 A  
HETATM   18  C   UNL     1      -9.950  10.459  67.865  1.00  0.00    -0.192 A  
ENDBRANCH   6  13
ENDBRANCH   4   6
ENDBRANCH   3   4
ENDBRANCH   2   3
TORSDOF 4
ENDMDL
MODEL      127
REMARK 921   NORMALIZED FREE ENERGY PREDICTED BY IDOCK:   -3.01 KCAL/MOL
REMARK 922        TOTAL FREE ENERGY PREDICTED BY IDOCK:   -4.63 KCAL/MOL
REMARK 923 INTER-LIGAND FREE ENERGY PREDICTED BY IDOCK:   -4.19 KCAL/MOL
REMARK 924 INTRA-LIGAND FREE ENERGY PREDICTED BY IDOCK:   -0.45 KCAL/MOL
REMARK 927      BINDING AFFINITY PREDICTED BY RF-SCORE:    0.00 PKD
ROOT
HETATM    1  C   UNL     1      -5.427  19.073  64.565  1.00  0.00    -0.283 C  
HETATM    2  C   UNL     1      -6.223  18.984  65.860  1.00  0.00    -0.201 C  
ENDROOT
BRANCH   2   3
HETATM    3  O   UNL     1      -6.214  17.645  66.391  1.00  0.00    -0.178 OA 
BRANCH   3   4
HETATM    4  C   UNL     1      -6.659  17.549  67.675  1.00  0.00    -0.161 C  
HETATM    5  O   UNL     1      -5.985  17.885  68.647  1.00  0.00    -0.178 OA 
BRANCH   4   6
HETATM    6  C   UNL     1      -8.069  16.916  67.800  1.00  0.00    -0.188 C  
HETATM    7  C   UNL     1      -8.392  16.310  69.190  1.00  0.00    -0.211 C  
HETATM    8  C   UNL     1      -8.057  15.736  66.787  1.00  0.00    -0.297 C  
HETATM    9  C   UNL     1      -7.069  14.646  67.218  1.00  0.00     0.003 C  
HETATM   10  C   UNL     1      -8.565  13.183  68.441  1.00  0.00    -0.124 C  
HETATM   11  C   UNL     1      -7.527  15.096  69.558  1.00  0.00    -0.213 C  
HETATM   12  N   UNL     1      -7.405  14.069  68.519  1.00  0.00    -0.107 NA 
BRANCH   6  13
HETATM   13  C   UNL     1      -9.112  18.012  67.473  1.00  0.00    -0.253 A  
HETATM   14  C   UNL     1     -10.650  19.135  65.945  1.00  0.00    -0.495 A  
HETATM   15  C   UNL     1      -9.782  18.078  66.241  1.00  0.00    -0.276 A  
HETATM   16  C   UNL     1     -10.254  20.081  68.117  1.00  0.00    -0.535 A  
HETATM   17  C   UNL     1     -10.871  20.145  66.873  1.00  0.00    -0.084 A  
HETATM   18  C   UNL     1      -9.396  19.020  68.418  1.00  0.00    -0.405 A  
ENDBRANCH   6  13
ENDBRANCH   4   6
ENDBRANCH   3   4
ENDBRANCH   2   3
TORSDOF 4
ENDMDL
MODEL      128
REMARK 921   NORMALIZED FREE ENERGY PREDICTED BY IDOCK:   -3.00 KCAL/MOL
REMARK 922        TOTAL FREE ENERGY PREDICTED BY IDOCK:   -4.62 KCAL/MOL
REMARK 923 INTER-LIGAND FREE ENERGY PREDICTED BY IDOCK:   -4.19 KCAL/MOL
REMARK 924 INTRA-LIGAND FREE ENERGY PREDICTED BY IDOCK:   -0.44 KCAL/MOL
REMARK 927      BINDING AFFINITY PREDICTED BY RF-SCORE:    0.00 PKD
ROOT
HETATM    1  C   UNL     1      -7.305  10.051  70.018  1.00  0.00    -0.172 C  
HETATM    2  C   UNL     1      -7.525  11.266  69.127  1.00  0.00    -0.084 C  
ENDROOT
BRANCH   2   3
HETATM    3  O   UNL     1      -8.629  11.061  68.224  1.00  0.00    -0.130 OA 
BRANCH   3   4
HETATM    4  C   UNL     1      -8.362  11.390  66.929  1.00  0.00    -0.159 C  
HETATM    5  O   UNL     1      -7.552  12.259  66.609  1.00  0.00     0.032 OA 
BRANCH   4   6
HETATM    6  C   UNL     1      -9.219  10.612  65.897  1.00  0.00    -0.209 C  
HETATM    7  C   UNL     1      -9.761   9.246  66.394  1.00  0.00    -0.325 C  
HETATM    8  C   UNL     1      -8.240  10.308  64.728  1.00  0.00    -0.163 C  
HETATM    9  C   UNL     1      -7.135   9.342  65.168  1.00  0.00    -0.090 C  
HETATM   10  C   UNL     1      -8.122   7.236  64.486  1.00  0.00    -0.071 C  
HETATM   11  C   UNL     1      -8.668   8.204  66.666  1.00  0.00    -0.139 C  
HETATM   12  N   UNL     1      -7.663   8.051  65.609  1.00  0.00    -0.090 NA 
BRANCH   6  13
HETATM   13  C   UNL     1     -10.413  11.512  65.497  1.00  0.00    -0.327 A  
HETATM   14  C   UNL     1     -12.264  13.007  66.046  1.00  0.00    -0.463 A  
HETATM   15  C   UNL     1     -11.133  12.277  66.428  1.00  0.00    -0.345 A  
HETATM   16  C   UNL     1     -11.978  12.278  63.775  1.00  0.00    -0.609 A  
HETATM   17  C   UNL     1     -12.697  12.992  64.726  1.00  0.00    -0.409 A  
HETATM   18  C   UNL     1     -10.842  11.558  64.154  1.00  0.00    -0.435 A  
ENDBRANCH   6  13
ENDBRANCH   4   6
ENDBRANCH   3   4
ENDBRANCH   2   3
TORSDOF 4
ENDMDL
MODEL      129
REMARK 921   NORMALIZED FREE ENERGY PREDICTED BY IDOCK:   -2.98 KCAL/MOL
REMARK 922        TOTAL FREE ENERGY PREDICTED BY IDOCK:   -4.60 KCAL/MOL
REMARK 923 INTER-LIGAND FREE ENERGY PREDICTED BY IDOCK:   -4.15 KCAL/MOL
REMARK 924 INTRA-LIGAND FREE ENERGY PREDICTED BY IDOCK:   -0.45 KCAL/MOL
REMARK 927      BINDING AFFINITY PREDICTED BY RF-SCORE:    0.00 PKD
ROOT
HETATM    1  C   UNL     1      -9.410   2.369  68.271  1.00  0.00    -0.265 C  
HETATM    2  C   UNL     1      -8.812   3.769  68.289  1.00  0.00    -0.112 C  
ENDROOT
BRANCH   2   3
HETATM    3  O   UNL     1      -9.795   4.755  68.656  1.00  0.00    -0.161 OA 
BRANCH   3   4
HETATM    4  C   UNL     1      -9.295   5.814  69.353  1.00  0.00    -0.126 C  
HETATM    5  O   UNL     1      -8.494   5.691  70.279  1.00  0.00    -0.119 OA 
BRANCH   4   6
HETATM    6  C   UNL     1      -9.876   7.182  68.912  1.00  0.00    -0.156 C  
HETATM    7  C   UNL     1     -10.649   7.162  67.568  1.00  0.00    -0.348 C  
HETATM    8  C   UNL     1      -8.626   8.084  68.697  1.00  0.00    -0.128 C  
HETATM    9  C   UNL     1      -7.781   7.588  67.518  1.00  0.00    -0.118 C  
HETATM   10  C   UNL     1      -8.697   8.956  65.740  1.00  0.00    -0.176 C  
HETATM   11  C   UNL     1      -9.773   6.844  66.348  1.00  0.00    -0.064 C  
HETATM   12  N   UNL     1      -8.520   7.599  66.256  1.00  0.00    -0.131 NA 
BRANCH   6  13
HETATM   13  C   UNL     1     -10.822   7.680  70.031  1.00  0.00    -0.250 A  
HETATM   14  C   UNL     1     -11.530   9.343  71.672  1.00  0.00    -0.463 A  
HETATM   15  C   UNL     1     -10.718   8.960  70.599  1.00  0.00    -0.282 A  
HETATM   16  C   UNL     1     -12.617   7.201  71.627  1.00  0.00    -0.410 A  
HETATM   17  C   UNL     1     -12.464   8.460  72.198  1.00  0.00    -0.422 A  
HETATM   18  C   UNL     1     -11.815   6.822  70.548  1.00  0.00    -0.418 A  
ENDBRANCH   6  13
ENDBRANCH   4   6
ENDBRANCH   3   4
ENDBRANCH   2   3
TORSDOF 4
ENDMDL
MODEL      130
REMARK 921   NORMALIZED FREE ENERGY PREDICTED BY IDOCK:   -2.97 KCAL/MOL
REMARK 922        TOTAL FREE ENERGY PREDICTED BY IDOCK:   -4.59 KCAL/MOL
REMARK 923 INTER-LIGAND FREE ENERGY PREDICTED BY IDOCK:   -4.32 KCAL/MOL
REMARK 924 INTRA-LIGAND FREE ENERGY PREDICTED BY IDOCK:   -0.27 KCAL/MOL
REMARK 927      BINDING AFFINITY PREDICTED BY RF-SCORE:    0.00 PKD
ROOT
HETATM    1  C   UNL     1      -6.312  13.256  67.625  1.00  0.00    -0.161 C  
HETATM    2  C   UNL     1      -6.856  14.677  67.559  1.00  0.00    -0.149 C  
ENDROOT
BRANCH   2   3
HETATM    3  O   UNL     1      -8.195  14.750  68.087  1.00  0.00    -0.131 OA 
BRANCH   3   4
HETATM    4  C   UNL     1      -9.129  15.168  67.187  1.00  0.00    -0.211 C  
HETATM    5  O   UNL     1      -8.884  15.971  66.288  1.00  0.00    -0.295 OA 
BRANCH   4   6
HETATM    6  C   UNL     1     -10.544  14.587  67.441  1.00  0.00    -0.271 C  
HETATM    7  C   UNL     1     -11.685  15.636  67.479  1.00  0.00     0.069 C  
HETATM    8  C   UNL     1     -10.459  13.965  68.864  1.00  0.00    -0.199 C  
HETATM    9  C   UNL     1     -10.253  15.047  69.930  1.00  0.00    -0.079 C  
HETATM   10  C   UNL     1     -12.555  15.446  70.574  1.00  0.00    -0.423 C  
HETATM   11  C   UNL     1     -11.590  16.619  68.655  1.00  0.00     0.081 C  
HETATM   12  N   UNL     1     -11.351  16.012  69.968  1.00  0.00    -0.342 NA 
BRANCH   6  13
HETATM   13  C   UNL     1     -10.842  13.558  66.324  1.00  0.00    -0.291 A  
HETATM   14  C   UNL     1     -10.230  11.640  64.943  1.00  0.00    -0.315 A  
HETATM   15  C   UNL     1      -9.975  12.497  66.019  1.00  0.00    -0.269 A  
HETATM   16  C   UNL     1     -12.255  12.837  64.458  1.00  0.00    -0.500 A  
HETATM   17  C   UNL     1     -11.358  11.821  64.152  1.00  0.00    -0.430 A  
HETATM   18  C   UNL     1     -12.007  13.686  65.539  1.00  0.00    -0.409 A  
ENDBRANCH   6  13
ENDBRANCH   4   6
ENDBRANCH   3   4
ENDBRANCH   2   3
TORSDOF 4
ENDMDL
MODEL      131
REMARK 921   NORMALIZED FREE ENERGY PREDICTED BY IDOCK:   -2.96 KCAL/MOL
REMARK 922        TOTAL FREE ENERGY PREDICTED BY IDOCK:   -4.58 KCAL/MOL
REMARK 923 INTER-LIGAND FREE ENERGY PREDICTED BY IDOCK:   -3.84 KCAL/MOL
REMARK 924 INTRA-LIGAND FREE ENERGY PREDICTED BY IDOCK:   -0.73 KCAL/MOL
REMARK 927      BINDING AFFINITY PREDICTED BY RF-SCORE:    0.00 PKD
ROOT
HETATM    1  C   UNL     1      -6.523   6.011  69.552  1.00  0.00    -0.042 C  
HETATM    2  C   UNL     1      -7.223   5.431  70.773  1.00  0.00    -0.070 C  
ENDROOT
BRANCH   2   3
HETATM    3  O   UNL     1      -8.285   6.293  71.227  1.00  0.00    -0.119 OA 
BRANCH   3   4
HETATM    4  C   UNL     1      -9.489   6.058  70.635  1.00  0.00    -0.168 C  
HETATM    5  O   UNL     1      -9.925   4.928  70.421  1.00  0.00    -0.210 OA 
BRANCH   4   6
HETATM    6  C   UNL     1     -10.231   7.348  70.197  1.00  0.00    -0.207 C  
HETATM    7  C   UNL     1     -10.043   8.563  71.142  1.00  0.00    -0.263 C  
HETATM    8  C   UNL     1     -11.738   6.966  70.252  1.00  0.00    -0.344 C  
HETATM    9  C   UNL     1     -12.188   6.692  71.691  1.00  0.00    -0.352 C  
HETATM   10  C   UNL     1     -13.034   8.882  72.292  1.00  0.00    -0.419 C  
HETATM   11  C   UNL     1     -10.654   8.370  72.537  1.00  0.00    -0.298 C  
HETATM   12  N   UNL     1     -12.026   7.857  72.560  1.00  0.00    -0.327 NA 
BRANCH   6  13
HETATM   13  C   UNL     1      -9.732   7.727  68.782  1.00  0.00    -0.157 A  
HETATM   14  C   UNL     1      -8.389   9.089  67.265  1.00  0.00    -0.111 A  
HETATM   15  C   UNL     1      -8.751   8.707  68.561  1.00  0.00    -0.139 A  
HETATM   16  C   UNL     1      -9.939   7.497  66.352  1.00  0.00    -0.119 A  
HETATM   17  C   UNL     1      -8.996   8.500  66.162  1.00  0.00    -0.220 A  
HETATM   18  C   UNL     1     -10.292   7.106  67.647  1.00  0.00    -0.276 A  
ENDBRANCH   6  13
ENDBRANCH   4   6
ENDBRANCH   3   4
ENDBRANCH   2   3
TORSDOF 4
ENDMDL
MODEL      132
REMARK 921   NORMALIZED FREE ENERGY PREDICTED BY IDOCK:   -2.95 KCAL/MOL
REMARK 922        TOTAL FREE ENERGY PREDICTED BY IDOCK:   -4.56 KCAL/MOL
REMARK 923 INTER-LIGAND FREE ENERGY PREDICTED BY IDOCK:   -4.34 KCAL/MOL
REMARK 924 INTRA-LIGAND FREE ENERGY PREDICTED BY IDOCK:   -0.22 KCAL/MOL
REMARK 927      BINDING AFFINITY PREDICTED BY RF-SCORE:    0.00 PKD
ROOT
HETATM    1  C   UNL     1      -6.322   8.454  74.096  1.00  0.00    -0.149 C  
HETATM    2  C   UNL     1      -7.207   8.276  72.870  1.00  0.00    -0.103 C  
ENDROOT
BRANCH   2   3
HETATM    3  O   UNL     1      -8.121   7.175  73.038  1.00  0.00    -0.103 OA 
BRANCH   3   4
HETATM    4  C   UNL     1      -8.891   6.913  71.945  1.00  0.00    -0.126 C  
HETATM    5  O   UNL     1      -8.475   7.010  70.791  1.00  0.00    -0.131 OA 
BRANCH   4   6
HETATM    6  C   UNL     1     -10.357   6.543  72.288  1.00  0.00    -0.212 C  
HETATM    7  C   UNL     1     -10.608   6.172  73.773  1.00  0.00    -0.261 C  
HETATM    8  C   UNL     1     -10.640   5.262  71.452  1.00  0.00    -0.247 C  
HETATM    9  C   UNL     1      -9.787   4.085  71.935  1.00  0.00    -0.177 C  
HETATM   10  C   UNL     1     -11.338   3.049  73.483  1.00  0.00    -0.146 C  
HETATM   11  C   UNL     1      -9.901   4.886  74.222  1.00  0.00    -0.172 C  
HETATM   12  N   UNL     1     -10.056   3.734  73.329  1.00  0.00    -0.134 NA 
BRANCH   6  13
HETATM   13  C   UNL     1     -11.252   7.748  71.911  1.00  0.00    -0.310 A  
HETATM   14  C   UNL     1     -11.565  10.090  71.297  1.00  0.00    -0.430 A  
HETATM   15  C   UNL     1     -10.727   8.997  71.542  1.00  0.00    -0.421 A  
HETATM   16  C   UNL     1     -13.491   8.724  71.734  1.00  0.00    -0.436 A  
HETATM   17  C   UNL     1     -12.943   9.960  71.412  1.00  0.00    -0.504 A  
HETATM   18  C   UNL     1     -12.656   7.629  71.968  1.00  0.00    -0.282 A  
ENDBRANCH   6  13
ENDBRANCH   4   6
ENDBRANCH   3   4
ENDBRANCH   2   3
TORSDOF 4
ENDMDL
MODEL      133
REMARK 921   NORMALIZED FREE ENERGY PREDICTED BY IDOCK:   -2.94 KCAL/MOL
REMARK 922        TOTAL FREE ENERGY PREDICTED BY IDOCK:   -4.55 KCAL/MOL
REMARK 923 INTER-LIGAND FREE ENERGY PREDICTED BY IDOCK:   -3.65 KCAL/MOL
REMARK 924 INTRA-LIGAND FREE ENERGY PREDICTED BY IDOCK:   -0.90 KCAL/MOL
REMARK 927      BINDING AFFINITY PREDICTED BY RF-SCORE:    0.00 PKD
ROOT
HETATM    1  C   UNL     1     -11.046   9.393  71.593  1.00  0.00    -0.409 C  
HETATM    2  C   UNL     1     -11.208   7.938  71.174  1.00  0.00    -0.261 C  
ENDROOT
BRANCH   2   3
HETATM    3  O   UNL     1     -10.114   7.508  70.340  1.00  0.00    -0.194 OA 
BRANCH   3   4
HETATM    4  C   UNL     1     -10.474   7.183  69.067  1.00  0.00    -0.211 C  
HETATM    5  O   UNL     1     -11.383   6.396  68.805  1.00  0.00    -0.327 OA 
BRANCH   4   6
HETATM    6  C   UNL     1      -9.591   7.848  67.980  1.00  0.00    -0.168 C  
HETATM    7  C   UNL     1      -9.863   7.365  66.531  1.00  0.00    -0.209 C  
HETATM    8  C   UNL     1      -8.142   7.411  68.335  1.00  0.00    -0.125 C  
HETATM    9  C   UNL     1      -7.960   5.899  68.155  1.00  0.00    -0.109 C  
HETATM   10  C   UNL     1      -7.096   5.846  65.892  1.00  0.00    -0.074 C  
HETATM   11  C   UNL     1      -9.510   5.891  66.289  1.00  0.00    -0.139 C  
HETATM   12  N   UNL     1      -8.195   5.467  66.778  1.00  0.00    -0.108 NA 
BRANCH   6  13
HETATM   13  C   UNL     1      -9.819   9.377  68.052  1.00  0.00    -0.191 A  
HETATM   14  C   UNL     1      -9.036  11.656  68.447  1.00  0.00    -0.180 A  
HETATM   15  C   UNL     1      -8.780  10.289  68.296  1.00  0.00    -0.126 A  
HETATM   16  C   UNL     1     -11.377  11.268  68.071  1.00  0.00    -0.372 A  
HETATM   17  C   UNL     1     -10.334  12.143  68.354  1.00  0.00    -0.236 A  
HETATM   18  C   UNL     1     -11.120   9.904  67.908  1.00  0.00    -0.216 A  
ENDBRANCH   6  13
ENDBRANCH   4   6
ENDBRANCH   3   4
ENDBRANCH   2   3
TORSDOF 4
ENDMDL
MODEL      134
REMARK 921   NORMALIZED FREE ENERGY PREDICTED BY IDOCK:   -2.94 KCAL/MOL
REMARK 922        TOTAL FREE ENERGY PREDICTED BY IDOCK:   -4.55 KCAL/MOL
REMARK 923 INTER-LIGAND FREE ENERGY PREDICTED BY IDOCK:   -4.25 KCAL/MOL
REMARK 924 INTRA-LIGAND FREE ENERGY PREDICTED BY IDOCK:   -0.30 KCAL/MOL
REMARK 927      BINDING AFFINITY PREDICTED BY RF-SCORE:    0.00 PKD
ROOT
HETATM    1  C   UNL     1      -6.331   6.323  69.479  1.00  0.00    -0.035 C  
HETATM    2  C   UNL     1      -7.275   7.359  70.073  1.00  0.00    -0.073 C  
ENDROOT
BRANCH   2   3
HETATM    3  O   UNL     1      -7.951   8.104  69.042  1.00  0.00    -0.109 OA 
BRANCH   3   4
HETATM    4  C   UNL     1      -8.502   9.276  69.468  1.00  0.00    -0.144 C  
HETATM    5  O   UNL     1      -7.868  10.132  70.083  1.00  0.00    -0.170 OA 
BRANCH   4   6
HETATM    6  C   UNL     1     -10.016   9.402  69.161  1.00  0.00    -0.184 C  
HETATM    7  C   UNL     1     -10.427   8.999  67.721  1.00  0.00    -0.305 C  
HETATM    8  C   UNL     1     -10.317  10.921  69.304  1.00  0.00    -0.211 C  
HETATM    9  C   UNL     1      -9.600  11.733  68.220  1.00  0.00    -0.199 C  
HETATM   10  C   UNL     1     -11.357  11.853  66.555  1.00  0.00    -0.341 C  
HETATM   11  C   UNL     1      -9.861   9.918  66.630  1.00  0.00    -0.207 C  
HETATM   12  N   UNL     1     -10.019  11.356  66.870  1.00  0.00    -0.203 NA 
BRANCH   6  13
HETATM   13  C   UNL     1     -10.782   8.514  70.171  1.00  0.00    -0.240 A  
HETATM   14  C   UNL     1     -11.823   8.131  72.345  1.00  0.00    -0.448 A  
HETATM   15  C   UNL     1     -11.216   8.986  71.420  1.00  0.00    -0.394 A  
HETATM   16  C   UNL     1     -11.632   6.304  70.798  1.00  0.00    -0.347 A  
HETATM   17  C   UNL     1     -12.014   6.788  72.044  1.00  0.00    -0.355 A  
HETATM   18  C   UNL     1     -11.036   7.160  69.868  1.00  0.00    -0.278 A  
ENDBRANCH   6  13
ENDBRANCH   4   6
ENDBRANCH   3   4
ENDBRANCH   2   3
TORSDOF 4
ENDMDL
MODEL      135
REMARK 921   NORMALIZED FREE ENERGY PREDICTED BY IDOCK:   -2.91 KCAL/MOL
REMARK 922        TOTAL FREE ENERGY PREDICTED BY IDOCK:   -4.52 KCAL/MOL
REMARK 923 INTER-LIGAND FREE ENERGY PREDICTED BY IDOCK:   -3.97 KCAL/MOL
REMARK 924 INTRA-LIGAND FREE ENERGY PREDICTED BY IDOCK:   -0.54 KCAL/MOL
REMARK 927      BINDING AFFINITY PREDICTED BY RF-SCORE:    0.00 PKD
ROOT
HETATM    1  C   UNL     1      -9.065   3.281  68.268  1.00  0.00    -0.211 C  
HETATM    2  C   UNL     1      -9.784   4.440  68.945  1.00  0.00    -0.141 C  
ENDROOT
BRANCH   2   3
HETATM    3  O   UNL     1      -9.218   5.707  68.558  1.00  0.00    -0.119 OA 
BRANCH   3   4
HETATM    4  C   UNL     1     -10.132   6.622  68.132  1.00  0.00    -0.158 C  
HETATM    5  O   UNL     1     -11.023   6.358  67.325  1.00  0.00    -0.342 OA 
BRANCH   4   6
HETATM    6  C   UNL     1      -9.908   8.044  68.709  1.00  0.00    -0.176 C  
HETATM    7  C   UNL     1     -10.697   9.172  67.995  1.00  0.00    -0.205 C  
HETATM    8  C   UNL     1      -8.398   8.329  68.465  1.00  0.00    -0.129 C  
HETATM    9  C   UNL     1      -8.089   8.430  66.967  1.00  0.00    -0.104 C  
HETATM   10  C   UNL     1      -8.278  10.827  66.661  1.00  0.00    -0.140 C  
HETATM   11  C   UNL     1     -10.268   9.409  66.540  1.00  0.00    -0.238 C  
HETATM   12  N   UNL     1      -8.823   9.515  66.316  1.00  0.00    -0.145 NA 
BRANCH   6  13
HETATM   13  C   UNL     1     -10.307   8.019  70.204  1.00  0.00    -0.215 A  
HETATM   14  C   UNL     1      -9.780   8.234  72.578  1.00  0.00    -0.368 A  
HETATM   15  C   UNL     1      -9.414   8.357  71.233  1.00  0.00    -0.240 A  
HETATM   16  C   UNL     1     -11.963   7.474  71.925  1.00  0.00    -0.335 A  
HETATM   17  C   UNL     1     -11.045   7.775  72.924  1.00  0.00    -0.457 A  
HETATM   18  C   UNL     1     -11.602   7.608  70.582  1.00  0.00    -0.251 A  
ENDBRANCH   6  13
ENDBRANCH   4   6
ENDBRANCH   3   4
ENDBRANCH   2   3
TORSDOF 4
ENDMDL
MODEL      136
REMARK 921   NORMALIZED FREE ENERGY PREDICTED BY IDOCK:   -2.91 KCAL/MOL
REMARK 922        TOTAL FREE ENERGY PREDICTED BY IDOCK:   -4.51 KCAL/MOL
REMARK 923 INTER-LIGAND FREE ENERGY PREDICTED BY IDOCK:   -4.10 KCAL/MOL
REMARK 924 INTRA-LIGAND FREE ENERGY PREDICTED BY IDOCK:   -0.42 KCAL/MOL
REMARK 927      BINDING AFFINITY PREDICTED BY RF-SCORE:    0.00 PKD
ROOT
HETATM    1  C   UNL     1      -8.195  11.409  67.658  1.00  0.00    -0.128 C  
HETATM    2  C   UNL     1      -8.786  10.235  66.889  1.00  0.00    -0.126 C  
ENDROOT
BRANCH   2   3
HETATM    3  O   UNL     1      -8.821   9.043  67.696  1.00  0.00    -0.124 OA 
BRANCH   3   4
HETATM    4  C   UNL     1     -10.036   8.427  67.733  1.00  0.00    -0.186 C  
HETATM    5  O   UNL     1     -11.033   8.871  67.165  1.00  0.00    -0.110 OA 
BRANCH   4   6
HETATM    6  C   UNL     1     -10.060   7.147  68.608  1.00  0.00    -0.177 C  
HETATM    7  C   UNL     1      -8.691   6.436  68.765  1.00  0.00    -0.122 C  
HETATM    8  C   UNL     1     -10.989   6.166  67.836  1.00  0.00    -0.399 C  
HETATM    9  C   UNL     1     -10.365   5.748  66.500  1.00  0.00    -0.209 C  
HETATM   10  C   UNL     1      -9.265   3.696  67.173  1.00  0.00    -0.188 C  
HETATM   11  C   UNL     1      -8.139   5.849  67.459  1.00  0.00    -0.102 C  
HETATM   12  N   UNL     1      -9.087   5.058  66.670  1.00  0.00    -0.117 NA 
BRANCH   6  13
HETATM   13  C   UNL     1     -10.589   7.539  70.008  1.00  0.00    -0.242 A  
HETATM   14  C   UNL     1     -10.481   8.857  72.060  1.00  0.00    -0.383 A  
HETATM   15  C   UNL     1     -10.040   8.590  70.760  1.00  0.00    -0.237 A  
HETATM   16  C   UNL     1     -12.072   7.065  71.899  1.00  0.00    -0.358 A  
HETATM   17  C   UNL     1     -11.482   8.085  72.637  1.00  0.00    -0.465 A  
HETATM   18  C   UNL     1     -11.640   6.804  70.596  1.00  0.00    -0.422 A  
ENDBRANCH   6  13
ENDBRANCH   4   6
ENDBRANCH   3   4
ENDBRANCH   2   3
TORSDOF 4
ENDMDL
MODEL      137
REMARK 921   NORMALIZED FREE ENERGY PREDICTED BY IDOCK:   -2.90 KCAL/MOL
REMARK 922        TOTAL FREE ENERGY PREDICTED BY IDOCK:   -4.50 KCAL/MOL
REMARK 923 INTER-LIGAND FREE ENERGY PREDICTED BY IDOCK:   -4.46 KCAL/MOL
REMARK 924 INTRA-LIGAND FREE ENERGY PREDICTED BY IDOCK:   -0.03 KCAL/MOL
REMARK 927      BINDING AFFINITY PREDICTED BY RF-SCORE:    0.00 PKD
ROOT
HETATM    1  C   UNL     1      -6.694  13.468  69.295  1.00  0.00    -0.080 C  
HETATM    2  C   UNL     1      -6.428  12.985  67.876  1.00  0.00    -0.130 C  
ENDROOT
BRANCH   2   3
HETATM    3  O   UNL     1      -7.538  13.279  67.005  1.00  0.00    -0.035 OA 
BRANCH   3   4
HETATM    4  C   UNL     1      -8.750  13.288  67.627  1.00  0.00    -0.195 C  
HETATM    5  O   UNL     1      -9.090  12.441  68.453  1.00  0.00    -0.195 OA 
BRANCH   4   6
HETATM    6  C   UNL     1      -9.687  14.429  67.151  1.00  0.00    -0.248 C  
HETATM    7  C   UNL     1     -11.069  14.476  67.854  1.00  0.00    -0.290 C  
HETATM    8  C   UNL     1      -9.956  14.110  65.653  1.00  0.00    -0.331 C  
HETATM    9  C   UNL     1     -10.761  12.815  65.497  1.00  0.00    -0.278 C  
HETATM   10  C   UNL     1     -13.005  13.724  65.393  1.00  0.00    -0.312 C  
HETATM   11  C   UNL     1     -11.961  13.263  67.557  1.00  0.00    -0.324 C  
HETATM   12  N   UNL     1     -12.070  12.888  66.145  1.00  0.00    -0.471 NA 
BRANCH   6  13
HETATM   13  C   UNL     1      -8.956  15.773  67.385  1.00  0.00    -0.204 A  
HETATM   14  C   UNL     1      -8.235  17.612  68.819  1.00  0.00    -0.224 A  
HETATM   15  C   UNL     1      -8.820  16.352  68.656  1.00  0.00    -0.234 A  
HETATM   16  C   UNL     1      -7.852  17.751  66.452  1.00  0.00    -0.312 A  
HETATM   17  C   UNL     1      -7.769  18.319  67.717  1.00  0.00    -0.239 A  
HETATM   18  C   UNL     1      -8.427  16.487  66.290  1.00  0.00    -0.363 A  
ENDBRANCH   6  13
ENDBRANCH   4   6
ENDBRANCH   3   4
ENDBRANCH   2   3
TORSDOF 4
ENDMDL
MODEL      138
REMARK 921   NORMALIZED FREE ENERGY PREDICTED BY IDOCK:   -2.89 KCAL/MOL
REMARK 922        TOTAL FREE ENERGY PREDICTED BY IDOCK:   -4.49 KCAL/MOL
REMARK 923 INTER-LIGAND FREE ENERGY PREDICTED BY IDOCK:   -4.52 KCAL/MOL
REMARK 924 INTRA-LIGAND FREE ENERGY PREDICTED BY IDOCK:    0.03 KCAL/MOL
REMARK 927      BINDING AFFINITY PREDICTED BY RF-SCORE:    0.00 PKD
ROOT
HETATM    1  C   UNL     1     -12.633  14.767  70.819  1.00  0.00    -0.412 C  
HETATM    2  C   UNL     1     -11.806  14.031  69.775  1.00  0.00    -0.324 C  
ENDROOT
BRANCH   2   3
HETATM    3  O   UNL     1     -11.577  14.852  68.613  1.00  0.00    -0.290 OA 
BRANCH   3   4
HETATM    4  C   UNL     1     -10.494  14.486  67.873  1.00  0.00    -0.242 C  
HETATM    5  O   UNL     1     -10.449  13.449  67.213  1.00  0.00    -0.246 OA 
BRANCH   4   6
HETATM    6  C   UNL     1      -9.298  15.467  67.990  1.00  0.00    -0.196 C  
HETATM    7  C   UNL     1      -9.587  16.756  68.801  1.00  0.00    -0.260 C  
HETATM    8  C   UNL     1      -9.015  15.911  66.527  1.00  0.00    -0.331 C  
HETATM    9  C   UNL     1     -10.179  16.734  65.963  1.00  0.00    -0.346 C  
HETATM   10  C   UNL     1      -9.396  18.971  66.471  1.00  0.00    -0.340 C  
HETATM   11  C   UNL     1     -10.623  17.683  68.151  1.00  0.00    -0.356 C  
HETATM   12  N   UNL     1     -10.420  17.959  66.726  1.00  0.00    -0.337 NA 
BRANCH   6  13
HETATM   13  C   UNL     1      -8.123  14.707  68.652  1.00  0.00    -0.150 A  
HETATM   14  C   UNL     1      -6.789  12.694  69.010  1.00  0.00    -0.083 A  
HETATM   15  C   UNL     1      -7.798  13.380  68.327  1.00  0.00    -0.143 A  
HETATM   16  C   UNL     1      -6.353  14.644  70.344  1.00  0.00    -0.153 A  
HETATM   17  C   UNL     1      -6.080  13.317  70.030  1.00  0.00    -0.122 A  
HETATM   18  C   UNL     1      -7.353  15.334  69.653  1.00  0.00    -0.188 A  
ENDBRANCH   6  13
ENDBRANCH   4   6
ENDBRANCH   3   4
ENDBRANCH   2   3
TORSDOF 4
ENDMDL
MODEL      139
REMARK 921   NORMALIZED FREE ENERGY PREDICTED BY IDOCK:   -2.88 KCAL/MOL
REMARK 922        TOTAL FREE ENERGY PREDICTED BY IDOCK:   -4.47 KCAL/MOL
REMARK 923 INTER-LIGAND FREE ENERGY PREDICTED BY IDOCK:   -4.40 KCAL/MOL
REMARK 924 INTRA-LIGAND FREE ENERGY PREDICTED BY IDOCK:   -0.07 KCAL/MOL
REMARK 927      BINDING AFFINITY PREDICTED BY RF-SCORE:    0.00 PKD
ROOT
HETATM    1  C   UNL     1     -11.730  14.363  69.780  1.00  0.00    -0.361 C  
HETATM    2  C   UNL     1     -11.485  12.872  69.592  1.00  0.00    -0.181 C  
ENDROOT
BRANCH   2   3
HETATM    3  O   UNL     1     -11.142  12.565  68.227  1.00  0.00    -0.227 OA 
BRANCH   3   4
HETATM    4  C   UNL     1      -9.852  12.163  68.051  1.00  0.00    -0.202 C  
HETATM    5  O   UNL     1      -8.888  12.913  68.197  1.00  0.00    -0.186 OA 
BRANCH   4   6
HETATM    6  C   UNL     1      -9.715  10.689  67.589  1.00  0.00    -0.186 C  
HETATM    7  C   UNL     1     -10.803   9.728  68.136  1.00  0.00    -0.264 C  
HETATM    8  C   UNL     1      -8.359  10.218  68.187  1.00  0.00    -0.118 C  
HETATM    9  C   UNL     1      -8.414  10.173  69.718  1.00  0.00    -0.128 C  
HETATM   10  C   UNL     1      -9.018   7.850  70.049  1.00  0.00    -0.145 C  
HETATM   11  C   UNL     1     -10.753   9.531  69.657  1.00  0.00    -0.238 C  
HETATM   12  N   UNL     1      -9.428   9.244  70.214  1.00  0.00    -0.219 NA 
BRANCH   6  13
HETATM   13  C   UNL     1      -9.758  10.670  66.042  1.00  0.00    -0.258 A  
HETATM   14  C   UNL     1      -8.979   9.860  63.875  1.00  0.00    -0.280 A  
HETATM   15  C   UNL     1      -8.985   9.787  65.272  1.00  0.00    -0.233 A  
HETATM   16  C   UNL     1     -10.554  11.671  63.953  1.00  0.00    -0.446 A  
HETATM   17  C   UNL     1      -9.747  10.812  63.216  1.00  0.00    -0.396 A  
HETATM   18  C   UNL     1     -10.570  11.591  65.348  1.00  0.00    -0.336 A  
ENDBRANCH   6  13
ENDBRANCH   4   6
ENDBRANCH   3   4
ENDBRANCH   2   3
TORSDOF 4
ENDMDL
MODEL      140
REMARK 921   NORMALIZED FREE ENERGY PREDICTED BY IDOCK:   -2.87 KCAL/MOL
REMARK 922        TOTAL FREE ENERGY PREDICTED BY IDOCK:   -4.47 KCAL/MOL
REMARK 923 INTER-LIGAND FREE ENERGY PREDICTED BY IDOCK:   -4.01 KCAL/MOL
REMARK 924 INTRA-LIGAND FREE ENERGY PREDICTED BY IDOCK:   -0.46 KCAL/MOL
REMARK 927      BINDING AFFINITY PREDICTED BY RF-SCORE:    0.00 PKD
ROOT
HETATM    1  C   UNL     1      -6.858   8.242  74.246  1.00  0.00    -0.175 C  
HETATM    2  C   UNL     1      -7.210   7.939  72.796  1.00  0.00    -0.093 C  
ENDROOT
BRANCH   2   3
HETATM    3  O   UNL     1      -8.086   6.799  72.697  1.00  0.00    -0.103 OA 
BRANCH   3   4
HETATM    4  C   UNL     1      -8.647   6.630  71.467  1.00  0.00    -0.124 C  
HETATM    5  O   UNL     1      -8.091   6.965  70.422  1.00  0.00    -0.112 OA 
BRANCH   4   6
HETATM    6  C   UNL     1     -10.078   6.033  71.511  1.00  0.00    -0.232 C  
HETATM    7  C   UNL     1     -10.987   6.425  70.317  1.00  0.00    -0.378 C  
HETATM    8  C   UNL     1     -10.718   6.654  72.785  1.00  0.00    -0.272 C  
HETATM    9  C   UNL     1     -10.900   8.168  72.633  1.00  0.00    -0.359 C  
HETATM   10  C   UNL     1     -13.183   8.237  71.821  1.00  0.00    -0.347 C  
HETATM   11  C   UNL     1     -11.328   7.920  70.257  1.00  0.00    -0.150 C  
HETATM   12  N   UNL     1     -11.780   8.517  71.518  1.00  0.00    -0.281 NA 
BRANCH   6  13
HETATM   13  C   UNL     1      -9.949   4.492  71.562  1.00  0.00    -0.259 A  
HETATM   14  C   UNL     1      -9.491   2.333  70.518  1.00  0.00    -0.177 A  
HETATM   15  C   UNL     1      -9.508   3.730  70.467  1.00  0.00    -0.254 A  
HETATM   16  C   UNL     1     -10.311   2.395  72.775  1.00  0.00    -0.240 A  
HETATM   17  C   UNL     1      -9.910   1.665  71.662  1.00  0.00    -0.217 A  
HETATM   18  C   UNL     1     -10.317   3.791  72.729  1.00  0.00    -0.238 A  
ENDBRANCH   6  13
ENDBRANCH   4   6
ENDBRANCH   3   4
ENDBRANCH   2   3
TORSDOF 4
ENDMDL
MODEL      141
REMARK 921   NORMALIZED FREE ENERGY PREDICTED BY IDOCK:   -2.87 KCAL/MOL
REMARK 922        TOTAL FREE ENERGY PREDICTED BY IDOCK:   -4.46 KCAL/MOL
REMARK 923 INTER-LIGAND FREE ENERGY PREDICTED BY IDOCK:   -3.98 KCAL/MOL
REMARK 924 INTRA-LIGAND FREE ENERGY PREDICTED BY IDOCK:   -0.49 KCAL/MOL
REMARK 927      BINDING AFFINITY PREDICTED BY RF-SCORE:    0.00 PKD
ROOT
HETATM    1  C   UNL     1      -9.390   8.345  66.524  1.00  0.00    -0.259 C  
HETATM    2  C   UNL     1     -10.470   8.639  67.556  1.00  0.00    -0.266 C  
ENDROOT
BRANCH   2   3
HETATM    3  O   UNL     1     -10.003   8.378  68.893  1.00  0.00    -0.176 OA 
BRANCH   3   4
HETATM    4  C   UNL     1     -10.688   7.397  69.544  1.00  0.00    -0.224 C  
HETATM    5  O   UNL     1     -11.194   6.434  68.969  1.00  0.00    -0.347 OA 
BRANCH   4   6
HETATM    6  C   UNL     1     -10.826   7.639  71.070  1.00  0.00    -0.255 C  
HETATM    7  C   UNL     1     -12.017   6.909  71.743  1.00  0.00    -0.372 C  
HETATM    8  C   UNL     1     -11.104   9.164  71.198  1.00  0.00    -0.393 C  
HETATM    9  C   UNL     1     -12.462   9.532  70.590  1.00  0.00    -0.039 C  
HETATM   10  C   UNL     1     -13.852   9.421  72.573  1.00  0.00    -0.314 C  
HETATM   11  C   UNL     1     -13.394   7.399  71.274  1.00  0.00    -0.271 C  
HETATM   12  N   UNL     1     -13.575   8.853  71.254  1.00  0.00    -0.232 NA 
BRANCH   6  13
HETATM   13  C   UNL     1      -9.509   7.183  71.744  1.00  0.00    -0.160 A  
HETATM   14  C   UNL     1      -8.085   5.478  72.755  1.00  0.00    -0.109 A  
HETATM   15  C   UNL     1      -9.244   5.842  72.063  1.00  0.00    -0.154 A  
HETATM   16  C   UNL     1      -7.379   7.774  72.800  1.00  0.00    -0.104 A  
HETATM   17  C   UNL     1      -7.163   6.444  73.140  1.00  0.00    -0.086 A  
HETATM   18  C   UNL     1      -8.532   8.137  72.098  1.00  0.00    -0.216 A  
ENDBRANCH   6  13
ENDBRANCH   4   6
ENDBRANCH   3   4
ENDBRANCH   2   3
TORSDOF 4
ENDMDL
MODEL      142
REMARK 921   NORMALIZED FREE ENERGY PREDICTED BY IDOCK:   -2.86 KCAL/MOL
REMARK 922        TOTAL FREE ENERGY PREDICTED BY IDOCK:   -4.45 KCAL/MOL
REMARK 923 INTER-LIGAND FREE ENERGY PREDICTED BY IDOCK:   -4.37 KCAL/MOL
REMARK 924 INTRA-LIGAND FREE ENERGY PREDICTED BY IDOCK:   -0.09 KCAL/MOL
REMARK 927      BINDING AFFINITY PREDICTED BY RF-SCORE:    0.00 PKD
ROOT
HETATM    1  C   UNL     1      -6.783  11.797  67.280  1.00  0.00    -0.133 C  
HETATM    2  C   UNL     1      -7.728  11.882  68.471  1.00  0.00    -0.135 C  
ENDROOT
BRANCH   2   3
HETATM    3  O   UNL     1      -7.866  10.606  69.124  1.00  0.00    -0.125 OA 
BRANCH   3   4
HETATM    4  C   UNL     1      -8.425   9.636  68.346  1.00  0.00    -0.118 C  
HETATM    5  O   UNL     1      -7.768   8.904  67.608  1.00  0.00    -0.099 OA 
BRANCH   4   6
HETATM    6  C   UNL     1      -9.972   9.584  68.431  1.00  0.00    -0.184 C  
HETATM    7  C   UNL     1     -10.556   9.771  69.856  1.00  0.00    -0.301 C  
HETATM    8  C   UNL     1     -10.337   8.140  67.983  1.00  0.00    -0.267 C  
HETATM    9  C   UNL     1      -9.827   7.102  68.989  1.00  0.00    -0.156 C  
HETATM   10  C   UNL     1     -11.803   6.847  70.368  1.00  0.00    -0.299 C  
HETATM   11  C   UNL     1     -10.202   8.639  70.829  1.00  0.00    -0.204 C  
HETATM   12  N   UNL     1     -10.408   7.280  70.320  1.00  0.00    -0.207 NA 
BRANCH   6  13
HETATM   13  C   UNL     1     -10.537  10.688  67.505  1.00  0.00    -0.297 A  
HETATM   14  C   UNL     1     -11.897  12.676  67.104  1.00  0.00    -0.399 A  
HETATM   15  C   UNL     1     -11.327  11.747  67.981  1.00  0.00    -0.355 A  
HETATM   16  C   UNL     1     -10.875  11.557  65.240  1.00  0.00    -0.319 A  
HETATM   17  C   UNL     1     -11.688  12.571  65.735  1.00  0.00    -0.478 A  
HETATM   18  C   UNL     1     -10.296  10.636  66.117  1.00  0.00    -0.291 A  
ENDBRANCH   6  13
ENDBRANCH   4   6
ENDBRANCH   3   4
ENDBRANCH   2   3
TORSDOF 4
ENDMDL
MODEL      143
REMARK 921   NORMALIZED FREE ENERGY PREDICTED BY IDOCK:   -2.86 KCAL/MOL
REMARK 922        TOTAL FREE ENERGY PREDICTED BY IDOCK:   -4.45 KCAL/MOL
REMARK 923 INTER-LIGAND FREE ENERGY PREDICTED BY IDOCK:   -3.69 KCAL/MOL
REMARK 924 INTRA-LIGAND FREE ENERGY PREDICTED BY IDOCK:   -0.76 KCAL/MOL
REMARK 927      BINDING AFFINITY PREDICTED BY RF-SCORE:    0.00 PKD
ROOT
HETATM    1  C   UNL     1     -12.350  10.180  71.236  1.00  0.00    -0.501 C  
HETATM    2  C   UNL     1     -12.781   8.773  71.627  1.00  0.00    -0.348 C  
ENDROOT
BRANCH   2   3
HETATM    3  O   UNL     1     -11.643   7.916  71.841  1.00  0.00    -0.266 OA 
BRANCH   3   4
HETATM    4  C   UNL     1     -11.317   7.139  70.771  1.00  0.00    -0.289 C  
HETATM    5  O   UNL     1     -12.156   6.625  70.032  1.00  0.00    -0.280 OA 
BRANCH   4   6
HETATM    6  C   UNL     1      -9.792   6.909  70.608  1.00  0.00    -0.191 C  
HETATM    7  C   UNL     1      -9.404   5.725  69.685  1.00  0.00    -0.166 C  
HETATM    8  C   UNL     1      -9.299   6.545  72.037  1.00  0.00    -0.147 C  
HETATM    9  C   UNL     1      -9.877   5.203  72.497  1.00  0.00    -0.160 C  
HETATM   10  C   UNL     1      -8.081   3.719  71.829  1.00  0.00    -0.067 C  
HETATM   11  C   UNL     1      -9.819   4.350  70.226  1.00  0.00    -0.214 C  
HETATM   12  N   UNL     1      -9.480   4.094  71.629  1.00  0.00    -0.141 NA 
BRANCH   6  13
HETATM   13  C   UNL     1      -9.173   8.211  70.044  1.00  0.00    -0.155 A  
HETATM   14  C   UNL     1      -7.528  10.014  70.100  1.00  0.00    -0.176 A  
HETATM   15  C   UNL     1      -8.007   8.788  70.573  1.00  0.00    -0.117 A  
HETATM   16  C   UNL     1      -9.331  10.119  68.516  1.00  0.00    -0.151 A  
HETATM   17  C   UNL     1      -8.198  10.688  69.087  1.00  0.00    -0.142 A  
HETATM   18  C   UNL     1      -9.804   8.889  68.981  1.00  0.00    -0.182 A  
ENDBRANCH   6  13
ENDBRANCH   4   6
ENDBRANCH   3   4
ENDBRANCH   2   3
TORSDOF 4
ENDMDL
MODEL      144
REMARK 921   NORMALIZED FREE ENERGY PREDICTED BY IDOCK:   -2.85 KCAL/MOL
REMARK 922        TOTAL FREE ENERGY PREDICTED BY IDOCK:   -4.44 KCAL/MOL
REMARK 923 INTER-LIGAND FREE ENERGY PREDICTED BY IDOCK:   -4.43 KCAL/MOL
REMARK 924 INTRA-LIGAND FREE ENERGY PREDICTED BY IDOCK:   -0.02 KCAL/MOL
REMARK 927      BINDING AFFINITY PREDICTED BY RF-SCORE:    0.00 PKD
ROOT
HETATM    1  C   UNL     1     -11.714  12.819  68.382  1.00  0.00    -0.380 C  
HETATM    2  C   UNL     1     -12.009  12.063  69.670  1.00  0.00    -0.293 C  
ENDROOT
BRANCH   2   3
HETATM    3  O   UNL     1     -12.036  10.640  69.448  1.00  0.00    -0.270 OA 
BRANCH   3   4
HETATM    4  C   UNL     1     -11.527   9.903  70.476  1.00  0.00    -0.318 C  
HETATM    5  O   UNL     1     -11.879  10.048  71.646  1.00  0.00    -0.365 OA 
BRANCH   4   6
HETATM    6  C   UNL     1     -10.418   8.910  70.042  1.00  0.00    -0.227 C  
HETATM    7  C   UNL     1     -10.925   7.502  69.633  1.00  0.00    -0.164 C  
HETATM    8  C   UNL     1      -9.547   8.721  71.316  1.00  0.00    -0.323 C  
HETATM    9  C   UNL     1     -10.333   8.013  72.425  1.00  0.00    -0.289 C  
HETATM   10  C   UNL     1      -9.678   5.718  72.006  1.00  0.00    -0.154 C  
HETATM   11  C   UNL     1     -11.553   6.706  70.785  1.00  0.00    -0.376 C  
HETATM   12  N   UNL     1     -10.780   6.678  72.030  1.00  0.00    -0.215 NA 
BRANCH   6  13
HETATM   13  C   UNL     1      -9.657   9.538  68.850  1.00  0.00    -0.156 A  
HETATM   14  C   UNL     1      -8.059  11.127  67.911  1.00  0.00    -0.119 A  
HETATM   15  C   UNL     1      -8.661  10.514  69.015  1.00  0.00    -0.160 A  
HETATM   16  C   UNL     1      -9.387   9.783  66.428  1.00  0.00    -0.218 A  
HETATM   17  C   UNL     1      -8.434  10.777  66.620  1.00  0.00    -0.142 A  
HETATM   18  C   UNL     1      -9.981   9.162  67.530  1.00  0.00    -0.258 A  
ENDBRANCH   6  13
ENDBRANCH   4   6
ENDBRANCH   3   4
ENDBRANCH   2   3
TORSDOF 4
ENDMDL
MODEL      145
REMARK 921   NORMALIZED FREE ENERGY PREDICTED BY IDOCK:   -2.85 KCAL/MOL
REMARK 922        TOTAL FREE ENERGY PREDICTED BY IDOCK:   -4.44 KCAL/MOL
REMARK 923 INTER-LIGAND FREE ENERGY PREDICTED BY IDOCK:   -3.90 KCAL/MOL
REMARK 924 INTRA-LIGAND FREE ENERGY PREDICTED BY IDOCK:   -0.54 KCAL/MOL
REMARK 927      BINDING AFFINITY PREDICTED BY RF-SCORE:    0.00 PKD
ROOT
HETATM    1  C   UNL     1     -13.213   9.969  71.471  1.00  0.00    -0.497 C  
HETATM    2  C   UNL     1     -13.177   8.750  72.383  1.00  0.00    -0.394 C  
ENDROOT
BRANCH   2   3
HETATM    3  O   UNL     1     -11.824   8.354  72.677  1.00  0.00    -0.393 OA 
BRANCH   3   4
HETATM    4  C   UNL     1     -11.439   7.192  72.080  1.00  0.00    -0.274 C  
HETATM    5  O   UNL     1     -12.191   6.229  71.934  1.00  0.00    -0.329 OA 
BRANCH   4   6
HETATM    6  C   UNL     1      -9.947   7.171  71.658  1.00  0.00    -0.186 C  
HETATM    7  C   UNL     1      -9.219   8.537  71.761  1.00  0.00    -0.316 C  
HETATM    8  C   UNL     1      -9.975   6.791  70.150  1.00  0.00    -0.191 C  
HETATM    9  C   UNL     1     -10.632   7.893  69.313  1.00  0.00    -0.188 C  
HETATM   10  C   UNL     1      -8.666   9.145  68.648  1.00  0.00    -0.129 C  
HETATM   11  C   UNL     1      -9.751   9.602  70.793  1.00  0.00    -0.122 C  
HETATM   12  N   UNL     1      -9.917   9.166  69.403  1.00  0.00    -0.185 NA 
BRANCH   6  13
HETATM   13  C   UNL     1      -9.214   6.141  72.550  1.00  0.00    -0.137 A  
HETATM   14  C   UNL     1      -7.899   5.545  74.519  1.00  0.00    -0.097 A  
HETATM   15  C   UNL     1      -8.633   6.481  73.782  1.00  0.00    -0.134 A  
HETATM   16  C   UNL     1      -8.334   3.874  72.849  1.00  0.00    -0.095 A  
HETATM   17  C   UNL     1      -7.733   4.250  74.045  1.00  0.00    -0.084 A  
HETATM   18  C   UNL     1      -9.077   4.805  72.118  1.00  0.00    -0.148 A  
ENDBRANCH   6  13
ENDBRANCH   4   6
ENDBRANCH   3   4
ENDBRANCH   2   3
TORSDOF 4
ENDMDL
MODEL      146
REMARK 921   NORMALIZED FREE ENERGY PREDICTED BY IDOCK:   -2.84 KCAL/MOL
REMARK 922        TOTAL FREE ENERGY PREDICTED BY IDOCK:   -4.42 KCAL/MOL
REMARK 923 INTER-LIGAND FREE ENERGY PREDICTED BY IDOCK:   -4.02 KCAL/MOL
REMARK 924 INTRA-LIGAND FREE ENERGY PREDICTED BY IDOCK:   -0.40 KCAL/MOL
REMARK 927      BINDING AFFINITY PREDICTED BY RF-SCORE:    0.00 PKD
ROOT
HETATM    1  C   UNL     1     -13.079  10.808  71.673  1.00  0.00    -0.551 C  
HETATM    2  C   UNL     1     -12.312  11.120  70.395  1.00  0.00    -0.344 C  
ENDROOT
BRANCH   2   3
HETATM    3  O   UNL     1     -11.286  10.139  70.148  1.00  0.00    -0.266 OA 
BRANCH   3   4
HETATM    4  C   UNL     1     -10.961   9.988  68.833  1.00  0.00    -0.207 C  
HETATM    5  O   UNL     1     -11.627  10.466  67.916  1.00  0.00    -0.406 OA 
BRANCH   4   6
HETATM    6  C   UNL     1      -9.709   9.104  68.598  1.00  0.00    -0.164 C  
HETATM    7  C   UNL     1      -9.706   8.317  67.262  1.00  0.00    -0.234 C  
HETATM    8  C   UNL     1      -9.758   8.049  69.740  1.00  0.00    -0.176 C  
HETATM    9  C   UNL     1     -10.964   7.117  69.582  1.00  0.00    -0.212 C  
HETATM   10  C   UNL     1      -9.933   5.297  68.358  1.00  0.00    -0.159 C  
HETATM   11  C   UNL     1     -10.804   7.248  67.165  1.00  0.00    -0.308 C  
HETATM   12  N   UNL     1     -10.931   6.365  68.328  1.00  0.00    -0.313 NA 
BRANCH   6  13
HETATM   13  C   UNL     1      -8.463  10.021  68.645  1.00  0.00    -0.118 A  
HETATM   14  C   UNL     1      -6.831  11.494  67.583  1.00  0.00    -0.083 A  
HETATM   15  C   UNL     1      -8.013  10.747  67.531  1.00  0.00    -0.110 A  
HETATM   16  C   UNL     1      -6.521  10.860  69.880  1.00  0.00    -0.144 A  
HETATM   17  C   UNL     1      -6.076  11.535  68.749  1.00  0.00    -0.049 A  
HETATM   18  C   UNL     1      -7.708  10.124  69.831  1.00  0.00    -0.171 A  
ENDBRANCH   6  13
ENDBRANCH   4   6
ENDBRANCH   3   4
ENDBRANCH   2   3
TORSDOF 4
ENDMDL
MODEL      147
REMARK 921   NORMALIZED FREE ENERGY PREDICTED BY IDOCK:   -2.82 KCAL/MOL
REMARK 922        TOTAL FREE ENERGY PREDICTED BY IDOCK:   -4.40 KCAL/MOL
REMARK 923 INTER-LIGAND FREE ENERGY PREDICTED BY IDOCK:   -4.11 KCAL/MOL
REMARK 924 INTRA-LIGAND FREE ENERGY PREDICTED BY IDOCK:   -0.28 KCAL/MOL
REMARK 927      BINDING AFFINITY PREDICTED BY RF-SCORE:    0.00 PKD
ROOT
HETATM    1  C   UNL     1      -8.841   5.332  66.205  1.00  0.00    -0.135 C  
HETATM    2  C   UNL     1      -9.394   5.522  67.611  1.00  0.00    -0.112 C  
ENDROOT
BRANCH   2   3
HETATM    3  O   UNL     1      -9.916   6.852  67.794  1.00  0.00    -0.138 OA 
BRANCH   3   4
HETATM    4  C   UNL     1      -9.199   7.621  68.661  1.00  0.00    -0.141 C  
HETATM    5  O   UNL     1      -7.978   7.533  68.787  1.00  0.00    -0.121 OA 
BRANCH   4   6
HETATM    6  C   UNL     1     -10.072   8.571  69.522  1.00  0.00    -0.200 C  
HETATM    7  C   UNL     1      -9.375   9.132  70.788  1.00  0.00    -0.325 C  
HETATM    8  C   UNL     1     -11.247   7.678  70.014  1.00  0.00    -0.146 C  
HETATM    9  C   UNL     1     -10.751   6.586  70.968  1.00  0.00    -0.243 C  
HETATM   10  C   UNL     1     -11.102   7.695  73.095  1.00  0.00    -0.317 C  
HETATM   11  C   UNL     1      -9.036   8.065  71.838  1.00  0.00    -0.156 C  
HETATM   12  N   UNL     1     -10.120   7.135  72.168  1.00  0.00    -0.180 NA 
BRANCH   6  13
HETATM   13  C   UNL     1     -10.516   9.751  68.625  1.00  0.00    -0.233 A  
HETATM   14  C   UNL     1     -10.410  11.043  66.556  1.00  0.00    -0.295 A  
HETATM   15  C   UNL     1     -10.062   9.915  67.306  1.00  0.00    -0.264 A  
HETATM   16  C   UNL     1     -11.720  11.872  68.391  1.00  0.00    -0.387 A  
HETATM   17  C   UNL     1     -11.221  12.029  67.103  1.00  0.00    -0.374 A  
HETATM   18  C   UNL     1     -11.381  10.740  69.137  1.00  0.00    -0.348 A  
ENDBRANCH   6  13
ENDBRANCH   4   6
ENDBRANCH   3   4
ENDBRANCH   2   3
TORSDOF 4
ENDMDL
MODEL      148
REMARK 921   NORMALIZED FREE ENERGY PREDICTED BY IDOCK:   -2.81 KCAL/MOL
REMARK 922        TOTAL FREE ENERGY PREDICTED BY IDOCK:   -4.39 KCAL/MOL
REMARK 923 INTER-LIGAND FREE ENERGY PREDICTED BY IDOCK:   -4.10 KCAL/MOL
REMARK 924 INTRA-LIGAND FREE ENERGY PREDICTED BY IDOCK:   -0.29 KCAL/MOL
REMARK 927      BINDING AFFINITY PREDICTED BY RF-SCORE:    0.00 PKD
ROOT
HETATM    1  C   UNL     1     -12.215   6.488  71.869  1.00  0.00    -0.373 C  
HETATM    2  C   UNL     1     -11.780   6.702  70.426  1.00  0.00    -0.386 C  
ENDROOT
BRANCH   2   3
HETATM    3  O   UNL     1     -10.532   7.417  70.355  1.00  0.00    -0.214 OA 
BRANCH   3   4
HETATM    4  C   UNL     1     -10.308   8.037  69.163  1.00  0.00    -0.220 C  
HETATM    5  O   UNL     1     -10.727   7.604  68.090  1.00  0.00    -0.165 OA 
BRANCH   4   6
HETATM    6  C   UNL     1      -9.421   9.305  69.275  1.00  0.00    -0.160 C  
HETATM    7  C   UNL     1      -8.431   9.516  68.102  1.00  0.00    -0.119 C  
HETATM    8  C   UNL     1      -8.563   9.067  70.550  1.00  0.00    -0.229 C  
HETATM    9  C   UNL     1      -7.595   7.895  70.355  1.00  0.00    -0.082 C  
HETATM   10  C   UNL     1      -5.622   9.096  69.621  1.00  0.00    -0.033 C  
HETATM   11  C   UNL     1      -7.339   8.442  68.005  1.00  0.00    -0.096 C  
HETATM   12  N   UNL     1      -6.652   8.123  69.260  1.00  0.00    -0.035 NA 
BRANCH   6  13
HETATM   13  C   UNL     1     -10.359  10.533  69.372  1.00  0.00    -0.258 A  
HETATM   14  C   UNL     1     -11.055  12.770  68.687  1.00  0.00    -0.304 A  
HETATM   15  C   UNL     1     -10.252  11.638  68.513  1.00  0.00    -0.216 A  
HETATM   16  C   UNL     1     -12.139  11.725  70.558  1.00  0.00    -0.439 A  
HETATM   17  C   UNL     1     -11.983  12.822  69.719  1.00  0.00    -0.362 A  
HETATM   18  C   UNL     1     -11.346  10.589  70.378  1.00  0.00    -0.411 A  
ENDBRANCH   6  13
ENDBRANCH   4   6
ENDBRANCH   3   4
ENDBRANCH   2   3
TORSDOF 4
ENDMDL
MODEL      149
REMARK 921   NORMALIZED FREE ENERGY PREDICTED BY IDOCK:   -2.79 KCAL/MOL
REMARK 922        TOTAL FREE ENERGY PREDICTED BY IDOCK:   -4.36 KCAL/MOL
REMARK 923 INTER-LIGAND FREE ENERGY PREDICTED BY IDOCK:   -4.23 KCAL/MOL
REMARK 924 INTRA-LIGAND FREE ENERGY PREDICTED BY IDOCK:   -0.14 KCAL/MOL
REMARK 927      BINDING AFFINITY PREDICTED BY RF-SCORE:    0.00 PKD
ROOT
HETATM    1  C   UNL     1     -12.851  11.076  71.559  1.00  0.00    -0.555 C  
HETATM    2  C   UNL     1     -12.366  10.653  70.179  1.00  0.00    -0.295 C  
ENDROOT
BRANCH   2   3
HETATM    3  O   UNL     1     -11.859   9.305  70.191  1.00  0.00    -0.075 OA 
BRANCH   3   4
HETATM    4  C   UNL     1     -10.872   9.069  69.283  1.00  0.00    -0.113 C  
HETATM    5  O   UNL     1     -10.681   9.780  68.297  1.00  0.00    -0.229 OA 
BRANCH   4   6
HETATM    6  C   UNL     1     -10.050   7.786  69.573  1.00  0.00    -0.194 C  
HETATM    7  C   UNL     1      -8.646   7.746  68.915  1.00  0.00    -0.132 C  
HETATM    8  C   UNL     1     -10.880   6.639  68.929  1.00  0.00    -0.326 C  
HETATM    9  C   UNL     1     -10.921   6.775  67.403  1.00  0.00    -0.337 C  
HETATM   10  C   UNL     1      -9.055   5.349  66.804  1.00  0.00    -0.116 C  
HETATM   11  C   UNL     1      -8.677   7.696  67.381  1.00  0.00    -0.124 C  
HETATM   12  N   UNL     1      -9.591   6.709  66.799  1.00  0.00    -0.162 NA 
BRANCH   6  13
HETATM   13  C   UNL     1      -9.892   7.660  71.107  1.00  0.00    -0.184 A  
HETATM   14  C   UNL     1      -8.846   8.283  73.224  1.00  0.00    -0.283 A  
HETATM   15  C   UNL     1      -9.035   8.486  71.852  1.00  0.00    -0.301 A  
HETATM   16  C   UNL     1     -10.399   6.451  73.176  1.00  0.00    -0.245 A  
HETATM   17  C   UNL     1      -9.512   7.256  73.881  1.00  0.00    -0.316 A  
HETATM   18  C   UNL     1     -10.596   6.660  71.809  1.00  0.00    -0.242 A  
ENDBRANCH   6  13
ENDBRANCH   4   6
ENDBRANCH   3   4
ENDBRANCH   2   3
TORSDOF 4
ENDMDL
MODEL      150
REMARK 921   NORMALIZED FREE ENERGY PREDICTED BY IDOCK:   -2.75 KCAL/MOL
REMARK 922        TOTAL FREE ENERGY PREDICTED BY IDOCK:   -4.32 KCAL/MOL
REMARK 923 INTER-LIGAND FREE ENERGY PREDICTED BY IDOCK:   -4.00 KCAL/MOL
REMARK 924 INTRA-LIGAND FREE ENERGY PREDICTED BY IDOCK:   -0.32 KCAL/MOL
REMARK 927      BINDING AFFINITY PREDICTED BY RF-SCORE:    0.00 PKD
ROOT
HETATM    1  C   UNL     1      -7.855   6.585  67.906  1.00  0.00    -0.108 C  
HETATM    2  C   UNL     1      -8.941   7.455  68.525  1.00  0.00    -0.128 C  
ENDROOT
BRANCH   2   3
HETATM    3  O   UNL     1      -8.905   8.794  67.995  1.00  0.00    -0.139 OA 
BRANCH   3   4
HETATM    4  C   UNL     1      -9.728   8.997  66.928  1.00  0.00    -0.200 C  
HETATM    5  O   UNL     1     -10.634   8.223  66.621  1.00  0.00    -0.268 OA 
BRANCH   4   6
HETATM    6  C   UNL     1      -9.378  10.260  66.100  1.00  0.00    -0.211 C  
HETATM    7  C   UNL     1      -9.515  10.095  64.565  1.00  0.00    -0.364 C  
HETATM    8  C   UNL     1      -7.871  10.511  66.393  1.00  0.00    -0.138 C  
HETATM    9  C   UNL     1      -7.002   9.384  65.825  1.00  0.00    -0.090 C  
HETATM   10  C   UNL     1      -6.430  10.338  63.671  1.00  0.00    -0.095 C  
HETATM   11  C   UNL     1      -8.520   9.097  63.954  1.00  0.00    -0.180 C  
HETATM   12  N   UNL     1      -7.125   9.259  64.373  1.00  0.00    -0.092 NA 
BRANCH   6  13
HETATM   13  C   UNL     1     -10.306  11.407  66.568  1.00  0.00    -0.277 A  
HETATM   14  C   UNL     1     -11.241  12.852  68.300  1.00  0.00    -0.304 A  
HETATM   15  C   UNL     1     -10.324  11.877  67.891  1.00  0.00    -0.212 A  
HETATM   16  C   UNL     1     -12.130  12.965  66.072  1.00  0.00    -0.484 A  
HETATM   17  C   UNL     1     -12.155  13.381  67.398  1.00  0.00    -0.338 A  
HETATM   18  C   UNL     1     -11.208  12.000  65.660  1.00  0.00    -0.377 A  
ENDBRANCH   6  13
ENDBRANCH   4   6
ENDBRANCH   3   4
ENDBRANCH   2   3
TORSDOF 4
ENDMDL
MODEL      151
REMARK 921   NORMALIZED FREE ENERGY PREDICTED BY IDOCK:   -2.75 KCAL/MOL
REMARK 922        TOTAL FREE ENERGY PREDICTED BY IDOCK:   -4.32 KCAL/MOL
REMARK 923 INTER-LIGAND FREE ENERGY PREDICTED BY IDOCK:   -4.17 KCAL/MOL
REMARK 924 INTRA-LIGAND FREE ENERGY PREDICTED BY IDOCK:   -0.15 KCAL/MOL
REMARK 927      BINDING AFFINITY PREDICTED BY RF-SCORE:    0.00 PKD
ROOT
HETATM    1  C   UNL     1      -5.624  15.525  69.976  1.00  0.00    -0.135 C  
HETATM    2  C   UNL     1      -5.577  16.049  68.547  1.00  0.00    -0.103 C  
ENDROOT
BRANCH   2   3
HETATM    3  O   UNL     1      -6.536  15.376  67.710  1.00  0.00    -0.129 OA 
BRANCH   3   4
HETATM    4  C   UNL     1      -7.248  16.204  66.895  1.00  0.00    -0.205 C  
HETATM    5  O   UNL     1      -6.731  16.889  66.014  1.00  0.00    -0.077 OA 
BRANCH   4   6
HETATM    6  C   UNL     1      -8.763  16.253  67.225  1.00  0.00    -0.200 C  
HETATM    7  C   UNL     1      -9.156  15.629  68.589  1.00  0.00    -0.205 C  
HETATM    8  C   UNL     1      -9.428  15.379  66.123  1.00  0.00    -0.371 C  
HETATM    9  C   UNL     1      -9.016  13.909  66.258  1.00  0.00     0.112 C  
HETATM   10  C   UNL     1     -10.857  13.079  67.599  1.00  0.00    -0.239 C  
HETATM   11  C   UNL     1      -8.918  14.115  68.674  1.00  0.00    -0.132 C  
HETATM   12  N   UNL     1      -9.418  13.331  67.540  1.00  0.00    -0.212 NA 
BRANCH   6  13
HETATM   13  C   UNL     1      -9.207  17.735  67.202  1.00  0.00    -0.253 A  
HETATM   14  C   UNL     1      -9.100  20.029  68.031  1.00  0.00    -0.348 A  
HETATM   15  C   UNL     1      -8.613  18.718  68.009  1.00  0.00    -0.324 A  
HETATM   16  C   UNL     1     -10.768  19.446  66.403  1.00  0.00    -0.509 A  
HETATM   17  C   UNL     1     -10.188  20.388  67.244  1.00  0.00    -0.432 A  
HETATM   18  C   UNL     1     -10.274  18.139  66.373  1.00  0.00    -0.405 A  
ENDBRANCH   6  13
ENDBRANCH   4   6
ENDBRANCH   3   4
ENDBRANCH   2   3
TORSDOF 4
ENDMDL
MODEL      152
REMARK 921   NORMALIZED FREE ENERGY PREDICTED BY IDOCK:   -2.75 KCAL/MOL
REMARK 922        TOTAL FREE ENERGY PREDICTED BY IDOCK:   -4.31 KCAL/MOL
REMARK 923 INTER-LIGAND FREE ENERGY PREDICTED BY IDOCK:   -3.82 KCAL/MOL
REMARK 924 INTRA-LIGAND FREE ENERGY PREDICTED BY IDOCK:   -0.50 KCAL/MOL
REMARK 927      BINDING AFFINITY PREDICTED BY RF-SCORE:    0.00 PKD
ROOT
HETATM    1  C   UNL     1      -6.419   7.819  67.782  1.00  0.00    -0.052 C  
HETATM    2  C   UNL     1      -6.894   8.092  69.202  1.00  0.00    -0.055 C  
ENDROOT
BRANCH   2   3
HETATM    3  O   UNL     1      -7.704   7.011  69.702  1.00  0.00    -0.105 OA 
BRANCH   3   4
HETATM    4  C   UNL     1      -9.043   7.179  69.510  1.00  0.00    -0.146 C  
HETATM    5  O   UNL     1      -9.599   8.275  69.573  1.00  0.00    -0.168 OA 
BRANCH   4   6
HETATM    6  C   UNL     1      -9.810   5.854  69.269  1.00  0.00    -0.205 C  
HETATM    7  C   UNL     1      -8.987   4.738  68.574  1.00  0.00    -0.137 C  
HETATM    8  C   UNL     1     -10.956   6.241  68.290  1.00  0.00    -0.408 C  
HETATM    9  C   UNL     1     -10.400   6.658  66.924  1.00  0.00    -0.254 C  
HETATM   10  C   UNL     1     -10.528   4.540  65.754  1.00  0.00    -0.233 C  
HETATM   11  C   UNL     1      -8.578   5.070  67.133  1.00  0.00    -0.104 C  
HETATM   12  N   UNL     1      -9.648   5.585  66.274  1.00  0.00    -0.156 NA 
BRANCH   6  13
HETATM   13  C   UNL     1     -10.307   5.335  70.640  1.00  0.00    -0.324 A  
HETATM   14  C   UNL     1     -11.534   5.613  72.732  1.00  0.00    -0.328 A  
HETATM   15  C   UNL     1     -11.179   6.070  71.459  1.00  0.00    -0.326 A  
HETATM   16  C   UNL     1     -10.198   3.643  72.407  1.00  0.00    -0.215 A  
HETATM   17  C   UNL     1     -11.030   4.411  73.214  1.00  0.00    -0.358 A  
HETATM   18  C   UNL     1      -9.852   4.094  71.131  1.00  0.00    -0.244 A  
ENDBRANCH   6  13
ENDBRANCH   4   6
ENDBRANCH   3   4
ENDBRANCH   2   3
TORSDOF 4
ENDMDL
MODEL      153
REMARK 921   NORMALIZED FREE ENERGY PREDICTED BY IDOCK:   -2.74 KCAL/MOL
REMARK 922        TOTAL FREE ENERGY PREDICTED BY IDOCK:   -4.30 KCAL/MOL
REMARK 923 INTER-LIGAND FREE ENERGY PREDICTED BY IDOCK:   -3.73 KCAL/MOL
REMARK 924 INTRA-LIGAND FREE ENERGY PREDICTED BY IDOCK:   -0.57 KCAL/MOL
REMARK 927      BINDING AFFINITY PREDICTED BY RF-SCORE:    0.00 PKD
ROOT
HETATM    1  C   UNL     1      -7.751   7.640  73.910  1.00  0.00    -0.177 C  
HETATM    2  C   UNL     1      -6.776   8.458  73.075  1.00  0.00    -0.085 C  
ENDROOT
BRANCH   2   3
HETATM    3  O   UNL     1      -6.796   8.048  71.694  1.00  0.00    -0.050 OA 
BRANCH   3   4
HETATM    4  C   UNL     1      -7.325   8.971  70.843  1.00  0.00    -0.111 C  
HETATM    5  O   UNL     1      -6.946  10.141  70.799  1.00  0.00    -0.329 OA 
BRANCH   4   6
HETATM    6  C   UNL     1      -8.494   8.427  69.981  1.00  0.00    -0.125 C  
HETATM    7  C   UNL     1      -8.392   6.924  69.615  1.00  0.00    -0.133 C  
HETATM    8  C   UNL     1      -8.395   9.221  68.647  1.00  0.00    -0.118 C  
HETATM    9  C   UNL     1      -7.113   8.868  67.886  1.00  0.00    -0.079 C  
HETATM   10  C   UNL     1      -7.956   7.123  66.431  1.00  0.00    -0.112 C  
HETATM   11  C   UNL     1      -7.209   6.584  68.698  1.00  0.00    -0.085 C  
HETATM   12  N   UNL     1      -7.047   7.452  67.528  1.00  0.00    -0.086 NA 
BRANCH   6  13
HETATM   13  C   UNL     1      -9.810   8.669  70.758  1.00  0.00    -0.236 A  
HETATM   14  C   UNL     1     -11.540   7.973  72.335  1.00  0.00    -0.450 A  
HETATM   15  C   UNL     1     -10.301   7.770  71.718  1.00  0.00    -0.243 A  
HETATM   16  C   UNL     1     -11.833  10.009  71.093  1.00  0.00    -0.481 A  
HETATM   17  C   UNL     1     -12.314   9.080  72.009  1.00  0.00    -0.455 A  
HETATM   18  C   UNL     1     -10.591   9.812  70.486  1.00  0.00    -0.376 A  
ENDBRANCH   6  13
ENDBRANCH   4   6
ENDBRANCH   3   4
ENDBRANCH   2   3
TORSDOF 4
ENDMDL
MODEL      154
REMARK 921   NORMALIZED FREE ENERGY PREDICTED BY IDOCK:   -2.73 KCAL/MOL
REMARK 922        TOTAL FREE ENERGY PREDICTED BY IDOCK:   -4.29 KCAL/MOL
REMARK 923 INTER-LIGAND FREE ENERGY PREDICTED BY IDOCK:   -3.89 KCAL/MOL
REMARK 924 INTRA-LIGAND FREE ENERGY PREDICTED BY IDOCK:   -0.40 KCAL/MOL
REMARK 927      BINDING AFFINITY PREDICTED BY RF-SCORE:    0.00 PKD
ROOT
HETATM    1  C   UNL     1      -7.862   6.796  64.752  1.00  0.00    -0.119 C  
HETATM    2  C   UNL     1      -8.390   8.075  65.388  1.00  0.00    -0.153 C  
ENDROOT
BRANCH   2   3
HETATM    3  O   UNL     1      -8.617   7.903  66.801  1.00  0.00    -0.124 OA 
BRANCH   3   4
HETATM    4  C   UNL     1      -9.861   8.272  67.217  1.00  0.00    -0.197 C  
HETATM    5  O   UNL     1     -10.895   7.798  66.749  1.00  0.00    -0.254 OA 
BRANCH   4   6
HETATM    6  C   UNL     1      -9.853   9.392  68.290  1.00  0.00    -0.180 C  
HETATM    7  C   UNL     1      -8.493   9.603  69.005  1.00  0.00    -0.131 C  
HETATM    8  C   UNL     1     -10.857   8.901  69.371  1.00  0.00    -0.133 C  
HETATM    9  C   UNL     1     -10.341   7.642  70.076  1.00  0.00    -0.223 C  
HETATM   10  C   UNL     1      -9.244   8.650  71.988  1.00  0.00    -0.268 C  
HETATM   11  C   UNL     1      -8.050   8.413  69.866  1.00  0.00    -0.119 C  
HETATM   12  N   UNL     1      -9.070   7.867  70.765  1.00  0.00    -0.151 NA 
BRANCH   6  13
HETATM   13  C   UNL     1     -10.271  10.713  67.601  1.00  0.00    -0.229 A  
HETATM   14  C   UNL     1     -11.782  12.609  67.315  1.00  0.00    -0.435 A  
HETATM   15  C   UNL     1     -11.378  11.469  68.018  1.00  0.00    -0.368 A  
HETATM   16  C   UNL     1      -9.963  12.316  65.774  1.00  0.00    -0.273 A  
HETATM   17  C   UNL     1     -11.088  13.021  66.184  1.00  0.00    -0.311 A  
HETATM   18  C   UNL     1      -9.552  11.184  66.483  1.00  0.00    -0.222 A  
ENDBRANCH   6  13
ENDBRANCH   4   6
ENDBRANCH   3   4
ENDBRANCH   2   3
TORSDOF 4
ENDMDL
MODEL      155
REMARK 921   NORMALIZED FREE ENERGY PREDICTED BY IDOCK:   -2.72 KCAL/MOL
REMARK 922        TOTAL FREE ENERGY PREDICTED BY IDOCK:   -4.27 KCAL/MOL
REMARK 923 INTER-LIGAND FREE ENERGY PREDICTED BY IDOCK:   -4.06 KCAL/MOL
REMARK 924 INTRA-LIGAND FREE ENERGY PREDICTED BY IDOCK:   -0.21 KCAL/MOL
REMARK 927      BINDING AFFINITY PREDICTED BY RF-SCORE:    0.00 PKD
ROOT
HETATM    1  C   UNL     1      -6.664   7.901  73.927  1.00  0.00    -0.121 C  
HETATM    2  C   UNL     1      -7.103   8.205  72.501  1.00  0.00    -0.099 C  
ENDROOT
BRANCH   2   3
HETATM    3  O   UNL     1      -8.459   7.779  72.268  1.00  0.00    -0.112 OA 
BRANCH   3   4
HETATM    4  C   UNL     1      -8.797   7.680  70.952  1.00  0.00    -0.146 C  
HETATM    5  O   UNL     1      -8.159   7.008  70.142  1.00  0.00    -0.125 OA 
BRANCH   4   6
HETATM    6  C   UNL     1     -10.022   8.544  70.555  1.00  0.00    -0.214 C  
HETATM    7  C   UNL     1     -10.852   9.089  71.746  1.00  0.00    -0.437 C  
HETATM    8  C   UNL     1     -10.947   7.569  69.772  1.00  0.00    -0.195 C  
HETATM    9  C   UNL     1     -11.491   6.466  70.687  1.00  0.00    -0.362 C  
HETATM   10  C   UNL     1     -13.601   7.463  71.339  1.00  0.00    -0.325 C  
HETATM   11  C   UNL     1     -11.554   7.999  72.567  1.00  0.00    -0.403 C  
HETATM   12  N   UNL     1     -12.291   6.998  71.790  1.00  0.00    -0.343 NA 
BRANCH   6  13
HETATM   13  C   UNL     1      -9.510   9.735  69.710  1.00  0.00    -0.253 A  
HETATM   14  C   UNL     1      -7.737  11.228  68.943  1.00  0.00    -0.125 A  
HETATM   15  C   UNL     1      -8.153  10.090  69.642  1.00  0.00    -0.180 A  
HETATM   16  C   UNL     1     -10.008  11.681  68.308  1.00  0.00    -0.201 A  
HETATM   17  C   UNL     1      -8.664  12.034  68.294  1.00  0.00    -0.178 A  
HETATM   18  C   UNL     1     -10.424  10.539  68.997  1.00  0.00    -0.238 A  
ENDBRANCH   6  13
ENDBRANCH   4   6
ENDBRANCH   3   4
ENDBRANCH   2   3
TORSDOF 4
ENDMDL
MODEL      156
REMARK 921   NORMALIZED FREE ENERGY PREDICTED BY IDOCK:   -2.70 KCAL/MOL
REMARK 922        TOTAL FREE ENERGY PREDICTED BY IDOCK:   -4.25 KCAL/MOL
REMARK 923 INTER-LIGAND FREE ENERGY PREDICTED BY IDOCK:   -3.62 KCAL/MOL
REMARK 924 INTRA-LIGAND FREE ENERGY PREDICTED BY IDOCK:   -0.63 KCAL/MOL
REMARK 927      BINDING AFFINITY PREDICTED BY RF-SCORE:    0.00 PKD
ROOT
HETATM    1  C   UNL     1      -8.863   8.893  65.428  1.00  0.00    -0.234 C  
HETATM    2  C   UNL     1      -8.627  10.321  64.957  1.00  0.00    -0.180 C  
ENDROOT
BRANCH   2   3
HETATM    3  O   UNL     1      -8.491  11.225  66.071  1.00  0.00    -0.167 OA 
BRANCH   3   4
HETATM    4  C   UNL     1      -9.670  11.723  66.535  1.00  0.00    -0.206 C  
HETATM    5  O   UNL     1     -10.655  11.898  65.819  1.00  0.00    -0.250 OA 
BRANCH   4   6
HETATM    6  C   UNL     1      -9.637  12.109  68.037  1.00  0.00    -0.204 C  
HETATM    7  C   UNL     1      -8.506  11.438  68.859  1.00  0.00    -0.028 C  
HETATM    8  C   UNL     1     -10.982  11.574  68.606  1.00  0.00    -0.270 C  
HETATM    9  C   UNL     1     -11.031  10.043  68.567  1.00  0.00    -0.209 C  
HETATM   10  C   UNL     1     -10.237   9.542  70.802  1.00  0.00    -0.293 C  
HETATM   11  C   UNL     1      -8.644   9.915  68.983  1.00  0.00    -0.149 C  
HETATM   12  N   UNL     1      -9.972   9.429  69.369  1.00  0.00    -0.175 NA 
BRANCH   6  13
HETATM   13  C   UNL     1      -9.484  13.646  68.129  1.00  0.00    -0.217 A  
HETATM   14  C   UNL     1      -8.214  15.708  67.817  1.00  0.00    -0.155 A  
HETATM   15  C   UNL     1      -8.362  14.329  67.634  1.00  0.00    -0.187 A  
HETATM   16  C   UNL     1     -10.326  15.792  68.957  1.00  0.00    -0.223 A  
HETATM   17  C   UNL     1      -9.185  16.436  68.494  1.00  0.00    -0.226 A  
HETATM   18  C   UNL     1     -10.480  14.417  68.765  1.00  0.00    -0.244 A  
ENDBRANCH   6  13
ENDBRANCH   4   6
ENDBRANCH   3   4
ENDBRANCH   2   3
TORSDOF 4
ENDMDL
MODEL      157
REMARK 921   NORMALIZED FREE ENERGY PREDICTED BY IDOCK:   -2.70 KCAL/MOL
REMARK 922        TOTAL FREE ENERGY PREDICTED BY IDOCK:   -4.25 KCAL/MOL
REMARK 923 INTER-LIGAND FREE ENERGY PREDICTED BY IDOCK:   -3.91 KCAL/MOL
REMARK 924 INTRA-LIGAND FREE ENERGY PREDICTED BY IDOCK:   -0.34 KCAL/MOL
REMARK 927      BINDING AFFINITY PREDICTED BY RF-SCORE:    0.00 PKD
ROOT
HETATM    1  C   UNL     1      -5.942   7.696  65.999  1.00  0.00    -0.038 C  
HETATM    2  C   UNL     1      -6.241   9.048  65.366  1.00  0.00    -0.063 C  
ENDROOT
BRANCH   2   3
HETATM    3  O   UNL     1      -7.361   9.690  66.006  1.00  0.00    -0.095 OA 
BRANCH   3   4
HETATM    4  C   UNL     1      -8.561   9.088  65.773  1.00  0.00    -0.160 C  
HETATM    5  O   UNL     1      -8.839   8.533  64.711  1.00  0.00    -0.090 OA 
BRANCH   4   6
HETATM    6  C   UNL     1      -9.565   9.223  66.947  1.00  0.00    -0.229 C  
HETATM    7  C   UNL     1      -8.920   9.291  68.355  1.00  0.00    -0.129 C  
HETATM    8  C   UNL     1     -10.399   7.911  66.897  1.00  0.00    -0.400 C  
HETATM    9  C   UNL     1      -9.531   6.691  67.226  1.00  0.00    -0.133 C  
HETATM   10  C   UNL     1      -9.949   6.507  69.606  1.00  0.00    -0.164 C  
HETATM   11  C   UNL     1      -8.200   8.002  68.774  1.00  0.00    -0.126 C  
HETATM   12  N   UNL     1      -8.952   6.761  68.567  1.00  0.00    -0.122 NA 
BRANCH   6  13
HETATM   13  C   UNL     1     -10.400  10.505  66.712  1.00  0.00    -0.301 A  
HETATM   14  C   UNL     1     -11.102  12.398  65.340  1.00  0.00    -0.344 A  
HETATM   15  C   UNL     1     -10.409  11.192  65.488  1.00  0.00    -0.326 A  
HETATM   16  C   UNL     1     -11.849  12.260  67.619  1.00  0.00    -0.334 A  
HETATM   17  C   UNL     1     -11.805  12.941  66.408  1.00  0.00    -0.478 A  
HETATM   18  C   UNL     1     -11.166  11.050  67.764  1.00  0.00    -0.374 A  
ENDBRANCH   6  13
ENDBRANCH   4   6
ENDBRANCH   3   4
ENDBRANCH   2   3
TORSDOF 4
ENDMDL
MODEL      158
REMARK 921   NORMALIZED FREE ENERGY PREDICTED BY IDOCK:   -2.67 KCAL/MOL
REMARK 922        TOTAL FREE ENERGY PREDICTED BY IDOCK:   -4.21 KCAL/MOL
REMARK 923 INTER-LIGAND FREE ENERGY PREDICTED BY IDOCK:   -3.95 KCAL/MOL
REMARK 924 INTRA-LIGAND FREE ENERGY PREDICTED BY IDOCK:   -0.26 KCAL/MOL
REMARK 927      BINDING AFFINITY PREDICTED BY RF-SCORE:    0.00 PKD
ROOT
HETATM    1  C   UNL     1      -7.849   9.263  64.730  1.00  0.00    -0.118 C  
HETATM    2  C   UNL     1      -8.055  10.190  65.920  1.00  0.00    -0.136 C  
ENDROOT
BRANCH   2   3
HETATM    3  O   UNL     1      -9.171   9.768  66.727  1.00  0.00    -0.144 OA 
BRANCH   3   4
HETATM    4  C   UNL     1      -8.824   9.275  67.949  1.00  0.00    -0.124 C  
HETATM    5  O   UNL     1      -7.761   9.546  68.506  1.00  0.00    -0.081 OA 
BRANCH   4   6
HETATM    6  C   UNL     1      -9.864   8.290  68.543  1.00  0.00    -0.188 C  
HETATM    7  C   UNL     1      -9.266   7.154  69.413  1.00  0.00    -0.148 C  
HETATM    8  C   UNL     1     -10.511   7.612  67.302  1.00  0.00    -0.396 C  
HETATM    9  C   UNL     1      -9.493   6.745  66.552  1.00  0.00    -0.150 C  
HETATM   10  C   UNL     1      -9.937   4.594  67.578  1.00  0.00    -0.121 C  
HETATM   11  C   UNL     1      -8.388   6.167  68.633  1.00  0.00    -0.114 C  
HETATM   12  N   UNL     1      -8.960   5.664  67.381  1.00  0.00    -0.109 NA 
BRANCH   6  13
HETATM   13  C   UNL     1     -10.860   9.110  69.398  1.00  0.00    -0.165 A  
HETATM   14  C   UNL     1     -12.155  11.129  69.854  1.00  0.00    -0.418 A  
HETATM   15  C   UNL     1     -11.328  10.376  69.013  1.00  0.00    -0.279 A  
HETATM   16  C   UNL     1     -12.122   9.364  71.483  1.00  0.00    -0.456 A  
HETATM   17  C   UNL     1     -12.536  10.633  71.095  1.00  0.00    -0.523 A  
HETATM   18  C   UNL     1     -11.305   8.607  70.639  1.00  0.00    -0.277 A  
ENDBRANCH   6  13
ENDBRANCH   4   6
ENDBRANCH   3   4
ENDBRANCH   2   3
TORSDOF 4
ENDMDL
MODEL      159
REMARK 921   NORMALIZED FREE ENERGY PREDICTED BY IDOCK:   -2.64 KCAL/MOL
REMARK 922        TOTAL FREE ENERGY PREDICTED BY IDOCK:   -4.18 KCAL/MOL
REMARK 923 INTER-LIGAND FREE ENERGY PREDICTED BY IDOCK:   -3.90 KCAL/MOL
REMARK 924 INTRA-LIGAND FREE ENERGY PREDICTED BY IDOCK:   -0.29 KCAL/MOL
REMARK 927      BINDING AFFINITY PREDICTED BY RF-SCORE:    0.00 PKD
ROOT
HETATM    1  C   UNL     1      -9.315   4.566  65.717  1.00  0.00    -0.162 C  
HETATM    2  C   UNL     1      -9.291   6.036  66.114  1.00  0.00    -0.118 C  
ENDROOT
BRANCH   2   3
HETATM    3  O   UNL     1      -9.199   6.192  67.543  1.00  0.00    -0.114 OA 
BRANCH   3   4
HETATM    4  C   UNL     1     -10.353   6.609  68.136  1.00  0.00    -0.190 C  
HETATM    5  O   UNL     1     -11.470   6.354  67.688  1.00  0.00    -0.142 OA 
BRANCH   4   6
HETATM    6  C   UNL     1     -10.126   7.488  69.393  1.00  0.00    -0.190 C  
HETATM    7  C   UNL     1      -8.657   7.559  69.885  1.00  0.00    -0.139 C  
HETATM    8  C   UNL     1     -10.941   6.781  70.514  1.00  0.00    -0.327 C  
HETATM    9  C   UNL     1     -10.347   5.409  70.849  1.00  0.00    -0.242 C  
HETATM   10  C   UNL     1      -8.906   6.016  72.701  1.00  0.00    -0.124 C  
HETATM   11  C   UNL     1      -8.105   6.221  70.398  1.00  0.00    -0.116 C  
HETATM   12  N   UNL     1      -8.970   5.498  71.335  1.00  0.00    -0.138 NA 
BRANCH   6  13
HETATM   13  C   UNL     1     -10.618   8.919  69.068  1.00  0.00    -0.203 A  
HETATM   14  C   UNL     1     -11.824  10.964  69.639  1.00  0.00    -0.416 A  
HETATM   15  C   UNL     1     -11.313   9.712  69.996  1.00  0.00    -0.239 A  
HETATM   16  C   UNL     1     -10.929  10.708  67.424  1.00  0.00    -0.361 A  
HETATM   17  C   UNL     1     -11.650  11.453  68.350  1.00  0.00    -0.385 A  
HETATM   18  C   UNL     1     -10.409   9.462  67.784  1.00  0.00    -0.291 A  
ENDBRANCH   6  13
ENDBRANCH   4   6
ENDBRANCH   3   4
ENDBRANCH   2   3
TORSDOF 4
ENDMDL
MODEL      160
REMARK 921   NORMALIZED FREE ENERGY PREDICTED BY IDOCK:   -2.64 KCAL/MOL
REMARK 922        TOTAL FREE ENERGY PREDICTED BY IDOCK:   -4.17 KCAL/MOL
REMARK 923 INTER-LIGAND FREE ENERGY PREDICTED BY IDOCK:   -3.88 KCAL/MOL
REMARK 924 INTRA-LIGAND FREE ENERGY PREDICTED BY IDOCK:   -0.29 KCAL/MOL
REMARK 927      BINDING AFFINITY PREDICTED BY RF-SCORE:    0.00 PKD
ROOT
HETATM    1  C   UNL     1      -6.070  20.007  71.468  1.00  0.00    -0.234 C  
HETATM    2  C   UNL     1      -5.744  19.085  70.300  1.00  0.00    -0.235 C  
ENDROOT
BRANCH   2   3
HETATM    3  O   UNL     1      -6.111  19.683  69.042  1.00  0.00    -0.244 OA 
BRANCH   3   4
HETATM    4  C   UNL     1      -7.252  19.179  68.494  1.00  0.00    -0.306 C  
HETATM    5  O   UNL     1      -8.376  19.445  68.916  1.00  0.00    -0.368 OA 
BRANCH   4   6
HETATM    6  C   UNL     1      -6.999  18.188  67.328  1.00  0.00    -0.207 C  
HETATM    7  C   UNL     1      -5.547  18.177  66.782  1.00  0.00    -0.169 C  
HETATM    8  C   UNL     1      -7.908  18.703  66.176  1.00  0.00    -0.246 C  
HETATM    9  C   UNL     1      -7.440  20.073  65.671  1.00  0.00    -0.257 C  
HETATM   10  C   UNL     1      -6.021  19.381  63.832  1.00  0.00    -0.111 C  
HETATM   11  C   UNL     1      -5.125  19.490  66.107  1.00  0.00    -0.156 C  
HETATM   12  N   UNL     1      -6.079  20.037  65.137  1.00  0.00    -0.219 NA 
BRANCH   6  13
HETATM   13  C   UNL     1      -7.361  16.767  67.824  1.00  0.00    -0.165 A  
HETATM   14  C   UNL     1      -7.149  14.918  69.403  1.00  0.00    -0.175 A  
HETATM   15  C   UNL     1      -6.876  16.238  69.030  1.00  0.00    -0.182 A  
HETATM   16  C   UNL     1      -8.443  14.610  67.403  1.00  0.00    -0.219 A  
HETATM   17  C   UNL     1      -7.915  14.099  68.583  1.00  0.00    -0.132 A  
HETATM   18  C   UNL     1      -8.180  15.933  67.036  1.00  0.00    -0.255 A  
ENDBRANCH   6  13
ENDBRANCH   4   6
ENDBRANCH   3   4
ENDBRANCH   2   3
TORSDOF 4
ENDMDL
MODEL      161
REMARK 921   NORMALIZED FREE ENERGY PREDICTED BY IDOCK:   -2.59 KCAL/MOL
REMARK 922        TOTAL FREE ENERGY PREDICTED BY IDOCK:   -4.12 KCAL/MOL
REMARK 923 INTER-LIGAND FREE ENERGY PREDICTED BY IDOCK:   -3.36 KCAL/MOL
REMARK 924 INTRA-LIGAND FREE ENERGY PREDICTED BY IDOCK:   -0.75 KCAL/MOL
REMARK 927      BINDING AFFINITY PREDICTED BY RF-SCORE:    0.00 PKD
ROOT
HETATM    1  C   UNL     1     -10.726   7.059  73.448  1.00  0.00    -0.379 C  
HETATM    2  C   UNL     1     -11.772   7.494  72.430  1.00  0.00    -0.290 C  
ENDROOT
BRANCH   2   3
HETATM    3  O   UNL     1     -11.158   7.993  71.227  1.00  0.00    -0.239 OA 
BRANCH   3   4
HETATM    4  C   UNL     1     -10.807   7.026  70.334  1.00  0.00    -0.254 C  
HETATM    5  O   UNL     1     -11.509   6.044  70.096  1.00  0.00    -0.356 OA 
BRANCH   4   6
HETATM    6  C   UNL     1      -9.413   7.245  69.692  1.00  0.00    -0.155 C  
HETATM    7  C   UNL     1      -9.126   8.697  69.229  1.00  0.00    -0.149 C  
HETATM    8  C   UNL     1      -9.431   6.361  68.412  1.00  0.00    -0.119 C  
HETATM    9  C   UNL     1     -10.449   6.884  67.392  1.00  0.00    -0.269 C  
HETATM   10  C   UNL     1      -9.005   8.282  66.038  1.00  0.00    -0.181 C  
HETATM   11  C   UNL     1     -10.023   9.172  68.077  1.00  0.00    -0.178 C  
HETATM   12  N   UNL     1     -10.148   8.245  66.949  1.00  0.00    -0.270 NA 
BRANCH   6  13
HETATM   13  C   UNL     1      -8.341   6.826  70.727  1.00  0.00    -0.128 A  
HETATM   14  C   UNL     1      -7.222   5.156  72.113  1.00  0.00    -0.086 A  
HETATM   15  C   UNL     1      -8.134   5.490  71.107  1.00  0.00    -0.112 A  
HETATM   16  C   UNL     1      -6.647   7.474  72.374  1.00  0.00    -0.055 A  
HETATM   17  C   UNL     1      -6.493   6.147  72.759  1.00  0.00    -0.064 A  
HETATM   18  C   UNL     1      -7.551   7.807  71.361  1.00  0.00    -0.081 A  
ENDBRANCH   6  13
ENDBRANCH   4   6
ENDBRANCH   3   4
ENDBRANCH   2   3
TORSDOF 4
ENDMDL
MODEL      162
REMARK 921   NORMALIZED FREE ENERGY PREDICTED BY IDOCK:   -2.59 KCAL/MOL
REMARK 922        TOTAL FREE ENERGY PREDICTED BY IDOCK:   -4.11 KCAL/MOL
REMARK 923 INTER-LIGAND FREE ENERGY PREDICTED BY IDOCK:   -3.73 KCAL/MOL
REMARK 924 INTRA-LIGAND FREE ENERGY PREDICTED BY IDOCK:   -0.38 KCAL/MOL
REMARK 927      BINDING AFFINITY PREDICTED BY RF-SCORE:    0.00 PKD
ROOT
HETATM    1  C   UNL     1      -9.495   2.168  68.672  1.00  0.00    -0.201 C  
HETATM    2  C   UNL     1      -8.943   3.428  69.324  1.00  0.00    -0.117 C  
ENDROOT
BRANCH   2   3
HETATM    3  O   UNL     1     -10.003   4.318  69.725  1.00  0.00    -0.222 OA 
BRANCH   3   4
HETATM    4  C   UNL     1      -9.646   5.219  70.682  1.00  0.00    -0.176 C  
HETATM    5  O   UNL     1      -9.147   4.895  71.759  1.00  0.00    -0.136 OA 
BRANCH   4   6
HETATM    6  C   UNL     1      -9.984   6.687  70.314  1.00  0.00    -0.191 C  
HETATM    7  C   UNL     1      -9.482   7.748  71.328  1.00  0.00    -0.173 C  
HETATM    8  C   UNL     1     -11.538   6.745  70.337  1.00  0.00    -0.422 C  
HETATM    9  C   UNL     1     -12.079   6.533  71.756  1.00  0.00    -0.342 C  
HETATM   10  C   UNL     1     -12.286   8.837  72.476  1.00  0.00    -0.287 C  
HETATM   11  C   UNL     1     -10.153   7.661  72.705  1.00  0.00    -0.254 C  
HETATM   12  N   UNL     1     -11.615   7.557  72.691  1.00  0.00    -0.307 NA 
BRANCH   6  13
HETATM   13  C   UNL     1      -9.367   6.984  68.926  1.00  0.00    -0.139 A  
HETATM   14  C   UNL     1      -9.548   7.309  66.513  1.00  0.00    -0.211 A  
HETATM   15  C   UNL     1     -10.144   7.134  67.766  1.00  0.00    -0.215 A  
HETATM   16  C   UNL     1      -7.372   7.241  67.529  1.00  0.00    -0.092 A  
HETATM   17  C   UNL     1      -8.164   7.344  66.391  1.00  0.00    -0.122 A  
HETATM   18  C   UNL     1      -7.967   7.077  68.782  1.00  0.00    -0.120 A  
ENDBRANCH   6  13
ENDBRANCH   4   6
ENDBRANCH   3   4
ENDBRANCH   2   3
TORSDOF 4
ENDMDL
MODEL      163
REMARK 921   NORMALIZED FREE ENERGY PREDICTED BY IDOCK:   -2.55 KCAL/MOL
REMARK 922        TOTAL FREE ENERGY PREDICTED BY IDOCK:   -4.07 KCAL/MOL
REMARK 923 INTER-LIGAND FREE ENERGY PREDICTED BY IDOCK:   -3.40 KCAL/MOL
REMARK 924 INTRA-LIGAND FREE ENERGY PREDICTED BY IDOCK:   -0.67 KCAL/MOL
REMARK 927      BINDING AFFINITY PREDICTED BY RF-SCORE:    0.00 PKD
ROOT
HETATM    1  C   UNL     1      -6.163   4.499  68.980  1.00  0.00    -0.031 C  
HETATM    2  C   UNL     1      -6.175   5.865  69.652  1.00  0.00    -0.030 C  
ENDROOT
BRANCH   2   3
HETATM    3  O   UNL     1      -7.518   6.369  69.790  1.00  0.00    -0.081 OA 
BRANCH   3   4
HETATM    4  C   UNL     1      -8.203   5.855  70.849  1.00  0.00    -0.125 C  
HETATM    5  O   UNL     1      -7.699   5.686  71.959  1.00  0.00    -0.098 OA 
BRANCH   4   6
HETATM    6  C   UNL     1      -9.659   5.443  70.510  1.00  0.00    -0.232 C  
HETATM    7  C   UNL     1     -10.443   6.463  69.644  1.00  0.00    -0.278 C  
HETATM    8  C   UNL     1     -10.377   5.380  71.888  1.00  0.00    -0.270 C  
HETATM    9  C   UNL     1     -10.473   6.770  72.527  1.00  0.00    -0.209 C  
HETATM   10  C   UNL     1     -12.671   7.436  71.755  1.00  0.00    -0.334 C  
HETATM   11  C   UNL     1     -10.706   7.803  70.344  1.00  0.00    -0.236 C  
HETATM   12  N   UNL     1     -11.236   7.711  71.708  1.00  0.00    -0.241 NA 
BRANCH   6  13
HETATM   13  C   UNL     1      -9.608   4.085  69.768  1.00  0.00    -0.280 A  
HETATM   14  C   UNL     1      -9.362   1.657  69.734  1.00  0.00    -0.157 A  
HETATM   15  C   UNL     1      -9.499   2.857  70.439  1.00  0.00    -0.201 A  
HETATM   16  C   UNL     1      -9.486   2.853  67.655  1.00  0.00    -0.169 A  
HETATM   17  C   UNL     1      -9.336   1.655  68.345  1.00  0.00    -0.241 A  
HETATM   18  C   UNL     1      -9.634   4.051  68.358  1.00  0.00    -0.186 A  
ENDBRANCH   6  13
ENDBRANCH   4   6
ENDBRANCH   3   4
ENDBRANCH   2   3
TORSDOF 4
ENDMDL
MODEL      164
REMARK 921   NORMALIZED FREE ENERGY PREDICTED BY IDOCK:   -2.52 KCAL/MOL
REMARK 922        TOTAL FREE ENERGY PREDICTED BY IDOCK:   -4.03 KCAL/MOL
REMARK 923 INTER-LIGAND FREE ENERGY PREDICTED BY IDOCK:   -4.33 KCAL/MOL
REMARK 924 INTRA-LIGAND FREE ENERGY PREDICTED BY IDOCK:    0.30 KCAL/MOL
REMARK 927      BINDING AFFINITY PREDICTED BY RF-SCORE:    0.00 PKD
ROOT
HETATM    1  C   UNL     1      -8.389  10.308  67.545  1.00  0.00    -0.114 C  
HETATM    2  C   UNL     1      -9.756  10.629  68.134  1.00  0.00    -0.156 C  
ENDROOT
BRANCH   2   3
HETATM    3  O   UNL     1     -10.487   9.428  68.447  1.00  0.00    -0.208 OA 
BRANCH   3   4
HETATM    4  C   UNL     1     -10.504   9.112  69.773  1.00  0.00    -0.223 C  
HETATM    5  O   UNL     1     -10.551   9.957  70.665  1.00  0.00    -0.296 OA 
BRANCH   4   6
HETATM    6  C   UNL     1     -10.396   7.591  70.053  1.00  0.00    -0.222 C  
HETATM    7  C   UNL     1     -11.689   6.932  70.600  1.00  0.00    -0.417 C  
HETATM    8  C   UNL     1      -9.326   7.478  71.177  1.00  0.00    -0.155 C  
HETATM    9  C   UNL     1      -9.824   8.110  72.481  1.00  0.00    -0.293 C  
HETATM   10  C   UNL     1     -10.738   6.151  73.575  1.00  0.00    -0.244 C  
HETATM   11  C   UNL     1     -12.100   7.427  71.993  1.00  0.00    -0.289 C  
HETATM   12  N   UNL     1     -11.030   7.460  72.994  1.00  0.00    -0.364 NA 
BRANCH   6  13
HETATM   13  C   UNL     1      -9.993   6.891  68.733  1.00  0.00    -0.153 A  
HETATM   14  C   UNL     1      -8.375   6.357  66.984  1.00  0.00    -0.112 A  
HETATM   15  C   UNL     1      -8.684   6.921  68.226  1.00  0.00    -0.123 A  
HETATM   16  C   UNL     1     -10.661   5.666  66.719  1.00  0.00    -0.372 A  
HETATM   17  C   UNL     1      -9.365   5.748  66.222  1.00  0.00    -0.171 A  
HETATM   18  C   UNL     1     -10.967   6.219  67.965  1.00  0.00    -0.418 A  
ENDBRANCH   6  13
ENDBRANCH   4   6
ENDBRANCH   3   4
ENDBRANCH   2   3
TORSDOF 4
ENDMDL
MODEL      165
REMARK 921   NORMALIZED FREE ENERGY PREDICTED BY IDOCK:   -2.50 KCAL/MOL
REMARK 922        TOTAL FREE ENERGY PREDICTED BY IDOCK:   -4.00 KCAL/MOL
REMARK 923 INTER-LIGAND FREE ENERGY PREDICTED BY IDOCK:   -3.74 KCAL/MOL
REMARK 924 INTRA-LIGAND FREE ENERGY PREDICTED BY IDOCK:   -0.26 KCAL/MOL
REMARK 927      BINDING AFFINITY PREDICTED BY RF-SCORE:    0.00 PKD
ROOT
HETATM    1  C   UNL     1      -9.815  11.267  63.307  1.00  0.00    -0.418 C  
HETATM    2  C   UNL     1      -8.918  10.184  63.890  1.00  0.00    -0.244 C  
ENDROOT
BRANCH   2   3
HETATM    3  O   UNL     1      -9.561   9.506  64.987  1.00  0.00    -0.268 OA 
BRANCH   3   4
HETATM    4  C   UNL     1      -8.732   9.217  66.029  1.00  0.00    -0.153 C  
HETATM    5  O   UNL     1      -7.578   9.635  66.107  1.00  0.00    -0.099 OA 
BRANCH   4   6
HETATM    6  C   UNL     1      -9.358   8.260  67.077  1.00  0.00    -0.203 C  
HETATM    7  C   UNL     1     -10.777   8.658  67.561  1.00  0.00    -0.209 C  
HETATM    8  C   UNL     1      -8.417   8.366  68.311  1.00  0.00    -0.135 C  
HETATM    9  C   UNL     1      -8.475   9.765  68.933  1.00  0.00    -0.129 C  
HETATM   10  C   UNL     1     -10.162   9.398  70.634  1.00  0.00    -0.288 C  
HETATM   11  C   UNL     1     -10.820   9.974  68.349  1.00  0.00    -0.235 C  
HETATM   12  N   UNL     1      -9.814  10.112  69.407  1.00  0.00    -0.218 NA 
BRANCH   6  13
HETATM   13  C   UNL     1      -9.417   6.845  66.453  1.00  0.00    -0.170 A  
HETATM   14  C   UNL     1     -10.534   4.712  66.053  1.00  0.00    -0.303 A  
HETATM   15  C   UNL     1     -10.549   6.020  66.548  1.00  0.00    -0.238 A  
HETATM   16  C   UNL     1      -8.272   5.010  65.303  1.00  0.00    -0.123 A  
HETATM   17  C   UNL     1      -9.393   4.200  65.449  1.00  0.00    -0.163 A  
HETATM   18  C   UNL     1      -8.289   6.320  65.787  1.00  0.00    -0.145 A  
ENDBRANCH   6  13
ENDBRANCH   4   6
ENDBRANCH   3   4
ENDBRANCH   2   3
TORSDOF 4
ENDMDL
MODEL      166
REMARK 921   NORMALIZED FREE ENERGY PREDICTED BY IDOCK:   -2.47 KCAL/MOL
REMARK 922        TOTAL FREE ENERGY PREDICTED BY IDOCK:   -3.97 KCAL/MOL
REMARK 923 INTER-LIGAND FREE ENERGY PREDICTED BY IDOCK:   -3.37 KCAL/MOL
REMARK 924 INTRA-LIGAND FREE ENERGY PREDICTED BY IDOCK:   -0.60 KCAL/MOL
REMARK 927      BINDING AFFINITY PREDICTED BY RF-SCORE:    0.00 PKD
ROOT
HETATM    1  C   UNL     1      -7.785   7.569  63.924  1.00  0.00    -0.125 C  
HETATM    2  C   UNL     1      -8.279   8.477  65.042  1.00  0.00    -0.158 C  
ENDROOT
BRANCH   2   3
HETATM    3  O   UNL     1      -8.211   7.818  66.321  1.00  0.00    -0.111 OA 
BRANCH   3   4
HETATM    4  C   UNL     1      -9.414   7.383  66.791  1.00  0.00    -0.176 C  
HETATM    5  O   UNL     1     -10.471   7.977  66.586  1.00  0.00    -0.303 OA 
BRANCH   4   6
HETATM    6  C   UNL     1      -9.318   6.103  67.661  1.00  0.00    -0.112 C  
HETATM    7  C   UNL     1      -7.922   5.427  67.678  1.00  0.00    -0.100 C  
HETATM    8  C   UNL     1     -10.295   5.099  66.986  1.00  0.00    -0.267 C  
HETATM    9  C   UNL     1      -9.800   4.697  65.592  1.00  0.00    -0.204 C  
HETATM   10  C   UNL     1      -8.587   2.673  66.146  1.00  0.00    -0.111 C  
HETATM   11  C   UNL     1      -7.491   4.853  66.321  1.00  0.00    -0.086 C  
HETATM   12  N   UNL     1      -8.495   4.038  65.631  1.00  0.00    -0.109 NA 
BRANCH   6  13
HETATM   13  C   UNL     1      -9.711   6.483  69.109  1.00  0.00    -0.143 A  
HETATM   14  C   UNL     1     -11.307   6.574  70.954  1.00  0.00    -0.393 A  
HETATM   15  C   UNL     1     -10.948   6.135  69.675  1.00  0.00    -0.459 A  
HETATM   16  C   UNL     1      -9.191   7.688  71.177  1.00  0.00    -0.153 A  
HETATM   17  C   UNL     1     -10.439   7.365  71.697  1.00  0.00    -0.219 A  
HETATM   18  C   UNL     1      -8.827   7.240  69.905  1.00  0.00    -0.142 A  
ENDBRANCH   6  13
ENDBRANCH   4   6
ENDBRANCH   3   4
ENDBRANCH   2   3
TORSDOF 4
ENDMDL
MODEL      167
REMARK 921   NORMALIZED FREE ENERGY PREDICTED BY IDOCK:   -2.46 KCAL/MOL
REMARK 922        TOTAL FREE ENERGY PREDICTED BY IDOCK:   -3.96 KCAL/MOL
REMARK 923 INTER-LIGAND FREE ENERGY PREDICTED BY IDOCK:   -3.43 KCAL/MOL
REMARK 924 INTRA-LIGAND FREE ENERGY PREDICTED BY IDOCK:   -0.53 KCAL/MOL
REMARK 927      BINDING AFFINITY PREDICTED BY RF-SCORE:    0.00 PKD
ROOT
HETATM    1  C   UNL     1      -6.123   5.802  68.902  1.00  0.00    -0.025 C  
HETATM    2  C   UNL     1      -6.196   6.613  67.615  1.00  0.00    -0.035 C  
ENDROOT
BRANCH   2   3
HETATM    3  O   UNL     1      -7.125   7.707  67.736  1.00  0.00    -0.080 OA 
BRANCH   3   4
HETATM    4  C   UNL     1      -8.317   7.501  67.108  1.00  0.00    -0.121 C  
HETATM    5  O   UNL     1      -8.434   6.811  66.097  1.00  0.00    -0.123 OA 
BRANCH   4   6
HETATM    6  C   UNL     1      -9.501   8.269  67.750  1.00  0.00    -0.171 C  
HETATM    7  C   UNL     1      -9.388   8.486  69.281  1.00  0.00    -0.154 C  
HETATM    8  C   UNL     1     -10.733   7.348  67.518  1.00  0.00    -0.310 C  
HETATM    9  C   UNL     1     -10.604   6.041  68.308  1.00  0.00    -0.261 C  
HETATM   10  C   UNL     1     -11.816   6.643  70.318  1.00  0.00    -0.316 C  
HETATM   11  C   UNL     1      -9.441   7.190  70.101  1.00  0.00    -0.161 C  
HETATM   12  N   UNL     1     -10.523   6.264  69.751  1.00  0.00    -0.211 NA 
BRANCH   6  13
HETATM   13  C   UNL     1      -9.609   9.646  67.052  1.00  0.00    -0.221 A  
HETATM   14  C   UNL     1     -10.000  11.040  65.086  1.00  0.00    -0.333 A  
HETATM   15  C   UNL     1     -10.003   9.789  65.712  1.00  0.00    -0.349 A  
HETATM   16  C   UNL     1      -9.254  12.069  67.125  1.00  0.00    -0.190 A  
HETATM   17  C   UNL     1      -9.608  12.175  65.785  1.00  0.00    -0.209 A  
HETATM   18  C   UNL     1      -9.268  10.821  67.754  1.00  0.00    -0.155 A  
ENDBRANCH   6  13
ENDBRANCH   4   6
ENDBRANCH   3   4
ENDBRANCH   2   3
TORSDOF 4
ENDMDL
MODEL      168
REMARK 921   NORMALIZED FREE ENERGY PREDICTED BY IDOCK:   -2.46 KCAL/MOL
REMARK 922        TOTAL FREE ENERGY PREDICTED BY IDOCK:   -3.95 KCAL/MOL
REMARK 923 INTER-LIGAND FREE ENERGY PREDICTED BY IDOCK:   -3.76 KCAL/MOL
REMARK 924 INTRA-LIGAND FREE ENERGY PREDICTED BY IDOCK:   -0.19 KCAL/MOL
REMARK 927      BINDING AFFINITY PREDICTED BY RF-SCORE:    0.00 PKD
ROOT
HETATM    1  C   UNL     1      -8.996   4.777  66.383  1.00  0.00    -0.113 C  
HETATM    2  C   UNL     1     -10.410   5.170  66.786  1.00  0.00    -0.261 C  
ENDROOT
BRANCH   2   3
HETATM    3  O   UNL     1     -10.428   5.814  68.075  1.00  0.00    -0.200 OA 
BRANCH   3   4
HETATM    4  C   UNL     1     -10.420   7.175  68.021  1.00  0.00    -0.201 C  
HETATM    5  O   UNL     1     -10.761   7.811  67.024  1.00  0.00    -0.347 OA 
BRANCH   4   6
HETATM    6  C   UNL     1      -9.881   7.847  69.310  1.00  0.00    -0.177 C  
HETATM    7  C   UNL     1     -10.311   9.324  69.507  1.00  0.00    -0.223 C  
HETATM    8  C   UNL     1      -8.336   7.850  69.130  1.00  0.00    -0.133 C  
HETATM    9  C   UNL     1      -7.915   8.764  67.973  1.00  0.00    -0.106 C  
HETATM   10  C   UNL     1      -7.471  10.810  69.194  1.00  0.00    -0.123 C  
HETATM   11  C   UNL     1      -9.743  10.285  68.453  1.00  0.00    -0.156 C  
HETATM   12  N   UNL     1      -8.307  10.156  68.188  1.00  0.00    -0.116 NA 
BRANCH   6  13
HETATM   13  C   UNL     1     -10.368   7.015  70.520  1.00  0.00    -0.218 A  
HETATM   14  C   UNL     1     -12.051   6.414  72.184  1.00  0.00    -0.316 A  
HETATM   15  C   UNL     1     -11.672   7.112  71.033  1.00  0.00    -0.358 A  
HETATM   16  C   UNL     1      -9.855   5.452  72.335  1.00  0.00    -0.195 A  
HETATM   17  C   UNL     1     -11.139   5.600  72.846  1.00  0.00    -0.337 A  
HETATM   18  C   UNL     1      -9.479   6.140  71.179  1.00  0.00    -0.182 A  
ENDBRANCH   6  13
ENDBRANCH   4   6
ENDBRANCH   3   4
ENDBRANCH   2   3
TORSDOF 4
ENDMDL
MODEL      169
REMARK 921   NORMALIZED FREE ENERGY PREDICTED BY IDOCK:   -2.42 KCAL/MOL
REMARK 922        TOTAL FREE ENERGY PREDICTED BY IDOCK:   -3.91 KCAL/MOL
REMARK 923 INTER-LIGAND FREE ENERGY PREDICTED BY IDOCK:   -3.78 KCAL/MOL
REMARK 924 INTRA-LIGAND FREE ENERGY PREDICTED BY IDOCK:   -0.13 KCAL/MOL
REMARK 927      BINDING AFFINITY PREDICTED BY RF-SCORE:    0.00 PKD
ROOT
HETATM    1  C   UNL     1      -9.967   9.577  66.479  1.00  0.00    -0.329 C  
HETATM    2  C   UNL     1     -10.429   8.481  67.429  1.00  0.00    -0.280 C  
ENDROOT
BRANCH   2   3
HETATM    3  O   UNL     1      -9.495   7.384  67.460  1.00  0.00    -0.134 OA 
BRANCH   3   4
HETATM    4  C   UNL     1     -10.065   6.169  67.696  1.00  0.00    -0.155 C  
HETATM    5  O   UNL     1     -11.089   5.786  67.131  1.00  0.00    -0.200 OA 
BRANCH   4   6
HETATM    6  C   UNL     1      -9.339   5.341  68.787  1.00  0.00    -0.157 C  
HETATM    7  C   UNL     1      -7.845   5.698  68.994  1.00  0.00    -0.096 C  
HETATM    8  C   UNL     1      -9.383   3.879  68.259  1.00  0.00    -0.221 C  
HETATM    9  C   UNL     1      -8.541   3.725  66.987  1.00  0.00    -0.108 C  
HETATM   10  C   UNL     1      -6.445   2.990  67.957  1.00  0.00    -0.036 C  
HETATM   11  C   UNL     1      -6.954   5.377  67.786  1.00  0.00    -0.066 C  
HETATM   12  N   UNL     1      -7.130   4.041  67.208  1.00  0.00    -0.062 NA 
BRANCH   6  13
HETATM   13  C   UNL     1     -10.096   5.547  70.122  1.00  0.00    -0.308 A  
HETATM   14  C   UNL     1     -10.649   4.893  72.408  1.00  0.00    -0.263 A  
HETATM   15  C   UNL     1      -9.882   4.738  71.249  1.00  0.00    -0.256 A  
HETATM   16  C   UNL     1     -11.848   6.705  71.383  1.00  0.00    -0.388 A  
HETATM   17  C   UNL     1     -11.644   5.862  72.469  1.00  0.00    -0.327 A  
HETATM   18  C   UNL     1     -11.074   6.558  70.229  1.00  0.00    -0.392 A  
ENDBRANCH   6  13
ENDBRANCH   4   6
ENDBRANCH   3   4
ENDBRANCH   2   3
TORSDOF 4
ENDMDL
MODEL      170
REMARK 921   NORMALIZED FREE ENERGY PREDICTED BY IDOCK:   -2.41 KCAL/MOL
REMARK 922        TOTAL FREE ENERGY PREDICTED BY IDOCK:   -3.90 KCAL/MOL
REMARK 923 INTER-LIGAND FREE ENERGY PREDICTED BY IDOCK:   -4.60 KCAL/MOL
REMARK 924 INTRA-LIGAND FREE ENERGY PREDICTED BY IDOCK:    0.71 KCAL/MOL
REMARK 927      BINDING AFFINITY PREDICTED BY RF-SCORE:    0.00 PKD
ROOT
HETATM    1  C   UNL     1      -7.923  17.421  68.756  1.00  0.00    -0.244 C  
HETATM    2  C   UNL     1      -8.789  16.220  69.109  1.00  0.00    -0.217 C  
ENDROOT
BRANCH   2   3
HETATM    3  O   UNL     1      -8.966  15.349  67.975  1.00  0.00    -0.169 OA 
BRANCH   3   4
HETATM    4  C   UNL     1      -9.736  14.253  68.225  1.00  0.00    -0.221 C  
HETATM    5  O   UNL     1      -9.268  13.158  68.536  1.00  0.00    -0.165 OA 
BRANCH   4   6
HETATM    6  C   UNL     1     -11.254  14.497  68.020  1.00  0.00    -0.308 C  
HETATM    7  C   UNL     1     -11.763  15.885  68.489  1.00  0.00    -0.297 C  
HETATM    8  C   UNL     1     -11.944  13.437  68.925  1.00  0.00    -0.362 C  
HETATM    9  C   UNL     1     -11.672  13.714  70.408  1.00  0.00    -0.151 C  
HETATM   10  C   UNL     1     -13.638  15.019  70.959  1.00  0.00    -0.381 C  
HETATM   11  C   UNL     1     -11.665  16.106  70.004  1.00  0.00    -0.188 C  
HETATM   12  N   UNL     1     -12.181  15.016  70.837  1.00  0.00    -0.302 NA 
BRANCH   6  13
HETATM   13  C   UNL     1     -11.563  14.329  66.513  1.00  0.00    -0.390 A  
HETATM   14  C   UNL     1     -12.659  13.192  64.652  1.00  0.00    -0.384 A  
HETATM   15  C   UNL     1     -12.474  13.379  66.026  1.00  0.00    -0.431 A  
HETATM   16  C   UNL     1     -11.067  14.929  64.190  1.00  0.00     0.288 A  
HETATM   17  C   UNL     1     -11.944  13.952  63.735  1.00  0.00    -0.305 A  
HETATM   18  C   UNL     1     -10.889  15.125  65.562  1.00  0.00    -0.373 A  
ENDBRANCH   6  13
ENDBRANCH   4   6
ENDBRANCH   3   4
ENDBRANCH   2   3
TORSDOF 4
ENDMDL
MODEL      171
REMARK 921   NORMALIZED FREE ENERGY PREDICTED BY IDOCK:   -2.40 KCAL/MOL
REMARK 922        TOTAL FREE ENERGY PREDICTED BY IDOCK:   -3.88 KCAL/MOL
REMARK 923 INTER-LIGAND FREE ENERGY PREDICTED BY IDOCK:   -3.16 KCAL/MOL
REMARK 924 INTRA-LIGAND FREE ENERGY PREDICTED BY IDOCK:   -0.73 KCAL/MOL
REMARK 927      BINDING AFFINITY PREDICTED BY RF-SCORE:    0.00 PKD
ROOT
HETATM    1  C   UNL     1     -12.128   8.267  72.527  1.00  0.00    -0.400 C  
HETATM    2  C   UNL     1     -11.501   9.202  71.502  1.00  0.00    -0.367 C  
ENDROOT
BRANCH   2   3
HETATM    3  O   UNL     1     -10.169   8.780  71.152  1.00  0.00    -0.207 OA 
BRANCH   3   4
HETATM    4  C   UNL     1     -10.121   7.645  70.400  1.00  0.00    -0.190 C  
HETATM    5  O   UNL     1     -10.920   7.401  69.498  1.00  0.00    -0.222 OA 
BRANCH   4   6
HETATM    6  C   UNL     1      -9.003   6.659  70.829  1.00  0.00    -0.151 C  
HETATM    7  C   UNL     1      -7.678   7.329  71.280  1.00  0.00    -0.088 C  
HETATM    8  C   UNL     1      -8.681   5.852  69.539  1.00  0.00    -0.116 C  
HETATM    9  C   UNL     1      -8.058   6.750  68.464  1.00  0.00    -0.120 C  
HETATM   10  C   UNL     1      -5.706   6.380  68.917  1.00  0.00    -0.020 C  
HETATM   11  C   UNL     1      -6.948   8.083  70.160  1.00  0.00    -0.048 C  
HETATM   12  N   UNL     1      -6.798   7.352  68.898  1.00  0.00    -0.069 NA 
BRANCH   6  13
HETATM   13  C   UNL     1      -9.551   5.794  71.989  1.00  0.00    -0.170 A  
HETATM   14  C   UNL     1     -10.961   4.000  72.858  1.00  0.00    -0.145 A  
HETATM   15  C   UNL     1     -10.411   4.703  71.781  1.00  0.00    -0.208 A  
HETATM   16  C   UNL     1      -9.780   5.416  74.398  1.00  0.00    -0.191 A  
HETATM   17  C   UNL     1     -10.662   4.367  74.165  1.00  0.00    -0.313 A  
HETATM   18  C   UNL     1      -9.221   6.112  73.323  1.00  0.00    -0.131 A  
ENDBRANCH   6  13
ENDBRANCH   4   6
ENDBRANCH   3   4
ENDBRANCH   2   3
TORSDOF 4
ENDMDL
MODEL      172
REMARK 921   NORMALIZED FREE ENERGY PREDICTED BY IDOCK:   -2.37 KCAL/MOL
REMARK 922        TOTAL FREE ENERGY PREDICTED BY IDOCK:   -3.84 KCAL/MOL
REMARK 923 INTER-LIGAND FREE ENERGY PREDICTED BY IDOCK:   -3.46 KCAL/MOL
REMARK 924 INTRA-LIGAND FREE ENERGY PREDICTED BY IDOCK:   -0.39 KCAL/MOL
REMARK 927      BINDING AFFINITY PREDICTED BY RF-SCORE:    0.00 PKD
ROOT
HETATM    1  C   UNL     1      -8.283   2.838  69.137  1.00  0.00    -0.074 C  
HETATM    2  C   UNL     1      -8.721   3.850  70.186  1.00  0.00    -0.071 C  
ENDROOT
BRANCH   2   3
HETATM    3  O   UNL     1      -8.764   5.184  69.643  1.00  0.00    -0.091 OA 
BRANCH   3   4
HETATM    4  C   UNL     1      -9.900   5.874  69.943  1.00  0.00    -0.174 C  
HETATM    5  O   UNL     1     -11.030   5.435  69.731  1.00  0.00    -0.246 OA 
BRANCH   4   6
HETATM    6  C   UNL     1      -9.637   7.290  70.517  1.00  0.00    -0.168 C  
HETATM    7  C   UNL     1      -8.160   7.581  70.890  1.00  0.00    -0.104 C  
HETATM    8  C   UNL     1     -10.451   7.330  71.841  1.00  0.00    -0.224 C  
HETATM    9  C   UNL     1      -9.881   6.348  72.871  1.00  0.00    -0.167 C  
HETATM   10  C   UNL     1      -8.402   7.830  74.092  1.00  0.00    -0.247 C  
HETATM   11  C   UNL     1      -7.630   6.726  72.049  1.00  0.00    -0.094 C  
HETATM   12  N   UNL     1      -8.497   6.653  73.229  1.00  0.00    -0.119 NA 
BRANCH   6  13
HETATM   13  C   UNL     1     -10.104   8.324  69.464  1.00  0.00    -0.197 A  
HETATM   14  C   UNL     1     -10.266   9.137  67.167  1.00  0.00    -0.329 A  
HETATM   15  C   UNL     1      -9.916   8.141  68.085  1.00  0.00    -0.219 A  
HETATM   16  C   UNL     1     -11.052  10.526  68.962  1.00  0.00    -0.300 A  
HETATM   17  C   UNL     1     -10.816  10.335  67.606  1.00  0.00    -0.363 A  
HETATM   18  C   UNL     1     -10.713   9.527  69.878  1.00  0.00    -0.268 A  
ENDBRANCH   6  13
ENDBRANCH   4   6
ENDBRANCH   3   4
ENDBRANCH   2   3
TORSDOF 4
ENDMDL
MODEL      173
REMARK 921   NORMALIZED FREE ENERGY PREDICTED BY IDOCK:   -2.37 KCAL/MOL
REMARK 922        TOTAL FREE ENERGY PREDICTED BY IDOCK:   -3.84 KCAL/MOL
REMARK 923 INTER-LIGAND FREE ENERGY PREDICTED BY IDOCK:   -3.39 KCAL/MOL
REMARK 924 INTRA-LIGAND FREE ENERGY PREDICTED BY IDOCK:   -0.45 KCAL/MOL
REMARK 927      BINDING AFFINITY PREDICTED BY RF-SCORE:    0.00 PKD
ROOT
HETATM    1  C   UNL     1      -7.378   9.403  69.178  1.00  0.00    -0.071 C  
HETATM    2  C   UNL     1      -7.949   9.250  70.580  1.00  0.00    -0.162 C  
ENDROOT
BRANCH   2   3
HETATM    3  O   UNL     1      -8.427   7.910  70.808  1.00  0.00    -0.119 OA 
BRANCH   3   4
HETATM    4  C   UNL     1      -8.836   7.671  72.086  1.00  0.00    -0.125 C  
HETATM    5  O   UNL     1      -8.335   8.220  73.066  1.00  0.00    -0.187 OA 
BRANCH   4   6
HETATM    6  C   UNL     1      -9.949   6.596  72.194  1.00  0.00    -0.173 C  
HETATM    7  C   UNL     1     -10.662   6.256  70.860  1.00  0.00    -0.314 C  
HETATM    8  C   UNL     1     -11.018   7.236  73.124  1.00  0.00    -0.384 C  
HETATM    9  C   UNL     1     -11.674   8.452  72.460  1.00  0.00    -0.359 C  
HETATM   10  C   UNL     1     -13.614   7.392  71.466  1.00  0.00    -0.370 C  
HETATM   11  C   UNL     1     -11.477   7.418  70.274  1.00  0.00    -0.181 C  
HETATM   12  N   UNL     1     -12.363   8.107  71.217  1.00  0.00    -0.293 NA 
BRANCH   6  13
HETATM   13  C   UNL     1      -9.310   5.308  72.767  1.00  0.00    -0.150 A  
HETATM   14  C   UNL     1      -9.012   3.656  74.540  1.00  0.00    -0.100 A  
HETATM   15  C   UNL     1      -9.674   4.769  74.012  1.00  0.00    -0.156 A  
HETATM   16  C   UNL     1      -7.623   3.541  72.583  1.00  0.00    -0.059 A  
HETATM   17  C   UNL     1      -7.975   3.055  73.837  1.00  0.00    -0.068 A  
HETATM   18  C   UNL     1      -8.292   4.646  72.050  1.00  0.00    -0.117 A  
ENDBRANCH   6  13
ENDBRANCH   4   6
ENDBRANCH   3   4
ENDBRANCH   2   3
TORSDOF 4
ENDMDL
MODEL      174
REMARK 921   NORMALIZED FREE ENERGY PREDICTED BY IDOCK:   -2.34 KCAL/MOL
REMARK 922        TOTAL FREE ENERGY PREDICTED BY IDOCK:   -3.80 KCAL/MOL
REMARK 923 INTER-LIGAND FREE ENERGY PREDICTED BY IDOCK:   -3.37 KCAL/MOL
REMARK 924 INTRA-LIGAND FREE ENERGY PREDICTED BY IDOCK:   -0.43 KCAL/MOL
REMARK 927      BINDING AFFINITY PREDICTED BY RF-SCORE:    0.00 PKD
ROOT
HETATM    1  C   UNL     1      -9.069  10.406  67.758  1.00  0.00    -0.134 C  
HETATM    2  C   UNL     1      -8.469   9.012  67.876  1.00  0.00    -0.121 C  
ENDROOT
BRANCH   2   3
HETATM    3  O   UNL     1      -9.384   8.099  68.513  1.00  0.00    -0.139 OA 
BRANCH   3   4
HETATM    4  C   UNL     1      -8.785   7.032  69.112  1.00  0.00    -0.132 C  
HETATM    5  O   UNL     1      -7.581   6.990  69.362  1.00  0.00    -0.094 OA 
BRANCH   4   6
HETATM    6  C   UNL     1      -9.749   5.851  69.392  1.00  0.00    -0.191 C  
HETATM    7  C   UNL     1     -11.249   6.236  69.476  1.00  0.00    -0.500 C  
HETATM    8  C   UNL     1      -9.337   5.339  70.802  1.00  0.00    -0.205 C  
HETATM    9  C   UNL     1      -9.634   6.387  71.880  1.00  0.00    -0.151 C  
HETATM   10  C   UNL     1     -11.832   5.650  72.589  1.00  0.00    -0.131 C  
HETATM   11  C   UNL     1     -11.594   7.143  70.665  1.00  0.00    -0.314 C  
HETATM   12  N   UNL     1     -11.057   6.719  71.962  1.00  0.00    -0.241 NA 
BRANCH   6  13
HETATM   13  C   UNL     1      -9.559   4.805  68.267  1.00  0.00    -0.204 A  
HETATM   14  C   UNL     1      -9.777   4.073  65.948  1.00  0.00    -0.193 A  
HETATM   15  C   UNL     1      -9.874   5.070  66.924  1.00  0.00    -0.209 A  
HETATM   16  C   UNL     1      -9.003   2.514  67.603  1.00  0.00    -0.190 A  
HETATM   17  C   UNL     1      -9.361   2.792  66.289  1.00  0.00    -0.022 A  
HETATM   18  C   UNL     1      -9.088   3.513  68.577  1.00  0.00    -0.202 A  
ENDBRANCH   6  13
ENDBRANCH   4   6
ENDBRANCH   3   4
ENDBRANCH   2   3
TORSDOF 4
ENDMDL
MODEL      175
REMARK 921   NORMALIZED FREE ENERGY PREDICTED BY IDOCK:   -2.33 KCAL/MOL
REMARK 922        TOTAL FREE ENERGY PREDICTED BY IDOCK:   -3.79 KCAL/MOL
REMARK 923 INTER-LIGAND FREE ENERGY PREDICTED BY IDOCK:   -3.35 KCAL/MOL
REMARK 924 INTRA-LIGAND FREE ENERGY PREDICTED BY IDOCK:   -0.44 KCAL/MOL
REMARK 927      BINDING AFFINITY PREDICTED BY RF-SCORE:    0.00 PKD
ROOT
HETATM    1  C   UNL     1      -8.904   1.592  67.318  1.00  0.00    -0.135 C  
HETATM    2  C   UNL     1      -9.190   2.999  66.813  1.00  0.00    -0.142 C  
ENDROOT
BRANCH   2   3
HETATM    3  O   UNL     1      -9.715   3.836  67.861  1.00  0.00    -0.162 OA 
BRANCH   3   4
HETATM    4  C   UNL     1      -8.820   4.730  68.366  1.00  0.00    -0.104 C  
HETATM    5  O   UNL     1      -7.604   4.542  68.358  1.00  0.00    -0.068 OA 
BRANCH   4   6
HETATM    6  C   UNL     1      -9.479   5.978  69.009  1.00  0.00    -0.143 C  
HETATM    7  C   UNL     1     -10.900   6.310  68.484  1.00  0.00    -0.394 C  
HETATM    8  C   UNL     1      -8.559   7.161  68.592  1.00  0.00    -0.124 C  
HETATM    9  C   UNL     1      -8.608   7.395  67.078  1.00  0.00    -0.119 C  
HETATM   10  C   UNL     1     -10.331   9.095  66.971  1.00  0.00    -0.263 C  
HETATM   11  C   UNL     1     -10.939   6.725  67.007  1.00  0.00    -0.368 C  
HETATM   12  N   UNL     1      -9.951   7.731  66.607  1.00  0.00    -0.243 NA 
BRANCH   6  13
HETATM   13  C   UNL     1      -9.547   5.746  70.537  1.00  0.00    -0.214 A  
HETATM   14  C   UNL     1     -10.703   4.996  72.553  1.00  0.00    -0.271 A  
HETATM   15  C   UNL     1     -10.631   5.107  71.160  1.00  0.00    -0.195 A  
HETATM   16  C   UNL     1      -8.587   6.115  72.760  1.00  0.00    -0.123 A  
HETATM   17  C   UNL     1      -9.693   5.516  73.353  1.00  0.00    -0.158 A  
HETATM   18  C   UNL     1      -8.510   6.216  71.369  1.00  0.00    -0.128 A  
ENDBRANCH   6  13
ENDBRANCH   4   6
ENDBRANCH   3   4
ENDBRANCH   2   3
TORSDOF 4
ENDMDL
MODEL      176
REMARK 921   NORMALIZED FREE ENERGY PREDICTED BY IDOCK:   -2.27 KCAL/MOL
REMARK 922        TOTAL FREE ENERGY PREDICTED BY IDOCK:   -3.73 KCAL/MOL
REMARK 923 INTER-LIGAND FREE ENERGY PREDICTED BY IDOCK:   -3.18 KCAL/MOL
REMARK 924 INTRA-LIGAND FREE ENERGY PREDICTED BY IDOCK:   -0.55 KCAL/MOL
REMARK 927      BINDING AFFINITY PREDICTED BY RF-SCORE:    0.00 PKD
ROOT
HETATM    1  C   UNL     1      -7.371   5.853  69.899  1.00  0.00    -0.075 C  
HETATM    2  C   UNL     1      -8.251   7.009  70.355  1.00  0.00    -0.124 C  
ENDROOT
BRANCH   2   3
HETATM    3  O   UNL     1      -8.236   8.088  69.401  1.00  0.00    -0.119 OA 
BRANCH   3   4
HETATM    4  C   UNL     1      -9.471   8.489  68.989  1.00  0.00    -0.150 C  
HETATM    5  O   UNL     1     -10.408   8.682  69.763  1.00  0.00    -0.202 OA 
BRANCH   4   6
HETATM    6  C   UNL     1      -9.605   8.617  67.449  1.00  0.00    -0.204 C  
HETATM    7  C   UNL     1      -8.499   9.461  66.765  1.00  0.00    -0.129 C  
HETATM    8  C   UNL     1     -10.945   9.377  67.238  1.00  0.00    -0.022 C  
HETATM    9  C   UNL     1     -10.859  10.811  67.772  1.00  0.00    -0.269 C  
HETATM   10  C   UNL     1     -10.229  11.978  65.743  1.00  0.00    -0.242 C  
HETATM   11  C   UNL     1      -8.517  10.946  67.154  1.00  0.00    -0.128 C  
HETATM   12  N   UNL     1      -9.828  11.599  67.097  1.00  0.00    -0.188 NA 
BRANCH   6  13
HETATM   13  C   UNL     1      -9.593   7.190  66.851  1.00  0.00    -0.216 A  
HETATM   14  C   UNL     1      -8.754   5.519  65.280  1.00  0.00    -0.136 A  
HETATM   15  C   UNL     1      -8.677   6.787  65.866  1.00  0.00    -0.147 A  
HETATM   16  C   UNL     1     -10.637   4.981  66.672  1.00  0.00    -0.256 A  
HETATM   17  C   UNL     1      -9.744   4.624  65.668  1.00  0.00    -0.202 A  
HETATM   18  C   UNL     1     -10.553   6.243  67.265  1.00  0.00    -0.371 A  
ENDBRANCH   6  13
ENDBRANCH   4   6
ENDBRANCH   3   4
ENDBRANCH   2   3
TORSDOF 4
ENDMDL
MODEL      177
REMARK 921   NORMALIZED FREE ENERGY PREDICTED BY IDOCK:   -2.25 KCAL/MOL
REMARK 922        TOTAL FREE ENERGY PREDICTED BY IDOCK:   -3.70 KCAL/MOL
REMARK 923 INTER-LIGAND FREE ENERGY PREDICTED BY IDOCK:   -3.29 KCAL/MOL
REMARK 924 INTRA-LIGAND FREE ENERGY PREDICTED BY IDOCK:   -0.41 KCAL/MOL
REMARK 927      BINDING AFFINITY PREDICTED BY RF-SCORE:    0.00 PKD
ROOT
HETATM    1  C   UNL     1     -10.887   3.194  73.285  1.00  0.00    -0.283 C  
HETATM    2  C   UNL     1     -11.317   4.634  73.529  1.00  0.00    -0.268 C  
ENDROOT
BRANCH   2   3
HETATM    3  O   UNL     1     -11.040   5.465  72.386  1.00  0.00    -0.246 OA 
BRANCH   3   4
HETATM    4  C   UNL     1     -10.325   6.589  72.670  1.00  0.00    -0.192 C  
HETATM    5  O   UNL     1     -10.595   7.340  73.607  1.00  0.00    -0.375 OA 
BRANCH   4   6
HETATM    6  C   UNL     1      -9.177   6.869  71.666  1.00  0.00    -0.146 C  
HETATM    7  C   UNL     1      -8.889   5.720  70.664  1.00  0.00    -0.145 C  
HETATM    8  C   UNL     1      -7.909   7.015  72.556  1.00  0.00    -0.096 C  
HETATM    9  C   UNL     1      -7.556   5.690  73.239  1.00  0.00    -0.096 C  
HETATM   10  C   UNL     1      -5.960   4.808  71.642  1.00  0.00    -0.017 C  
HETATM   11  C   UNL     1      -8.357   4.439  71.321  1.00  0.00    -0.094 C  
HETATM   12  N   UNL     1      -7.263   4.626  72.279  1.00  0.00    -0.076 NA 
BRANCH   6  13
HETATM   13  C   UNL     1      -9.538   8.149  70.875  1.00  0.00    -0.187 A  
HETATM   14  C   UNL     1     -11.120   9.553  69.656  1.00  0.00    -0.196 A  
HETATM   15  C   UNL     1     -10.845   8.433  70.448  1.00  0.00    -0.246 A  
HETATM   16  C   UNL     1      -8.802  10.180  69.721  1.00  0.00    -0.152 A  
HETATM   17  C   UNL     1     -10.098  10.415  69.276  1.00  0.00    -0.248 A  
HETATM   18  C   UNL     1      -8.529   9.068  70.522  1.00  0.00    -0.226 A  
ENDBRANCH   6  13
ENDBRANCH   4   6
ENDBRANCH   3   4
ENDBRANCH   2   3
TORSDOF 4
ENDMDL
MODEL      178
REMARK 921   NORMALIZED FREE ENERGY PREDICTED BY IDOCK:   -2.24 KCAL/MOL
REMARK 922        TOTAL FREE ENERGY PREDICTED BY IDOCK:   -3.69 KCAL/MOL
REMARK 923 INTER-LIGAND FREE ENERGY PREDICTED BY IDOCK:   -3.07 KCAL/MOL
REMARK 924 INTRA-LIGAND FREE ENERGY PREDICTED BY IDOCK:   -0.62 KCAL/MOL
REMARK 927      BINDING AFFINITY PREDICTED BY RF-SCORE:    0.00 PKD
ROOT
HETATM    1  C   UNL     1      -5.772   5.768  68.896  1.00  0.00    -0.012 C  
HETATM    2  C   UNL     1      -5.824   6.532  67.581  1.00  0.00    -0.019 C  
ENDROOT
BRANCH   2   3
HETATM    3  O   UNL     1      -6.699   7.673  67.671  1.00  0.00    -0.063 OA 
BRANCH   3   4
HETATM    4  C   UNL     1      -7.949   7.460  67.172  1.00  0.00    -0.114 C  
HETATM    5  O   UNL     1      -8.172   6.740  66.200  1.00  0.00    -0.113 OA 
BRANCH   4   6
HETATM    6  C   UNL     1      -9.058   8.259  67.905  1.00  0.00    -0.137 C  
HETATM    7  C   UNL     1     -10.287   8.622  67.033  1.00  0.00    -0.368 C  
HETATM    8  C   UNL     1      -8.375   9.600  68.299  1.00  0.00    -0.117 C  
HETATM    9  C   UNL     1      -8.015  10.423  67.057  1.00  0.00    -0.116 C  
HETATM   10  C   UNL     1      -9.986  11.826  66.898  1.00  0.00    -0.199 C  
HETATM   11  C   UNL     1      -9.975   9.597  65.889  1.00  0.00    -0.281 C  
HETATM   12  N   UNL     1      -9.190  10.778  66.261  1.00  0.00    -0.168 NA 
BRANCH   6  13
HETATM   13  C   UNL     1      -9.529   7.417  69.115  1.00  0.00    -0.149 A  
HETATM   14  C   UNL     1      -9.223   6.519  71.365  1.00  0.00    -0.148 A  
HETATM   15  C   UNL     1      -8.818   7.362  70.324  1.00  0.00    -0.147 A  
HETATM   16  C   UNL     1     -11.096   5.784  70.052  1.00  0.00    -0.329 A  
HETATM   17  C   UNL     1     -10.349   5.717  71.223  1.00  0.00    -0.289 A  
HETATM   18  C   UNL     1     -10.698   6.634  69.017  1.00  0.00    -0.299 A  
ENDBRANCH   6  13
ENDBRANCH   4   6
ENDBRANCH   3   4
ENDBRANCH   2   3
TORSDOF 4
ENDMDL
MODEL      179
REMARK 921   NORMALIZED FREE ENERGY PREDICTED BY IDOCK:   -2.24 KCAL/MOL
REMARK 922        TOTAL FREE ENERGY PREDICTED BY IDOCK:   -3.68 KCAL/MOL
REMARK 923 INTER-LIGAND FREE ENERGY PREDICTED BY IDOCK:   -3.30 KCAL/MOL
REMARK 924 INTRA-LIGAND FREE ENERGY PREDICTED BY IDOCK:   -0.38 KCAL/MOL
REMARK 927      BINDING AFFINITY PREDICTED BY RF-SCORE:    0.00 PKD
ROOT
HETATM    1  C   UNL     1     -10.291  10.634  66.175  1.00  0.00    -0.291 C  
HETATM    2  C   UNL     1     -10.899  10.487  67.564  1.00  0.00    -0.301 C  
ENDROOT
BRANCH   2   3
HETATM    3  O   UNL     1     -10.848   9.121  68.016  1.00  0.00    -0.185 OA 
BRANCH   3   4
HETATM    4  C   UNL     1      -9.846   8.861  68.902  1.00  0.00    -0.177 C  
HETATM    5  O   UNL     1      -9.215   9.743  69.482  1.00  0.00    -0.184 OA 
BRANCH   4   6
HETATM    6  C   UNL     1      -9.532   7.351  69.063  1.00  0.00    -0.148 C  
HETATM    7  C   UNL     1      -8.039   7.017  69.316  1.00  0.00    -0.120 C  
HETATM    8  C   UNL     1      -9.904   6.727  67.687  1.00  0.00    -0.155 C  
HETATM    9  C   UNL     1      -8.973   7.233  66.580  1.00  0.00    -0.152 C  
HETATM   10  C   UNL     1      -7.312   5.468  66.588  1.00  0.00    -0.083 C  
HETATM   11  C   UNL     1      -7.116   7.352  68.137  1.00  0.00    -0.085 C  
HETATM   12  N   UNL     1      -7.573   6.887  66.824  1.00  0.00    -0.089 NA 
BRANCH   6  13
HETATM   13  C   UNL     1     -10.376   6.813  70.243  1.00  0.00    -0.224 A  
HETATM   14  C   UNL     1     -12.511   6.408  71.356  1.00  0.00    -0.050 A  
HETATM   15  C   UNL     1     -11.780   6.815  70.235  1.00  0.00    -0.397 A  
HETATM   16  C   UNL     1     -10.468   5.932  72.527  1.00  0.00    -0.238 A  
HETATM   17  C   UNL     1     -11.857   5.985  72.507  1.00  0.00    -0.236 A  
HETATM   18  C   UNL     1      -9.738   6.328  71.404  1.00  0.00    -0.191 A  
ENDBRANCH   6  13
ENDBRANCH   4   6
ENDBRANCH   3   4
ENDBRANCH   2   3
TORSDOF 4
ENDMDL
MODEL      180
REMARK 921   NORMALIZED FREE ENERGY PREDICTED BY IDOCK:   -2.17 KCAL/MOL
REMARK 922        TOTAL FREE ENERGY PREDICTED BY IDOCK:   -3.60 KCAL/MOL
REMARK 923 INTER-LIGAND FREE ENERGY PREDICTED BY IDOCK:   -3.04 KCAL/MOL
REMARK 924 INTRA-LIGAND FREE ENERGY PREDICTED BY IDOCK:   -0.56 KCAL/MOL
REMARK 927      BINDING AFFINITY PREDICTED BY RF-SCORE:    0.00 PKD
ROOT
HETATM    1  C   UNL     1     -10.883   3.171  73.495  1.00  0.00    -0.316 C  
HETATM    2  C   UNL     1     -10.933   4.666  73.216  1.00  0.00    -0.303 C  
ENDROOT
BRANCH   2   3
HETATM    3  O   UNL     1     -10.754   4.944  71.814  1.00  0.00    -0.144 OA 
BRANCH   3   4
HETATM    4  C   UNL     1      -9.636   5.668  71.525  1.00  0.00    -0.152 C  
HETATM    5  O   UNL     1      -9.227   6.586  72.235  1.00  0.00    -0.140 OA 
BRANCH   4   6
HETATM    6  C   UNL     1      -8.962   5.268  70.187  1.00  0.00    -0.156 C  
HETATM    7  C   UNL     1      -9.199   3.799  69.748  1.00  0.00    -0.213 C  
HETATM    8  C   UNL     1      -7.438   5.415  70.460  1.00  0.00    -0.072 C  
HETATM    9  C   UNL     1      -6.959   4.388  71.493  1.00  0.00    -0.038 C  
HETATM   10  C   UNL     1      -6.214   2.619  70.014  1.00  0.00    -0.024 C  
HETATM   11  C   UNL     1      -8.564   2.760  70.682  1.00  0.00    -0.060 C  
HETATM   12  N   UNL     1      -7.168   3.010  71.051  1.00  0.00    -0.033 NA 
BRANCH   6  13
HETATM   13  C   UNL     1      -9.495   6.215  69.085  1.00  0.00    -0.144 A  
HETATM   14  C   UNL     1     -11.215   6.935  67.510  1.00  0.00    -0.188 A  
HETATM   15  C   UNL     1     -10.797   6.123  68.570  1.00  0.00    -0.389 A  
HETATM   16  C   UNL     1      -9.063   8.001  67.464  1.00  0.00    -0.146 A  
HETATM   17  C   UNL     1     -10.345   7.859  66.945  1.00  0.00    -0.400 A  
HETATM   18  C   UNL     1      -8.649   7.198  68.530  1.00  0.00    -0.124 A  
ENDBRANCH   6  13
ENDBRANCH   4   6
ENDBRANCH   3   4
ENDBRANCH   2   3
TORSDOF 4
ENDMDL
MODEL      181
REMARK 921   NORMALIZED FREE ENERGY PREDICTED BY IDOCK:   -2.16 KCAL/MOL
REMARK 922        TOTAL FREE ENERGY PREDICTED BY IDOCK:   -3.59 KCAL/MOL
REMARK 923 INTER-LIGAND FREE ENERGY PREDICTED BY IDOCK:   -3.32 KCAL/MOL
REMARK 924 INTRA-LIGAND FREE ENERGY PREDICTED BY IDOCK:   -0.27 KCAL/MOL
REMARK 927      BINDING AFFINITY PREDICTED BY RF-SCORE:    0.00 PKD
ROOT
HETATM    1  C   UNL     1      -6.706   6.589  65.264  1.00  0.00    -0.043 C  
HETATM    2  C   UNL     1      -6.946   7.966  65.869  1.00  0.00    -0.057 C  
ENDROOT
BRANCH   2   3
HETATM    3  O   UNL     1      -7.544   7.867  67.175  1.00  0.00    -0.096 OA 
BRANCH   3   4
HETATM    4  C   UNL     1      -8.891   7.661  67.161  1.00  0.00    -0.125 C  
HETATM    5  O   UNL     1      -9.622   8.056  66.254  1.00  0.00    -0.206 OA 
BRANCH   4   6
HETATM    6  C   UNL     1      -9.425   6.937  68.424  1.00  0.00    -0.128 C  
HETATM    7  C   UNL     1      -8.371   6.097  69.191  1.00  0.00    -0.116 C  
HETATM    8  C   UNL     1     -10.486   5.938  67.879  1.00  0.00    -0.297 C  
HETATM    9  C   UNL     1      -9.833   4.851  67.018  1.00  0.00    -0.193 C  
HETATM   10  C   UNL     1      -9.511   3.127  68.690  1.00  0.00    -0.126 C  
HETATM   11  C   UNL     1      -7.840   4.891  68.403  1.00  0.00    -0.082 C  
HETATM   12  N   UNL     1      -8.861   4.054  67.765  1.00  0.00    -0.109 NA 
BRANCH   6  13
HETATM   13  C   UNL     1     -10.006   8.009  69.377  1.00  0.00    -0.190 A  
HETATM   14  C   UNL     1     -10.665   8.792  71.593  1.00  0.00    -0.397 A  
HETATM   15  C   UNL     1     -10.050   7.843  70.770  1.00  0.00    -0.201 A  
HETATM   16  C   UNL     1     -11.179  10.139  69.672  1.00  0.00    -0.310 A  
HETATM   17  C   UNL     1     -11.245   9.929  71.045  1.00  0.00    -0.435 A  
HETATM   18  C   UNL     1     -10.554   9.197  68.851  1.00  0.00    -0.214 A  
ENDBRANCH   6  13
ENDBRANCH   4   6
ENDBRANCH   3   4
ENDBRANCH   2   3
TORSDOF 4
ENDMDL
MODEL      182
REMARK 921   NORMALIZED FREE ENERGY PREDICTED BY IDOCK:   -2.10 KCAL/MOL
REMARK 922        TOTAL FREE ENERGY PREDICTED BY IDOCK:   -3.52 KCAL/MOL
REMARK 923 INTER-LIGAND FREE ENERGY PREDICTED BY IDOCK:   -2.95 KCAL/MOL
REMARK 924 INTRA-LIGAND FREE ENERGY PREDICTED BY IDOCK:   -0.57 KCAL/MOL
REMARK 927      BINDING AFFINITY PREDICTED BY RF-SCORE:    0.00 PKD
ROOT
HETATM    1  C   UNL     1      -9.274   1.664  67.881  1.00  0.00    -0.204 C  
HETATM    2  C   UNL     1      -9.249   3.186  67.875  1.00  0.00    -0.196 C  
ENDROOT
BRANCH   2   3
HETATM    3  O   UNL     1      -9.667   3.723  69.145  1.00  0.00    -0.168 OA 
BRANCH   3   4
HETATM    4  C   UNL     1      -8.646   4.176  69.925  1.00  0.00    -0.068 C  
HETATM    5  O   UNL     1      -7.486   4.270  69.527  1.00  0.00    -0.053 OA 
BRANCH   4   6
HETATM    6  C   UNL     1      -9.071   4.504  71.380  1.00  0.00    -0.177 C  
HETATM    7  C   UNL     1      -7.909   4.550  72.405  1.00  0.00    -0.090 C  
HETATM    8  C   UNL     1      -9.988   3.318  71.793  1.00  0.00    -0.192 C  
HETATM    9  C   UNL     1      -9.198   2.008  71.872  1.00  0.00    -0.089 C  
HETATM   10  C   UNL     1      -8.636   1.998  74.230  1.00  0.00    -0.058 C  
HETATM   11  C   UNL     1      -7.223   3.195  72.631  1.00  0.00    -0.047 C  
HETATM   12  N   UNL     1      -8.122   2.061  72.863  1.00  0.00    -0.053 NA 
BRANCH   6  13
HETATM   13  C   UNL     1      -9.787   5.876  71.368  1.00  0.00    -0.205 A  
HETATM   14  C   UNL     1      -9.855   8.267  70.878  1.00  0.00    -0.215 A  
HETATM   15  C   UNL     1      -9.221   7.023  70.790  1.00  0.00    -0.157 A  
HETATM   16  C   UNL     1     -11.673   7.265  72.087  1.00  0.00    -0.323 A  
HETATM   17  C   UNL     1     -11.069   8.392  71.543  1.00  0.00    -0.329 A  
HETATM   18  C   UNL     1     -11.045   6.020  71.989  1.00  0.00    -0.325 A  
ENDBRANCH   6  13
ENDBRANCH   4   6
ENDBRANCH   3   4
ENDBRANCH   2   3
TORSDOF 4
ENDMDL
MODEL      183
REMARK 921   NORMALIZED FREE ENERGY PREDICTED BY IDOCK:   -2.10 KCAL/MOL
REMARK 922        TOTAL FREE ENERGY PREDICTED BY IDOCK:   -3.51 KCAL/MOL
REMARK 923 INTER-LIGAND FREE ENERGY PREDICTED BY IDOCK:   -3.91 KCAL/MOL
REMARK 924 INTRA-LIGAND FREE ENERGY PREDICTED BY IDOCK:    0.40 KCAL/MOL
REMARK 927      BINDING AFFINITY PREDICTED BY RF-SCORE:    0.00 PKD
ROOT
HETATM    1  C   UNL     1      -5.408  19.892  70.789  1.00  0.00    -0.278 C  
HETATM    2  C   UNL     1      -5.304  18.677  69.878  1.00  0.00    -0.216 C  
ENDROOT
BRANCH   2   3
HETATM    3  O   UNL     1      -6.071  18.857  68.672  1.00  0.00    -0.211 OA 
BRANCH   3   4
HETATM    4  C   UNL     1      -7.417  18.926  68.870  1.00  0.00    -0.303 C  
HETATM    5  O   UNL     1      -7.929  19.533  69.810  1.00  0.00     0.094 OA 
BRANCH   4   6
HETATM    6  C   UNL     1      -8.242  18.116  67.837  1.00  0.00    -0.253 C  
HETATM    7  C   UNL     1      -7.943  18.452  66.353  1.00  0.00    -0.288 C  
HETATM    8  C   UNL     1      -9.716  18.533  68.103  1.00  0.00    -0.367 C  
HETATM    9  C   UNL     1      -9.945  20.009  67.758  1.00  0.00    -0.423 C  
HETATM   10  C   UNL     1     -10.740  19.788  65.478  1.00  0.00    -0.227 C  
HETATM   11  C   UNL     1      -8.339  19.878  65.944  1.00  0.00    -0.187 C  
HETATM   12  N   UNL     1      -9.683  20.301  66.349  1.00  0.00    -0.395 NA 
BRANCH   6  13
HETATM   13  C   UNL     1      -7.963  16.613  68.079  1.00  0.00    -0.173 A  
HETATM   14  C   UNL     1      -6.877  14.503  67.504  1.00  0.00    -0.168 A  
HETATM   15  C   UNL     1      -7.037  15.881  67.319  1.00  0.00    -0.242 A  
HETATM   16  C   UNL     1      -8.527  14.536  69.249  1.00  0.00     0.099 A  
HETATM   17  C   UNL     1      -7.634  13.828  68.454  1.00  0.00    -0.135 A  
HETATM   18  C   UNL     1      -8.679  15.914  69.073  1.00  0.00    -0.236 A  
ENDBRANCH   6  13
ENDBRANCH   4   6
ENDBRANCH   3   4
ENDBRANCH   2   3
TORSDOF 4
ENDMDL
MODEL      184
REMARK 921   NORMALIZED FREE ENERGY PREDICTED BY IDOCK:   -2.06 KCAL/MOL
REMARK 922        TOTAL FREE ENERGY PREDICTED BY IDOCK:   -3.47 KCAL/MOL
REMARK 923 INTER-LIGAND FREE ENERGY PREDICTED BY IDOCK:   -3.38 KCAL/MOL
REMARK 924 INTRA-LIGAND FREE ENERGY PREDICTED BY IDOCK:   -0.09 KCAL/MOL
REMARK 927      BINDING AFFINITY PREDICTED BY RF-SCORE:    0.00 PKD
ROOT
HETATM    1  C   UNL     1     -11.687   6.481  72.255  1.00  0.00    -0.320 C  
HETATM    2  C   UNL     1     -11.582   7.535  71.161  1.00  0.00    -0.282 C  
ENDROOT
BRANCH   2   3
HETATM    3  O   UNL     1     -10.210   7.890  70.905  1.00  0.00    -0.198 OA 
BRANCH   3   4
HETATM    4  C   UNL     1     -10.052   8.932  70.040  1.00  0.00    -0.192 C  
HETATM    5  O   UNL     1     -10.736   9.953  70.086  1.00  0.00    -0.263 OA 
BRANCH   4   6
HETATM    6  C   UNL     1      -8.975   8.683  68.953  1.00  0.00    -0.142 C  
HETATM    7  C   UNL     1      -7.522   8.579  69.484  1.00  0.00    -0.080 C  
HETATM    8  C   UNL     1      -9.034   9.949  68.051  1.00  0.00    -0.121 C  
HETATM    9  C   UNL     1      -8.578  11.196  68.816  1.00  0.00    -0.132 C  
HETATM   10  C   UNL     1      -6.235  11.235  68.196  1.00  0.00    -0.049 C  
HETATM   11  C   UNL     1      -6.985   9.883  70.092  1.00  0.00    -0.138 C  
HETATM   12  N   UNL     1      -7.197  11.090  69.287  1.00  0.00    -0.121 NA 
BRANCH   6  13
HETATM   13  C   UNL     1      -9.337   7.371  68.216  1.00  0.00    -0.140 A  
HETATM   14  C   UNL     1     -10.754   6.061  66.721  1.00  0.00    -0.374 A  
HETATM   15  C   UNL     1     -10.396   7.284  67.299  1.00  0.00    -0.349 A  
HETATM   16  C   UNL     1      -8.981   4.966  67.916  1.00  0.00    -0.120 A  
HETATM   17  C   UNL     1     -10.061   4.901  67.043  1.00  0.00    -0.243 A  
HETATM   18  C   UNL     1      -8.616   6.189  68.485  1.00  0.00    -0.113 A  
ENDBRANCH   6  13
ENDBRANCH   4   6
ENDBRANCH   3   4
ENDBRANCH   2   3
TORSDOF 4
ENDMDL
MODEL      185
REMARK 921   NORMALIZED FREE ENERGY PREDICTED BY IDOCK:   -2.06 KCAL/MOL
REMARK 922        TOTAL FREE ENERGY PREDICTED BY IDOCK:   -3.46 KCAL/MOL
REMARK 923 INTER-LIGAND FREE ENERGY PREDICTED BY IDOCK:   -2.96 KCAL/MOL
REMARK 924 INTRA-LIGAND FREE ENERGY PREDICTED BY IDOCK:   -0.50 KCAL/MOL
REMARK 927      BINDING AFFINITY PREDICTED BY RF-SCORE:    0.00 PKD
ROOT
HETATM    1  C   UNL     1     -10.044   9.898  66.404  1.00  0.00    -0.308 C  
HETATM    2  C   UNL     1     -10.439   8.652  67.185  1.00  0.00    -0.289 C  
ENDROOT
BRANCH   2   3
HETATM    3  O   UNL     1      -9.941   7.457  66.553  1.00  0.00    -0.198 OA 
BRANCH   3   4
HETATM    4  C   UNL     1     -10.127   6.320  67.279  1.00  0.00    -0.163 C  
HETATM    5  O   UNL     1     -10.973   6.220  68.167  1.00  0.00    -0.302 OA 
BRANCH   4   6
HETATM    6  C   UNL     1      -9.132   5.184  66.927  1.00  0.00    -0.116 C  
HETATM    7  C   UNL     1      -9.237   3.922  67.822  1.00  0.00    -0.206 C  
HETATM    8  C   UNL     1      -7.729   5.803  67.187  1.00  0.00    -0.101 C  
HETATM    9  C   UNL     1      -7.520   6.096  68.676  1.00  0.00    -0.087 C  
HETATM   10  C   UNL     1      -6.408   4.052  69.355  1.00  0.00    -0.029 C  
HETATM   11  C   UNL     1      -8.852   4.163  69.288  1.00  0.00    -0.095 C  
HETATM   12  N   UNL     1      -7.597   4.891  69.501  1.00  0.00    -0.056 NA 
BRANCH   6  13
HETATM   13  C   UNL     1      -9.375   4.779  65.453  1.00  0.00    -0.161 A  
HETATM   14  C   UNL     1     -10.673   3.665  63.712  1.00  0.00    -0.271 A  
HETATM   15  C   UNL     1     -10.528   4.097  65.034  1.00  0.00    -0.187 A  
HETATM   16  C   UNL     1      -8.540   4.620  63.156  1.00  0.00    -0.116 A  
HETATM   17  C   UNL     1      -9.673   3.908  62.778  1.00  0.00    -0.138 A  
HETATM   18  C   UNL     1      -8.400   5.061  64.474  1.00  0.00    -0.135 A  
ENDBRANCH   6  13
ENDBRANCH   4   6
ENDBRANCH   3   4
ENDBRANCH   2   3
TORSDOF 4
ENDMDL
MODEL      186
REMARK 921   NORMALIZED FREE ENERGY PREDICTED BY IDOCK:   -2.05 KCAL/MOL
REMARK 922        TOTAL FREE ENERGY PREDICTED BY IDOCK:   -3.45 KCAL/MOL
REMARK 923 INTER-LIGAND FREE ENERGY PREDICTED BY IDOCK:   -4.37 KCAL/MOL
REMARK 924 INTRA-LIGAND FREE ENERGY PREDICTED BY IDOCK:    0.91 KCAL/MOL
REMARK 927      BINDING AFFINITY PREDICTED BY RF-SCORE:    0.00 PKD
ROOT
HETATM    1  C   UNL     1      -9.653  10.781  63.011  1.00  0.00    -0.381 C  
HETATM    2  C   UNL     1      -9.383  10.057  64.323  1.00  0.00    -0.288 C  
ENDROOT
BRANCH   2   3
HETATM    3  O   UNL     1     -10.560  10.020  65.153  1.00  0.00     0.020 OA 
BRANCH   3   4
HETATM    4  C   UNL     1     -10.310  10.151  66.486  1.00  0.00    -0.202 C  
HETATM    5  O   UNL     1     -10.622   9.297  67.315  1.00  0.00    -0.264 OA 
BRANCH   4   6
HETATM    6  C   UNL     1      -9.655  11.503  66.868  1.00  0.00    -0.203 C  
HETATM    7  C   UNL     1      -8.155  11.632  66.493  1.00  0.00    -0.075 C  
HETATM    8  C   UNL     1      -9.734  11.547  68.421  1.00  0.00    -0.202 C  
HETATM    9  C   UNL     1      -8.855  10.462  69.052  1.00  0.00    -0.172 C  
HETATM   10  C   UNL     1      -6.823  11.730  69.423  1.00  0.00    -0.067 C  
HETATM   11  C   UNL     1      -7.236  10.669  67.257  1.00  0.00    -0.091 C  
HETATM   12  N   UNL     1      -7.442  10.615  68.707  1.00  0.00    -0.096 NA 
BRANCH   6  13
HETATM   13  C   UNL     1     -10.449  12.631  66.168  1.00  0.00    -0.278 A  
HETATM   14  C   UNL     1     -10.646  14.899  65.285  1.00  0.00    -0.421 A  
HETATM   15  C   UNL     1      -9.875  13.869  65.834  1.00  0.00    -0.287 A  
HETATM   16  C   UNL     1     -12.588  13.487  65.336  1.00  0.00    -0.531 A  
HETATM   17  C   UNL     1     -12.003  14.716  65.054  1.00  0.00    -0.364 A  
HETATM   18  C   UNL     1     -11.816  12.453  65.873  1.00  0.00    -0.467 A  
ENDBRANCH   6  13
ENDBRANCH   4   6
ENDBRANCH   3   4
ENDBRANCH   2   3
TORSDOF 4
ENDMDL
MODEL      187
REMARK 921   NORMALIZED FREE ENERGY PREDICTED BY IDOCK:   -1.99 KCAL/MOL
REMARK 922        TOTAL FREE ENERGY PREDICTED BY IDOCK:   -3.38 KCAL/MOL
REMARK 923 INTER-LIGAND FREE ENERGY PREDICTED BY IDOCK:   -2.99 KCAL/MOL
REMARK 924 INTRA-LIGAND FREE ENERGY PREDICTED BY IDOCK:   -0.39 KCAL/MOL
REMARK 927      BINDING AFFINITY PREDICTED BY RF-SCORE:    0.00 PKD
ROOT
HETATM    1  C   UNL     1      -9.912   9.402  66.562  1.00  0.00    -0.339 C  
HETATM    2  C   UNL     1     -10.174   8.018  67.141  1.00  0.00    -0.292 C  
ENDROOT
BRANCH   2   3
HETATM    3  O   UNL     1      -9.448   7.003  66.421  1.00  0.00    -0.175 OA 
BRANCH   3   4
HETATM    4  C   UNL     1     -10.049   5.780  66.418  1.00  0.00    -0.133 C  
HETATM    5  O   UNL     1     -11.270   5.631  66.418  1.00  0.00    -0.075 OA 
BRANCH   4   6
HETATM    6  C   UNL     1      -9.051   4.594  66.479  1.00  0.00    -0.123 C  
HETATM    7  C   UNL     1      -7.560   4.984  66.310  1.00  0.00    -0.087 C  
HETATM    8  C   UNL     1      -9.425   3.709  65.256  1.00  0.00    -0.162 C  
HETATM    9  C   UNL     1      -9.134   4.434  63.938  1.00  0.00    -0.138 C  
HETATM   10  C   UNL     1      -6.907   3.595  63.479  1.00  0.00    -0.043 C  
HETATM   11  C   UNL     1      -7.215   5.545  64.924  1.00  0.00    -0.062 C  
HETATM   12  N   UNL     1      -7.719   4.772  63.785  1.00  0.00    -0.071 NA 
BRANCH   6  13
HETATM   13  C   UNL     1      -9.236   3.888  67.844  1.00  0.00    -0.209 A  
HETATM   14  C   UNL     1      -9.405   3.916  70.279  1.00  0.00    -0.238 A  
HETATM   15  C   UNL     1      -9.331   4.590  69.055  1.00  0.00    -0.211 A  
HETATM   16  C   UNL     1      -9.340   1.807  69.132  1.00  0.00    -0.185 A  
HETATM   17  C   UNL     1      -9.390   2.527  70.319  1.00  0.00    -0.192 A  
HETATM   18  C   UNL     1      -9.277   2.479  67.909  1.00  0.00    -0.250 A  
ENDBRANCH   6  13
ENDBRANCH   4   6
ENDBRANCH   3   4
ENDBRANCH   2   3
TORSDOF 4
ENDMDL
MODEL      188
REMARK 921   NORMALIZED FREE ENERGY PREDICTED BY IDOCK:   -1.96 KCAL/MOL
REMARK 922        TOTAL FREE ENERGY PREDICTED BY IDOCK:   -3.34 KCAL/MOL
REMARK 923 INTER-LIGAND FREE ENERGY PREDICTED BY IDOCK:   -2.92 KCAL/MOL
REMARK 924 INTRA-LIGAND FREE ENERGY PREDICTED BY IDOCK:   -0.42 KCAL/MOL
REMARK 927      BINDING AFFINITY PREDICTED BY RF-SCORE:    0.00 PKD
ROOT
HETATM    1  C   UNL     1     -11.065   6.604  71.057  1.00  0.00    -0.330 C  
HETATM    2  C   UNL     1     -11.231   6.666  69.545  1.00  0.00    -0.326 C  
ENDROOT
BRANCH   2   3
HETATM    3  O   UNL     1     -10.044   7.176  68.908  1.00  0.00    -0.167 OA 
BRANCH   3   4
HETATM    4  C   UNL     1     -10.150   7.318  67.557  1.00  0.00    -0.193 C  
HETATM    5  O   UNL     1     -11.174   7.051  66.931  1.00  0.00    -0.302 OA 
BRANCH   4   6
HETATM    6  C   UNL     1      -8.839   7.787  66.874  1.00  0.00    -0.143 C  
HETATM    7  C   UNL     1      -7.835   8.508  67.811  1.00  0.00    -0.103 C  
HETATM    8  C   UNL     1      -9.303   8.835  65.822  1.00  0.00    -0.259 C  
HETATM    9  C   UNL     1      -9.890  10.078  66.500  1.00  0.00    -0.210 C  
HETATM   10  C   UNL     1      -7.918  11.484  66.582  1.00  0.00    -0.127 C  
HETATM   11  C   UNL     1      -8.342   9.851  68.354  1.00  0.00    -0.107 C  
HETATM   12  N   UNL     1      -8.922  10.758  67.359  1.00  0.00    -0.139 NA 
BRANCH   6  13
HETATM   13  C   UNL     1      -8.152   6.544  66.260  1.00  0.00    -0.115 A  
HETATM   14  C   UNL     1      -7.689   5.042  64.392  1.00  0.00    -0.085 A  
HETATM   15  C   UNL     1      -8.245   6.222  64.896  1.00  0.00    -0.119 A  
HETATM   16  C   UNL     1      -6.881   4.475  66.582  1.00  0.00    -0.052 A  
HETATM   17  C   UNL     1      -7.025   4.160  65.236  1.00  0.00    -0.058 A  
HETATM   18  C   UNL     1      -7.427   5.659  67.084  1.00  0.00    -0.084 A  
ENDBRANCH   6  13
ENDBRANCH   4   6
ENDBRANCH   3   4
ENDBRANCH   2   3
TORSDOF 4
ENDMDL
MODEL      189
REMARK 921   NORMALIZED FREE ENERGY PREDICTED BY IDOCK:   -1.92 KCAL/MOL
REMARK 922        TOTAL FREE ENERGY PREDICTED BY IDOCK:   -3.29 KCAL/MOL
REMARK 923 INTER-LIGAND FREE ENERGY PREDICTED BY IDOCK:   -2.80 KCAL/MOL
REMARK 924 INTRA-LIGAND FREE ENERGY PREDICTED BY IDOCK:   -0.49 KCAL/MOL
REMARK 927      BINDING AFFINITY PREDICTED BY RF-SCORE:    0.00 PKD
ROOT
HETATM    1  C   UNL     1      -8.436  10.066  69.202  1.00  0.00    -0.156 C  
HETATM    2  C   UNL     1      -9.062   9.421  70.432  1.00  0.00    -0.256 C  
ENDROOT
BRANCH   2   3
HETATM    3  O   UNL     1      -8.672   8.040  70.555  1.00  0.00    -0.132 OA 
BRANCH   3   4
HETATM    4  C   UNL     1      -9.716   7.172  70.672  1.00  0.00    -0.175 C  
HETATM    5  O   UNL     1     -10.893   7.522  70.600  1.00  0.00    -0.231 OA 
BRANCH   4   6
HETATM    6  C   UNL     1      -9.284   5.712  70.966  1.00  0.00    -0.173 C  
HETATM    7  C   UNL     1     -10.369   4.832  71.638  1.00  0.00    -0.215 C  
HETATM    8  C   UNL     1      -8.121   5.850  71.990  1.00  0.00    -0.108 C  
HETATM    9  C   UNL     1      -8.621   6.416  73.323  1.00  0.00    -0.121 C  
HETATM   10  C   UNL     1      -9.031   4.353  74.528  1.00  0.00    -0.103 C  
HETATM   11  C   UNL     1     -10.749   5.283  73.055  1.00  0.00    -0.257 C  
HETATM   12  N   UNL     1      -9.625   5.560  73.954  1.00  0.00    -0.139 NA 
BRANCH   6  13
HETATM   13  C   UNL     1      -8.865   5.061  69.626  1.00  0.00    -0.121 A  
HETATM   14  C   UNL     1      -9.377   4.161  67.415  1.00  0.00    -0.204 A  
HETATM   15  C   UNL     1      -9.769   4.835  68.577  1.00  0.00    -0.215 A  
HETATM   16  C   UNL     1      -7.146   3.949  68.281  1.00  0.00    -0.051 A  
HETATM   17  C   UNL     1      -8.073   3.701  67.275  1.00  0.00    -0.090 A  
HETATM   18  C   UNL     1      -7.535   4.632  69.436  1.00  0.00    -0.052 A  
ENDBRANCH   6  13
ENDBRANCH   4   6
ENDBRANCH   3   4
ENDBRANCH   2   3
TORSDOF 4
ENDMDL
MODEL      190
REMARK 921   NORMALIZED FREE ENERGY PREDICTED BY IDOCK:   -1.89 KCAL/MOL
REMARK 922        TOTAL FREE ENERGY PREDICTED BY IDOCK:   -3.25 KCAL/MOL
REMARK 923 INTER-LIGAND FREE ENERGY PREDICTED BY IDOCK:   -2.37 KCAL/MOL
REMARK 924 INTRA-LIGAND FREE ENERGY PREDICTED BY IDOCK:   -0.89 KCAL/MOL
REMARK 927      BINDING AFFINITY PREDICTED BY RF-SCORE:    0.00 PKD
ROOT
HETATM    1  C   UNL     1     -10.239   9.239  70.785  1.00  0.00    -0.353 C  
HETATM    2  C   UNL     1     -10.877   8.279  69.791  1.00  0.00    -0.185 C  
ENDROOT
BRANCH   2   3
HETATM    3  O   UNL     1      -9.896   7.399  69.209  1.00  0.00    -0.164 OA 
BRANCH   3   4
HETATM    4  C   UNL     1      -9.666   7.614  67.883  1.00  0.00    -0.148 C  
HETATM    5  O   UNL     1     -10.567   7.714  67.052  1.00  0.00    -0.329 OA 
BRANCH   4   6
HETATM    6  C   UNL     1      -8.162   7.659  67.510  1.00  0.00    -0.121 C  
HETATM    7  C   UNL     1      -7.868   7.835  65.998  1.00  0.00    -0.100 C  
HETATM    8  C   UNL     1      -7.620   6.257  67.912  1.00  0.00    -0.102 C  
HETATM    9  C   UNL     1      -8.236   5.155  67.041  1.00  0.00    -0.107 C  
HETATM   10  C   UNL     1      -6.538   4.982  65.320  1.00  0.00    -0.037 C  
HETATM   11  C   UNL     1      -8.318   6.650  65.132  1.00  0.00    -0.088 C  
HETATM   12  N   UNL     1      -7.927   5.325  65.622  1.00  0.00    -0.103 NA 
BRANCH   6  13
HETATM   13  C   UNL     1      -7.513   8.827  68.290  1.00  0.00    -0.092 A  
HETATM   14  C   UNL     1      -6.079   9.702  70.062  1.00  0.00    -0.049 A  
HETATM   15  C   UNL     1      -6.575   8.628  69.316  1.00  0.00    -0.049 A  
HETATM   16  C   UNL     1      -7.398  11.229  68.759  1.00  0.00    -0.109 A  
HETATM   17  C   UNL     1      -6.503  10.998  69.797  1.00  0.00    -0.137 A  
HETATM   18  C   UNL     1      -7.886  10.158  68.006  1.00  0.00    -0.096 A  
ENDBRANCH   6  13
ENDBRANCH   4   6
ENDBRANCH   3   4
ENDBRANCH   2   3
TORSDOF 4
ENDMDL
MODEL      191
REMARK 921   NORMALIZED FREE ENERGY PREDICTED BY IDOCK:   -1.89 KCAL/MOL
REMARK 922        TOTAL FREE ENERGY PREDICTED BY IDOCK:   -3.25 KCAL/MOL
REMARK 923 INTER-LIGAND FREE ENERGY PREDICTED BY IDOCK:   -2.78 KCAL/MOL
REMARK 924 INTRA-LIGAND FREE ENERGY PREDICTED BY IDOCK:   -0.47 KCAL/MOL
REMARK 927      BINDING AFFINITY PREDICTED BY RF-SCORE:    0.00 PKD
ROOT
HETATM    1  C   UNL     1      -5.430   5.840  69.842  1.00  0.00    -0.008 C  
HETATM    2  C   UNL     1      -5.620   5.016  71.108  1.00  0.00    -0.012 C  
ENDROOT
BRANCH   2   3
HETATM    3  O   UNL     1      -6.942   4.446  71.170  1.00  0.00    -0.034 OA 
BRANCH   3   4
HETATM    4  C   UNL     1      -7.930   5.349  71.427  1.00  0.00    -0.115 C  
HETATM    5  O   UNL     1      -7.769   6.337  72.142  1.00  0.00    -0.095 OA 
BRANCH   4   6
HETATM    6  C   UNL     1      -9.293   4.981  70.786  1.00  0.00    -0.209 C  
HETATM    7  C   UNL     1      -9.208   4.431  69.339  1.00  0.00    -0.200 C  
HETATM    8  C   UNL     1     -10.062   6.331  70.708  1.00  0.00    -0.229 C  
HETATM    9  C   UNL     1      -9.386   7.298  69.730  1.00  0.00    -0.150 C  
HETATM   10  C   UNL     1     -10.649   6.812  67.719  1.00  0.00    -0.249 C  
HETATM   11  C   UNL     1      -8.703   5.452  68.311  1.00  0.00    -0.101 C  
HETATM   12  N   UNL     1      -9.338   6.772  68.366  1.00  0.00    -0.126 NA 
BRANCH   6  13
HETATM   13  C   UNL     1      -9.973   3.924  71.689  1.00  0.00    -0.223 A  
HETATM   14  C   UNL     1     -11.112   3.257  73.743  1.00  0.00    -0.288 A  
HETATM   15  C   UNL     1     -10.589   4.250  72.908  1.00  0.00    -0.255 A  
HETATM   16  C   UNL     1     -10.471   1.572  72.156  1.00  0.00    -0.195 A  
HETATM   17  C   UNL     1     -11.036   1.919  73.378  1.00  0.00    -0.278 A  
HETATM   18  C   UNL     1      -9.958   2.564  71.317  1.00  0.00    -0.019 A  
ENDBRANCH   6  13
ENDBRANCH   4   6
ENDBRANCH   3   4
ENDBRANCH   2   3
TORSDOF 4
ENDMDL
MODEL      192
REMARK 921   NORMALIZED FREE ENERGY PREDICTED BY IDOCK:   -1.88 KCAL/MOL
REMARK 922        TOTAL FREE ENERGY PREDICTED BY IDOCK:   -3.24 KCAL/MOL
REMARK 923 INTER-LIGAND FREE ENERGY PREDICTED BY IDOCK:   -3.33 KCAL/MOL
REMARK 924 INTRA-LIGAND FREE ENERGY PREDICTED BY IDOCK:    0.09 KCAL/MOL
REMARK 927      BINDING AFFINITY PREDICTED BY RF-SCORE:    0.00 PKD
ROOT
HETATM    1  C   UNL     1      -9.175   5.256  68.164  1.00  0.00    -0.129 C  
HETATM    2  C   UNL     1     -10.043   5.223  69.414  1.00  0.00    -0.241 C  
ENDROOT
BRANCH   2   3
HETATM    3  O   UNL     1     -10.637   6.510  69.675  1.00  0.00    -0.206 OA 
BRANCH   3   4
HETATM    4  C   UNL     1      -9.941   7.279  70.558  1.00  0.00    -0.190 C  
HETATM    5  O   UNL     1      -9.653   6.906  71.694  1.00  0.00    -0.162 OA 
BRANCH   4   6
HETATM    6  C   UNL     1      -9.600   8.693  70.019  1.00  0.00    -0.175 C  
HETATM    7  C   UNL     1      -9.259   8.753  68.508  1.00  0.00    -0.141 C  
HETATM    8  C   UNL     1      -8.310   9.100  70.787  1.00  0.00    -0.248 C  
HETATM    9  C   UNL     1      -7.128   8.207  70.397  1.00  0.00    -0.041 C  
HETATM   10  C   UNL     1      -6.143   9.556  68.641  1.00  0.00    -0.043 C  
HETATM   11  C   UNL     1      -7.970   8.011  68.129  1.00  0.00    -0.128 C  
HETATM   12  N   UNL     1      -6.805   8.296  68.973  1.00  0.00    -0.055 NA 
BRANCH   6  13
HETATM   13  C   UNL     1     -10.812   9.613  70.300  1.00  0.00    -0.339 A  
HETATM   14  C   UNL     1     -12.414  11.330  69.630  1.00  0.00    -0.160 A  
HETATM   15  C   UNL     1     -11.378  10.443  69.318  1.00  0.00    -0.296 A  
HETATM   16  C   UNL     1     -12.397  10.565  71.907  1.00  0.00    -0.114 A  
HETATM   17  C   UNL     1     -12.910  11.405  70.926  1.00  0.00    -0.323 A  
HETATM   18  C   UNL     1     -11.370   9.671  71.594  1.00  0.00    -0.336 A  
ENDBRANCH   6  13
ENDBRANCH   4   6
ENDBRANCH   3   4
ENDBRANCH   2   3
TORSDOF 4
ENDMDL
MODEL      193
REMARK 921   NORMALIZED FREE ENERGY PREDICTED BY IDOCK:   -1.86 KCAL/MOL
REMARK 922        TOTAL FREE ENERGY PREDICTED BY IDOCK:   -3.22 KCAL/MOL
REMARK 923 INTER-LIGAND FREE ENERGY PREDICTED BY IDOCK:   -2.92 KCAL/MOL
REMARK 924 INTRA-LIGAND FREE ENERGY PREDICTED BY IDOCK:   -0.30 KCAL/MOL
REMARK 927      BINDING AFFINITY PREDICTED BY RF-SCORE:    0.00 PKD
ROOT
HETATM    1  C   UNL     1      -6.525  14.357  70.227  1.00  0.00    -0.130 C  
HETATM    2  C   UNL     1      -6.007  13.224  69.352  1.00  0.00    -0.100 C  
ENDROOT
BRANCH   2   3
HETATM    3  O   UNL     1      -7.083  12.384  68.891  1.00  0.00    -0.101 OA 
BRANCH   3   4
HETATM    4  C   UNL     1      -7.744  12.868  67.802  1.00  0.00    -0.151 C  
HETATM    5  O   UNL     1      -7.330  13.811  67.128  1.00  0.00    -0.077 OA 
BRANCH   4   6
HETATM    6  C   UNL     1      -9.096  12.161  67.527  1.00  0.00    -0.180 C  
HETATM    7  C   UNL     1      -9.758  12.520  66.171  1.00  0.00    -0.259 C  
HETATM    8  C   UNL     1     -10.044  12.688  68.642  1.00  0.00    -0.131 C  
HETATM    9  C   UNL     1     -10.313  14.188  68.477  1.00  0.00    -0.249 C  
HETATM   10  C   UNL     1     -12.368  14.106  67.194  1.00  0.00    -0.178 C  
HETATM   11  C   UNL     1     -10.202  13.985  66.062  1.00  0.00    -0.304 C  
HETATM   12  N   UNL     1     -10.960  14.503  67.204  1.00  0.00    -0.296 NA 
BRANCH   6  13
HETATM   13  C   UNL     1      -8.854  10.633  67.581  1.00  0.00    -0.131 A  
HETATM   14  C   UNL     1      -7.996   8.553  66.633  1.00  0.00    -0.100 A  
HETATM   15  C   UNL     1      -8.118   9.947  66.603  1.00  0.00    -0.117 A  
HETATM   16  C   UNL     1      -9.302   8.474  68.648  1.00  0.00    -0.142 A  
HETATM   17  C   UNL     1      -8.603   7.816  67.643  1.00  0.00    -0.123 A  
HETATM   18  C   UNL     1      -9.414   9.867  68.624  1.00  0.00    -0.153 A  
ENDBRANCH   6  13
ENDBRANCH   4   6
ENDBRANCH   3   4
ENDBRANCH   2   3
TORSDOF 4
ENDMDL
MODEL      194
REMARK 921   NORMALIZED FREE ENERGY PREDICTED BY IDOCK:   -1.84 KCAL/MOL
REMARK 922        TOTAL FREE ENERGY PREDICTED BY IDOCK:   -3.20 KCAL/MOL
REMARK 923 INTER-LIGAND FREE ENERGY PREDICTED BY IDOCK:   -2.65 KCAL/MOL
REMARK 924 INTRA-LIGAND FREE ENERGY PREDICTED BY IDOCK:   -0.55 KCAL/MOL
REMARK 927      BINDING AFFINITY PREDICTED BY RF-SCORE:    0.00 PKD
ROOT
HETATM    1  C   UNL     1     -11.002   6.225  70.321  1.00  0.00    -0.400 C  
HETATM    2  C   UNL     1     -11.109   5.909  68.836  1.00  0.00    -0.184 C  
ENDROOT
BRANCH   2   3
HETATM    3  O   UNL     1      -9.872   6.186  68.150  1.00  0.00    -0.124 OA 
BRANCH   3   4
HETATM    4  C   UNL     1      -9.847   7.386  67.505  1.00  0.00    -0.158 C  
HETATM    5  O   UNL     1     -10.861   7.956  67.104  1.00  0.00    -0.296 OA 
BRANCH   4   6
HETATM    6  C   UNL     1      -8.416   7.935  67.265  1.00  0.00    -0.121 C  
HETATM    7  C   UNL     1      -7.277   7.090  67.891  1.00  0.00    -0.091 C  
HETATM    8  C   UNL     1      -8.403   9.312  67.988  1.00  0.00    -0.120 C  
HETATM    9  C   UNL     1      -8.538   9.142  69.505  1.00  0.00    -0.138 C  
HETATM   10  C   UNL     1      -6.198   9.130  70.136  1.00  0.00    -0.043 C  
HETATM   11  C   UNL     1      -7.293   7.061  69.426  1.00  0.00    -0.091 C  
HETATM   12  N   UNL     1      -7.441   8.364  70.081  1.00  0.00    -0.061 NA 
BRANCH   6  13
HETATM   13  C   UNL     1      -8.193   8.028  65.736  1.00  0.00    -0.132 A  
HETATM   14  C   UNL     1      -8.095   9.286  63.646  1.00  0.00    -0.155 A  
HETATM   15  C   UNL     1      -8.208   9.247  65.040  1.00  0.00    -0.146 A  
HETATM   16  C   UNL     1      -7.900   6.893  63.586  1.00  0.00    -0.107 A  
HETATM   17  C   UNL     1      -7.961   8.110  62.918  1.00  0.00    -0.157 A  
HETATM   18  C   UNL     1      -8.001   6.854  64.979  1.00  0.00    -0.125 A  
ENDBRANCH   6  13
ENDBRANCH   4   6
ENDBRANCH   3   4
ENDBRANCH   2   3
TORSDOF 4
ENDMDL
MODEL      195
REMARK 921   NORMALIZED FREE ENERGY PREDICTED BY IDOCK:   -1.77 KCAL/MOL
REMARK 922        TOTAL FREE ENERGY PREDICTED BY IDOCK:   -3.11 KCAL/MOL
REMARK 923 INTER-LIGAND FREE ENERGY PREDICTED BY IDOCK:   -2.26 KCAL/MOL
REMARK 924 INTRA-LIGAND FREE ENERGY PREDICTED BY IDOCK:   -0.85 KCAL/MOL
REMARK 927      BINDING AFFINITY PREDICTED BY RF-SCORE:    0.00 PKD
ROOT
HETATM    1  C   UNL     1      -9.381  12.152  66.144  1.00  0.00    -0.198 C  
HETATM    2  C   UNL     1     -10.390  11.302  66.904  1.00  0.00    -0.234 C  
ENDROOT
BRANCH   2   3
HETATM    3  O   UNL     1      -9.734  10.310  67.716  1.00  0.00    -0.153 OA 
BRANCH   3   4
HETATM    4  C   UNL     1      -9.988   9.024  67.343  1.00  0.00    -0.209 C  
HETATM    5  O   UNL     1     -11.124   8.594  67.144  1.00  0.00     0.046 OA 
BRANCH   4   6
HETATM    6  C   UNL     1      -8.720   8.137  67.256  1.00  0.00    -0.125 C  
HETATM    7  C   UNL     1      -8.984   6.652  66.892  1.00  0.00    -0.131 C  
HETATM    8  C   UNL     1      -8.137   8.149  68.698  1.00  0.00    -0.124 C  
HETATM    9  C   UNL     1      -9.076   7.441  69.681  1.00  0.00    -0.140 C  
HETATM   10  C   UNL     1      -8.124   5.213  69.641  1.00  0.00    -0.089 C  
HETATM   11  C   UNL     1      -9.771   5.879  67.959  1.00  0.00    -0.119 C  
HETATM   12  N   UNL     1      -9.292   6.037  69.336  1.00  0.00    -0.131 NA 
BRANCH   6  13
HETATM   13  C   UNL     1      -7.779   8.756  66.194  1.00  0.00    -0.101 A  
HETATM   14  C   UNL     1      -5.843  10.098  65.552  1.00  0.00    -0.094 A  
HETATM   15  C   UNL     1      -6.620   9.473  66.533  1.00  0.00    -0.071 A  
HETATM   16  C   UNL     1      -7.321   9.278  63.845  1.00  0.00    -0.102 A  
HETATM   17  C   UNL     1      -6.203  10.018  64.213  1.00  0.00    -0.132 A  
HETATM   18  C   UNL     1      -8.091   8.644  64.824  1.00  0.00    -0.149 A  
ENDBRANCH   6  13
ENDBRANCH   4   6
ENDBRANCH   3   4
ENDBRANCH   2   3
TORSDOF 4
ENDMDL
MODEL      196
REMARK 921   NORMALIZED FREE ENERGY PREDICTED BY IDOCK:   -1.77 KCAL/MOL
REMARK 922        TOTAL FREE ENERGY PREDICTED BY IDOCK:   -3.10 KCAL/MOL
REMARK 923 INTER-LIGAND FREE ENERGY PREDICTED BY IDOCK:   -2.25 KCAL/MOL
REMARK 924 INTRA-LIGAND FREE ENERGY PREDICTED BY IDOCK:   -0.85 KCAL/MOL
REMARK 927      BINDING AFFINITY PREDICTED BY RF-SCORE:    0.00 PKD
ROOT
HETATM    1  C   UNL     1      -9.532  11.491  65.985  1.00  0.00    -0.249 C  
HETATM    2  C   UNL     1     -10.373  10.918  67.117  1.00  0.00    -0.220 C  
ENDROOT
BRANCH   2   3
HETATM    3  O   UNL     1      -9.545  10.409  68.180  1.00  0.00    -0.141 OA 
BRANCH   3   4
HETATM    4  C   UNL     1      -9.729   9.086  68.449  1.00  0.00    -0.156 C  
HETATM    5  O   UNL     1     -10.825   8.603  68.728  1.00  0.00    -0.116 OA 
BRANCH   4   6
HETATM    6  C   UNL     1      -8.419   8.257  68.432  1.00  0.00    -0.129 C  
HETATM    7  C   UNL     1      -8.570   6.785  68.894  1.00  0.00    -0.130 C  
HETATM    8  C   UNL     1      -7.500   8.962  69.471  1.00  0.00    -0.075 C  
HETATM    9  C   UNL     1      -8.063   8.826  70.890  1.00  0.00    -0.150 C  
HETATM   10  C   UNL     1      -6.870   6.850  71.628  1.00  0.00    -0.065 C  
HETATM   11  C   UNL     1      -8.958   6.631  70.371  1.00  0.00    -0.152 C  
HETATM   12  N   UNL     1      -8.175   7.432  71.317  1.00  0.00    -0.104 NA 
BRANCH   6  13
HETATM   13  C   UNL     1      -7.862   8.278  66.988  1.00  0.00    -0.096 A  
HETATM   14  C   UNL     1      -7.916   7.583  64.648  1.00  0.00    -0.133 A  
HETATM   15  C   UNL     1      -8.495   7.621  65.921  1.00  0.00    -0.150 A  
HETATM   16  C   UNL     1      -6.067   8.896  65.440  1.00  0.00    -0.055 A  
HETATM   17  C   UNL     1      -6.695   8.202  64.412  1.00  0.00    -0.065 A  
HETATM   18  C   UNL     1      -6.651   8.945  66.708  1.00  0.00    -0.064 A  
ENDBRANCH   6  13
ENDBRANCH   4   6
ENDBRANCH   3   4
ENDBRANCH   2   3
TORSDOF 4
ENDMDL
MODEL      197
REMARK 921   NORMALIZED FREE ENERGY PREDICTED BY IDOCK:   -1.66 KCAL/MOL
REMARK 922        TOTAL FREE ENERGY PREDICTED BY IDOCK:   -2.97 KCAL/MOL
REMARK 923 INTER-LIGAND FREE ENERGY PREDICTED BY IDOCK:   -2.63 KCAL/MOL
REMARK 924 INTRA-LIGAND FREE ENERGY PREDICTED BY IDOCK:   -0.34 KCAL/MOL
REMARK 927      BINDING AFFINITY PREDICTED BY RF-SCORE:    0.00 PKD
ROOT
HETATM    1  C   UNL     1      -7.428   2.944  69.306  1.00  0.00    -0.044 C  
HETATM    2  C   UNL     1      -8.487   3.875  69.881  1.00  0.00    -0.060 C  
ENDROOT
BRANCH   2   3
HETATM    3  O   UNL     1      -8.124   5.257  69.701  1.00  0.00    -0.088 OA 
BRANCH   3   4
HETATM    4  C   UNL     1      -9.130   6.044  69.228  1.00  0.00    -0.124 C  
HETATM    5  O   UNL     1      -9.796   5.759  68.233  1.00  0.00    -0.126 OA 
BRANCH   4   6
HETATM    6  C   UNL     1      -9.317   7.363  70.021  1.00  0.00    -0.151 C  
HETATM    7  C   UNL     1      -9.200   7.222  71.561  1.00  0.00    -0.150 C  
HETATM    8  C   UNL     1     -10.780   7.795  69.719  1.00  0.00    -0.236 C  
HETATM    9  C   UNL     1     -11.784   6.802  70.315  1.00  0.00    -0.341 C  
HETATM   10  C   UNL     1     -12.228   7.877  72.441  1.00  0.00    -0.247 C  
HETATM   11  C   UNL     1     -10.312   6.376  72.196  1.00  0.00    -0.189 C  
HETATM   12  N   UNL     1     -11.676   6.701  71.770  1.00  0.00    -0.303 NA 
BRANCH   6  13
HETATM   13  C   UNL     1      -8.252   8.371  69.525  1.00  0.00    -0.118 A  
HETATM   14  C   UNL     1      -6.611  10.137  69.913  1.00  0.00    -0.100 A  
HETATM   15  C   UNL     1      -7.498   9.171  70.399  1.00  0.00    -0.107 A  
HETATM   16  C   UNL     1      -7.155   9.515  67.657  1.00  0.00    -0.081 A  
HETATM   17  C   UNL     1      -6.453  10.322  68.545  1.00  0.00    -0.052 A  
HETATM   18  C   UNL     1      -8.033   8.542  68.142  1.00  0.00    -0.111 A  
ENDBRANCH   6  13
ENDBRANCH   4   6
ENDBRANCH   3   4
ENDBRANCH   2   3
TORSDOF 4
ENDMDL
MODEL      198
REMARK 921   NORMALIZED FREE ENERGY PREDICTED BY IDOCK:   -1.57 KCAL/MOL
REMARK 922        TOTAL FREE ENERGY PREDICTED BY IDOCK:   -2.85 KCAL/MOL
REMARK 923 INTER-LIGAND FREE ENERGY PREDICTED BY IDOCK:   -3.19 KCAL/MOL
REMARK 924 INTRA-LIGAND FREE ENERGY PREDICTED BY IDOCK:    0.33 KCAL/MOL
REMARK 927      BINDING AFFINITY PREDICTED BY RF-SCORE:    0.00 PKD
ROOT
HETATM    1  C   UNL     1     -11.698   6.483  72.252  1.00  0.00    -0.320 C  
HETATM    2  C   UNL     1     -11.665   7.566  71.183  1.00  0.00    -0.291 C  
ENDROOT
BRANCH   2   3
HETATM    3  O   UNL     1     -10.316   7.986  70.904  1.00  0.00    -0.199 OA 
BRANCH   3   4
HETATM    4  C   UNL     1     -10.225   9.065  70.077  1.00  0.00    -0.203 C  
HETATM    5  O   UNL     1     -10.956  10.050  70.174  1.00  0.00    -0.265 OA 
BRANCH   4   6
HETATM    6  C   UNL     1      -9.157   8.910  68.963  1.00  0.00    -0.137 C  
HETATM    7  C   UNL     1      -9.720   8.868  67.519  1.00  0.00    -0.216 C  
HETATM    8  C   UNL     1      -8.512   7.521  69.235  1.00  0.00    -0.136 C  
HETATM    9  C   UNL     1      -9.520   6.389  69.010  1.00  0.00    -0.129 C  
HETATM   10  C   UNL     1      -9.018   5.832  66.705  1.00  0.00    -0.123 C  
HETATM   11  C   UNL     1     -10.587   7.636  67.223  1.00  0.00    -0.318 C  
HETATM   12  N   UNL     1     -10.020   6.349  67.636  1.00  0.00    -0.119 NA 
BRANCH   6  13
HETATM   13  C   UNL     1      -8.168  10.095  69.085  1.00  0.00    -0.145 A  
HETATM   14  C   UNL     1      -6.394  11.310  70.240  1.00  0.00    -0.073 A  
HETATM   15  C   UNL     1      -7.209  10.181  70.106  1.00  0.00    -0.162 A  
HETATM   16  C   UNL     1      -7.427  12.297  68.309  1.00  0.00    -0.119 A  
HETATM   17  C   UNL     1      -6.515  12.374  69.355  1.00  0.00    -0.103 A  
HETATM   18  C   UNL     1      -8.233  11.164  68.168  1.00  0.00    -0.131 A  
ENDBRANCH   6  13
ENDBRANCH   4   6
ENDBRANCH   3   4
ENDBRANCH   2   3
TORSDOF 4
ENDMDL
MODEL      199
REMARK 921   NORMALIZED FREE ENERGY PREDICTED BY IDOCK:   -1.51 KCAL/MOL
REMARK 922        TOTAL FREE ENERGY PREDICTED BY IDOCK:   -2.78 KCAL/MOL
REMARK 923 INTER-LIGAND FREE ENERGY PREDICTED BY IDOCK:   -2.47 KCAL/MOL
REMARK 924 INTRA-LIGAND FREE ENERGY PREDICTED BY IDOCK:   -0.31 KCAL/MOL
REMARK 927      BINDING AFFINITY PREDICTED BY RF-SCORE:    0.00 PKD
ROOT
HETATM    1  C   UNL     1      -6.368  16.906  66.343  1.00  0.00    -0.043 C  
HETATM    2  C   UNL     1      -7.855  16.589  66.409  1.00  0.00    -0.289 C  
ENDROOT
BRANCH   2   3
HETATM    3  O   UNL     1      -8.124  15.533  67.351  1.00  0.00    -0.149 OA 
BRANCH   3   4
HETATM    4  C   UNL     1      -9.028  14.611  66.915  1.00  0.00    -0.253 C  
HETATM    5  O   UNL     1      -9.808  14.820  65.986  1.00  0.00    -0.290 OA 
BRANCH   4   6
HETATM    6  C   UNL     1      -9.027  13.298  67.740  1.00  0.00    -0.196 C  
HETATM    7  C   UNL     1      -7.707  13.002  68.497  1.00  0.00    -0.111 C  
HETATM    8  C   UNL     1      -9.198  12.173  66.679  1.00  0.00    -0.206 C  
HETATM    9  C   UNL     1      -7.976  12.090  65.758  1.00  0.00     0.981 C  
HETATM   10  C   UNL     1      -6.694  10.388  66.912  1.00  0.00    -0.083 C  
HETATM   11  C   UNL     1      -6.507  12.735  67.578  1.00  0.00    -0.160 C  
HETATM   12  N   UNL     1      -6.745  11.785  66.487  1.00  0.00     0.024 NA 
BRANCH   6  13
HETATM   13  C   UNL     1     -10.187  13.377  68.761  1.00  0.00    -0.128 A  
HETATM   14  C   UNL     1     -12.026  12.373  70.015  1.00  0.00    -0.372 A  
HETATM   15  C   UNL     1     -10.925  12.251  69.161  1.00  0.00    -0.217 A  
HETATM   16  C   UNL     1     -11.673  14.745  70.147  1.00  0.00    -0.352 A  
HETATM   17  C   UNL     1     -12.412  13.620  70.492  1.00  0.00    -0.394 A  
HETATM   18  C   UNL     1     -10.566  14.623  69.303  1.00  0.00    -0.236 A  
ENDBRANCH   6  13
ENDBRANCH   4   6
ENDBRANCH   3   4
ENDBRANCH   2   3
TORSDOF 4
ENDMDL
MODEL      200
REMARK 921   NORMALIZED FREE ENERGY PREDICTED BY IDOCK:   -1.35 KCAL/MOL
REMARK 922        TOTAL FREE ENERGY PREDICTED BY IDOCK:   -2.59 KCAL/MOL
REMARK 923 INTER-LIGAND FREE ENERGY PREDICTED BY IDOCK:   -1.93 KCAL/MOL
REMARK 924 INTRA-LIGAND FREE ENERGY PREDICTED BY IDOCK:   -0.65 KCAL/MOL
REMARK 927      BINDING AFFINITY PREDICTED BY RF-SCORE:    0.00 PKD
ROOT
HETATM    1  C   UNL     1      -8.702   1.569  67.708  1.00  0.00    -0.119 C  
HETATM    2  C   UNL     1      -8.945   2.775  66.811  1.00  0.00    -0.152 C  
ENDROOT
BRANCH   2   3
HETATM    3  O   UNL     1      -9.232   3.955  67.585  1.00  0.00    -0.139 OA 
BRANCH   3   4
HETATM    4  C   UNL     1      -8.139   4.716  67.872  1.00  0.00    -0.092 C  
HETATM    5  O   UNL     1      -7.157   4.788  67.134  1.00  0.00    -0.069 OA 
BRANCH   4   6
HETATM    6  C   UNL     1      -8.220   5.434  69.244  1.00  0.00    -0.093 C  
HETATM    7  C   UNL     1      -9.635   5.478  69.876  1.00  0.00    -0.217 C  
HETATM    8  C   UNL     1      -7.820   6.905  68.938  1.00  0.00    -0.111 C  
HETATM    9  C   UNL     1      -8.861   7.588  68.045  1.00  0.00    -0.127 C  
HETATM   10  C   UNL     1     -10.242   8.637  69.739  1.00  0.00    -0.206 C  
HETATM   11  C   UNL     1     -10.647   6.315  69.083  1.00  0.00    -0.268 C  
HETATM   12  N   UNL     1     -10.183   7.643  68.669  1.00  0.00    -0.195 NA 
BRANCH   6  13
HETATM   13  C   UNL     1      -7.256   4.711  70.216  1.00  0.00    -0.050 A  
HETATM   14  C   UNL     1      -6.619   2.799  71.593  1.00  0.00    -0.019 A  
HETATM   15  C   UNL     1      -7.459   3.389  70.643  1.00  0.00    -0.040 A  
HETATM   16  C   UNL     1      -5.308   4.809  71.697  1.00  0.00    -0.004 A  
HETATM   17  C   UNL     1      -5.557   3.513  72.134  1.00  0.00    -0.008 A  
HETATM   18  C   UNL     1      -6.140   5.395  70.740  1.00  0.00    -0.022 A  
ENDBRANCH   6  13
ENDBRANCH   4   6
ENDBRANCH   3   4
ENDBRANCH   2   3
TORSDOF 4
ENDMDL
MODEL      201
REMARK 921   NORMALIZED FREE ENERGY PREDICTED BY IDOCK:   -1.22 KCAL/MOL
REMARK 922        TOTAL FREE ENERGY PREDICTED BY IDOCK:   -2.43 KCAL/MOL
REMARK 923 INTER-LIGAND FREE ENERGY PREDICTED BY IDOCK:   -2.35 KCAL/MOL
REMARK 924 INTRA-LIGAND FREE ENERGY PREDICTED BY IDOCK:   -0.08 KCAL/MOL
REMARK 927      BINDING AFFINITY PREDICTED BY RF-SCORE:    0.00 PKD
ROOT
HETATM    1  C   UNL     1     -10.410  10.585  64.931  1.00  0.00    -0.307 C  
HETATM    2  C   UNL     1     -10.221  11.036  66.372  1.00  0.00    -0.236 C  
ENDROOT
BRANCH   2   3
HETATM    3  O   UNL     1      -9.955   9.918  67.241  1.00  0.00    -0.177 OA 
BRANCH   3   4
HETATM    4  C   UNL     1      -8.673   9.857  67.699  1.00  0.00    -0.121 C  
HETATM    5  O   UNL     1      -7.976  10.854  67.882  1.00  0.00    -0.107 OA 
BRANCH   4   6
HETATM    6  C   UNL     1      -8.153   8.411  67.907  1.00  0.00    -0.123 C  
HETATM    7  C   UNL     1      -6.660   8.195  67.545  1.00  0.00    -0.058 C  
HETATM    8  C   UNL     1      -8.985   7.552  66.912  1.00  0.00    -0.152 C  
HETATM    9  C   UNL     1      -8.655   7.911  65.459  1.00  0.00    -0.116 C  
HETATM   10  C   UNL     1      -6.951   6.252  64.993  1.00  0.00    -0.052 C  
HETATM   11  C   UNL     1      -6.348   8.373  66.053  1.00  0.00    -0.053 C  
HETATM   12  N   UNL     1      -7.249   7.677  65.130  1.00  0.00    -0.066 NA 
BRANCH   6  13
HETATM   13  C   UNL     1      -8.371   8.036  69.392  1.00  0.00    -0.131 A  
HETATM   14  C   UNL     1      -9.792   7.758  71.358  1.00  0.00    -0.195 A  
HETATM   15  C   UNL     1      -9.641   8.011  69.990  1.00  0.00    -0.171 A  
HETATM   16  C   UNL     1      -7.415   7.498  71.583  1.00  0.00    -0.083 A  
HETATM   17  C   UNL     1      -8.681   7.521  72.157  1.00  0.00    -0.140 A  
HETATM   18  C   UNL     1      -7.264   7.739  70.215  1.00  0.00    -0.062 A  
ENDBRANCH   6  13
ENDBRANCH   4   6
ENDBRANCH   3   4
ENDBRANCH   2   3
TORSDOF 4
ENDMDL
MODEL      202
REMARK 921   NORMALIZED FREE ENERGY PREDICTED BY IDOCK:   -1.22 KCAL/MOL
REMARK 922        TOTAL FREE ENERGY PREDICTED BY IDOCK:   -2.42 KCAL/MOL
REMARK 923 INTER-LIGAND FREE ENERGY PREDICTED BY IDOCK:   -3.50 KCAL/MOL
REMARK 924 INTRA-LIGAND FREE ENERGY PREDICTED BY IDOCK:    1.08 KCAL/MOL
REMARK 927      BINDING AFFINITY PREDICTED BY RF-SCORE:    0.00 PKD
ROOT
HETATM    1  C   UNL     1     -10.821  15.329  66.795  1.00  0.00    -0.312 C  
HETATM    2  C   UNL     1     -12.016  14.644  66.146  1.00  0.00    -0.241 C  
ENDROOT
BRANCH   2   3
HETATM    3  O   UNL     1     -11.692  13.302  65.737  1.00  0.00    -0.330 OA 
BRANCH   3   4
HETATM    4  C   UNL     1     -10.367  12.994  65.822  1.00  0.00    -0.286 C  
HETATM    5  O   UNL     1      -9.472  13.790  65.540  1.00  0.00    -0.029 OA 
BRANCH   4   6
HETATM    6  C   UNL     1     -10.093  11.528  66.246  1.00  0.00    -0.261 C  
HETATM    7  C   UNL     1      -8.597  11.119  66.257  1.00  0.00    -0.180 C  
HETATM    8  C   UNL     1     -10.785  10.670  65.149  1.00  0.00    -0.088 C  
HETATM    9  C   UNL     1     -10.098  10.849  63.791  1.00  0.00    -0.353 C  
HETATM   10  C   UNL     1      -8.556   8.980  63.850  1.00  0.00    -0.132 C  
HETATM   11  C   UNL     1      -7.941  11.117  64.869  1.00  0.00     0.505 C  
HETATM   12  N   UNL     1      -8.695  10.435  63.814  1.00  0.00    -0.183 NA 
BRANCH   6  13
HETATM   13  C   UNL     1     -10.681  11.325  67.663  1.00  0.00    -0.270 A  
HETATM   14  C   UNL     1     -11.421  12.173  69.830  1.00  0.00    -0.210 A  
HETATM   15  C   UNL     1     -10.977  12.395  68.522  1.00  0.00    -0.277 A  
HETATM   16  C   UNL     1     -11.337   9.800  69.464  1.00  0.00    -0.127 A  
HETATM   17  C   UNL     1     -11.582  10.878  70.307  1.00  0.00    -0.426 A  
HETATM   18  C   UNL     1     -10.905  10.022  68.154  1.00  0.00    -0.303 A  
ENDBRANCH   6  13
ENDBRANCH   4   6
ENDBRANCH   3   4
ENDBRANCH   2   3
TORSDOF 4
ENDMDL
MODEL      203
REMARK 921   NORMALIZED FREE ENERGY PREDICTED BY IDOCK:   -1.17 KCAL/MOL
REMARK 922        TOTAL FREE ENERGY PREDICTED BY IDOCK:   -2.37 KCAL/MOL
REMARK 923 INTER-LIGAND FREE ENERGY PREDICTED BY IDOCK:   -2.54 KCAL/MOL
REMARK 924 INTRA-LIGAND FREE ENERGY PREDICTED BY IDOCK:    0.17 KCAL/MOL
REMARK 927      BINDING AFFINITY PREDICTED BY RF-SCORE:    0.00 PKD
ROOT
HETATM    1  C   UNL     1     -10.488  18.954  65.626  1.00  0.00    -0.193 C  
HETATM    2  C   UNL     1      -9.737  18.421  66.838  1.00  0.00    -0.319 C  
ENDROOT
BRANCH   2   3
HETATM    3  O   UNL     1      -9.982  17.015  67.031  1.00  0.00    -0.270 OA 
BRANCH   3   4
HETATM    4  C   UNL     1      -9.133  16.199  66.346  1.00  0.00    -0.304 C  
HETATM    5  O   UNL     1      -9.054  16.190  65.118  1.00  0.00     0.145 OA 
BRANCH   4   6
HETATM    6  C   UNL     1      -8.322  15.238  67.253  1.00  0.00    -0.225 C  
HETATM    7  C   UNL     1      -8.588  15.394  68.773  1.00  0.00    -0.190 C  
HETATM    8  C   UNL     1      -6.838  15.637  67.014  1.00  0.00    -0.009 C  
HETATM    9  C   UNL     1      -6.553  17.049  67.537  1.00  0.00    -0.146 C  
HETATM   10  C   UNL     1      -5.734  16.517  69.756  1.00  0.00    -0.191 C  
HETATM   11  C   UNL     1      -8.136  16.743  69.350  1.00  0.00     0.159 C  
HETATM   12  N   UNL     1      -6.785  17.170  68.976  1.00  0.00    -0.216 NA 
BRANCH   6  13
HETATM   13  C   UNL     1      -8.657  13.788  66.829  1.00  0.00    -0.058 A  
HETATM   14  C   UNL     1      -8.027  11.468  66.402  1.00  0.00    -0.046 A  
HETATM   15  C   UNL     1      -7.718  12.746  66.880  1.00  0.00     0.113 A  
HETATM   16  C   UNL     1     -10.245  12.203  65.845  1.00  0.00    -0.272 A  
HETATM   17  C   UNL     1      -9.282  11.202  65.868  1.00  0.00    -0.225 A  
HETATM   18  C   UNL     1      -9.940  13.477  66.332  1.00  0.00    -0.296 A  
ENDBRANCH   6  13
ENDBRANCH   4   6
ENDBRANCH   3   4
ENDBRANCH   2   3
TORSDOF 4
ENDMDL
MODEL      204
REMARK 921   NORMALIZED FREE ENERGY PREDICTED BY IDOCK:   -0.80 KCAL/MOL
REMARK 922        TOTAL FREE ENERGY PREDICTED BY IDOCK:   -1.91 KCAL/MOL
REMARK 923 INTER-LIGAND FREE ENERGY PREDICTED BY IDOCK:   -1.63 KCAL/MOL
REMARK 924 INTRA-LIGAND FREE ENERGY PREDICTED BY IDOCK:   -0.28 KCAL/MOL
REMARK 927      BINDING AFFINITY PREDICTED BY RF-SCORE:    0.00 PKD
ROOT
HETATM    1  C   UNL     1      -8.632   1.557  67.651  1.00  0.00    -0.102 C  
HETATM    2  C   UNL     1      -8.596   2.439  66.410  1.00  0.00    -0.114 C  
ENDROOT
BRANCH   2   3
HETATM    3  O   UNL     1      -8.742   3.831  66.751  1.00  0.00    -0.109 OA 
BRANCH   3   4
HETATM    4  C   UNL     1      -7.594   4.424  67.183  1.00  0.00    -0.085 C  
HETATM    5  O   UNL     1      -6.479   3.927  67.028  1.00  0.00    -0.039 OA 
BRANCH   4   6
HETATM    6  C   UNL     1      -7.828   5.755  67.945  1.00  0.00    -0.097 C  
HETATM    7  C   UNL     1      -9.088   6.546  67.508  1.00  0.00    -0.115 C  
HETATM    8  C   UNL     1      -6.597   6.633  67.579  1.00  0.00    -0.057 C  
HETATM    9  C   UNL     1      -6.599   6.997  66.091  1.00  0.00    -0.052 C  
HETATM   10  C   UNL     1      -7.721   9.143  66.184  1.00  0.00    -0.095 C  
HETATM   11  C   UNL     1      -9.024   7.076  66.069  1.00  0.00    -0.107 C  
HETATM   12  N   UNL     1      -7.783   7.764  65.703  1.00  0.00    -0.095 NA 
BRANCH   6  13
HETATM   13  C   UNL     1      -7.937   5.426  69.453  1.00  0.00    -0.089 A  
HETATM   14  C   UNL     1      -8.923   5.749  71.663  1.00  0.00    -0.141 A  
HETATM   15  C   UNL     1      -8.911   5.998  70.287  1.00  0.00    -0.144 A  
HETATM   16  C   UNL     1      -7.015   4.308  71.429  1.00  0.00    -0.035 A  
HETATM   17  C   UNL     1      -7.965   4.922  72.237  1.00  0.00    -0.110 A  
HETATM   18  C   UNL     1      -7.010   4.547  70.052  1.00  0.00    -0.045 A  
ENDBRANCH   6  13
ENDBRANCH   4   6
ENDBRANCH   3   4
ENDBRANCH   2   3
TORSDOF 4
ENDMDL
MODEL      205
REMARK 921   NORMALIZED FREE ENERGY PREDICTED BY IDOCK:    2.23 KCAL/MOL
REMARK 922        TOTAL FREE ENERGY PREDICTED BY IDOCK:    1.83 KCAL/MOL
REMARK 923 INTER-LIGAND FREE ENERGY PREDICTED BY IDOCK:   -0.97 KCAL/MOL
REMARK 924 INTRA-LIGAND FREE ENERGY PREDICTED BY IDOCK:    2.80 KCAL/MOL
REMARK 927      BINDING AFFINITY PREDICTED BY RF-SCORE:    0.00 PKD
ROOT
HETATM    1  C   UNL     1      -6.099  16.866  65.874  1.00  0.00     0.859 C  
HETATM    2  C   UNL     1      -7.619  16.946  65.854  1.00  0.00     0.215 C  
ENDROOT
BRANCH   2   3
HETATM    3  O   UNL     1      -8.199  16.184  66.930  1.00  0.00    -0.189 OA 
BRANCH   3   4
HETATM    4  C   UNL     1      -7.323  15.353  67.563  1.00  0.00    -0.195 C  
HETATM    5  O   UNL     1      -6.108  15.545  67.582  1.00  0.00    -0.142 OA 
BRANCH   4   6
HETATM    6  C   UNL     1      -7.994  14.110  68.203  1.00  0.00    -0.143 C  
HETATM    7  C   UNL     1      -8.022  14.108  69.753  1.00  0.00     0.678 C  
HETATM    8  C   UNL     1      -7.096  12.917  67.768  1.00  0.00    -0.137 C  
HETATM    9  C   UNL     1      -5.703  13.013  68.399  1.00  0.00    -0.074 C  
HETATM   10  C   UNL     1      -6.041  11.646  70.371  1.00  0.00    -0.074 C  
HETATM   11  C   UNL     1      -6.634  14.019  70.402  1.00  0.00     0.093 C  
HETATM   12  N   UNL     1      -5.748  12.984  69.861  1.00  0.00    -0.113 NA 
BRANCH   6  13
HETATM   13  C   UNL     1      -9.446  14.028  67.672  1.00  0.00    -0.210 A  
HETATM   14  C   UNL     1     -11.232  12.897  66.452  1.00  0.00    -0.337 A  
HETATM   15  C   UNL     1      -9.945  12.901  66.999  1.00  0.00    -0.244 A  
HETATM   16  C   UNL     1     -11.597  15.126  67.267  1.00  0.00    -0.231 A  
HETATM   17  C   UNL     1     -12.051  14.013  66.569  1.00  0.00    -0.488 A  
HETATM   18  C   UNL     1     -10.316  15.128  67.824  1.00  0.00    -0.243 A  
ENDBRANCH   6  13
ENDBRANCH   4   6
ENDBRANCH   3   4
ENDBRANCH   2   3
TORSDOF 4
ENDMDL
MODEL      206
REMARK 921   NORMALIZED FREE ENERGY PREDICTED BY IDOCK:    7.31 KCAL/MOL
REMARK 922        TOTAL FREE ENERGY PREDICTED BY IDOCK:    8.10 KCAL/MOL
REMARK 923 INTER-LIGAND FREE ENERGY PREDICTED BY IDOCK:    5.20 KCAL/MOL
REMARK 924 INTRA-LIGAND FREE ENERGY PREDICTED BY IDOCK:    2.90 KCAL/MOL
REMARK 927      BINDING AFFINITY PREDICTED BY RF-SCORE:    0.00 PKD
ROOT
HETATM    1  C   UNL     1      -6.963  15.706  71.379  1.00  0.00     2.523 C  
HETATM    2  C   UNL     1      -7.181  15.617  69.875  1.00  0.00     0.013 C  
ENDROOT
BRANCH   2   3
HETATM    3  O   UNL     1      -8.098  14.558  69.540  1.00  0.00     0.018 OA 
BRANCH   3   4
HETATM    4  C   UNL     1      -8.701  14.702  68.327  1.00  0.00    -0.173 C  
HETATM    5  O   UNL     1      -8.280  14.172  67.299  1.00  0.00    -0.186 OA 
BRANCH   4   6
HETATM    6  C   UNL     1      -9.931  15.647  68.349  1.00  0.00    -0.210 C  
HETATM    7  C   UNL     1     -10.933  15.389  69.504  1.00  0.00    -0.276 C  
HETATM    8  C   UNL     1     -10.683  15.336  67.024  1.00  0.00    -0.313 C  
HETATM    9  C   UNL     1     -11.249  13.912  67.029  1.00  0.00    -0.313 C  
HETATM   10  C   UNL     1     -13.489  14.353  67.842  1.00  0.00     5.121 C  
HETATM   11  C   UNL     1     -11.647  14.032  69.419  1.00  0.00    -0.297 C  
HETATM   12  N   UNL     1     -12.211  13.695  68.109  1.00  0.00    -0.251 NA 
BRANCH   6  13
HETATM   13  C   UNL     1      -9.411  17.101  68.449  1.00  0.00    -0.273 A  
HETATM   14  C   UNL     1      -8.010  18.823  69.465  1.00  0.00     0.350 A  
HETATM   15  C   UNL     1      -8.392  17.484  69.335  1.00  0.00     0.425 A  
HETATM   16  C   UNL     1      -9.616  19.452  67.793  1.00  0.00    -0.422 A  
HETATM   17  C   UNL     1      -8.634  19.809  68.710  1.00  0.00    -0.195 A  
HETATM   18  C   UNL     1      -9.990  18.113  67.655  1.00  0.00    -0.344 A  
ENDBRANCH   6  13
ENDBRANCH   4   6
ENDBRANCH   3   4
ENDBRANCH   2   3
TORSDOF 4
ENDMDL
