MODEL        1
REMARK 921   NORMALIZED FREE ENERGY PREDICTED BY IDOCK:   -5.53 KCAL/MOL
REMARK 922        TOTAL FREE ENERGY PREDICTED BY IDOCK:   -7.08 KCAL/MOL
REMARK 923 INTER-LIGAND FREE ENERGY PREDICTED BY IDOCK:   -6.82 KCAL/MOL
REMARK 924 INTRA-LIGAND FREE ENERGY PREDICTED BY IDOCK:   -0.25 KCAL/MOL
REMARK 927      BINDING AFFINITY PREDICTED BY RF-SCORE:    0.00 PKD
ROOT
HETATM    1  C   UNL     1     -11.797  11.391  68.994  1.00  0.00    -0.415 C  
HETATM    2  C   UNL     1     -11.863  12.879  69.224  1.00  0.00    -0.363 A  
HETATM    3  C   UNL     1     -12.176  13.343  70.515  1.00  0.00    -0.425 A  
HETATM    4  C   UNL     1     -12.251  14.710  70.791  1.00  0.00    -0.394 A  
HETATM    5  C   UNL     1     -12.018  15.626  69.778  1.00  0.00    -0.371 A  
HETATM    6  C   UNL     1     -11.715  15.180  68.492  1.00  0.00    -0.347 A  
HETATM    7  C   UNL     1     -11.631  13.810  68.193  1.00  0.00    -0.335 A  
ENDROOT
BRANCH   7   8
HETATM    8  O   UNL     1     -11.325  13.320  66.938  1.00  0.00    -0.295 OA 
BRANCH   8   9
HETATM    9  C   UNL     1     -12.269  13.663  65.917  1.00  0.00    -0.461 C  
BRANCH   9  10
HETATM   10  C   UNL     1     -11.621  14.109  64.606  1.00  0.00    -0.406 C  
HETATM   11  O   UNL     1     -12.623  14.093  63.574  1.00  0.00    -1.022 OA 
HETATM   12  H   UNL     1     -12.221  14.370  62.760  1.00  0.00     0.000 HD 
BRANCH  10  13
HETATM   13  C   UNL     1     -11.000  15.507  64.706  1.00  0.00    -0.399 C  
HETATM   14  O   UNL     1     -11.532  16.381  63.708  1.00  0.00    -1.590 OA 
HETATM   15  H   UNL     1     -11.148  17.248  63.769  1.00  0.00     0.000 HD 
ENDBRANCH  10  13
ENDBRANCH   9  10
ENDBRANCH   8   9
ENDBRANCH   7   8
TORSDOF 4
ENDMDL
MODEL        2
REMARK 921   NORMALIZED FREE ENERGY PREDICTED BY IDOCK:   -5.52 KCAL/MOL
REMARK 922        TOTAL FREE ENERGY PREDICTED BY IDOCK:   -7.06 KCAL/MOL
REMARK 923 INTER-LIGAND FREE ENERGY PREDICTED BY IDOCK:   -6.87 KCAL/MOL
REMARK 924 INTRA-LIGAND FREE ENERGY PREDICTED BY IDOCK:   -0.19 KCAL/MOL
REMARK 927      BINDING AFFINITY PREDICTED BY RF-SCORE:    0.00 PKD
ROOT
HETATM    1  C   UNL     1     -11.877  15.401  69.453  1.00  0.00    -0.372 C  
HETATM    2  C   UNL     1     -11.916  13.901  69.303  1.00  0.00    -0.402 A  
HETATM    3  C   UNL     1     -11.996  13.114  70.468  1.00  0.00    -0.303 A  
HETATM    4  C   UNL     1     -12.036  11.720  70.395  1.00  0.00    -0.440 A  
HETATM    5  C   UNL     1     -11.992  11.099  69.158  1.00  0.00    -0.413 A  
HETATM    6  C   UNL     1     -11.905  11.866  67.996  1.00  0.00    -0.323 A  
HETATM    7  C   UNL     1     -11.868  13.269  68.046  1.00  0.00    -0.355 A  
ENDROOT
BRANCH   7   8
HETATM    8  O   UNL     1     -11.791  14.071  66.924  1.00  0.00    -0.385 OA 
BRANCH   8   9
HETATM    9  C   UNL     1     -12.049  13.396  65.688  1.00  0.00    -0.434 C  
BRANCH   9  10
HETATM   10  C   UNL     1     -11.566  14.163  64.456  1.00  0.00    -0.389 C  
HETATM   11  O   UNL     1     -12.631  14.186  63.489  1.00  0.00    -1.022 OA 
HETATM   12  H   UNL     1     -12.331  14.662  62.724  1.00  0.00     0.000 HD 
BRANCH  10  13
HETATM   13  C   UNL     1     -11.137  15.597  64.790  1.00  0.00    -0.412 C  
HETATM   14  O   UNL     1     -11.472  16.496  63.731  1.00  0.00    -1.615 OA 
HETATM   15  H   UNL     1     -11.206  17.385  63.937  1.00  0.00     0.000 HD 
ENDBRANCH  10  13
ENDBRANCH   9  10
ENDBRANCH   8   9
ENDBRANCH   7   8
TORSDOF 4
ENDMDL
MODEL        3
REMARK 921   NORMALIZED FREE ENERGY PREDICTED BY IDOCK:   -5.30 KCAL/MOL
REMARK 922        TOTAL FREE ENERGY PREDICTED BY IDOCK:   -6.79 KCAL/MOL
REMARK 923 INTER-LIGAND FREE ENERGY PREDICTED BY IDOCK:   -6.66 KCAL/MOL
REMARK 924 INTRA-LIGAND FREE ENERGY PREDICTED BY IDOCK:   -0.13 KCAL/MOL
REMARK 927      BINDING AFFINITY PREDICTED BY RF-SCORE:    0.00 PKD
ROOT
HETATM    1  C   UNL     1      -6.879  18.031  66.024  1.00  0.00    -0.332 C  
HETATM    2  C   UNL     1      -8.181  18.639  66.479  1.00  0.00    -0.301 A  
HETATM    3  C   UNL     1      -8.140  19.852  67.191  1.00  0.00    -0.341 A  
HETATM    4  C   UNL     1      -9.312  20.465  67.639  1.00  0.00    -0.453 A  
HETATM    5  C   UNL     1     -10.536  19.869  67.383  1.00  0.00    -0.542 A  
HETATM    6  C   UNL     1     -10.591  18.662  66.685  1.00  0.00    -0.410 A  
HETATM    7  C   UNL     1      -9.425  18.031  66.222  1.00  0.00    -0.220 A  
ENDROOT
BRANCH   7   8
HETATM    8  O   UNL     1      -9.428  16.841  65.520  1.00  0.00    -0.490 OA 
BRANCH   8   9
HETATM    9  C   UNL     1     -10.411  15.894  65.955  1.00  0.00    -0.365 C  
BRANCH   9  10
HETATM   10  C   UNL     1     -11.543  15.679  64.949  1.00  0.00    -0.156 C  
HETATM   11  O   UNL     1     -11.408  16.651  63.898  1.00  0.00    -1.558 OA 
HETATM   12  H   UNL     1     -12.111  16.518  63.274  1.00  0.00     0.000 HD 
BRANCH  10  13
HETATM   13  C   UNL     1     -11.537  14.266  64.354  1.00  0.00    -0.344 C  
HETATM   14  O   UNL     1     -12.512  14.138  63.318  1.00  0.00    -1.146 OA 
HETATM   15  H   UNL     1     -12.509  13.262  62.948  1.00  0.00     0.000 HD 
ENDBRANCH  10  13
ENDBRANCH   9  10
ENDBRANCH   8   9
ENDBRANCH   7   8
TORSDOF 4
ENDMDL
MODEL        4
REMARK 921   NORMALIZED FREE ENERGY PREDICTED BY IDOCK:   -5.20 KCAL/MOL
REMARK 922        TOTAL FREE ENERGY PREDICTED BY IDOCK:   -6.66 KCAL/MOL
REMARK 923 INTER-LIGAND FREE ENERGY PREDICTED BY IDOCK:   -6.17 KCAL/MOL
REMARK 924 INTRA-LIGAND FREE ENERGY PREDICTED BY IDOCK:   -0.49 KCAL/MOL
REMARK 927      BINDING AFFINITY PREDICTED BY RF-SCORE:    0.00 PKD
ROOT
HETATM    1  C   UNL     1     -11.956  11.089  68.711  1.00  0.00    -0.295 C  
HETATM    2  C   UNL     1     -11.834  12.573  68.479  1.00  0.00    -0.341 A  
HETATM    3  C   UNL     1     -11.734  13.420  69.599  1.00  0.00    -0.375 A  
HETATM    4  C   UNL     1     -11.618  14.803  69.449  1.00  0.00    -0.342 A  
HETATM    5  C   UNL     1     -11.606  15.354  68.178  1.00  0.00    -0.331 A  
HETATM    6  C   UNL     1     -11.713  14.528  67.059  1.00  0.00    -0.412 A  
HETATM    7  C   UNL     1     -11.826  13.134  67.187  1.00  0.00    -0.369 A  
ENDROOT
BRANCH   7   8
HETATM    8  O   UNL     1     -11.926  12.274  66.111  1.00  0.00    -0.579 OA 
BRANCH   8   9
HETATM    9  C   UNL     1     -12.765  12.742  65.048  1.00  0.00    -0.380 C  
BRANCH   9  10
HETATM   10  C   UNL     1     -12.144  12.583  63.660  1.00  0.00    -0.554 C  
HETATM   11  O   UNL     1     -12.434  13.765  62.894  1.00  0.00    -1.009 OA 
HETATM   12  H   UNL     1     -12.048  13.666  62.031  1.00  0.00     0.000 HD 
BRANCH  10  13
HETATM   13  C   UNL     1     -10.628  12.361  63.718  1.00  0.00    -0.452 C  
HETATM   14  O   UNL     1      -9.959  13.502  64.259  1.00  0.00    -0.732 OA 
HETATM   15  H   UNL     1      -9.019  13.364  64.295  1.00  0.00     0.000 HD 
ENDBRANCH  10  13
ENDBRANCH   9  10
ENDBRANCH   8   9
ENDBRANCH   7   8
TORSDOF 4
ENDMDL
MODEL        5
REMARK 921   NORMALIZED FREE ENERGY PREDICTED BY IDOCK:   -5.17 KCAL/MOL
REMARK 922        TOTAL FREE ENERGY PREDICTED BY IDOCK:   -6.64 KCAL/MOL
REMARK 923 INTER-LIGAND FREE ENERGY PREDICTED BY IDOCK:   -6.37 KCAL/MOL
REMARK 924 INTRA-LIGAND FREE ENERGY PREDICTED BY IDOCK:   -0.26 KCAL/MOL
REMARK 927      BINDING AFFINITY PREDICTED BY RF-SCORE:    0.00 PKD
ROOT
HETATM    1  C   UNL     1     -12.190  11.439  70.574  1.00  0.00    -0.478 C  
HETATM    2  C   UNL     1     -12.640  12.842  70.891  1.00  0.00    -0.355 A  
HETATM    3  C   UNL     1     -13.473  13.041  72.009  1.00  0.00    -0.584 A  
HETATM    4  C   UNL     1     -13.922  14.317  72.355  1.00  0.00    -0.597 A  
HETATM    5  C   UNL     1     -13.548  15.406  71.584  1.00  0.00    -0.603 A  
HETATM    6  C   UNL     1     -12.729  15.222  70.470  1.00  0.00    -0.440 A  
HETATM    7  C   UNL     1     -12.263  13.949  70.106  1.00  0.00    -0.358 A  
ENDROOT
BRANCH   7   8
HETATM    8  O   UNL     1     -11.445  13.717  69.017  1.00  0.00    -0.265 OA 
BRANCH   8   9
HETATM    9  C   UNL     1     -11.906  14.294  67.791  1.00  0.00    -0.379 C  
BRANCH   9  10
HETATM   10  C   UNL     1     -11.787  13.357  66.588  1.00  0.00    -0.395 C  
HETATM   11  O   UNL     1     -12.074  12.017  67.026  1.00  0.00    -0.603 OA 
HETATM   12  H   UNL     1     -11.999  11.435  66.279  1.00  0.00     0.000 HD 
BRANCH  10  13
HETATM   13  C   UNL     1     -12.734  13.745  65.447  1.00  0.00    -0.472 C  
HETATM   14  O   UNL     1     -13.169  12.592  64.722  1.00  0.00    -0.846 OA 
HETATM   15  H   UNL     1     -13.757  12.833  64.015  1.00  0.00     0.000 HD 
ENDBRANCH  10  13
ENDBRANCH   9  10
ENDBRANCH   8   9
ENDBRANCH   7   8
TORSDOF 4
ENDMDL
MODEL        6
REMARK 921   NORMALIZED FREE ENERGY PREDICTED BY IDOCK:   -5.06 KCAL/MOL
REMARK 922        TOTAL FREE ENERGY PREDICTED BY IDOCK:   -6.49 KCAL/MOL
REMARK 923 INTER-LIGAND FREE ENERGY PREDICTED BY IDOCK:   -6.30 KCAL/MOL
REMARK 924 INTRA-LIGAND FREE ENERGY PREDICTED BY IDOCK:   -0.19 KCAL/MOL
REMARK 927      BINDING AFFINITY PREDICTED BY RF-SCORE:    0.00 PKD
ROOT
HETATM    1  C   UNL     1     -10.213   9.726  66.623  1.00  0.00    -0.296 C  
HETATM    2  C   UNL     1     -10.864  10.653  67.619  1.00  0.00    -0.346 A  
HETATM    3  C   UNL     1     -11.198  10.143  68.888  1.00  0.00    -0.220 A  
HETATM    4  C   UNL     1     -11.801  10.952  69.853  1.00  0.00    -0.427 A  
HETATM    5  C   UNL     1     -12.081  12.276  69.558  1.00  0.00    -0.260 A  
HETATM    6  C   UNL     1     -11.762  12.792  68.302  1.00  0.00    -0.388 A  
HETATM    7  C   UNL     1     -11.152  11.998  67.318  1.00  0.00    -0.285 A  
ENDROOT
BRANCH   7   8
HETATM    8  O   UNL     1     -10.810  12.465  66.064  1.00  0.00    -0.260 OA 
BRANCH   8   9
HETATM    9  C   UNL     1     -11.884  13.075  65.340  1.00  0.00    -0.388 C  
BRANCH   9  10
HETATM   10  C   UNL     1     -11.420  14.031  64.240  1.00  0.00    -0.297 C  
HETATM   11  O   UNL     1     -12.411  14.040  63.198  1.00  0.00    -1.137 OA 
HETATM   12  H   UNL     1     -12.123  14.633  62.515  1.00  0.00     0.000 HD 
BRANCH  10  13
HETATM   13  C   UNL     1     -11.197  15.457  64.758  1.00  0.00    -0.395 C  
HETATM   14  O   UNL     1     -11.609  16.427  63.794  1.00  0.00    -1.605 OA 
HETATM   15  H   UNL     1     -11.471  17.311  64.115  1.00  0.00     0.000 HD 
ENDBRANCH  10  13
ENDBRANCH   9  10
ENDBRANCH   8   9
ENDBRANCH   7   8
TORSDOF 4
ENDMDL
MODEL        7
REMARK 921   NORMALIZED FREE ENERGY PREDICTED BY IDOCK:   -5.02 KCAL/MOL
REMARK 922        TOTAL FREE ENERGY PREDICTED BY IDOCK:   -6.45 KCAL/MOL
REMARK 923 INTER-LIGAND FREE ENERGY PREDICTED BY IDOCK:   -6.02 KCAL/MOL
REMARK 924 INTRA-LIGAND FREE ENERGY PREDICTED BY IDOCK:   -0.43 KCAL/MOL
REMARK 927      BINDING AFFINITY PREDICTED BY RF-SCORE:    0.00 PKD
ROOT
HETATM    1  C   UNL     1     -11.870  14.783  68.355  1.00  0.00    -0.319 C  
HETATM    2  C   UNL     1     -11.713  13.286  68.445  1.00  0.00    -0.389 A  
HETATM    3  C   UNL     1     -11.800  12.679  69.712  1.00  0.00    -0.379 A  
HETATM    4  C   UNL     1     -11.664  11.297  69.860  1.00  0.00    -0.430 A  
HETATM    5  C   UNL     1     -11.436  10.510  68.744  1.00  0.00    -0.291 A  
HETATM    6  C   UNL     1     -11.340  11.098  67.483  1.00  0.00    -0.351 A  
HETATM    7  C   UNL     1     -11.477  12.485  67.311  1.00  0.00    -0.353 A  
ENDROOT
BRANCH   7   8
HETATM    8  O   UNL     1     -11.398  13.114  66.083  1.00  0.00    -0.297 OA 
BRANCH   8   9
HETATM    9  C   UNL     1     -12.583  13.015  65.285  1.00  0.00    -0.457 C  
BRANCH   9  10
HETATM   10  C   UNL     1     -12.308  12.687  63.817  1.00  0.00    -0.478 C  
HETATM   11  O   UNL     1     -12.430  13.898  63.050  1.00  0.00    -1.099 OA 
HETATM   12  H   UNL     1     -12.260  13.694  62.138  1.00  0.00     0.000 HD 
BRANCH  10  13
HETATM   13  C   UNL     1     -10.919  12.074  63.603  1.00  0.00    -0.448 C  
HETATM   14  O   UNL     1      -9.893  13.059  63.743  1.00  0.00    -0.730 OA 
HETATM   15  H   UNL     1      -9.032  12.680  63.610  1.00  0.00     0.000 HD 
ENDBRANCH  10  13
ENDBRANCH   9  10
ENDBRANCH   8   9
ENDBRANCH   7   8
TORSDOF 4
ENDMDL
MODEL        8
REMARK 921   NORMALIZED FREE ENERGY PREDICTED BY IDOCK:   -5.00 KCAL/MOL
REMARK 922        TOTAL FREE ENERGY PREDICTED BY IDOCK:   -6.42 KCAL/MOL
REMARK 923 INTER-LIGAND FREE ENERGY PREDICTED BY IDOCK:   -6.01 KCAL/MOL
REMARK 924 INTRA-LIGAND FREE ENERGY PREDICTED BY IDOCK:   -0.41 KCAL/MOL
REMARK 927      BINDING AFFINITY PREDICTED BY RF-SCORE:    0.00 PKD
ROOT
HETATM    1  C   UNL     1     -11.454  13.387  69.011  1.00  0.00    -0.348 C  
HETATM    2  C   UNL     1     -12.260  13.689  70.249  1.00  0.00    -0.423 A  
HETATM    3  C   UNL     1     -12.537  15.035  70.555  1.00  0.00    -0.420 A  
HETATM    4  C   UNL     1     -13.279  15.379  71.687  1.00  0.00    -0.563 A  
HETATM    5  C   UNL     1     -13.747  14.381  72.526  1.00  0.00    -0.589 A  
HETATM    6  C   UNL     1     -13.473  13.044  72.239  1.00  0.00    -0.645 A  
HETATM    7  C   UNL     1     -12.733  12.676  71.104  1.00  0.00    -0.254 A  
ENDROOT
BRANCH   7   8
HETATM    8  O   UNL     1     -12.443  11.366  70.774  1.00  0.00    -0.360 OA 
BRANCH   8   9
HETATM    9  C   UNL     1     -13.285  10.392  71.400  1.00  0.00    -0.364 C  
BRANCH   9  10
HETATM   10  C   UNL     1     -12.515   9.336  72.196  1.00  0.00    -0.351 C  
HETATM   11  O   UNL     1     -13.412   8.747  73.155  1.00  0.00    -0.953 OA 
HETATM   12  H   UNL     1     -12.934   8.092  73.649  1.00  0.00     0.000 HD 
BRANCH  10  13
HETATM   13  C   UNL     1     -11.923   8.243  71.299  1.00  0.00    -0.287 C  
HETATM   14  O   UNL     1     -11.721   8.721  69.967  1.00  0.00    -0.454 OA 
HETATM   15  H   UNL     1     -11.354   8.044  69.411  1.00  0.00     0.000 HD 
ENDBRANCH  10  13
ENDBRANCH   9  10
ENDBRANCH   8   9
ENDBRANCH   7   8
TORSDOF 4
ENDMDL
MODEL        9
REMARK 921   NORMALIZED FREE ENERGY PREDICTED BY IDOCK:   -4.99 KCAL/MOL
REMARK 922        TOTAL FREE ENERGY PREDICTED BY IDOCK:   -6.41 KCAL/MOL
REMARK 923 INTER-LIGAND FREE ENERGY PREDICTED BY IDOCK:   -5.97 KCAL/MOL
REMARK 924 INTRA-LIGAND FREE ENERGY PREDICTED BY IDOCK:   -0.44 KCAL/MOL
REMARK 927      BINDING AFFINITY PREDICTED BY RF-SCORE:    0.00 PKD
ROOT
HETATM    1  C   UNL     1     -11.666  13.229  69.042  1.00  0.00    -0.368 C  
HETATM    2  C   UNL     1     -12.020  12.143  70.026  1.00  0.00    -0.391 A  
HETATM    3  C   UNL     1     -11.440  10.872  69.856  1.00  0.00    -0.402 A  
HETATM    4  C   UNL     1     -11.728   9.825  70.735  1.00  0.00    -0.407 A  
HETATM    5  C   UNL     1     -12.601  10.039  71.789  1.00  0.00    -0.504 A  
HETATM    6  C   UNL     1     -13.188  11.291  71.965  1.00  0.00    -0.437 A  
HETATM    7  C   UNL     1     -12.910  12.358  71.095  1.00  0.00    -0.205 A  
ENDROOT
BRANCH   7   8
HETATM    8  O   UNL     1     -13.460  13.619  71.233  1.00  0.00    -0.249 OA 
BRANCH   8   9
HETATM    9  C   UNL     1     -13.353  14.176  72.547  1.00  0.00    -0.518 C  
BRANCH   9  10
HETATM   10  C   UNL     1     -13.263  15.703  72.561  1.00  0.00    -0.497 C  
HETATM   11  O   UNL     1     -13.513  16.161  73.902  1.00  0.00    -0.915 OA 
HETATM   12  H   UNL     1     -13.458  17.109  73.910  1.00  0.00     0.000 HD 
BRANCH  10  13
HETATM   13  C   UNL     1     -11.899  16.214  72.083  1.00  0.00    -0.536 C  
HETATM   14  O   UNL     1     -11.024  15.131  71.764  1.00  0.00    -0.539 OA 
HETATM   15  H   UNL     1     -10.178  15.447  71.468  1.00  0.00     0.000 HD 
ENDBRANCH  10  13
ENDBRANCH   9  10
ENDBRANCH   8   9
ENDBRANCH   7   8
TORSDOF 4
ENDMDL
MODEL       10
REMARK 921   NORMALIZED FREE ENERGY PREDICTED BY IDOCK:   -4.96 KCAL/MOL
REMARK 922        TOTAL FREE ENERGY PREDICTED BY IDOCK:   -6.37 KCAL/MOL
REMARK 923 INTER-LIGAND FREE ENERGY PREDICTED BY IDOCK:   -5.91 KCAL/MOL
REMARK 924 INTRA-LIGAND FREE ENERGY PREDICTED BY IDOCK:   -0.46 KCAL/MOL
REMARK 927      BINDING AFFINITY PREDICTED BY RF-SCORE:    0.00 PKD
ROOT
HETATM    1  C   UNL     1     -10.783   9.756  67.116  1.00  0.00    -0.273 C  
HETATM    2  C   UNL     1     -11.213  10.887  68.016  1.00  0.00    -0.378 A  
HETATM    3  C   UNL     1     -11.446  10.608  69.376  1.00  0.00    -0.356 A  
HETATM    4  C   UNL     1     -11.846  11.612  70.260  1.00  0.00    -0.414 A  
HETATM    5  C   UNL     1     -12.021  12.904  69.791  1.00  0.00    -0.365 A  
HETATM    6  C   UNL     1     -11.802  13.193  68.445  1.00  0.00    -0.386 A  
HETATM    7  C   UNL     1     -11.396  12.199  67.540  1.00  0.00    -0.326 A  
ENDROOT
BRANCH   7   8
HETATM    8  O   UNL     1     -11.158  12.437  66.200  1.00  0.00    -0.277 OA 
BRANCH   8   9
HETATM    9  C   UNL     1     -12.322  12.776  65.438  1.00  0.00    -0.470 C  
BRANCH   9  10
HETATM   10  C   UNL     1     -12.204  12.434  63.952  1.00  0.00    -0.513 C  
HETATM   11  O   UNL     1     -12.309  13.653  63.195  1.00  0.00    -1.045 OA 
HETATM   12  H   UNL     1     -12.236  13.441  62.272  1.00  0.00     0.000 HD 
BRANCH  10  13
HETATM   13  C   UNL     1     -10.887  11.725  63.616  1.00  0.00    -0.440 C  
HETATM   14  O   UNL     1      -9.780  12.625  63.702  1.00  0.00    -0.672 OA 
HETATM   15  H   UNL     1      -8.963  12.186  63.494  1.00  0.00     0.000 HD 
ENDBRANCH  10  13
ENDBRANCH   9  10
ENDBRANCH   8   9
ENDBRANCH   7   8
TORSDOF 4
ENDMDL
MODEL       11
REMARK 921   NORMALIZED FREE ENERGY PREDICTED BY IDOCK:   -4.93 KCAL/MOL
REMARK 922        TOTAL FREE ENERGY PREDICTED BY IDOCK:   -6.33 KCAL/MOL
REMARK 923 INTER-LIGAND FREE ENERGY PREDICTED BY IDOCK:   -6.15 KCAL/MOL
REMARK 924 INTRA-LIGAND FREE ENERGY PREDICTED BY IDOCK:   -0.18 KCAL/MOL
REMARK 927      BINDING AFFINITY PREDICTED BY RF-SCORE:    0.00 PKD
ROOT
HETATM    1  C   UNL     1     -13.400  13.941  72.399  1.00  0.00    -0.629 C  
HETATM    2  C   UNL     1     -12.742  13.459  71.132  1.00  0.00    -0.411 A  
HETATM    3  C   UNL     1     -12.309  14.417  70.196  1.00  0.00    -0.406 A  
HETATM    4  C   UNL     1     -11.692  14.033  69.004  1.00  0.00    -0.368 A  
HETATM    5  C   UNL     1     -11.506  12.687  68.733  1.00  0.00    -0.349 A  
HETATM    6  C   UNL     1     -11.938  11.727  69.647  1.00  0.00    -0.378 A  
HETATM    7  C   UNL     1     -12.557  12.091  70.854  1.00  0.00    -0.253 A  
ENDROOT
BRANCH   7   8
HETATM    8  O   UNL     1     -12.994  11.178  71.794  1.00  0.00    -0.451 OA 
BRANCH   8   9
HETATM    9  C   UNL     1     -13.481   9.946  71.249  1.00  0.00    -0.280 C  
BRANCH   9  10
HETATM   10  C   UNL     1     -13.254   8.739  72.161  1.00  0.00    -0.414 C  
HETATM   11  O   UNL     1     -14.078   8.892  73.330  1.00  0.00    -1.256 OA 
HETATM   12  H   UNL     1     -13.937   8.142  73.897  1.00  0.00     0.000 HD 
BRANCH  10  13
HETATM   13  C   UNL     1     -13.579   7.411  71.466  1.00  0.00    -0.370 C  
HETATM   14  O   UNL     1     -12.521   7.013  70.593  1.00  0.00    -0.588 OA 
HETATM   15  H   UNL     1     -12.722   6.190  70.162  1.00  0.00     0.000 HD 
ENDBRANCH  10  13
ENDBRANCH   9  10
ENDBRANCH   8   9
ENDBRANCH   7   8
TORSDOF 4
ENDMDL
MODEL       12
REMARK 921   NORMALIZED FREE ENERGY PREDICTED BY IDOCK:   -4.90 KCAL/MOL
REMARK 922        TOTAL FREE ENERGY PREDICTED BY IDOCK:   -6.30 KCAL/MOL
REMARK 923 INTER-LIGAND FREE ENERGY PREDICTED BY IDOCK:   -5.78 KCAL/MOL
REMARK 924 INTRA-LIGAND FREE ENERGY PREDICTED BY IDOCK:   -0.52 KCAL/MOL
REMARK 927      BINDING AFFINITY PREDICTED BY RF-SCORE:    0.00 PKD
ROOT
HETATM    1  C   UNL     1     -11.779  11.560  68.186  1.00  0.00    -0.357 C  
HETATM    2  C   UNL     1     -11.808  12.935  68.804  1.00  0.00    -0.353 A  
HETATM    3  C   UNL     1     -12.251  13.061  70.134  1.00  0.00    -0.342 A  
HETATM    4  C   UNL     1     -12.300  14.307  70.762  1.00  0.00    -0.427 A  
HETATM    5  C   UNL     1     -11.911  15.440  70.065  1.00  0.00    -0.383 A  
HETATM    6  C   UNL     1     -11.477  15.331  68.744  1.00  0.00    -0.345 A  
HETATM    7  C   UNL     1     -11.416  14.087  68.095  1.00  0.00    -0.309 A  
ENDROOT
BRANCH   7   8
HETATM    8  O   UNL     1     -10.986  13.927  66.792  1.00  0.00    -0.294 OA 
BRANCH   8   9
HETATM    9  C   UNL     1     -11.004  15.123  66.005  1.00  0.00    -0.332 C  
BRANCH   9  10
HETATM   10  C   UNL     1     -12.019  15.091  64.862  1.00  0.00    -0.255 C  
HETATM   11  O   UNL     1     -11.591  16.017  63.848  1.00  0.00    -1.193 OA 
HETATM   12  H   UNL     1     -12.221  15.998  63.138  1.00  0.00     0.000 HD 
BRANCH  10  13
HETATM   13  C   UNL     1     -12.174  13.692  64.255  1.00  0.00    -0.396 C  
HETATM   14  O   UNL     1     -13.070  12.890  65.028  1.00  0.00    -0.794 OA 
HETATM   15  H   UNL     1     -13.166  12.022  64.652  1.00  0.00     0.000 HD 
ENDBRANCH  10  13
ENDBRANCH   9  10
ENDBRANCH   8   9
ENDBRANCH   7   8
TORSDOF 4
ENDMDL
MODEL       13
REMARK 921   NORMALIZED FREE ENERGY PREDICTED BY IDOCK:   -4.89 KCAL/MOL
REMARK 922        TOTAL FREE ENERGY PREDICTED BY IDOCK:   -6.28 KCAL/MOL
REMARK 923 INTER-LIGAND FREE ENERGY PREDICTED BY IDOCK:   -6.00 KCAL/MOL
REMARK 924 INTRA-LIGAND FREE ENERGY PREDICTED BY IDOCK:   -0.28 KCAL/MOL
REMARK 927      BINDING AFFINITY PREDICTED BY RF-SCORE:    0.00 PKD
ROOT
HETATM    1  C   UNL     1     -11.156  11.866  63.137  1.00  0.00    -0.267 C  
HETATM    2  C   UNL     1     -10.998  11.698  64.627  1.00  0.00    -0.363 A  
HETATM    3  C   UNL     1     -10.057  10.763  65.098  1.00  0.00    -0.363 A  
HETATM    4  C   UNL     1      -9.864  10.564  66.467  1.00  0.00    -0.255 A  
HETATM    5  C   UNL     1     -10.613  11.292  67.376  1.00  0.00    -0.262 A  
HETATM    6  C   UNL     1     -11.554  12.216  66.923  1.00  0.00    -0.408 A  
HETATM    7  C   UNL     1     -11.762  12.436  65.552  1.00  0.00    -0.407 A  
ENDROOT
BRANCH   7   8
HETATM    8  O   UNL     1     -12.675  13.345  65.054  1.00  0.00    -0.623 OA 
BRANCH   8   9
HETATM    9  C   UNL     1     -12.431  14.704  65.431  1.00  0.00    -0.160 C  
BRANCH   9  10
HETATM   10  C   UNL     1     -11.193  15.312  64.770  1.00  0.00    -0.396 C  
HETATM   11  O   UNL     1     -11.626  16.252  63.771  1.00  0.00    -1.539 OA 
HETATM   12  H   UNL     1     -10.857  16.630  63.361  1.00  0.00     0.000 HD 
BRANCH  10  13
HETATM   13  C   UNL     1     -10.274  16.012  65.779  1.00  0.00    -0.377 C  
HETATM   14  O   UNL     1     -10.145  17.404  65.481  1.00  0.00    -0.579 OA 
HETATM   15  H   UNL     1      -9.576  17.838  66.106  1.00  0.00     0.000 HD 
ENDBRANCH  10  13
ENDBRANCH   9  10
ENDBRANCH   8   9
ENDBRANCH   7   8
TORSDOF 4
ENDMDL
MODEL       14
REMARK 921   NORMALIZED FREE ENERGY PREDICTED BY IDOCK:   -4.83 KCAL/MOL
REMARK 922        TOTAL FREE ENERGY PREDICTED BY IDOCK:   -6.21 KCAL/MOL
REMARK 923 INTER-LIGAND FREE ENERGY PREDICTED BY IDOCK:   -5.88 KCAL/MOL
REMARK 924 INTRA-LIGAND FREE ENERGY PREDICTED BY IDOCK:   -0.33 KCAL/MOL
REMARK 927      BINDING AFFINITY PREDICTED BY RF-SCORE:    0.00 PKD
ROOT
HETATM    1  C   UNL     1     -10.898  16.113  69.855  1.00  0.00    -0.355 C  
HETATM    2  C   UNL     1     -11.782  15.467  70.891  1.00  0.00    -0.413 A  
HETATM    3  C   UNL     1     -12.008  16.153  72.100  1.00  0.00    -0.623 A  
HETATM    4  C   UNL     1     -12.818  15.608  73.098  1.00  0.00    -0.621 A  
HETATM    5  C   UNL     1     -13.407  14.370  72.899  1.00  0.00    -0.575 A  
HETATM    6  C   UNL     1     -13.186  13.675  71.710  1.00  0.00    -0.477 A  
HETATM    7  C   UNL     1     -12.378  14.207  70.692  1.00  0.00    -0.365 A  
ENDROOT
BRANCH   7   8
HETATM    8  O   UNL     1     -12.136  13.562  69.494  1.00  0.00    -0.316 OA 
BRANCH   8   9
HETATM    9  C   UNL     1     -11.882  12.158  69.612  1.00  0.00    -0.322 C  
BRANCH   9  10
HETATM   10  C   UNL     1     -11.168  11.559  68.400  1.00  0.00    -0.255 C  
HETATM   11  O   UNL     1     -11.863  10.362  68.009  1.00  0.00    -0.746 OA 
HETATM   12  H   UNL     1     -11.420   9.989  67.256  1.00  0.00     0.000 HD 
BRANCH  10  13
HETATM   13  C   UNL     1     -11.105  12.532  67.217  1.00  0.00    -0.274 C  
HETATM   14  O   UNL     1     -12.304  12.481  66.441  1.00  0.00    -0.537 OA 
HETATM   15  H   UNL     1     -12.265  13.084  65.708  1.00  0.00     0.000 HD 
ENDBRANCH  10  13
ENDBRANCH   9  10
ENDBRANCH   8   9
ENDBRANCH   7   8
TORSDOF 4
ENDMDL
MODEL       15
REMARK 921   NORMALIZED FREE ENERGY PREDICTED BY IDOCK:   -4.82 KCAL/MOL
REMARK 922        TOTAL FREE ENERGY PREDICTED BY IDOCK:   -6.19 KCAL/MOL
REMARK 923 INTER-LIGAND FREE ENERGY PREDICTED BY IDOCK:   -5.73 KCAL/MOL
REMARK 924 INTRA-LIGAND FREE ENERGY PREDICTED BY IDOCK:   -0.46 KCAL/MOL
REMARK 927      BINDING AFFINITY PREDICTED BY RF-SCORE:    0.00 PKD
ROOT
HETATM    1  C   UNL     1     -11.547  11.806  68.465  1.00  0.00    -0.380 C  
HETATM    2  C   UNL     1     -12.137  12.396  69.721  1.00  0.00    -0.292 A  
HETATM    3  C   UNL     1     -12.089  13.792  69.890  1.00  0.00    -0.412 A  
HETATM    4  C   UNL     1     -12.619  14.399  71.031  1.00  0.00    -0.419 A  
HETATM    5  C   UNL     1     -13.198  13.614  72.016  1.00  0.00    -0.522 A  
HETATM    6  C   UNL     1     -13.245  12.229  71.865  1.00  0.00    -0.481 A  
HETATM    7  C   UNL     1     -12.722  11.599  70.724  1.00  0.00    -0.201 A  
ENDROOT
BRANCH   7   8
HETATM    8  O   UNL     1     -12.752  10.232  70.524  1.00  0.00    -0.311 OA 
BRANCH   8   9
HETATM    9  C   UNL     1     -11.837   9.489  71.338  1.00  0.00    -0.389 C  
BRANCH   9  10
HETATM   10  C   UNL     1     -12.413   8.174  71.866  1.00  0.00    -0.332 C  
HETATM   11  O   UNL     1     -11.852   7.922  73.167  1.00  0.00    -0.651 OA 
HETATM   12  H   UNL     1     -12.209   7.105  73.494  1.00  0.00     0.000 HD 
BRANCH  10  13
HETATM   13  C   UNL     1     -13.944   8.200  71.957  1.00  0.00    -0.335 C  
HETATM   14  O   UNL     1     -14.390   9.189  72.886  1.00  0.00    -1.006 OA 
HETATM   15  H   UNL     1     -15.338   9.205  72.943  1.00  0.00     0.000 HD 
ENDBRANCH  10  13
ENDBRANCH   9  10
ENDBRANCH   8   9
ENDBRANCH   7   8
TORSDOF 4
ENDMDL
MODEL       16
REMARK 921   NORMALIZED FREE ENERGY PREDICTED BY IDOCK:   -4.80 KCAL/MOL
REMARK 922        TOTAL FREE ENERGY PREDICTED BY IDOCK:   -6.17 KCAL/MOL
REMARK 923 INTER-LIGAND FREE ENERGY PREDICTED BY IDOCK:   -5.93 KCAL/MOL
REMARK 924 INTRA-LIGAND FREE ENERGY PREDICTED BY IDOCK:   -0.24 KCAL/MOL
REMARK 927      BINDING AFFINITY PREDICTED BY RF-SCORE:    0.00 PKD
ROOT
HETATM    1  C   UNL     1     -12.415  11.511  70.348  1.00  0.00    -0.324 C  
HETATM    2  C   UNL     1     -12.216  12.966  70.010  1.00  0.00    -0.292 A  
HETATM    3  C   UNL     1     -12.256  13.908  71.055  1.00  0.00    -0.421 A  
HETATM    4  C   UNL     1     -12.077  15.270  70.806  1.00  0.00    -0.399 A  
HETATM    5  C   UNL     1     -11.861  15.704  69.509  1.00  0.00    -0.387 A  
HETATM    6  C   UNL     1     -11.826  14.783  68.462  1.00  0.00    -0.340 A  
HETATM    7  C   UNL     1     -12.000  13.409  68.691  1.00  0.00    -0.327 A  
ENDROOT
BRANCH   7   8
HETATM    8  O   UNL     1     -11.966  12.457  67.689  1.00  0.00    -0.454 OA 
BRANCH   8   9
HETATM    9  C   UNL     1     -11.424  12.918  66.447  1.00  0.00    -0.341 C  
BRANCH   9  10
HETATM   10  C   UNL     1     -12.394  12.797  65.271  1.00  0.00    -0.488 C  
HETATM   11  O   UNL     1     -13.260  13.945  65.275  1.00  0.00    -0.774 OA 
HETATM   12  H   UNL     1     -13.863  13.870  64.545  1.00  0.00     0.000 HD 
BRANCH  10  13
HETATM   13  C   UNL     1     -11.671  12.696  63.922  1.00  0.00    -0.457 C  
HETATM   14  O   UNL     1     -12.242  11.672  63.105  1.00  0.00    -0.928 OA 
HETATM   15  H   UNL     1     -11.794  11.610  62.269  1.00  0.00     0.000 HD 
ENDBRANCH  10  13
ENDBRANCH   9  10
ENDBRANCH   8   9
ENDBRANCH   7   8
TORSDOF 4
ENDMDL
MODEL       17
REMARK 921   NORMALIZED FREE ENERGY PREDICTED BY IDOCK:   -4.80 KCAL/MOL
REMARK 922        TOTAL FREE ENERGY PREDICTED BY IDOCK:   -6.17 KCAL/MOL
REMARK 923 INTER-LIGAND FREE ENERGY PREDICTED BY IDOCK:   -6.17 KCAL/MOL
REMARK 924 INTRA-LIGAND FREE ENERGY PREDICTED BY IDOCK:    0.00 KCAL/MOL
REMARK 927      BINDING AFFINITY PREDICTED BY RF-SCORE:    0.00 PKD
ROOT
HETATM    1  C   UNL     1     -11.563  11.167  68.951  1.00  0.00    -0.385 C  
HETATM    2  C   UNL     1     -11.037  10.855  67.573  1.00  0.00    -0.375 A  
HETATM    3  C   UNL     1     -10.217   9.722  67.411  1.00  0.00    -0.284 A  
HETATM    4  C   UNL     1      -9.700   9.380  66.160  1.00  0.00    -0.334 A  
HETATM    5  C   UNL     1      -9.993  10.169  65.060  1.00  0.00    -0.375 A  
HETATM    6  C   UNL     1     -10.797  11.299  65.207  1.00  0.00    -0.261 A  
HETATM    7  C   UNL     1     -11.331  11.659  66.455  1.00  0.00    -0.263 A  
ENDROOT
BRANCH   7   8
HETATM    8  O   UNL     1     -12.139  12.763  66.650  1.00  0.00    -0.468 OA 
BRANCH   8   9
HETATM    9  C   UNL     1     -11.482  14.023  66.474  1.00  0.00    -0.357 C  
BRANCH   9  10
HETATM   10  C   UNL     1     -11.435  14.493  65.019  1.00  0.00    -0.382 C  
HETATM   11  O   UNL     1     -12.737  14.300  64.437  1.00  0.00    -0.661 OA 
HETATM   12  H   UNL     1     -12.708  14.592  63.534  1.00  0.00     0.000 HD 
BRANCH  10  13
HETATM   13  C   UNL     1     -11.022  15.964  64.892  1.00  0.00    -0.411 C  
HETATM   14  O   UNL     1     -11.599  16.564  63.731  1.00  0.00    -1.617 OA 
HETATM   15  H   UNL     1     -11.343  17.476  63.652  1.00  0.00     0.000 HD 
ENDBRANCH  10  13
ENDBRANCH   9  10
ENDBRANCH   8   9
ENDBRANCH   7   8
TORSDOF 4
ENDMDL
MODEL       18
REMARK 921   NORMALIZED FREE ENERGY PREDICTED BY IDOCK:   -4.80 KCAL/MOL
REMARK 922        TOTAL FREE ENERGY PREDICTED BY IDOCK:   -6.17 KCAL/MOL
REMARK 923 INTER-LIGAND FREE ENERGY PREDICTED BY IDOCK:   -5.99 KCAL/MOL
REMARK 924 INTRA-LIGAND FREE ENERGY PREDICTED BY IDOCK:   -0.18 KCAL/MOL
REMARK 927      BINDING AFFINITY PREDICTED BY RF-SCORE:    0.00 PKD
ROOT
HETATM    1  C   UNL     1     -12.285  12.421  70.283  1.00  0.00    -0.345 C  
HETATM    2  C   UNL     1     -11.616  11.294  69.539  1.00  0.00    -0.398 A  
HETATM    3  C   UNL     1     -11.076  10.228  70.284  1.00  0.00    -0.388 A  
HETATM    4  C   UNL     1     -10.446   9.154  69.653  1.00  0.00    -0.230 A  
HETATM    5  C   UNL     1     -10.344   9.137  68.272  1.00  0.00    -0.256 A  
HETATM    6  C   UNL     1     -10.868  10.190  67.521  1.00  0.00    -0.349 A  
HETATM    7  C   UNL     1     -11.510  11.277  68.136  1.00  0.00    -0.306 A  
ENDROOT
BRANCH   7   8
HETATM    8  O   UNL     1     -12.051  12.339  67.436  1.00  0.00    -0.533 OA 
BRANCH   8   9
HETATM    9  C   UNL     1     -11.537  12.504  66.110  1.00  0.00    -0.395 C  
BRANCH   9  10
HETATM   10  C   UNL     1     -12.605  12.871  65.078  1.00  0.00    -0.472 C  
HETATM   11  O   UNL     1     -13.069  14.203  65.358  1.00  0.00    -0.743 OA 
HETATM   12  H   UNL     1     -13.732  14.431  64.718  1.00  0.00     0.000 HD 
BRANCH  10  13
HETATM   13  C   UNL     1     -12.080  12.795  63.639  1.00  0.00    -0.543 C  
HETATM   14  O   UNL     1     -12.509  13.923  62.873  1.00  0.00    -1.034 OA 
HETATM   15  H   UNL     1     -12.184  13.876  61.982  1.00  0.00     0.000 HD 
ENDBRANCH  10  13
ENDBRANCH   9  10
ENDBRANCH   8   9
ENDBRANCH   7   8
TORSDOF 4
ENDMDL
MODEL       19
REMARK 921   NORMALIZED FREE ENERGY PREDICTED BY IDOCK:   -4.79 KCAL/MOL
REMARK 922        TOTAL FREE ENERGY PREDICTED BY IDOCK:   -6.16 KCAL/MOL
REMARK 923 INTER-LIGAND FREE ENERGY PREDICTED BY IDOCK:   -5.96 KCAL/MOL
REMARK 924 INTRA-LIGAND FREE ENERGY PREDICTED BY IDOCK:   -0.20 KCAL/MOL
REMARK 927      BINDING AFFINITY PREDICTED BY RF-SCORE:    0.00 PKD
ROOT
HETATM    1  C   UNL     1     -11.036  12.720  68.609  1.00  0.00    -0.304 C  
HETATM    2  C   UNL     1     -11.668  11.927  69.725  1.00  0.00    -0.403 A  
HETATM    3  C   UNL     1     -11.450  10.537  69.765  1.00  0.00    -0.365 A  
HETATM    4  C   UNL     1     -12.008   9.748  70.773  1.00  0.00    -0.382 A  
HETATM    5  C   UNL     1     -12.793  10.341  71.749  1.00  0.00    -0.565 A  
HETATM    6  C   UNL     1     -13.023  11.716  71.718  1.00  0.00    -0.483 A  
HETATM    7  C   UNL     1     -12.469  12.528  70.715  1.00  0.00    -0.268 A  
ENDROOT
BRANCH   7   8
HETATM    8  O   UNL     1     -12.662  13.895  70.646  1.00  0.00    -0.321 OA 
BRANCH   8   9
HETATM    9  C   UNL     1     -12.991  14.515  71.894  1.00  0.00    -0.341 C  
BRANCH   9  10
HETATM   10  C   UNL     1     -11.938  15.512  72.380  1.00  0.00    -0.451 C  
HETATM   11  O   UNL     1     -11.721  16.486  71.344  1.00  0.00    -0.648 OA 
HETATM   12  H   UNL     1     -11.067  17.105  71.646  1.00  0.00     0.000 HD 
BRANCH  10  13
HETATM   13  C   UNL     1     -12.353  16.217  73.677  1.00  0.00    -0.562 C  
HETATM   14  O   UNL     1     -13.774  16.350  73.760  1.00  0.00    -0.866 OA 
HETATM   15  H   UNL     1     -14.031  16.787  74.564  1.00  0.00     0.000 HD 
ENDBRANCH  10  13
ENDBRANCH   9  10
ENDBRANCH   8   9
ENDBRANCH   7   8
TORSDOF 4
ENDMDL
MODEL       20
REMARK 921   NORMALIZED FREE ENERGY PREDICTED BY IDOCK:   -4.78 KCAL/MOL
REMARK 922        TOTAL FREE ENERGY PREDICTED BY IDOCK:   -6.16 KCAL/MOL
REMARK 923 INTER-LIGAND FREE ENERGY PREDICTED BY IDOCK:   -5.65 KCAL/MOL
REMARK 924 INTRA-LIGAND FREE ENERGY PREDICTED BY IDOCK:   -0.51 KCAL/MOL
REMARK 927      BINDING AFFINITY PREDICTED BY RF-SCORE:    0.00 PKD
ROOT
HETATM    1  C   UNL     1      -9.472  16.290  68.995  1.00  0.00    -0.258 C  
HETATM    2  C   UNL     1      -9.812  17.489  68.147  1.00  0.00    -0.306 A  
HETATM    3  C   UNL     1      -9.915  18.745  68.776  1.00  0.00    -0.442 A  
HETATM    4  C   UNL     1     -10.226  19.893  68.045  1.00  0.00    -0.572 A  
HETATM    5  C   UNL     1     -10.442  19.797  66.680  1.00  0.00    -0.615 A  
HETATM    6  C   UNL     1     -10.351  18.559  66.045  1.00  0.00    -0.423 A  
HETATM    7  C   UNL     1     -10.035  17.392  66.760  1.00  0.00    -0.307 A  
ENDROOT
BRANCH   7   8
HETATM    8  O   UNL     1      -9.925  16.144  66.176  1.00  0.00    -0.292 OA 
BRANCH   8   9
HETATM    9  C   UNL     1     -10.812  15.921  65.075  1.00  0.00    -0.426 C  
BRANCH   9  10
HETATM   10  C   UNL     1     -11.223  14.457  64.904  1.00  0.00    -0.389 C  
HETATM   11  O   UNL     1     -10.148  13.756  64.254  1.00  0.00    -0.744 OA 
HETATM   12  H   UNL     1     -10.403  12.848  64.148  1.00  0.00     0.000 HD 
BRANCH  10  13
HETATM   13  C   UNL     1     -11.551  13.781  66.241  1.00  0.00    -0.350 C  
HETATM   14  O   UNL     1     -12.246  14.674  67.114  1.00  0.00    -0.523 OA 
HETATM   15  H   UNL     1     -12.449  14.255  67.943  1.00  0.00     0.000 HD 
ENDBRANCH  10  13
ENDBRANCH   9  10
ENDBRANCH   8   9
ENDBRANCH   7   8
TORSDOF 4
ENDMDL
MODEL       21
REMARK 921   NORMALIZED FREE ENERGY PREDICTED BY IDOCK:   -4.78 KCAL/MOL
REMARK 922        TOTAL FREE ENERGY PREDICTED BY IDOCK:   -6.15 KCAL/MOL
REMARK 923 INTER-LIGAND FREE ENERGY PREDICTED BY IDOCK:   -5.72 KCAL/MOL
REMARK 924 INTRA-LIGAND FREE ENERGY PREDICTED BY IDOCK:   -0.43 KCAL/MOL
REMARK 927      BINDING AFFINITY PREDICTED BY RF-SCORE:    0.00 PKD
ROOT
HETATM    1  C   UNL     1     -11.431  11.685  67.463  1.00  0.00    -0.360 C  
HETATM    2  C   UNL     1     -11.014  11.536  66.022  1.00  0.00    -0.316 A  
HETATM    3  C   UNL     1     -10.221  10.428  65.666  1.00  0.00    -0.308 A  
HETATM    4  C   UNL     1      -9.803  10.234  64.348  1.00  0.00    -0.374 A  
HETATM    5  C   UNL     1     -10.170  11.148  63.374  1.00  0.00    -0.435 A  
HETATM    6  C   UNL     1     -10.949  12.254  63.713  1.00  0.00    -0.495 A  
HETATM    7  C   UNL     1     -11.383  12.466  65.032  1.00  0.00    -0.320 A  
ENDROOT
BRANCH   7   8
HETATM    8  O   UNL     1     -12.162  13.541  65.415  1.00  0.00    -0.392 OA 
BRANCH   8   9
HETATM    9  C   UNL     1     -12.219  14.608  64.462  1.00  0.00    -0.456 C  
BRANCH   9  10
HETATM   10  C   UNL     1     -11.102  15.640  64.627  1.00  0.00    -0.373 C  
HETATM   11  O   UNL     1     -11.450  16.812  63.869  1.00  0.00    -1.484 OA 
HETATM   12  H   UNL     1     -10.757  17.452  63.971  1.00  0.00     0.000 HD 
BRANCH  10  13
HETATM   13  C   UNL     1     -10.869  16.021  66.094  1.00  0.00    -0.179 C  
HETATM   14  O   UNL     1      -9.979  15.102  66.731  1.00  0.00    -0.232 OA 
HETATM   15  H   UNL     1      -9.835  15.338  67.640  1.00  0.00     0.000 HD 
ENDBRANCH  10  13
ENDBRANCH   9  10
ENDBRANCH   8   9
ENDBRANCH   7   8
TORSDOF 4
ENDMDL
MODEL       22
REMARK 921   NORMALIZED FREE ENERGY PREDICTED BY IDOCK:   -4.78 KCAL/MOL
REMARK 922        TOTAL FREE ENERGY PREDICTED BY IDOCK:   -6.15 KCAL/MOL
REMARK 923 INTER-LIGAND FREE ENERGY PREDICTED BY IDOCK:   -5.96 KCAL/MOL
REMARK 924 INTRA-LIGAND FREE ENERGY PREDICTED BY IDOCK:   -0.19 KCAL/MOL
REMARK 927      BINDING AFFINITY PREDICTED BY RF-SCORE:    0.00 PKD
ROOT
HETATM    1  C   UNL     1     -11.722  14.315  69.146  1.00  0.00    -0.360 C  
HETATM    2  C   UNL     1     -11.185  15.424  68.276  1.00  0.00    -0.325 A  
HETATM    3  C   UNL     1     -10.969  16.686  68.860  1.00  0.00    -0.294 A  
HETATM    4  C   UNL     1     -10.472  17.753  68.107  1.00  0.00    -0.382 A  
HETATM    5  C   UNL     1     -10.192  17.569  66.763  1.00  0.00    -0.327 A  
HETATM    6  C   UNL     1     -10.408  16.325  66.170  1.00  0.00    -0.352 A  
HETATM    7  C   UNL     1     -10.903  15.238  66.909  1.00  0.00    -0.317 A  
ENDROOT
BRANCH   7   8
HETATM    8  O   UNL     1     -11.126  13.986  66.369  1.00  0.00    -0.308 OA 
BRANCH   8   9
HETATM    9  C   UNL     1     -10.824  13.875  64.974  1.00  0.00    -0.382 C  
BRANCH   9  10
HETATM   10  C   UNL     1     -11.941  13.227  64.154  1.00  0.00    -0.447 C  
HETATM   11  O   UNL     1     -12.434  14.197  63.212  1.00  0.00    -1.146 OA 
HETATM   12  H   UNL     1     -13.128  13.794  62.703  1.00  0.00     0.000 HD 
BRANCH  10  13
HETATM   13  C   UNL     1     -11.468  11.973  63.409  1.00  0.00    -0.400 C  
HETATM   14  O   UNL     1     -12.573  11.246  62.868  1.00  0.00    -0.917 OA 
HETATM   15  H   UNL     1     -12.281  10.469  62.407  1.00  0.00     0.000 HD 
ENDBRANCH  10  13
ENDBRANCH   9  10
ENDBRANCH   8   9
ENDBRANCH   7   8
TORSDOF 4
ENDMDL
MODEL       23
REMARK 921   NORMALIZED FREE ENERGY PREDICTED BY IDOCK:   -4.77 KCAL/MOL
REMARK 922        TOTAL FREE ENERGY PREDICTED BY IDOCK:   -6.14 KCAL/MOL
REMARK 923 INTER-LIGAND FREE ENERGY PREDICTED BY IDOCK:   -5.68 KCAL/MOL
REMARK 924 INTRA-LIGAND FREE ENERGY PREDICTED BY IDOCK:   -0.46 KCAL/MOL
REMARK 927      BINDING AFFINITY PREDICTED BY RF-SCORE:    0.00 PKD
ROOT
HETATM    1  C   UNL     1     -12.287  11.451  70.732  1.00  0.00    -0.483 C  
HETATM    2  C   UNL     1     -12.638  12.892  71.001  1.00  0.00    -0.376 A  
HETATM    3  C   UNL     1     -13.435  13.188  72.123  1.00  0.00    -0.653 A  
HETATM    4  C   UNL     1     -13.794  14.503  72.426  1.00  0.00    -0.587 A  
HETATM    5  C   UNL     1     -13.364  15.534  71.608  1.00  0.00    -0.585 A  
HETATM    6  C   UNL     1     -12.580  15.255  70.488  1.00  0.00    -0.450 A  
HETATM    7  C   UNL     1     -12.204  13.940  70.167  1.00  0.00    -0.358 A  
ENDROOT
BRANCH   7   8
HETATM    8  O   UNL     1     -11.423  13.615  69.075  1.00  0.00    -0.261 OA 
BRANCH   8   9
HETATM    9  C   UNL     1     -11.653  14.421  67.915  1.00  0.00    -0.345 C  
BRANCH   9  10
HETATM   10  C   UNL     1     -11.049  13.843  66.635  1.00  0.00    -0.306 C  
HETATM   11  O   UNL     1      -9.683  13.476  66.902  1.00  0.00    -0.245 OA 
HETATM   12  H   UNL     1      -9.308  13.117  66.107  1.00  0.00     0.000 HD 
BRANCH  10  13
HETATM   13  C   UNL     1     -11.823  12.623  66.121  1.00  0.00    -0.418 C  
HETATM   14  O   UNL     1     -11.913  11.609  67.123  1.00  0.00    -0.614 OA 
HETATM   15  H   UNL     1     -12.393  10.852  66.804  1.00  0.00     0.000 HD 
ENDBRANCH  10  13
ENDBRANCH   9  10
ENDBRANCH   8   9
ENDBRANCH   7   8
TORSDOF 4
ENDMDL
MODEL       24
REMARK 921   NORMALIZED FREE ENERGY PREDICTED BY IDOCK:   -4.76 KCAL/MOL
REMARK 922        TOTAL FREE ENERGY PREDICTED BY IDOCK:   -6.12 KCAL/MOL
REMARK 923 INTER-LIGAND FREE ENERGY PREDICTED BY IDOCK:   -5.70 KCAL/MOL
REMARK 924 INTRA-LIGAND FREE ENERGY PREDICTED BY IDOCK:   -0.42 KCAL/MOL
REMARK 927      BINDING AFFINITY PREDICTED BY RF-SCORE:    0.00 PKD
ROOT
HETATM    1  C   UNL     1     -11.257  11.574  68.697  1.00  0.00    -0.307 C  
HETATM    2  C   UNL     1     -12.015  12.090  69.893  1.00  0.00    -0.391 A  
HETATM    3  C   UNL     1     -12.211  13.479  70.013  1.00  0.00    -0.381 A  
HETATM    4  C   UNL     1     -12.906  14.018  71.097  1.00  0.00    -0.427 A  
HETATM    5  C   UNL     1     -13.408  13.175  72.075  1.00  0.00    -0.587 A  
HETATM    6  C   UNL     1     -13.215  11.797  71.973  1.00  0.00    -0.460 A  
HETATM    7  C   UNL     1     -12.522  11.234  70.889  1.00  0.00    -0.394 A  
ENDROOT
BRANCH   7   8
HETATM    8  O   UNL     1     -12.313   9.876  70.740  1.00  0.00    -0.295 OA 
BRANCH   8   9
HETATM    9  C   UNL     1     -11.295   9.332  71.588  1.00  0.00    -0.397 C  
BRANCH   9  10
HETATM   10  C   UNL     1     -11.777   8.171  72.458  1.00  0.00    -0.394 C  
HETATM   11  O   UNL     1     -13.088   8.491  72.958  1.00  0.00    -0.729 OA 
HETATM   12  H   UNL     1     -13.387   7.770  73.498  1.00  0.00     0.000 HD 
BRANCH  10  13
HETATM   13  C   UNL     1     -11.823   6.844  71.692  1.00  0.00    -0.324 C  
HETATM   14  O   UNL     1     -12.365   7.022  70.382  1.00  0.00    -0.615 OA 
HETATM   15  H   UNL     1     -12.393   6.199  69.907  1.00  0.00     0.000 HD 
ENDBRANCH  10  13
ENDBRANCH   9  10
ENDBRANCH   8   9
ENDBRANCH   7   8
TORSDOF 4
ENDMDL
MODEL       25
REMARK 921   NORMALIZED FREE ENERGY PREDICTED BY IDOCK:   -4.75 KCAL/MOL
REMARK 922        TOTAL FREE ENERGY PREDICTED BY IDOCK:   -6.11 KCAL/MOL
REMARK 923 INTER-LIGAND FREE ENERGY PREDICTED BY IDOCK:   -5.69 KCAL/MOL
REMARK 924 INTRA-LIGAND FREE ENERGY PREDICTED BY IDOCK:   -0.42 KCAL/MOL
REMARK 927      BINDING AFFINITY PREDICTED BY RF-SCORE:    0.00 PKD
ROOT
HETATM    1  C   UNL     1     -11.204  16.358  67.868  1.00  0.00    -0.184 C  
HETATM    2  C   UNL     1     -11.525  15.018  68.481  1.00  0.00    -0.335 A  
HETATM    3  C   UNL     1     -11.751  14.954  69.869  1.00  0.00    -0.347 A  
HETATM    4  C   UNL     1     -12.053  13.743  70.495  1.00  0.00    -0.416 A  
HETATM    5  C   UNL     1     -12.127  12.584  69.741  1.00  0.00    -0.293 A  
HETATM    6  C   UNL     1     -11.897  12.631  68.366  1.00  0.00    -0.347 A  
HETATM    7  C   UNL     1     -11.596  13.839  67.716  1.00  0.00    -0.346 A  
ENDROOT
BRANCH   7   8
HETATM    8  O   UNL     1     -11.369  13.937  66.356  1.00  0.00    -0.313 OA 
BRANCH   8   9
HETATM    9  C   UNL     1     -12.528  13.735  65.541  1.00  0.00    -0.512 C  
BRANCH   9  10
HETATM   10  C   UNL     1     -12.219  13.119  64.176  1.00  0.00    -0.398 C  
HETATM   11  O   UNL     1     -12.416  14.126  63.167  1.00  0.00    -1.126 OA 
HETATM   12  H   UNL     1     -12.224  13.744  62.320  1.00  0.00     0.000 HD 
BRANCH  10  13
HETATM   13  C   UNL     1     -10.789  12.571  64.090  1.00  0.00    -0.382 C  
HETATM   14  O   UNL     1      -9.830  13.630  64.084  1.00  0.00    -0.693 OA 
HETATM   15  H   UNL     1      -8.944  13.291  64.031  1.00  0.00     0.000 HD 
ENDBRANCH  10  13
ENDBRANCH   9  10
ENDBRANCH   8   9
ENDBRANCH   7   8
TORSDOF 4
ENDMDL
MODEL       26
REMARK 921   NORMALIZED FREE ENERGY PREDICTED BY IDOCK:   -4.72 KCAL/MOL
REMARK 922        TOTAL FREE ENERGY PREDICTED BY IDOCK:   -6.07 KCAL/MOL
REMARK 923 INTER-LIGAND FREE ENERGY PREDICTED BY IDOCK:   -5.73 KCAL/MOL
REMARK 924 INTRA-LIGAND FREE ENERGY PREDICTED BY IDOCK:   -0.34 KCAL/MOL
REMARK 927      BINDING AFFINITY PREDICTED BY RF-SCORE:    0.00 PKD
ROOT
HETATM    1  C   UNL     1     -10.617  13.108  67.578  1.00  0.00    -0.240 C  
HETATM    2  C   UNL     1     -10.377  11.787  66.892  1.00  0.00    -0.247 A  
HETATM    3  C   UNL     1     -10.333  10.622  67.681  1.00  0.00    -0.246 A  
HETATM    4  C   UNL     1     -10.116   9.369  67.104  1.00  0.00    -0.292 A  
HETATM    5  C   UNL     1      -9.935   9.270  65.734  1.00  0.00    -0.215 A  
HETATM    6  C   UNL     1      -9.968  10.416  64.942  1.00  0.00    -0.409 A  
HETATM    7  C   UNL     1     -10.189  11.686  65.500  1.00  0.00    -0.260 A  
ENDROOT
BRANCH   7   8
HETATM    8  O   UNL     1     -10.239  12.849  64.757  1.00  0.00    -0.313 OA 
BRANCH   8   9
HETATM    9  C   UNL     1     -11.439  13.020  63.994  1.00  0.00    -0.421 C  
BRANCH   9  10
HETATM   10  C   UNL     1     -12.183  14.320  64.303  1.00  0.00    -0.423 C  
HETATM   11  O   UNL     1     -13.186  14.045  65.297  1.00  0.00    -0.782 OA 
HETATM   12  H   UNL     1     -13.648  14.853  65.488  1.00  0.00     0.000 HD 
BRANCH  10  13
HETATM   13  C   UNL     1     -11.246  15.427  64.801  1.00  0.00    -0.395 C  
HETATM   14  O   UNL     1     -11.359  16.601  63.995  1.00  0.00    -1.486 OA 
HETATM   15  H   UNL     1     -10.778  17.287  64.304  1.00  0.00     0.000 HD 
ENDBRANCH  10  13
ENDBRANCH   9  10
ENDBRANCH   8   9
ENDBRANCH   7   8
TORSDOF 4
ENDMDL
MODEL       27
REMARK 921   NORMALIZED FREE ENERGY PREDICTED BY IDOCK:   -4.67 KCAL/MOL
REMARK 922        TOTAL FREE ENERGY PREDICTED BY IDOCK:   -6.01 KCAL/MOL
REMARK 923 INTER-LIGAND FREE ENERGY PREDICTED BY IDOCK:   -5.74 KCAL/MOL
REMARK 924 INTRA-LIGAND FREE ENERGY PREDICTED BY IDOCK:   -0.27 KCAL/MOL
REMARK 927      BINDING AFFINITY PREDICTED BY RF-SCORE:    0.00 PKD
ROOT
HETATM    1  C   UNL     1     -12.139  15.494  69.759  1.00  0.00    -0.372 C  
HETATM    2  C   UNL     1     -12.278  14.054  70.182  1.00  0.00    -0.425 A  
HETATM    3  C   UNL     1     -12.922  13.774  71.402  1.00  0.00    -0.433 A  
HETATM    4  C   UNL     1     -13.083  12.460  71.848  1.00  0.00    -0.471 A  
HETATM    5  C   UNL     1     -12.598  11.414  71.080  1.00  0.00    -0.490 A  
HETATM    6  C   UNL     1     -11.951  11.677  69.873  1.00  0.00    -0.414 A  
HETATM    7  C   UNL     1     -11.782  12.990  69.404  1.00  0.00    -0.326 A  
ENDROOT
BRANCH   7   8
HETATM    8  O   UNL     1     -11.157  13.301  68.212  1.00  0.00    -0.243 OA 
BRANCH   8   9
HETATM    9  C   UNL     1     -11.798  12.772  67.046  1.00  0.00    -0.361 C  
BRANCH   9  10
HETATM   10  C   UNL     1     -12.261  13.845  66.059  1.00  0.00    -0.462 C  
HETATM   11  O   UNL     1     -11.341  14.949  66.124  1.00  0.00    -0.344 OA 
HETATM   12  H   UNL     1     -11.628  15.616  65.512  1.00  0.00     0.000 HD 
BRANCH  10  13
HETATM   13  C   UNL     1     -12.343  13.322  64.620  1.00  0.00    -0.391 C  
HETATM   14  O   UNL     1     -12.614  14.381  63.700  1.00  0.00    -1.007 OA 
HETATM   15  H   UNL     1     -12.665  14.057  62.808  1.00  0.00     0.000 HD 
ENDBRANCH  10  13
ENDBRANCH   9  10
ENDBRANCH   8   9
ENDBRANCH   7   8
TORSDOF 4
ENDMDL
MODEL       28
REMARK 921   NORMALIZED FREE ENERGY PREDICTED BY IDOCK:   -4.61 KCAL/MOL
REMARK 922        TOTAL FREE ENERGY PREDICTED BY IDOCK:   -5.94 KCAL/MOL
REMARK 923 INTER-LIGAND FREE ENERGY PREDICTED BY IDOCK:   -5.72 KCAL/MOL
REMARK 924 INTRA-LIGAND FREE ENERGY PREDICTED BY IDOCK:   -0.22 KCAL/MOL
REMARK 927      BINDING AFFINITY PREDICTED BY RF-SCORE:    0.00 PKD
ROOT
HETATM    1  C   UNL     1     -10.730  10.897  67.131  1.00  0.00    -0.320 C  
HETATM    2  C   UNL     1     -11.263  11.822  68.196  1.00  0.00    -0.320 A  
HETATM    3  C   UNL     1     -11.560  11.283  69.462  1.00  0.00    -0.398 A  
HETATM    4  C   UNL     1     -12.056  12.088  70.490  1.00  0.00    -0.402 A  
HETATM    5  C   UNL     1     -12.264  13.438  70.260  1.00  0.00    -0.405 A  
HETATM    6  C   UNL     1     -11.981  13.984  69.008  1.00  0.00    -0.392 A  
HETATM    7  C   UNL     1     -11.479  13.193  67.962  1.00  0.00    -0.311 A  
ENDROOT
BRANCH   7   8
HETATM    8  O   UNL     1     -11.176  13.689  66.708  1.00  0.00    -0.302 OA 
BRANCH   8   9
HETATM    9  C   UNL     1     -10.270  14.798  66.707  1.00  0.00    -0.266 C  
BRANCH   9  10
HETATM   10  C   UNL     1     -10.777  16.004  65.915  1.00  0.00    -0.280 C  
HETATM   11  O   UNL     1      -9.649  16.825  65.565  1.00  0.00    -0.515 OA 
HETATM   12  H   UNL     1      -9.963  17.574  65.073  1.00  0.00     0.000 HD 
BRANCH  10  13
HETATM   13  C   UNL     1     -11.536  15.595  64.647  1.00  0.00    -0.303 C  
HETATM   14  O   UNL     1     -11.628  16.684  63.726  1.00  0.00    -1.506 OA 
HETATM   15  H   UNL     1     -12.098  16.431  62.940  1.00  0.00     0.000 HD 
ENDBRANCH  10  13
ENDBRANCH   9  10
ENDBRANCH   8   9
ENDBRANCH   7   8
TORSDOF 4
ENDMDL
MODEL       29
REMARK 921   NORMALIZED FREE ENERGY PREDICTED BY IDOCK:   -4.59 KCAL/MOL
REMARK 922        TOTAL FREE ENERGY PREDICTED BY IDOCK:   -5.91 KCAL/MOL
REMARK 923 INTER-LIGAND FREE ENERGY PREDICTED BY IDOCK:   -5.75 KCAL/MOL
REMARK 924 INTRA-LIGAND FREE ENERGY PREDICTED BY IDOCK:   -0.16 KCAL/MOL
REMARK 927      BINDING AFFINITY PREDICTED BY RF-SCORE:    0.00 PKD
ROOT
HETATM    1  C   UNL     1     -12.767  11.178  71.263  1.00  0.00    -0.531 C  
HETATM    2  C   UNL     1     -12.920  12.678  71.307  1.00  0.00    -0.306 A  
HETATM    3  C   UNL     1     -13.704  13.240  72.332  1.00  0.00    -0.678 A  
HETATM    4  C   UNL     1     -13.884  14.621  72.427  1.00  0.00    -0.580 A  
HETATM    5  C   UNL     1     -13.286  15.454  71.495  1.00  0.00    -0.572 A  
HETATM    6  C   UNL     1     -12.512  14.910  70.470  1.00  0.00    -0.419 A  
HETATM    7  C   UNL     1     -12.315  13.524  70.358  1.00  0.00    -0.327 A  
ENDROOT
BRANCH   7   8
HETATM    8  O   UNL     1     -11.552  12.939  69.366  1.00  0.00    -0.285 OA 
BRANCH   8   9
HETATM    9  C   UNL     1     -11.902  13.330  68.034  1.00  0.00    -0.355 C  
BRANCH   9  10
HETATM   10  C   UNL     1     -11.163  12.545  66.949  1.00  0.00    -0.303 C  
HETATM   11  O   UNL     1     -12.124  12.105  65.973  1.00  0.00    -0.612 OA 
HETATM   12  H   UNL     1     -11.666  11.617  65.300  1.00  0.00     0.000 HD 
BRANCH  10  13
HETATM   13  C   UNL     1     -10.072  13.377  66.265  1.00  0.00    -0.299 C  
HETATM   14  O   UNL     1      -9.661  12.778  65.034  1.00  0.00    -0.483 OA 
HETATM   15  H   UNL     1      -8.985  13.293  64.610  1.00  0.00     0.000 HD 
ENDBRANCH  10  13
ENDBRANCH   9  10
ENDBRANCH   8   9
ENDBRANCH   7   8
TORSDOF 4
ENDMDL
MODEL       30
REMARK 921   NORMALIZED FREE ENERGY PREDICTED BY IDOCK:   -4.58 KCAL/MOL
REMARK 922        TOTAL FREE ENERGY PREDICTED BY IDOCK:   -5.90 KCAL/MOL
REMARK 923 INTER-LIGAND FREE ENERGY PREDICTED BY IDOCK:   -5.72 KCAL/MOL
REMARK 924 INTRA-LIGAND FREE ENERGY PREDICTED BY IDOCK:   -0.18 KCAL/MOL
REMARK 927      BINDING AFFINITY PREDICTED BY RF-SCORE:    0.00 PKD
ROOT
HETATM    1  C   UNL     1     -11.697  14.408  66.871  1.00  0.00    -0.422 C  
HETATM    2  C   UNL     1     -11.501  13.124  67.636  1.00  0.00    -0.366 A  
HETATM    3  C   UNL     1     -10.908  12.034  66.971  1.00  0.00    -0.297 A  
HETATM    4  C   UNL     1     -10.699  10.818  67.626  1.00  0.00    -0.305 A  
HETATM    5  C   UNL     1     -11.084  10.679  68.949  1.00  0.00    -0.314 A  
HETATM    6  C   UNL     1     -11.679  11.748  69.618  1.00  0.00    -0.413 A  
HETATM    7  C   UNL     1     -11.895  12.981  68.980  1.00  0.00    -0.316 A  
ENDROOT
BRANCH   7   8
HETATM    8  O   UNL     1     -12.473  14.071  69.602  1.00  0.00    -0.311 OA 
BRANCH   8   9
HETATM    9  C   UNL     1     -12.053  14.279  70.955  1.00  0.00    -0.347 C  
BRANCH   9  10
HETATM   10  C   UNL     1     -12.858  15.351  71.690  1.00  0.00    -0.419 C  
HETATM   11  O   UNL     1     -14.129  15.496  71.032  1.00  0.00    -0.810 OA 
HETATM   12  H   UNL     1     -14.629  16.162  71.489  1.00  0.00     0.000 HD 
BRANCH  10  13
HETATM   13  C   UNL     1     -13.074  15.010  73.169  1.00  0.00    -0.511 C  
HETATM   14  O   UNL     1     -13.123  16.193  73.970  1.00  0.00    -0.889 OA 
HETATM   15  H   UNL     1     -13.257  15.981  74.887  1.00  0.00     0.000 HD 
ENDBRANCH  10  13
ENDBRANCH   9  10
ENDBRANCH   8   9
ENDBRANCH   7   8
TORSDOF 4
ENDMDL
MODEL       31
REMARK 921   NORMALIZED FREE ENERGY PREDICTED BY IDOCK:   -4.54 KCAL/MOL
REMARK 922        TOTAL FREE ENERGY PREDICTED BY IDOCK:   -5.85 KCAL/MOL
REMARK 923 INTER-LIGAND FREE ENERGY PREDICTED BY IDOCK:   -5.69 KCAL/MOL
REMARK 924 INTRA-LIGAND FREE ENERGY PREDICTED BY IDOCK:   -0.17 KCAL/MOL
REMARK 927      BINDING AFFINITY PREDICTED BY RF-SCORE:    0.00 PKD
ROOT
HETATM    1  C   UNL     1     -10.253  10.651  69.371  1.00  0.00    -0.218 C  
HETATM    2  C   UNL     1     -11.335  10.306  70.363  1.00  0.00    -0.410 A  
HETATM    3  C   UNL     1     -11.416   8.981  70.830  1.00  0.00    -0.347 A  
HETATM    4  C   UNL     1     -12.395   8.600  71.750  1.00  0.00    -0.402 A  
HETATM    5  C   UNL     1     -13.306   9.539  72.208  1.00  0.00    -0.526 A  
HETATM    6  C   UNL     1     -13.242  10.854  71.747  1.00  0.00    -0.513 A  
HETATM    7  C   UNL     1     -12.263  11.259  70.825  1.00  0.00    -0.380 A  
ENDROOT
BRANCH   7   8
HETATM    8  O   UNL     1     -12.154  12.550  70.346  1.00  0.00    -0.362 OA 
BRANCH   8   9
HETATM    9  C   UNL     1     -12.700  13.555  71.208  1.00  0.00    -0.348 C  
BRANCH   9  10
HETATM   10  C   UNL     1     -12.635  14.967  70.623  1.00  0.00    -0.374 C  
HETATM   11  O   UNL     1     -13.966  15.513  70.606  1.00  0.00    -0.868 OA 
HETATM   12  H   UNL     1     -13.926  16.390  70.243  1.00  0.00     0.000 HD 
BRANCH  10  13
HETATM   13  C   UNL     1     -11.705  15.889  71.420  1.00  0.00    -0.467 C  
HETATM   14  O   UNL     1     -12.305  16.285  72.656  1.00  0.00    -0.472 OA 
HETATM   15  H   UNL     1     -11.728  16.857  73.150  1.00  0.00     0.000 HD 
ENDBRANCH  10  13
ENDBRANCH   9  10
ENDBRANCH   8   9
ENDBRANCH   7   8
TORSDOF 4
ENDMDL
MODEL       32
REMARK 921   NORMALIZED FREE ENERGY PREDICTED BY IDOCK:   -4.54 KCAL/MOL
REMARK 922        TOTAL FREE ENERGY PREDICTED BY IDOCK:   -5.85 KCAL/MOL
REMARK 923 INTER-LIGAND FREE ENERGY PREDICTED BY IDOCK:   -5.42 KCAL/MOL
REMARK 924 INTRA-LIGAND FREE ENERGY PREDICTED BY IDOCK:   -0.43 KCAL/MOL
REMARK 927      BINDING AFFINITY PREDICTED BY RF-SCORE:    0.00 PKD
ROOT
HETATM    1  C   UNL     1      -9.716  11.234  66.954  1.00  0.00    -0.215 C  
HETATM    2  C   UNL     1     -10.636  11.703  65.855  1.00  0.00    -0.318 A  
HETATM    3  C   UNL     1     -10.338  11.335  64.530  1.00  0.00    -0.381 A  
HETATM    4  C   UNL     1     -11.152  11.738  63.469  1.00  0.00    -0.503 A  
HETATM    5  C   UNL     1     -12.269  12.516  63.723  1.00  0.00    -0.615 A  
HETATM    6  C   UNL     1     -12.573  12.895  65.030  1.00  0.00    -0.538 A  
HETATM    7  C   UNL     1     -11.770  12.498  66.112  1.00  0.00    -0.409 A  
ENDROOT
BRANCH   7   8
HETATM    8  O   UNL     1     -12.034  12.840  67.425  1.00  0.00    -0.360 OA 
BRANCH   8   9
HETATM    9  C   UNL     1     -11.825  14.222  67.735  1.00  0.00    -0.379 C  
BRANCH   9  10
HETATM   10  C   UNL     1     -11.707  14.504  69.233  1.00  0.00    -0.310 C  
HETATM   11  O   UNL     1     -12.536  15.637  69.549  1.00  0.00    -0.571 OA 
HETATM   12  H   UNL     1     -12.462  15.812  70.480  1.00  0.00     0.000 HD 
BRANCH  10  13
HETATM   13  C   UNL     1     -12.120  13.302  70.090  1.00  0.00    -0.333 C  
HETATM   14  O   UNL     1     -11.200  12.219  69.938  1.00  0.00    -0.486 OA 
HETATM   15  H   UNL     1     -11.456  11.474  70.469  1.00  0.00     0.000 HD 
ENDBRANCH  10  13
ENDBRANCH   9  10
ENDBRANCH   8   9
ENDBRANCH   7   8
TORSDOF 4
ENDMDL
MODEL       33
REMARK 921   NORMALIZED FREE ENERGY PREDICTED BY IDOCK:   -4.52 KCAL/MOL
REMARK 922        TOTAL FREE ENERGY PREDICTED BY IDOCK:   -5.83 KCAL/MOL
REMARK 923 INTER-LIGAND FREE ENERGY PREDICTED BY IDOCK:   -5.33 KCAL/MOL
REMARK 924 INTRA-LIGAND FREE ENERGY PREDICTED BY IDOCK:   -0.50 KCAL/MOL
REMARK 927      BINDING AFFINITY PREDICTED BY RF-SCORE:    0.00 PKD
ROOT
HETATM    1  C   UNL     1     -10.171  16.390  65.768  1.00  0.00    -0.370 C  
HETATM    2  C   UNL     1     -10.129  17.563  66.713  1.00  0.00    -0.320 A  
HETATM    3  C   UNL     1     -10.068  18.859  66.169  1.00  0.00    -0.438 A  
HETATM    4  C   UNL     1     -10.028  19.986  66.992  1.00  0.00    -0.582 A  
HETATM    5  C   UNL     1     -10.042  19.827  68.369  1.00  0.00    -0.568 A  
HETATM    6  C   UNL     1     -10.094  18.548  68.922  1.00  0.00    -0.348 A  
HETATM    7  C   UNL     1     -10.139  17.402  68.112  1.00  0.00    -0.328 A  
ENDROOT
BRANCH   7   8
HETATM    8  O   UNL     1     -10.200  16.115  68.613  1.00  0.00    -0.226 OA 
BRANCH   8   9
HETATM    9  C   UNL     1     -11.035  15.962  69.765  1.00  0.00    -0.328 C  
BRANCH   9  10
HETATM   10  C   UNL     1     -11.763  14.618  69.822  1.00  0.00    -0.313 C  
HETATM   11  O   UNL     1     -13.115  14.850  70.254  1.00  0.00    -0.606 OA 
HETATM   12  H   UNL     1     -13.567  14.016  70.289  1.00  0.00     0.000 HD 
BRANCH  10  13
HETATM   13  C   UNL     1     -11.767  13.896  68.469  1.00  0.00    -0.355 C  
HETATM   14  O   UNL     1     -12.521  14.624  67.498  1.00  0.00    -0.551 OA 
HETATM   15  H   UNL     1     -12.523  14.177  66.659  1.00  0.00     0.000 HD 
ENDBRANCH  10  13
ENDBRANCH   9  10
ENDBRANCH   8   9
ENDBRANCH   7   8
TORSDOF 4
ENDMDL
MODEL       34
REMARK 921   NORMALIZED FREE ENERGY PREDICTED BY IDOCK:   -4.51 KCAL/MOL
REMARK 922        TOTAL FREE ENERGY PREDICTED BY IDOCK:   -5.81 KCAL/MOL
REMARK 923 INTER-LIGAND FREE ENERGY PREDICTED BY IDOCK:   -5.62 KCAL/MOL
REMARK 924 INTRA-LIGAND FREE ENERGY PREDICTED BY IDOCK:   -0.19 KCAL/MOL
REMARK 927      BINDING AFFINITY PREDICTED BY RF-SCORE:    0.00 PKD
ROOT
HETATM    1  C   UNL     1     -10.110  10.679  67.069  1.00  0.00    -0.255 C  
HETATM    2  C   UNL     1     -10.642  11.362  65.834  1.00  0.00    -0.317 A  
HETATM    3  C   UNL     1     -10.049  11.059  64.594  1.00  0.00    -0.370 A  
HETATM    4  C   UNL     1     -10.497  11.658  63.415  1.00  0.00    -0.482 A  
HETATM    5  C   UNL     1     -11.540  12.569  63.465  1.00  0.00    -0.584 A  
HETATM    6  C   UNL     1     -12.132  12.884  64.688  1.00  0.00    -0.474 A  
HETATM    7  C   UNL     1     -11.699  12.291  65.885  1.00  0.00    -0.389 A  
ENDROOT
BRANCH   7   8
HETATM    8  O   UNL     1     -12.258  12.564  67.119  1.00  0.00    -0.474 OA 
BRANCH   8   9
HETATM    9  C   UNL     1     -11.897  13.835  67.669  1.00  0.00    -0.378 C  
BRANCH   9  10
HETATM   10  C   UNL     1     -12.108  13.931  69.181  1.00  0.00    -0.338 C  
HETATM   11  O   UNL     1     -11.036  13.228  69.835  1.00  0.00    -0.475 OA 
HETATM   12  H   UNL     1     -11.167  13.288  70.774  1.00  0.00     0.000 HD 
BRANCH  10  13
HETATM   13  C   UNL     1     -12.154  15.382  69.675  1.00  0.00    -0.327 C  
HETATM   14  O   UNL     1     -13.414  15.682  70.279  1.00  0.00    -0.761 OA 
HETATM   15  H   UNL     1     -13.444  16.581  70.585  1.00  0.00     0.000 HD 
ENDBRANCH  10  13
ENDBRANCH   9  10
ENDBRANCH   8   9
ENDBRANCH   7   8
TORSDOF 4
ENDMDL
MODEL       35
REMARK 921   NORMALIZED FREE ENERGY PREDICTED BY IDOCK:   -4.48 KCAL/MOL
REMARK 922        TOTAL FREE ENERGY PREDICTED BY IDOCK:   -5.78 KCAL/MOL
REMARK 923 INTER-LIGAND FREE ENERGY PREDICTED BY IDOCK:   -5.26 KCAL/MOL
REMARK 924 INTRA-LIGAND FREE ENERGY PREDICTED BY IDOCK:   -0.52 KCAL/MOL
REMARK 927      BINDING AFFINITY PREDICTED BY RF-SCORE:    0.00 PKD
ROOT
HETATM    1  C   UNL     1     -12.180  11.633  70.705  1.00  0.00    -0.461 C  
HETATM    2  C   UNL     1     -12.654  13.027  71.029  1.00  0.00    -0.386 A  
HETATM    3  C   UNL     1     -13.449  13.214  72.175  1.00  0.00    -0.653 A  
HETATM    4  C   UNL     1     -13.918  14.480  72.529  1.00  0.00    -0.510 A  
HETATM    5  C   UNL     1     -13.601  15.572  71.737  1.00  0.00    -0.578 A  
HETATM    6  C   UNL     1     -12.821  15.401  70.594  1.00  0.00    -0.484 A  
HETATM    7  C   UNL     1     -12.336  14.136  70.222  1.00  0.00    -0.356 A  
ENDROOT
BRANCH   7   8
HETATM    8  O   UNL     1     -11.553  13.917  69.104  1.00  0.00    -0.269 OA 
BRANCH   8   9
HETATM    9  C   UNL     1     -11.656  14.928  68.096  1.00  0.00    -0.334 C  
BRANCH   9  10
HETATM   10  C   UNL     1     -10.345  15.672  67.836  1.00  0.00    -0.259 C  
HETATM   11  O   UNL     1     -10.428  16.969  68.451  1.00  0.00    -0.327 OA 
HETATM   12  H   UNL     1      -9.614  17.431  68.290  1.00  0.00     0.000 HD 
BRANCH  10  13
HETATM   13  C   UNL     1      -9.126  14.916  68.378  1.00  0.00    -0.185 C  
HETATM   14  O   UNL     1      -9.018  15.060  69.795  1.00  0.00    -0.452 OA 
HETATM   15  H   UNL     1      -8.262  14.592  70.132  1.00  0.00     0.000 HD 
ENDBRANCH  10  13
ENDBRANCH   9  10
ENDBRANCH   8   9
ENDBRANCH   7   8
TORSDOF 4
ENDMDL
MODEL       36
REMARK 921   NORMALIZED FREE ENERGY PREDICTED BY IDOCK:   -4.47 KCAL/MOL
REMARK 922        TOTAL FREE ENERGY PREDICTED BY IDOCK:   -5.77 KCAL/MOL
REMARK 923 INTER-LIGAND FREE ENERGY PREDICTED BY IDOCK:   -5.33 KCAL/MOL
REMARK 924 INTRA-LIGAND FREE ENERGY PREDICTED BY IDOCK:   -0.45 KCAL/MOL
REMARK 927      BINDING AFFINITY PREDICTED BY RF-SCORE:    0.00 PKD
ROOT
HETATM    1  C   UNL     1     -13.488  15.402  71.723  1.00  0.00    -0.581 C  
HETATM    2  C   UNL     1     -13.116  13.970  71.435  1.00  0.00    -0.423 A  
HETATM    3  C   UNL     1     -13.629  12.964  72.276  1.00  0.00    -0.611 A  
HETATM    4  C   UNL     1     -13.322  11.619  72.061  1.00  0.00    -0.405 A  
HETATM    5  C   UNL     1     -12.494  11.267  71.007  1.00  0.00    -0.503 A  
HETATM    6  C   UNL     1     -11.972  12.254  70.171  1.00  0.00    -0.377 A  
HETATM    7  C   UNL     1     -12.272  13.612  70.367  1.00  0.00    -0.363 A  
ENDROOT
BRANCH   7   8
HETATM    8  O   UNL     1     -11.786  14.625  69.562  1.00  0.00    -0.295 OA 
BRANCH   8   9
HETATM    9  C   UNL     1     -10.766  14.219  68.642  1.00  0.00    -0.249 C  
BRANCH   9  10
HETATM   10  C   UNL     1     -11.051  14.620  67.194  1.00  0.00    -0.326 C  
HETATM   11  O   UNL     1     -12.426  14.318  66.901  1.00  0.00    -0.581 OA 
HETATM   12  H   UNL     1     -12.603  14.567  66.001  1.00  0.00     0.000 HD 
BRANCH  10  13
HETATM   13  C   UNL     1     -10.777  16.106  66.932  1.00  0.00    -0.247 C  
HETATM   14  O   UNL     1     -10.942  16.879  68.123  1.00  0.00    -0.365 OA 
HETATM   15  H   UNL     1     -10.773  17.800  67.961  1.00  0.00     0.000 HD 
ENDBRANCH  10  13
ENDBRANCH   9  10
ENDBRANCH   8   9
ENDBRANCH   7   8
TORSDOF 4
ENDMDL
MODEL       37
REMARK 921   NORMALIZED FREE ENERGY PREDICTED BY IDOCK:   -4.46 KCAL/MOL
REMARK 922        TOTAL FREE ENERGY PREDICTED BY IDOCK:   -5.76 KCAL/MOL
REMARK 923 INTER-LIGAND FREE ENERGY PREDICTED BY IDOCK:   -5.59 KCAL/MOL
REMARK 924 INTRA-LIGAND FREE ENERGY PREDICTED BY IDOCK:   -0.16 KCAL/MOL
REMARK 927      BINDING AFFINITY PREDICTED BY RF-SCORE:    0.00 PKD
ROOT
HETATM    1  C   UNL     1     -10.400  10.240  68.461  1.00  0.00    -0.200 C  
HETATM    2  C   UNL     1     -11.043  11.456  69.076  1.00  0.00    -0.300 A  
HETATM    3  C   UNL     1     -10.761  12.717  68.517  1.00  0.00    -0.271 A  
HETATM    4  C   UNL     1     -11.327  13.881  69.042  1.00  0.00    -0.324 A  
HETATM    5  C   UNL     1     -12.176  13.796  70.133  1.00  0.00    -0.425 A  
HETATM    6  C   UNL     1     -12.458  12.555  70.702  1.00  0.00    -0.323 A  
HETATM    7  C   UNL     1     -11.903  11.371  70.188  1.00  0.00    -0.355 A  
ENDROOT
BRANCH   7   8
HETATM    8  O   UNL     1     -12.159  10.118  70.711  1.00  0.00    -0.297 OA 
BRANCH   8   9
HETATM    9  C   UNL     1     -13.276  10.061  71.605  1.00  0.00    -0.419 C  
BRANCH   9  10
HETATM   10  C   UNL     1     -13.349   8.765  72.414  1.00  0.00    -0.399 C  
HETATM   11  O   UNL     1     -14.253   8.966  73.514  1.00  0.00    -1.194 OA 
HETATM   12  H   UNL     1     -14.299   8.162  74.017  1.00  0.00     0.000 HD 
BRANCH  10  13
HETATM   13  C   UNL     1     -13.815   7.573  71.570  1.00  0.00    -0.387 C  
HETATM   14  O   UNL     1     -14.295   6.510  72.397  1.00  0.00    -0.701 OA 
HETATM   15  H   UNL     1     -14.584   5.771  71.874  1.00  0.00     0.000 HD 
ENDBRANCH  10  13
ENDBRANCH   9  10
ENDBRANCH   8   9
ENDBRANCH   7   8
TORSDOF 4
ENDMDL
MODEL       38
REMARK 921   NORMALIZED FREE ENERGY PREDICTED BY IDOCK:   -4.44 KCAL/MOL
REMARK 922        TOTAL FREE ENERGY PREDICTED BY IDOCK:   -5.73 KCAL/MOL
REMARK 923 INTER-LIGAND FREE ENERGY PREDICTED BY IDOCK:   -5.53 KCAL/MOL
REMARK 924 INTRA-LIGAND FREE ENERGY PREDICTED BY IDOCK:   -0.20 KCAL/MOL
REMARK 927      BINDING AFFINITY PREDICTED BY RF-SCORE:    0.00 PKD
ROOT
HETATM    1  C   UNL     1     -10.140  16.409  66.419  1.00  0.00    -0.328 C  
HETATM    2  C   UNL     1     -10.934  15.180  66.060  1.00  0.00    -0.332 A  
HETATM    3  C   UNL     1     -11.337  15.010  64.722  1.00  0.00    -0.409 A  
HETATM    4  C   UNL     1     -12.074  13.892  64.327  1.00  0.00    -0.477 A  
HETATM    5  C   UNL     1     -12.420  12.935  65.266  1.00  0.00    -0.552 A  
HETATM    6  C   UNL     1     -12.035  13.094  66.597  1.00  0.00    -0.451 A  
HETATM    7  C   UNL     1     -11.290  14.208  67.016  1.00  0.00    -0.332 A  
ENDROOT
BRANCH   7   8
HETATM    8  O   UNL     1     -10.878  14.406  68.320  1.00  0.00    -0.233 OA 
BRANCH   8   9
HETATM    9  C   UNL     1     -11.904  14.229  69.303  1.00  0.00    -0.330 C  
BRANCH   9  10
HETATM   10  C   UNL     1     -12.241  15.506  70.074  1.00  0.00    -0.355 C  
HETATM   11  O   UNL     1     -13.601  15.413  70.535  1.00  0.00    -0.760 OA 
HETATM   12  H   UNL     1     -13.811  16.206  71.014  1.00  0.00     0.000 HD 
BRANCH  10  13
HETATM   13  C   UNL     1     -11.304  15.736  71.265  1.00  0.00    -0.376 C  
HETATM   14  O   UNL     1     -11.953  16.482  72.297  1.00  0.00    -0.600 OA 
HETATM   15  H   UNL     1     -11.372  16.625  73.036  1.00  0.00     0.000 HD 
ENDBRANCH  10  13
ENDBRANCH   9  10
ENDBRANCH   8   9
ENDBRANCH   7   8
TORSDOF 4
ENDMDL
MODEL       39
REMARK 921   NORMALIZED FREE ENERGY PREDICTED BY IDOCK:   -4.44 KCAL/MOL
REMARK 922        TOTAL FREE ENERGY PREDICTED BY IDOCK:   -5.73 KCAL/MOL
REMARK 923 INTER-LIGAND FREE ENERGY PREDICTED BY IDOCK:   -5.53 KCAL/MOL
REMARK 924 INTRA-LIGAND FREE ENERGY PREDICTED BY IDOCK:   -0.20 KCAL/MOL
REMARK 927      BINDING AFFINITY PREDICTED BY RF-SCORE:    0.00 PKD
ROOT
HETATM    1  C   UNL     1     -13.281  14.047  72.615  1.00  0.00    -0.606 C  
HETATM    2  C   UNL     1     -12.679  14.027  71.233  1.00  0.00    -0.439 A  
HETATM    3  C   UNL     1     -12.482  15.253  70.571  1.00  0.00    -0.454 A  
HETATM    4  C   UNL     1     -11.929  15.300  69.290  1.00  0.00    -0.327 A  
HETATM    5  C   UNL     1     -11.571  14.121  68.657  1.00  0.00    -0.352 A  
HETATM    6  C   UNL     1     -11.767  12.898  69.298  1.00  0.00    -0.378 A  
HETATM    7  C   UNL     1     -12.318  12.829  70.588  1.00  0.00    -0.297 A  
ENDROOT
BRANCH   7   8
HETATM    8  O   UNL     1     -12.524  11.643  71.267  1.00  0.00    -0.339 OA 
BRANCH   8   9
HETATM    9  C   UNL     1     -12.677  10.493  70.428  1.00  0.00    -0.252 C  
BRANCH   9  10
HETATM   10  C   UNL     1     -13.134   9.242  71.179  1.00  0.00    -0.190 C  
HETATM   11  O   UNL     1     -12.396   8.114  70.676  1.00  0.00    -0.497 OA 
HETATM   12  H   UNL     1     -12.680   7.337  71.142  1.00  0.00     0.000 HD 
BRANCH  10  13
HETATM   13  C   UNL     1     -12.933   9.361  72.694  1.00  0.00    -0.145 C  
HETATM   14  O   UNL     1     -14.069   8.869  73.407  1.00  0.00    -1.256 OA 
HETATM   15  H   UNL     1     -13.945   8.943  74.346  1.00  0.00     0.000 HD 
ENDBRANCH  10  13
ENDBRANCH   9  10
ENDBRANCH   8   9
ENDBRANCH   7   8
TORSDOF 4
ENDMDL
MODEL       40
REMARK 921   NORMALIZED FREE ENERGY PREDICTED BY IDOCK:   -4.44 KCAL/MOL
REMARK 922        TOTAL FREE ENERGY PREDICTED BY IDOCK:   -5.73 KCAL/MOL
REMARK 923 INTER-LIGAND FREE ENERGY PREDICTED BY IDOCK:   -5.45 KCAL/MOL
REMARK 924 INTRA-LIGAND FREE ENERGY PREDICTED BY IDOCK:   -0.28 KCAL/MOL
REMARK 927      BINDING AFFINITY PREDICTED BY RF-SCORE:    0.00 PKD
ROOT
HETATM    1  C   UNL     1     -10.624   4.889  73.079  1.00  0.00    -0.280 C  
HETATM    2  C   UNL     1     -10.640   5.278  71.623  1.00  0.00    -0.261 A  
HETATM    3  C   UNL     1      -9.896   4.501  70.715  1.00  0.00    -0.280 A  
HETATM    4  C   UNL     1      -9.872   4.810  69.353  1.00  0.00    -0.282 A  
HETATM    5  C   UNL     1     -10.587   5.902  68.887  1.00  0.00    -0.357 A  
HETATM    6  C   UNL     1     -11.322   6.685  69.777  1.00  0.00    -0.412 A  
HETATM    7  C   UNL     1     -11.363   6.390  71.150  1.00  0.00    -0.319 A  
ENDROOT
BRANCH   7   8
HETATM    8  O   UNL     1     -12.083   7.130  72.068  1.00  0.00    -0.299 OA 
BRANCH   8   9
HETATM    9  C   UNL     1     -13.426   7.429  71.674  1.00  0.00    -0.366 C  
BRANCH   9  10
HETATM   10  C   UNL     1     -13.814   8.894  71.875  1.00  0.00    -0.440 C  
HETATM   11  O   UNL     1     -14.188   9.080  73.252  1.00  0.00    -1.192 OA 
HETATM   12  H   UNL     1     -14.429   9.990  73.377  1.00  0.00     0.000 HD 
BRANCH  10  13
HETATM   13  C   UNL     1     -12.676   9.856  71.512  1.00  0.00    -0.415 C  
HETATM   14  O   UNL     1     -12.849  10.387  70.197  1.00  0.00    -0.545 OA 
HETATM   15  H   UNL     1     -12.144  10.984  69.972  1.00  0.00     0.000 HD 
ENDBRANCH  10  13
ENDBRANCH   9  10
ENDBRANCH   8   9
ENDBRANCH   7   8
TORSDOF 4
ENDMDL
MODEL       41
REMARK 921   NORMALIZED FREE ENERGY PREDICTED BY IDOCK:   -4.41 KCAL/MOL
REMARK 922        TOTAL FREE ENERGY PREDICTED BY IDOCK:   -5.70 KCAL/MOL
REMARK 923 INTER-LIGAND FREE ENERGY PREDICTED BY IDOCK:   -5.46 KCAL/MOL
REMARK 924 INTRA-LIGAND FREE ENERGY PREDICTED BY IDOCK:   -0.24 KCAL/MOL
REMARK 927      BINDING AFFINITY PREDICTED BY RF-SCORE:    0.00 PKD
ROOT
HETATM    1  C   UNL     1     -10.540  11.018  69.032  1.00  0.00    -0.258 C  
HETATM    2  C   UNL     1     -11.155  12.002  68.070  1.00  0.00    -0.292 A  
HETATM    3  C   UNL     1     -11.341  11.604  66.733  1.00  0.00    -0.354 A  
HETATM    4  C   UNL     1     -11.907  12.469  65.794  1.00  0.00    -0.494 A  
HETATM    5  C   UNL     1     -12.287  13.744  66.183  1.00  0.00    -0.496 A  
HETATM    6  C   UNL     1     -12.102  14.155  67.502  1.00  0.00    -0.363 A  
HETATM    7  C   UNL     1     -11.538  13.299  68.463  1.00  0.00    -0.333 A  
ENDROOT
BRANCH   7   8
HETATM    8  O   UNL     1     -11.342  13.657  69.783  1.00  0.00    -0.212 OA 
BRANCH   8   9
HETATM    9  C   UNL     1     -12.529  13.657  70.584  1.00  0.00    -0.347 C  
BRANCH   9  10
HETATM   10  C   UNL     1     -12.774  14.977  71.317  1.00  0.00    -0.348 C  
HETATM   11  O   UNL     1     -13.328  15.920  70.382  1.00  0.00    -0.726 OA 
HETATM   12  H   UNL     1     -13.480  16.739  70.837  1.00  0.00     0.000 HD 
BRANCH  10  13
HETATM   13  C   UNL     1     -13.719  14.815  72.514  1.00  0.00    -0.468 C  
HETATM   14  O   UNL     1     -14.120  13.453  72.675  1.00  0.00    -0.767 OA 
HETATM   15  H   UNL     1     -14.706  13.353  73.417  1.00  0.00     0.000 HD 
ENDBRANCH  10  13
ENDBRANCH   9  10
ENDBRANCH   8   9
ENDBRANCH   7   8
TORSDOF 4
ENDMDL
MODEL       42
REMARK 921   NORMALIZED FREE ENERGY PREDICTED BY IDOCK:   -4.41 KCAL/MOL
REMARK 922        TOTAL FREE ENERGY PREDICTED BY IDOCK:   -5.69 KCAL/MOL
REMARK 923 INTER-LIGAND FREE ENERGY PREDICTED BY IDOCK:   -5.39 KCAL/MOL
REMARK 924 INTRA-LIGAND FREE ENERGY PREDICTED BY IDOCK:   -0.30 KCAL/MOL
REMARK 927      BINDING AFFINITY PREDICTED BY RF-SCORE:    0.00 PKD
ROOT
HETATM    1  C   UNL     1     -11.870  11.924  69.501  1.00  0.00    -0.395 C  
HETATM    2  C   UNL     1     -11.249  11.051  68.441  1.00  0.00    -0.337 A  
HETATM    3  C   UNL     1     -10.776   9.779  68.815  1.00  0.00    -0.243 A  
HETATM    4  C   UNL     1     -10.192   8.923  67.878  1.00  0.00    -0.274 A  
HETATM    5  C   UNL     1     -10.071   9.332  66.561  1.00  0.00    -0.343 A  
HETATM    6  C   UNL     1     -10.528  10.593  66.177  1.00  0.00    -0.260 A  
HETATM    7  C   UNL     1     -11.122  11.468  67.102  1.00  0.00    -0.297 A  
ENDROOT
BRANCH   7   8
HETATM    8  O   UNL     1     -11.597  12.722  66.769  1.00  0.00    -0.330 OA 
BRANCH   8   9
HETATM    9  C   UNL     1     -10.592  13.645  66.336  1.00  0.00    -0.284 C  
BRANCH   9  10
HETATM   10  C   UNL     1     -10.847  14.220  64.941  1.00  0.00    -0.416 C  
HETATM   11  O   UNL     1      -9.986  13.545  64.007  1.00  0.00    -0.734 OA 
HETATM   12  H   UNL     1     -10.144  13.902  63.142  1.00  0.00     0.000 HD 
BRANCH  10  13
HETATM   13  C   UNL     1     -12.309  14.068  64.503  1.00  0.00    -0.378 C  
HETATM   14  O   UNL     1     -12.424  14.072  63.079  1.00  0.00    -1.101 OA 
HETATM   15  H   UNL     1     -13.330  13.978  62.808  1.00  0.00     0.000 HD 
ENDBRANCH  10  13
ENDBRANCH   9  10
ENDBRANCH   8   9
ENDBRANCH   7   8
TORSDOF 4
ENDMDL
MODEL       43
REMARK 921   NORMALIZED FREE ENERGY PREDICTED BY IDOCK:   -4.38 KCAL/MOL
REMARK 922        TOTAL FREE ENERGY PREDICTED BY IDOCK:   -5.66 KCAL/MOL
REMARK 923 INTER-LIGAND FREE ENERGY PREDICTED BY IDOCK:   -5.43 KCAL/MOL
REMARK 924 INTRA-LIGAND FREE ENERGY PREDICTED BY IDOCK:   -0.23 KCAL/MOL
REMARK 927      BINDING AFFINITY PREDICTED BY RF-SCORE:    0.00 PKD
ROOT
HETATM    1  C   UNL     1     -12.151  13.345  63.803  1.00  0.00    -0.516 C  
HETATM    2  C   UNL     1     -11.451  12.339  64.681  1.00  0.00    -0.392 A  
HETATM    3  C   UNL     1     -10.697  11.323  64.064  1.00  0.00    -0.444 A  
HETATM    4  C   UNL     1     -10.024  10.363  64.823  1.00  0.00    -0.409 A  
HETATM    5  C   UNL     1     -10.104  10.406  66.205  1.00  0.00    -0.292 A  
HETATM    6  C   UNL     1     -10.854  11.402  66.830  1.00  0.00    -0.336 A  
HETATM    7  C   UNL     1     -11.534  12.380  66.086  1.00  0.00    -0.379 A  
ENDROOT
BRANCH   7   8
HETATM    8  O   UNL     1     -12.282  13.391  66.658  1.00  0.00    -0.388 OA 
BRANCH   8   9
HETATM    9  C   UNL     1     -11.543  14.271  67.512  1.00  0.00    -0.363 C  
BRANCH   9  10
HETATM   10  C   UNL     1     -11.958  14.193  68.982  1.00  0.00    -0.340 C  
HETATM   11  O   UNL     1     -10.976  13.418  69.691  1.00  0.00    -0.460 OA 
HETATM   12  H   UNL     1     -11.234  13.370  70.604  1.00  0.00     0.000 HD 
BRANCH  10  13
HETATM   13  C   UNL     1     -12.093  15.578  69.627  1.00  0.00    -0.328 C  
HETATM   14  O   UNL     1     -13.326  15.699  70.337  1.00  0.00    -0.783 OA 
HETATM   15  H   UNL     1     -13.410  16.557  70.737  1.00  0.00     0.000 HD 
ENDBRANCH  10  13
ENDBRANCH   9  10
ENDBRANCH   8   9
ENDBRANCH   7   8
TORSDOF 4
ENDMDL
MODEL       44
REMARK 921   NORMALIZED FREE ENERGY PREDICTED BY IDOCK:   -4.37 KCAL/MOL
REMARK 922        TOTAL FREE ENERGY PREDICTED BY IDOCK:   -5.64 KCAL/MOL
REMARK 923 INTER-LIGAND FREE ENERGY PREDICTED BY IDOCK:   -5.26 KCAL/MOL
REMARK 924 INTRA-LIGAND FREE ENERGY PREDICTED BY IDOCK:   -0.38 KCAL/MOL
REMARK 927      BINDING AFFINITY PREDICTED BY RF-SCORE:    0.00 PKD
ROOT
HETATM    1  C   UNL     1     -12.273  13.117  63.580  1.00  0.00    -0.552 C  
HETATM    2  C   UNL     1     -11.274  12.091  64.051  1.00  0.00    -0.468 A  
HETATM    3  C   UNL     1     -10.409  11.516  63.102  1.00  0.00    -0.376 A  
HETATM    4  C   UNL     1      -9.461  10.560  63.476  1.00  0.00    -0.352 A  
HETATM    5  C   UNL     1      -9.374  10.167  64.801  1.00  0.00    -0.324 A  
HETATM    6  C   UNL     1     -10.230  10.723  65.751  1.00  0.00    -0.319 A  
HETATM    7  C   UNL     1     -11.188  11.688  65.397  1.00  0.00    -0.199 A  
ENDROOT
BRANCH   7   8
HETATM    8  O   UNL     1     -12.052  12.273  66.302  1.00  0.00    -0.626 OA 
BRANCH   8   9
HETATM    9  C   UNL     1     -11.452  13.259  67.150  1.00  0.00    -0.341 C  
BRANCH   9  10
HETATM   10  C   UNL     1     -10.992  12.709  68.501  1.00  0.00    -0.261 C  
HETATM   11  O   UNL     1     -10.555  13.811  69.315  1.00  0.00    -0.419 OA 
HETATM   12  H   UNL     1     -10.269  13.470  70.154  1.00  0.00     0.000 HD 
BRANCH  10  13
HETATM   13  C   UNL     1     -12.099  11.934  69.225  1.00  0.00    -0.210 C  
HETATM   14  O   UNL     1     -12.394  10.707  68.555  1.00  0.00    -0.814 OA 
HETATM   15  H   UNL     1     -13.080  10.227  69.004  1.00  0.00     0.000 HD 
ENDBRANCH  10  13
ENDBRANCH   9  10
ENDBRANCH   8   9
ENDBRANCH   7   8
TORSDOF 4
ENDMDL
MODEL       45
REMARK 921   NORMALIZED FREE ENERGY PREDICTED BY IDOCK:   -4.34 KCAL/MOL
REMARK 922        TOTAL FREE ENERGY PREDICTED BY IDOCK:   -5.61 KCAL/MOL
REMARK 923 INTER-LIGAND FREE ENERGY PREDICTED BY IDOCK:   -5.12 KCAL/MOL
REMARK 924 INTRA-LIGAND FREE ENERGY PREDICTED BY IDOCK:   -0.48 KCAL/MOL
REMARK 927      BINDING AFFINITY PREDICTED BY RF-SCORE:    0.00 PKD
ROOT
HETATM    1  C   UNL     1      -8.748  12.202  67.136  1.00  0.00    -0.190 C  
HETATM    2  C   UNL     1      -9.670  13.361  67.415  1.00  0.00    -0.221 A  
HETATM    3  C   UNL     1      -9.200  14.408  68.231  1.00  0.00    -0.201 A  
HETATM    4  C   UNL     1     -10.006  15.509  68.525  1.00  0.00    -0.208 A  
HETATM    5  C   UNL     1     -11.291  15.572  68.012  1.00  0.00    -0.332 A  
HETATM    6  C   UNL     1     -11.773  14.539  67.209  1.00  0.00    -0.429 A  
HETATM    7  C   UNL     1     -10.977  13.424  66.897  1.00  0.00    -0.284 A  
ENDROOT
BRANCH   7   8
HETATM    8  O   UNL     1     -11.406  12.380  66.100  1.00  0.00    -0.315 OA 
BRANCH   8   9
HETATM    9  C   UNL     1     -12.511  12.695  65.245  1.00  0.00    -0.416 C  
BRANCH   9  10
HETATM   10  C   UNL     1     -12.219  12.480  63.760  1.00  0.00    -0.525 C  
HETATM   11  O   UNL     1     -12.452  13.719  63.067  1.00  0.00    -1.068 OA 
HETATM   12  H   UNL     1     -12.271  13.586  62.144  1.00  0.00     0.000 HD 
BRANCH  10  13
HETATM   13  C   UNL     1     -10.783  12.006  63.507  1.00  0.00    -0.455 C  
HETATM   14  O   UNL     1     -10.616  10.638  63.886  1.00  0.00    -0.479 OA 
HETATM   15  H   UNL     1      -9.726  10.344  63.730  1.00  0.00     0.000 HD 
ENDBRANCH  10  13
ENDBRANCH   9  10
ENDBRANCH   8   9
ENDBRANCH   7   8
TORSDOF 4
ENDMDL
MODEL       46
REMARK 921   NORMALIZED FREE ENERGY PREDICTED BY IDOCK:   -4.33 KCAL/MOL
REMARK 922        TOTAL FREE ENERGY PREDICTED BY IDOCK:   -5.60 KCAL/MOL
REMARK 923 INTER-LIGAND FREE ENERGY PREDICTED BY IDOCK:   -5.33 KCAL/MOL
REMARK 924 INTRA-LIGAND FREE ENERGY PREDICTED BY IDOCK:   -0.27 KCAL/MOL
REMARK 927      BINDING AFFINITY PREDICTED BY RF-SCORE:    0.00 PKD
ROOT
HETATM    1  C   UNL     1     -12.651  13.846  65.347  1.00  0.00    -0.538 C  
HETATM    2  C   UNL     1     -11.665  12.737  65.085  1.00  0.00    -0.396 A  
HETATM    3  C   UNL     1     -11.128  12.611  63.790  1.00  0.00    -0.504 A  
HETATM    4  C   UNL     1     -10.209  11.604  63.486  1.00  0.00    -0.474 A  
HETATM    5  C   UNL     1      -9.822  10.711  64.471  1.00  0.00    -0.388 A  
HETATM    6  C   UNL     1     -10.352  10.819  65.757  1.00  0.00    -0.295 A  
HETATM    7  C   UNL     1     -11.274  11.827  66.086  1.00  0.00    -0.306 A  
ENDROOT
BRANCH   7   8
HETATM    8  O   UNL     1     -11.820  11.980  67.346  1.00  0.00    -0.546 OA 
BRANCH   8   9
HETATM    9  C   UNL     1     -10.885  11.847  68.422  1.00  0.00    -0.228 C  
BRANCH   9  10
HETATM   10  C   UNL     1     -11.355  10.905  69.531  1.00  0.00    -0.283 C  
HETATM   11  O   UNL     1     -12.724  10.546  69.273  1.00  0.00    -0.703 OA 
HETATM   12  H   UNL     1     -13.016   9.961  69.962  1.00  0.00     0.000 HD 
BRANCH  10  13
HETATM   13  C   UNL     1     -10.495   9.639  69.628  1.00  0.00    -0.229 C  
HETATM   14  O   UNL     1     -11.279   8.465  69.411  1.00  0.00    -0.444 OA 
HETATM   15  H   UNL     1     -10.747   7.680  69.471  1.00  0.00     0.000 HD 
ENDBRANCH  10  13
ENDBRANCH   9  10
ENDBRANCH   8   9
ENDBRANCH   7   8
TORSDOF 4
ENDMDL
MODEL       47
REMARK 921   NORMALIZED FREE ENERGY PREDICTED BY IDOCK:   -4.33 KCAL/MOL
REMARK 922        TOTAL FREE ENERGY PREDICTED BY IDOCK:   -5.59 KCAL/MOL
REMARK 923 INTER-LIGAND FREE ENERGY PREDICTED BY IDOCK:   -5.18 KCAL/MOL
REMARK 924 INTRA-LIGAND FREE ENERGY PREDICTED BY IDOCK:   -0.42 KCAL/MOL
REMARK 927      BINDING AFFINITY PREDICTED BY RF-SCORE:    0.00 PKD
ROOT
HETATM    1  C   UNL     1     -10.614  10.057  67.354  1.00  0.00    -0.330 C  
HETATM    2  C   UNL     1      -9.982   9.857  66.000  1.00  0.00    -0.338 A  
HETATM    3  C   UNL     1      -9.127   8.754  65.817  1.00  0.00    -0.267 A  
HETATM    4  C   UNL     1      -8.512   8.514  64.587  1.00  0.00    -0.127 A  
HETATM    5  C   UNL     1      -8.742   9.378  63.528  1.00  0.00    -0.221 A  
HETATM    6  C   UNL     1      -9.581  10.479  63.697  1.00  0.00    -0.370 A  
HETATM    7  C   UNL     1     -10.212  10.737  64.925  1.00  0.00    -0.320 A  
ENDROOT
BRANCH   7   8
HETATM    8  O   UNL     1     -11.058  11.809  65.139  1.00  0.00    -0.308 OA 
BRANCH   8   9
HETATM    9  C   UNL     1     -10.743  12.979  64.376  1.00  0.00    -0.394 C  
BRANCH   9  10
HETATM   10  C   UNL     1     -11.803  14.077  64.471  1.00  0.00    -0.434 C  
HETATM   11  O   UNL     1     -12.532  14.114  63.231  1.00  0.00    -1.146 OA 
HETATM   12  H   UNL     1     -13.190  14.796  63.290  1.00  0.00     0.000 HD 
BRANCH  10  13
HETATM   13  C   UNL     1     -12.772  13.857  65.638  1.00  0.00    -0.495 C  
HETATM   14  O   UNL     1     -12.104  13.978  66.895  1.00  0.00    -0.424 OA 
HETATM   15  H   UNL     1     -12.705  13.841  67.618  1.00  0.00     0.000 HD 
ENDBRANCH  10  13
ENDBRANCH   9  10
ENDBRANCH   8   9
ENDBRANCH   7   8
TORSDOF 4
ENDMDL
MODEL       48
REMARK 921   NORMALIZED FREE ENERGY PREDICTED BY IDOCK:   -4.33 KCAL/MOL
REMARK 922        TOTAL FREE ENERGY PREDICTED BY IDOCK:   -5.59 KCAL/MOL
REMARK 923 INTER-LIGAND FREE ENERGY PREDICTED BY IDOCK:   -5.42 KCAL/MOL
REMARK 924 INTRA-LIGAND FREE ENERGY PREDICTED BY IDOCK:   -0.17 KCAL/MOL
REMARK 927      BINDING AFFINITY PREDICTED BY RF-SCORE:    0.00 PKD
ROOT
HETATM    1  C   UNL     1     -12.171  11.451  70.650  1.00  0.00    -0.484 C  
HETATM    2  C   UNL     1     -12.622  12.860  70.939  1.00  0.00    -0.355 A  
HETATM    3  C   UNL     1     -13.511  13.072  72.009  1.00  0.00    -0.584 A  
HETATM    4  C   UNL     1     -13.964  14.354  72.327  1.00  0.00    -0.610 A  
HETATM    5  C   UNL     1     -13.536  15.436  71.575  1.00  0.00    -0.604 A  
HETATM    6  C   UNL     1     -12.661  15.240  70.507  1.00  0.00    -0.440 A  
HETATM    7  C   UNL     1     -12.191  13.960  70.172  1.00  0.00    -0.358 A  
ENDROOT
BRANCH   7   8
HETATM    8  O   UNL     1     -11.318  13.716  69.130  1.00  0.00    -0.261 OA 
BRANCH   8   9
HETATM    9  C   UNL     1     -11.746  14.223  67.861  1.00  0.00    -0.359 C  
BRANCH   9  10
HETATM   10  C   UNL     1     -10.595  14.543  66.907  1.00  0.00    -0.279 C  
HETATM   11  O   UNL     1      -9.999  13.305  66.482  1.00  0.00    -0.266 OA 
HETATM   12  H   UNL     1      -9.283  13.504  65.890  1.00  0.00     0.000 HD 
BRANCH  10  13
HETATM   13  C   UNL     1     -11.054  15.346  65.683  1.00  0.00    -0.271 C  
HETATM   14  O   UNL     1     -10.168  16.435  65.418  1.00  0.00    -0.546 OA 
HETATM   15  H   UNL     1     -10.452  16.933  64.660  1.00  0.00     0.000 HD 
ENDBRANCH  10  13
ENDBRANCH   9  10
ENDBRANCH   8   9
ENDBRANCH   7   8
TORSDOF 4
ENDMDL
MODEL       49
REMARK 921   NORMALIZED FREE ENERGY PREDICTED BY IDOCK:   -4.32 KCAL/MOL
REMARK 922        TOTAL FREE ENERGY PREDICTED BY IDOCK:   -5.58 KCAL/MOL
REMARK 923 INTER-LIGAND FREE ENERGY PREDICTED BY IDOCK:   -5.11 KCAL/MOL
REMARK 924 INTRA-LIGAND FREE ENERGY PREDICTED BY IDOCK:   -0.48 KCAL/MOL
REMARK 927      BINDING AFFINITY PREDICTED BY RF-SCORE:    0.00 PKD
ROOT
HETATM    1  C   UNL     1      -9.875  10.480  63.840  1.00  0.00    -0.373 C  
HETATM    2  C   UNL     1     -10.799  11.550  64.363  1.00  0.00    -0.405 A  
HETATM    3  C   UNL     1     -11.307  12.498  63.455  1.00  0.00    -0.556 A  
HETATM    4  C   UNL     1     -12.168  13.512  63.879  1.00  0.00    -0.458 A  
HETATM    5  C   UNL     1     -12.525  13.593  65.215  1.00  0.00    -0.517 A  
HETATM    6  C   UNL     1     -12.022  12.665  66.127  1.00  0.00    -0.458 A  
HETATM    7  C   UNL     1     -11.158  11.634  65.722  1.00  0.00    -0.256 A  
ENDROOT
BRANCH   7   8
HETATM    8  O   UNL     1     -10.642  10.688  66.586  1.00  0.00    -0.243 OA 
BRANCH   8   9
HETATM    9  C   UNL     1     -10.000  11.226  67.747  1.00  0.00    -0.176 C  
BRANCH   9  10
HETATM   10  C   UNL     1     -10.026  10.286  68.954  1.00  0.00    -0.201 C  
HETATM   11  O   UNL     1      -8.847  10.527  69.743  1.00  0.00    -0.390 OA 
HETATM   12  H   UNL     1      -8.863   9.944  70.491  1.00  0.00     0.000 HD 
BRANCH  10  13
HETATM   13  C   UNL     1     -11.278  10.477  69.819  1.00  0.00    -0.298 C  
HETATM   14  O   UNL     1     -12.445  10.635  69.010  1.00  0.00    -0.777 OA 
HETATM   15  H   UNL     1     -13.221  10.753  69.546  1.00  0.00     0.000 HD 
ENDBRANCH  10  13
ENDBRANCH   9  10
ENDBRANCH   8   9
ENDBRANCH   7   8
TORSDOF 4
ENDMDL
MODEL       50
REMARK 921   NORMALIZED FREE ENERGY PREDICTED BY IDOCK:   -4.31 KCAL/MOL
REMARK 922        TOTAL FREE ENERGY PREDICTED BY IDOCK:   -5.57 KCAL/MOL
REMARK 923 INTER-LIGAND FREE ENERGY PREDICTED BY IDOCK:   -5.25 KCAL/MOL
REMARK 924 INTRA-LIGAND FREE ENERGY PREDICTED BY IDOCK:   -0.32 KCAL/MOL
REMARK 927      BINDING AFFINITY PREDICTED BY RF-SCORE:    0.00 PKD
ROOT
HETATM    1  C   UNL     1     -11.064  16.009  64.715  1.00  0.00    -0.378 C  
HETATM    2  C   UNL     1     -11.152  15.472  66.122  1.00  0.00    -0.177 A  
HETATM    3  C   UNL     1     -10.460  16.153  67.141  1.00  0.00    -0.305 A  
HETATM    4  C   UNL     1     -10.503  15.706  68.464  1.00  0.00    -0.236 A  
HETATM    5  C   UNL     1     -11.234  14.572  68.778  1.00  0.00    -0.281 A  
HETATM    6  C   UNL     1     -11.918  13.883  67.777  1.00  0.00    -0.390 A  
HETATM    7  C   UNL     1     -11.891  14.318  66.441  1.00  0.00    -0.411 A  
ENDROOT
BRANCH   7   8
HETATM    8  O   UNL     1     -12.558  13.675  65.416  1.00  0.00    -0.469 OA 
BRANCH   8   9
HETATM    9  C   UNL     1     -12.088  12.352  65.135  1.00  0.00    -0.405 C  
BRANCH   9  10
HETATM   10  C   UNL     1     -11.809  12.101  63.652  1.00  0.00    -0.516 C  
HETATM   11  O   UNL     1     -12.068  13.318  62.929  1.00  0.00    -0.760 OA 
HETATM   12  H   UNL     1     -11.895  13.162  62.009  1.00  0.00     0.000 HD 
BRANCH  10  13
HETATM   13  C   UNL     1     -10.369  11.642  63.397  1.00  0.00    -0.435 C  
HETATM   14  O   UNL     1      -9.447  12.340  64.237  1.00  0.00    -0.487 OA 
HETATM   15  H   UNL     1      -8.554  12.055  64.078  1.00  0.00     0.000 HD 
ENDBRANCH  10  13
ENDBRANCH   9  10
ENDBRANCH   8   9
ENDBRANCH   7   8
TORSDOF 4
ENDMDL
MODEL       51
REMARK 921   NORMALIZED FREE ENERGY PREDICTED BY IDOCK:   -4.30 KCAL/MOL
REMARK 922        TOTAL FREE ENERGY PREDICTED BY IDOCK:   -5.55 KCAL/MOL
REMARK 923 INTER-LIGAND FREE ENERGY PREDICTED BY IDOCK:   -5.16 KCAL/MOL
REMARK 924 INTRA-LIGAND FREE ENERGY PREDICTED BY IDOCK:   -0.39 KCAL/MOL
REMARK 927      BINDING AFFINITY PREDICTED BY RF-SCORE:    0.00 PKD
ROOT
HETATM    1  C   UNL     1      -9.369   9.480  70.371  1.00  0.00    -0.311 C  
HETATM    2  C   UNL     1     -10.753   9.460  70.968  1.00  0.00    -0.407 A  
HETATM    3  C   UNL     1     -11.084   8.418  71.855  1.00  0.00    -0.378 A  
HETATM    4  C   UNL     1     -12.350   8.345  72.441  1.00  0.00    -0.412 A  
HETATM    5  C   UNL     1     -13.298   9.310  72.142  1.00  0.00    -0.537 A  
HETATM    6  C   UNL     1     -12.986  10.344  71.259  1.00  0.00    -0.517 A  
HETATM    7  C   UNL     1     -11.718  10.438  70.662  1.00  0.00    -0.351 A  
ENDROOT
BRANCH   7   8
HETATM    8  O   UNL     1     -11.359  11.447  69.788  1.00  0.00    -0.274 OA 
BRANCH   8   9
HETATM    9  C   UNL     1     -12.030  11.408  68.523  1.00  0.00    -0.225 C  
BRANCH   9  10
HETATM   10  C   UNL     1     -11.513  12.443  67.523  1.00  0.00    -0.346 C  
HETATM   11  O   UNL     1     -12.114  12.176  66.243  1.00  0.00    -0.626 OA 
HETATM   12  H   UNL     1     -11.793  12.818  65.621  1.00  0.00     0.000 HD 
BRANCH  10  13
HETATM   13  C   UNL     1     -11.825  13.881  67.953  1.00  0.00    -0.378 C  
HETATM   14  O   UNL     1     -12.323  13.922  69.292  1.00  0.00    -0.400 OA 
HETATM   15  H   UNL     1     -12.516  14.814  69.560  1.00  0.00     0.000 HD 
ENDBRANCH  10  13
ENDBRANCH   9  10
ENDBRANCH   8   9
ENDBRANCH   7   8
TORSDOF 4
ENDMDL
MODEL       52
REMARK 921   NORMALIZED FREE ENERGY PREDICTED BY IDOCK:   -4.29 KCAL/MOL
REMARK 922        TOTAL FREE ENERGY PREDICTED BY IDOCK:   -5.54 KCAL/MOL
REMARK 923 INTER-LIGAND FREE ENERGY PREDICTED BY IDOCK:   -5.06 KCAL/MOL
REMARK 924 INTRA-LIGAND FREE ENERGY PREDICTED BY IDOCK:   -0.48 KCAL/MOL
REMARK 927      BINDING AFFINITY PREDICTED BY RF-SCORE:    0.00 PKD
ROOT
HETATM    1  C   UNL     1     -12.119  13.224  63.830  1.00  0.00    -0.546 C  
HETATM    2  C   UNL     1     -11.256  12.109  64.363  1.00  0.00    -0.400 A  
HETATM    3  C   UNL     1     -10.450  11.395  63.455  1.00  0.00    -0.477 A  
HETATM    4  C   UNL     1      -9.628  10.352  63.888  1.00  0.00    -0.370 A  
HETATM    5  C   UNL     1      -9.607  10.010  65.230  1.00  0.00    -0.355 A  
HETATM    6  C   UNL     1     -10.406  10.704  66.139  1.00  0.00    -0.291 A  
HETATM    7  C   UNL     1     -11.236  11.758  65.726  1.00  0.00    -0.281 A  
ENDROOT
BRANCH   7   8
HETATM    8  O   UNL     1     -12.038  12.481  66.589  1.00  0.00    -0.562 OA 
BRANCH   8   9
HETATM    9  C   UNL     1     -11.773  12.258  67.978  1.00  0.00    -0.356 C  
BRANCH   9  10
HETATM   10  C   UNL     1     -11.779  13.537  68.817  1.00  0.00    -0.337 C  
HETATM   11  O   UNL     1     -11.479  13.189  70.180  1.00  0.00    -0.510 OA 
HETATM   12  H   UNL     1     -11.483  13.983  70.701  1.00  0.00     0.000 HD 
BRANCH  10  13
HETATM   13  C   UNL     1     -10.769  14.574  68.311  1.00  0.00    -0.240 C  
HETATM   14  O   UNL     1     -11.193  15.148  67.073  1.00  0.00    -0.335 OA 
HETATM   15  H   UNL     1     -10.567  15.791  66.760  1.00  0.00     0.000 HD 
ENDBRANCH  10  13
ENDBRANCH   9  10
ENDBRANCH   8   9
ENDBRANCH   7   8
TORSDOF 4
ENDMDL
MODEL       53
REMARK 921   NORMALIZED FREE ENERGY PREDICTED BY IDOCK:   -4.27 KCAL/MOL
REMARK 922        TOTAL FREE ENERGY PREDICTED BY IDOCK:   -5.53 KCAL/MOL
REMARK 923 INTER-LIGAND FREE ENERGY PREDICTED BY IDOCK:   -5.14 KCAL/MOL
REMARK 924 INTRA-LIGAND FREE ENERGY PREDICTED BY IDOCK:   -0.38 KCAL/MOL
REMARK 927      BINDING AFFINITY PREDICTED BY RF-SCORE:    0.00 PKD
ROOT
HETATM    1  C   UNL     1     -12.580  13.658  70.523  1.00  0.00    -0.337 C  
HETATM    2  C   UNL     1     -12.405  12.169  70.679  1.00  0.00    -0.385 A  
HETATM    3  C   UNL     1     -13.085  11.522  71.728  1.00  0.00    -0.503 A  
HETATM    4  C   UNL     1     -12.964  10.145  71.924  1.00  0.00    -0.549 A  
HETATM    5  C   UNL     1     -12.159   9.402  71.077  1.00  0.00    -0.373 A  
HETATM    6  C   UNL     1     -11.473  10.031  70.038  1.00  0.00    -0.310 A  
HETATM    7  C   UNL     1     -11.584  11.414  69.820  1.00  0.00    -0.332 A  
ENDROOT
BRANCH   7   8
HETATM    8  O   UNL     1     -10.931  12.081  68.801  1.00  0.00    -0.219 OA 
BRANCH   8   9
HETATM    9  C   UNL     1     -11.135  11.525  67.497  1.00  0.00    -0.272 C  
BRANCH   9  10
HETATM   10  C   UNL     1     -11.196  12.573  66.385  1.00  0.00    -0.306 C  
HETATM   11  O   UNL     1     -12.455  12.438  65.703  1.00  0.00    -0.640 OA 
HETATM   12  H   UNL     1     -12.493  13.088  65.012  1.00  0.00     0.000 HD 
BRANCH  10  13
HETATM   13  C   UNL     1     -11.045  14.002  66.918  1.00  0.00    -0.304 C  
HETATM   14  O   UNL     1     -12.293  14.511  67.393  1.00  0.00    -0.614 OA 
HETATM   15  H   UNL     1     -12.199  15.397  67.723  1.00  0.00     0.000 HD 
ENDBRANCH  10  13
ENDBRANCH   9  10
ENDBRANCH   8   9
ENDBRANCH   7   8
TORSDOF 4
ENDMDL
MODEL       54
REMARK 921   NORMALIZED FREE ENERGY PREDICTED BY IDOCK:   -4.26 KCAL/MOL
REMARK 922        TOTAL FREE ENERGY PREDICTED BY IDOCK:   -5.51 KCAL/MOL
REMARK 923 INTER-LIGAND FREE ENERGY PREDICTED BY IDOCK:   -5.03 KCAL/MOL
REMARK 924 INTRA-LIGAND FREE ENERGY PREDICTED BY IDOCK:   -0.48 KCAL/MOL
REMARK 927      BINDING AFFINITY PREDICTED BY RF-SCORE:    0.00 PKD
ROOT
HETATM    1  C   UNL     1      -9.750   9.774  66.871  1.00  0.00    -0.243 C  
HETATM    2  C   UNL     1     -10.477  10.134  68.142  1.00  0.00    -0.243 A  
HETATM    3  C   UNL     1     -10.108   9.479  69.332  1.00  0.00    -0.206 A  
HETATM    4  C   UNL     1     -10.744   9.770  70.541  1.00  0.00    -0.381 A  
HETATM    5  C   UNL     1     -11.757  10.714  70.571  1.00  0.00    -0.451 A  
HETATM    6  C   UNL     1     -12.137  11.365  69.398  1.00  0.00    -0.358 A  
HETATM    7  C   UNL     1     -11.509  11.091  68.172  1.00  0.00    -0.302 A  
ENDROOT
BRANCH   7   8
HETATM    8  O   UNL     1     -11.844  11.715  66.986  1.00  0.00    -0.591 OA 
BRANCH   8   9
HETATM    9  C   UNL     1     -11.789  13.145  67.027  1.00  0.00    -0.379 C  
BRANCH   9  10
HETATM   10  C   UNL     1     -11.114  13.769  65.804  1.00  0.00    -0.289 C  
HETATM   11  O   UNL     1      -9.899  13.047  65.537  1.00  0.00    -0.406 OA 
HETATM   12  H   UNL     1      -9.480  13.434  64.778  1.00  0.00     0.000 HD 
BRANCH  10  13
HETATM   13  C   UNL     1     -12.015  13.747  64.563  1.00  0.00    -0.427 C  
HETATM   14  O   UNL     1     -13.124  12.865  64.747  1.00  0.00    -0.754 OA 
HETATM   15  H   UNL     1     -13.683  12.851  63.978  1.00  0.00     0.000 HD 
ENDBRANCH  10  13
ENDBRANCH   9  10
ENDBRANCH   8   9
ENDBRANCH   7   8
TORSDOF 4
ENDMDL
MODEL       55
REMARK 921   NORMALIZED FREE ENERGY PREDICTED BY IDOCK:   -4.24 KCAL/MOL
REMARK 922        TOTAL FREE ENERGY PREDICTED BY IDOCK:   -5.49 KCAL/MOL
REMARK 923 INTER-LIGAND FREE ENERGY PREDICTED BY IDOCK:   -5.08 KCAL/MOL
REMARK 924 INTRA-LIGAND FREE ENERGY PREDICTED BY IDOCK:   -0.41 KCAL/MOL
REMARK 927      BINDING AFFINITY PREDICTED BY RF-SCORE:    0.00 PKD
ROOT
HETATM    1  C   UNL     1     -10.141  10.724  67.038  1.00  0.00    -0.249 C  
HETATM    2  C   UNL     1     -10.759  11.373  65.825  1.00  0.00    -0.309 A  
HETATM    3  C   UNL     1     -10.294  10.990  64.553  1.00  0.00    -0.420 A  
HETATM    4  C   UNL     1     -10.826  11.553  63.391  1.00  0.00    -0.423 A  
HETATM    5  C   UNL     1     -11.825  12.508  63.491  1.00  0.00    -0.616 A  
HETATM    6  C   UNL     1     -12.290  12.902  64.745  1.00  0.00    -0.516 A  
HETATM    7  C   UNL     1     -11.771  12.346  65.926  1.00  0.00    -0.419 A  
ENDROOT
BRANCH   7   8
HETATM    8  O   UNL     1     -12.204  12.697  67.190  1.00  0.00    -0.445 OA 
BRANCH   8   9
HETATM    9  C   UNL     1     -11.927  14.052  67.561  1.00  0.00    -0.395 C  
BRANCH   9  10
HETATM   10  C   UNL     1     -10.873  14.184  68.661  1.00  0.00    -0.255 C  
HETATM   11  O   UNL     1     -11.032  13.087  69.577  1.00  0.00    -0.454 OA 
HETATM   12  H   UNL     1     -10.377  13.169  70.261  1.00  0.00     0.000 HD 
BRANCH  10  13
HETATM   13  C   UNL     1      -9.444  14.194  68.105  1.00  0.00    -0.213 C  
HETATM   14  O   UNL     1      -8.593  13.324  68.854  1.00  0.00    -0.368 OA 
HETATM   15  H   UNL     1      -7.707  13.330  68.509  1.00  0.00     0.000 HD 
ENDBRANCH  10  13
ENDBRANCH   9  10
ENDBRANCH   8   9
ENDBRANCH   7   8
TORSDOF 4
ENDMDL
MODEL       56
REMARK 921   NORMALIZED FREE ENERGY PREDICTED BY IDOCK:   -4.21 KCAL/MOL
REMARK 922        TOTAL FREE ENERGY PREDICTED BY IDOCK:   -5.44 KCAL/MOL
REMARK 923 INTER-LIGAND FREE ENERGY PREDICTED BY IDOCK:   -5.25 KCAL/MOL
REMARK 924 INTRA-LIGAND FREE ENERGY PREDICTED BY IDOCK:   -0.19 KCAL/MOL
REMARK 927      BINDING AFFINITY PREDICTED BY RF-SCORE:    0.00 PKD
ROOT
HETATM    1  C   UNL     1     -10.282  16.492  65.456  1.00  0.00    -0.261 C  
HETATM    2  C   UNL     1     -10.166  17.598  66.475  1.00  0.00    -0.355 A  
HETATM    3  C   UNL     1      -9.955  18.911  66.016  1.00  0.00    -0.309 A  
HETATM    4  C   UNL     1      -9.840  19.978  66.910  1.00  0.00    -0.571 A  
HETATM    5  C   UNL     1      -9.930  19.740  68.272  1.00  0.00    -0.557 A  
HETATM    6  C   UNL     1     -10.131  18.443  68.742  1.00  0.00    -0.393 A  
HETATM    7  C   UNL     1     -10.254  17.356  67.860  1.00  0.00    -0.348 A  
ENDROOT
BRANCH   7   8
HETATM    8  O   UNL     1     -10.462  16.055  68.275  1.00  0.00    -0.251 OA 
BRANCH   8   9
HETATM    9  C   UNL     1     -11.734  15.821  68.890  1.00  0.00    -0.394 C  
BRANCH   9  10
HETATM   10  C   UNL     1     -11.915  14.390  69.399  1.00  0.00    -0.328 C  
HETATM   11  O   UNL     1     -10.615  13.794  69.554  1.00  0.00    -0.447 OA 
HETATM   12  H   UNL     1     -10.728  12.906  69.870  1.00  0.00     0.000 HD 
BRANCH  10  13
HETATM   13  C   UNL     1     -12.673  14.335  70.731  1.00  0.00    -0.350 C  
HETATM   14  O   UNL     1     -13.872  15.111  70.676  1.00  0.00    -0.689 OA 
HETATM   15  H   UNL     1     -14.342  15.077  71.501  1.00  0.00     0.000 HD 
ENDBRANCH  10  13
ENDBRANCH   9  10
ENDBRANCH   8   9
ENDBRANCH   7   8
TORSDOF 4
ENDMDL
MODEL       57
REMARK 921   NORMALIZED FREE ENERGY PREDICTED BY IDOCK:   -4.20 KCAL/MOL
REMARK 922        TOTAL FREE ENERGY PREDICTED BY IDOCK:   -5.43 KCAL/MOL
REMARK 923 INTER-LIGAND FREE ENERGY PREDICTED BY IDOCK:   -4.96 KCAL/MOL
REMARK 924 INTRA-LIGAND FREE ENERGY PREDICTED BY IDOCK:   -0.48 KCAL/MOL
REMARK 927      BINDING AFFINITY PREDICTED BY RF-SCORE:    0.00 PKD
ROOT
HETATM    1  C   UNL     1     -12.184  14.014  67.010  1.00  0.00    -0.387 C  
HETATM    2  C   UNL     1     -11.799  13.253  65.766  1.00  0.00    -0.428 A  
HETATM    3  C   UNL     1     -12.463  13.559  64.564  1.00  0.00    -0.344 A  
HETATM    4  C   UNL     1     -12.151  12.890  63.378  1.00  0.00    -0.610 A  
HETATM    5  C   UNL     1     -11.176  11.906  63.385  1.00  0.00    -0.463 A  
HETATM    6  C   UNL     1     -10.516  11.587  64.571  1.00  0.00    -0.369 A  
HETATM    7  C   UNL     1     -10.811  12.250  65.773  1.00  0.00    -0.278 A  
ENDROOT
BRANCH   7   8
HETATM    8  O   UNL     1     -10.179  11.976  66.971  1.00  0.00    -0.202 OA 
BRANCH   8   9
HETATM    9  C   UNL     1     -10.157  10.591  67.331  1.00  0.00    -0.197 C  
BRANCH   9  10
HETATM   10  C   UNL     1      -9.994  10.349  68.833  1.00  0.00    -0.199 C  
HETATM   11  O   UNL     1      -8.971  11.231  69.327  1.00  0.00    -0.390 OA 
HETATM   12  H   UNL     1      -8.869  11.080  70.259  1.00  0.00     0.000 HD 
BRANCH  10  13
HETATM   13  C   UNL     1     -11.297  10.579  69.608  1.00  0.00    -0.281 C  
HETATM   14  O   UNL     1     -12.407  10.727  68.720  1.00  0.00    -0.812 OA 
HETATM   15  H   UNL     1     -13.214  10.869  69.201  1.00  0.00     0.000 HD 
ENDBRANCH  10  13
ENDBRANCH   9  10
ENDBRANCH   8   9
ENDBRANCH   7   8
TORSDOF 4
ENDMDL
MODEL       58
REMARK 921   NORMALIZED FREE ENERGY PREDICTED BY IDOCK:   -4.20 KCAL/MOL
REMARK 922        TOTAL FREE ENERGY PREDICTED BY IDOCK:   -5.43 KCAL/MOL
REMARK 923 INTER-LIGAND FREE ENERGY PREDICTED BY IDOCK:   -5.00 KCAL/MOL
REMARK 924 INTRA-LIGAND FREE ENERGY PREDICTED BY IDOCK:   -0.43 KCAL/MOL
REMARK 927      BINDING AFFINITY PREDICTED BY RF-SCORE:    0.00 PKD
ROOT
HETATM    1  C   UNL     1     -10.381  10.016  66.958  1.00  0.00    -0.305 C  
HETATM    2  C   UNL     1     -10.999  11.389  66.887  1.00  0.00    -0.355 A  
HETATM    3  C   UNL     1     -11.260  11.941  65.619  1.00  0.00    -0.360 A  
HETATM    4  C   UNL     1     -11.832  13.208  65.488  1.00  0.00    -0.420 A  
HETATM    5  C   UNL     1     -12.145  13.937  66.623  1.00  0.00    -0.485 A  
HETATM    6  C   UNL     1     -11.885  13.406  67.886  1.00  0.00    -0.392 A  
HETATM    7  C   UNL     1     -11.314  12.132  68.041  1.00  0.00    -0.295 A  
ENDROOT
BRANCH   7   8
HETATM    8  O   UNL     1     -11.045  11.560  69.270  1.00  0.00    -0.239 OA 
BRANCH   8   9
HETATM    9  C   UNL     1     -12.087  11.714  70.240  1.00  0.00    -0.358 C  
BRANCH   9  10
HETATM   10  C   UNL     1     -12.335  10.459  71.079  1.00  0.00    -0.387 C  
HETATM   11  O   UNL     1     -13.551   9.841  70.623  1.00  0.00    -0.600 OA 
HETATM   12  H   UNL     1     -13.706   9.062  71.144  1.00  0.00     0.000 HD 
BRANCH  10  13
HETATM   13  C   UNL     1     -11.178   9.456  70.990  1.00  0.00    -0.342 C  
HETATM   14  O   UNL     1     -11.428   8.467  69.989  1.00  0.00    -0.457 OA 
HETATM   15  H   UNL     1     -10.711   7.846  69.934  1.00  0.00     0.000 HD 
ENDBRANCH  10  13
ENDBRANCH   9  10
ENDBRANCH   8   9
ENDBRANCH   7   8
TORSDOF 4
ENDMDL
MODEL       59
REMARK 921   NORMALIZED FREE ENERGY PREDICTED BY IDOCK:   -4.18 KCAL/MOL
REMARK 922        TOTAL FREE ENERGY PREDICTED BY IDOCK:   -5.41 KCAL/MOL
REMARK 923 INTER-LIGAND FREE ENERGY PREDICTED BY IDOCK:   -5.20 KCAL/MOL
REMARK 924 INTRA-LIGAND FREE ENERGY PREDICTED BY IDOCK:   -0.20 KCAL/MOL
REMARK 927      BINDING AFFINITY PREDICTED BY RF-SCORE:    0.00 PKD
ROOT
HETATM    1  C   UNL     1     -11.962  13.254  68.653  1.00  0.00    -0.345 C  
HETATM    2  C   UNL     1     -12.077  14.111  69.888  1.00  0.00    -0.405 A  
HETATM    3  C   UNL     1     -12.592  13.528  71.061  1.00  0.00    -0.438 A  
HETATM    4  C   UNL     1     -12.723  14.269  72.237  1.00  0.00    -0.382 A  
HETATM    5  C   UNL     1     -12.344  15.601  72.250  1.00  0.00    -0.518 A  
HETATM    6  C   UNL     1     -11.840  16.194  71.093  1.00  0.00    -0.411 A  
HETATM    7  C   UNL     1     -11.697  15.466  69.901  1.00  0.00    -0.336 A  
ENDROOT
BRANCH   7   8
HETATM    8  O   UNL     1     -11.195  16.006  68.732  1.00  0.00    -0.318 OA 
BRANCH   8   9
HETATM    9  C   UNL     1     -10.215  17.033  68.922  1.00  0.00    -0.322 C  
BRANCH   9  10
HETATM   10  C   UNL     1     -10.414  18.247  68.013  1.00  0.00    -0.367 C  
HETATM   11  O   UNL     1      -9.978  19.421  68.722  1.00  0.00    -0.412 OA 
HETATM   12  H   UNL     1     -10.102  20.175  68.158  1.00  0.00     0.000 HD 
BRANCH  10  13
HETATM   13  C   UNL     1      -9.647  18.123  66.692  1.00  0.00    -0.306 C  
HETATM   14  O   UNL     1     -10.541  18.064  65.579  1.00  0.00    -0.639 OA 
HETATM   15  H   UNL     1     -10.065  17.987  64.760  1.00  0.00     0.000 HD 
ENDBRANCH  10  13
ENDBRANCH   9  10
ENDBRANCH   8   9
ENDBRANCH   7   8
TORSDOF 4
ENDMDL
MODEL       60
REMARK 921   NORMALIZED FREE ENERGY PREDICTED BY IDOCK:   -4.17 KCAL/MOL
REMARK 922        TOTAL FREE ENERGY PREDICTED BY IDOCK:   -5.39 KCAL/MOL
REMARK 923 INTER-LIGAND FREE ENERGY PREDICTED BY IDOCK:   -4.99 KCAL/MOL
REMARK 924 INTRA-LIGAND FREE ENERGY PREDICTED BY IDOCK:   -0.40 KCAL/MOL
REMARK 927      BINDING AFFINITY PREDICTED BY RF-SCORE:    0.00 PKD
ROOT
HETATM    1  C   UNL     1     -11.567  15.445  69.182  1.00  0.00    -0.354 C  
HETATM    2  C   UNL     1     -11.299  15.285  67.707  1.00  0.00    -0.331 A  
HETATM    3  C   UNL     1     -11.842  14.166  67.046  1.00  0.00    -0.458 A  
HETATM    4  C   UNL     1     -11.630  13.963  65.681  1.00  0.00    -0.338 A  
HETATM    5  C   UNL     1     -10.871  14.873  64.964  1.00  0.00    -0.439 A  
HETATM    6  C   UNL     1     -10.321  15.982  65.607  1.00  0.00    -0.414 A  
HETATM    7  C   UNL     1     -10.525  16.207  66.979  1.00  0.00    -0.306 A  
ENDROOT
BRANCH   7   8
HETATM    8  O   UNL     1     -10.008  17.294  67.658  1.00  0.00    -0.278 OA 
BRANCH   8   9
HETATM    9  C   UNL     1     -10.451  18.567  67.174  1.00  0.00    -0.409 C  
BRANCH   9  10
HETATM   10  C   UNL     1      -9.335  19.411  66.556  1.00  0.00    -0.359 C  
HETATM   11  O   UNL     1      -9.936  20.448  65.762  1.00  0.00    -0.615 OA 
HETATM   12  H   UNL     1      -9.243  20.972  65.378  1.00  0.00     0.000 HD 
BRANCH  10  13
HETATM   13  C   UNL     1      -8.417  20.033  67.615  1.00  0.00    -0.326 C  
HETATM   14  O   UNL     1      -8.426  19.267  68.821  1.00  0.00    -0.361 OA 
HETATM   15  H   UNL     1      -7.857  19.653  69.478  1.00  0.00     0.000 HD 
ENDBRANCH  10  13
ENDBRANCH   9  10
ENDBRANCH   8   9
ENDBRANCH   7   8
TORSDOF 4
ENDMDL
MODEL       61
REMARK 921   NORMALIZED FREE ENERGY PREDICTED BY IDOCK:   -4.15 KCAL/MOL
REMARK 922        TOTAL FREE ENERGY PREDICTED BY IDOCK:   -5.38 KCAL/MOL
REMARK 923 INTER-LIGAND FREE ENERGY PREDICTED BY IDOCK:   -5.18 KCAL/MOL
REMARK 924 INTRA-LIGAND FREE ENERGY PREDICTED BY IDOCK:   -0.20 KCAL/MOL
REMARK 927      BINDING AFFINITY PREDICTED BY RF-SCORE:    0.00 PKD
ROOT
HETATM    1  C   UNL     1     -11.924  12.907  67.106  1.00  0.00    -0.374 C  
HETATM    2  C   UNL     1     -11.211  11.580  67.056  1.00  0.00    -0.365 A  
HETATM    3  C   UNL     1     -10.493  11.250  65.891  1.00  0.00    -0.314 A  
HETATM    4  C   UNL     1      -9.810  10.036  65.784  1.00  0.00    -0.345 A  
HETATM    5  C   UNL     1      -9.843   9.139  66.839  1.00  0.00    -0.280 A  
HETATM    6  C   UNL     1     -10.557   9.449  67.996  1.00  0.00    -0.278 A  
HETATM    7  C   UNL     1     -11.247  10.665  68.126  1.00  0.00    -0.302 A  
ENDROOT
BRANCH   7   8
HETATM    8  O   UNL     1     -11.960  11.022  69.255  1.00  0.00    -0.321 OA 
BRANCH   8   9
HETATM    9  C   UNL     1     -11.718  10.196  70.399  1.00  0.00    -0.308 C  
BRANCH   9  10
HETATM   10  C   UNL     1     -12.950   9.998  71.285  1.00  0.00    -0.400 C  
HETATM   11  O   UNL     1     -14.017   9.481  70.470  1.00  0.00    -0.430 OA 
HETATM   12  H   UNL     1     -14.781   9.358  71.020  1.00  0.00     0.000 HD 
BRANCH  10  13
HETATM   13  C   UNL     1     -12.682   9.045  72.456  1.00  0.00    -0.303 C  
HETATM   14  O   UNL     1     -13.811   8.968  73.328  1.00  0.00    -1.159 OA 
HETATM   15  H   UNL     1     -13.646   8.378  74.054  1.00  0.00     0.000 HD 
ENDBRANCH  10  13
ENDBRANCH   9  10
ENDBRANCH   8   9
ENDBRANCH   7   8
TORSDOF 4
ENDMDL
MODEL       62
REMARK 921   NORMALIZED FREE ENERGY PREDICTED BY IDOCK:   -4.15 KCAL/MOL
REMARK 922        TOTAL FREE ENERGY PREDICTED BY IDOCK:   -5.38 KCAL/MOL
REMARK 923 INTER-LIGAND FREE ENERGY PREDICTED BY IDOCK:   -4.94 KCAL/MOL
REMARK 924 INTRA-LIGAND FREE ENERGY PREDICTED BY IDOCK:   -0.44 KCAL/MOL
REMARK 927      BINDING AFFINITY PREDICTED BY RF-SCORE:    0.00 PKD
ROOT
HETATM    1  C   UNL     1      -9.421   9.663  70.208  1.00  0.00    -0.300 C  
HETATM    2  C   UNL     1     -10.774   9.582  70.868  1.00  0.00    -0.403 A  
HETATM    3  C   UNL     1     -10.985   8.590  71.844  1.00  0.00    -0.394 A  
HETATM    4  C   UNL     1     -12.216   8.465  72.491  1.00  0.00    -0.381 A  
HETATM    5  C   UNL     1     -13.249   9.328  72.166  1.00  0.00    -0.535 A  
HETATM    6  C   UNL     1     -13.058  10.311  71.196  1.00  0.00    -0.481 A  
HETATM    7  C   UNL     1     -11.827  10.457  70.535  1.00  0.00    -0.337 A  
ENDROOT
BRANCH   7   8
HETATM    8  O   UNL     1     -11.585  11.419  69.574  1.00  0.00    -0.272 OA 
BRANCH   8   9
HETATM    9  C   UNL     1     -12.006  12.740  69.932  1.00  0.00    -0.298 C  
BRANCH   9  10
HETATM   10  C   UNL     1     -11.749  13.783  68.844  1.00  0.00    -0.336 C  
HETATM   11  O   UNL     1     -12.618  14.906  69.076  1.00  0.00    -0.566 OA 
HETATM   12  H   UNL     1     -12.458  15.554  68.400  1.00  0.00     0.000 HD 
BRANCH  10  13
HETATM   13  C   UNL     1     -10.290  14.252  68.815  1.00  0.00    -0.239 C  
HETATM   14  O   UNL     1      -9.392  13.143  68.756  1.00  0.00    -0.395 OA 
HETATM   15  H   UNL     1      -8.487  13.433  68.738  1.00  0.00     0.000 HD 
ENDBRANCH  10  13
ENDBRANCH   9  10
ENDBRANCH   8   9
ENDBRANCH   7   8
TORSDOF 4
ENDMDL
MODEL       63
REMARK 921   NORMALIZED FREE ENERGY PREDICTED BY IDOCK:   -4.15 KCAL/MOL
REMARK 922        TOTAL FREE ENERGY PREDICTED BY IDOCK:   -5.37 KCAL/MOL
REMARK 923 INTER-LIGAND FREE ENERGY PREDICTED BY IDOCK:   -4.95 KCAL/MOL
REMARK 924 INTRA-LIGAND FREE ENERGY PREDICTED BY IDOCK:   -0.43 KCAL/MOL
REMARK 927      BINDING AFFINITY PREDICTED BY RF-SCORE:    0.00 PKD
ROOT
HETATM    1  C   UNL     1     -11.815  13.874  68.499  1.00  0.00    -0.401 C  
HETATM    2  C   UNL     1     -11.658  13.757  67.004  1.00  0.00    -0.391 A  
HETATM    3  C   UNL     1     -12.027  12.548  66.385  1.00  0.00    -0.386 A  
HETATM    4  C   UNL     1     -11.906  12.379  65.004  1.00  0.00    -0.440 A  
HETATM    5  C   UNL     1     -11.410  13.415  64.230  1.00  0.00    -0.420 A  
HETATM    6  C   UNL     1     -11.033  14.616  64.831  1.00  0.00    -0.419 A  
HETATM    7  C   UNL     1     -11.151  14.808  66.217  1.00  0.00    -0.341 A  
ENDROOT
BRANCH   7   8
HETATM    8  O   UNL     1     -10.799  15.981  66.857  1.00  0.00    -0.296 OA 
BRANCH   8   9
HETATM    9  C   UNL     1      -9.388  16.198  66.973  1.00  0.00    -0.218 C  
BRANCH   9  10
HETATM   10  C   UNL     1      -8.962  17.637  66.676  1.00  0.00    -0.265 C  
HETATM   11  O   UNL     1      -7.937  17.608  65.667  1.00  0.00    -0.529 OA 
HETATM   12  H   UNL     1      -7.672  18.501  65.483  1.00  0.00     0.000 HD 
BRANCH  10  13
HETATM   13  C   UNL     1     -10.131  18.509  66.203  1.00  0.00    -0.368 C  
HETATM   14  O   UNL     1     -10.861  19.039  67.311  1.00  0.00    -0.472 OA 
HETATM   15  H   UNL     1     -11.586  19.579  67.019  1.00  0.00     0.000 HD 
ENDBRANCH  10  13
ENDBRANCH   9  10
ENDBRANCH   8   9
ENDBRANCH   7   8
TORSDOF 4
ENDMDL
MODEL       64
REMARK 921   NORMALIZED FREE ENERGY PREDICTED BY IDOCK:   -4.14 KCAL/MOL
REMARK 922        TOTAL FREE ENERGY PREDICTED BY IDOCK:   -5.36 KCAL/MOL
REMARK 923 INTER-LIGAND FREE ENERGY PREDICTED BY IDOCK:   -4.84 KCAL/MOL
REMARK 924 INTRA-LIGAND FREE ENERGY PREDICTED BY IDOCK:   -0.52 KCAL/MOL
REMARK 927      BINDING AFFINITY PREDICTED BY RF-SCORE:    0.00 PKD
ROOT
HETATM    1  C   UNL     1     -12.239  11.840  70.557  1.00  0.00    -0.438 C  
HETATM    2  C   UNL     1     -11.473  10.810  69.765  1.00  0.00    -0.386 A  
HETATM    3  C   UNL     1     -10.742   9.835  70.469  1.00  0.00    -0.381 A  
HETATM    4  C   UNL     1     -10.013   8.854  69.793  1.00  0.00    -0.196 A  
HETATM    5  C   UNL     1     -10.006   8.841  68.408  1.00  0.00    -0.200 A  
HETATM    6  C   UNL     1     -10.720   9.806  67.698  1.00  0.00    -0.334 A  
HETATM    7  C   UNL     1     -11.462  10.799  68.358  1.00  0.00    -0.288 A  
ENDROOT
BRANCH   7   8
HETATM    8  O   UNL     1     -12.192  11.771  67.699  1.00  0.00    -0.534 OA 
BRANCH   8   9
HETATM    9  C   UNL     1     -11.660  12.158  66.428  1.00  0.00    -0.364 C  
BRANCH   9  10
HETATM   10  C   UNL     1     -11.860  13.639  66.104  1.00  0.00    -0.392 C  
HETATM   11  O   UNL     1     -13.051  13.774  65.309  1.00  0.00    -0.756 OA 
HETATM   12  H   UNL     1     -13.176  14.694  65.107  1.00  0.00     0.000 HD 
BRANCH  10  13
HETATM   13  C   UNL     1     -11.975  14.505  67.364  1.00  0.00    -0.335 C  
HETATM   14  O   UNL     1     -10.858  14.304  68.232  1.00  0.00    -0.236 OA 
HETATM   15  H   UNL     1     -10.930  14.840  69.014  1.00  0.00     0.000 HD 
ENDBRANCH  10  13
ENDBRANCH   9  10
ENDBRANCH   8   9
ENDBRANCH   7   8
TORSDOF 4
ENDMDL
MODEL       65
REMARK 921   NORMALIZED FREE ENERGY PREDICTED BY IDOCK:   -4.14 KCAL/MOL
REMARK 922        TOTAL FREE ENERGY PREDICTED BY IDOCK:   -5.35 KCAL/MOL
REMARK 923 INTER-LIGAND FREE ENERGY PREDICTED BY IDOCK:   -5.16 KCAL/MOL
REMARK 924 INTRA-LIGAND FREE ENERGY PREDICTED BY IDOCK:   -0.19 KCAL/MOL
REMARK 927      BINDING AFFINITY PREDICTED BY RF-SCORE:    0.00 PKD
ROOT
HETATM    1  C   UNL     1     -11.688  12.175  69.620  1.00  0.00    -0.396 C  
HETATM    2  C   UNL     1     -12.406  13.179  70.486  1.00  0.00    -0.380 A  
HETATM    3  C   UNL     1     -13.040  12.721  71.656  1.00  0.00    -0.428 A  
HETATM    4  C   UNL     1     -13.721  13.601  72.500  1.00  0.00    -0.663 A  
HETATM    5  C   UNL     1     -13.778  14.948  72.179  1.00  0.00    -0.550 A  
HETATM    6  C   UNL     1     -13.161  15.415  71.018  1.00  0.00    -0.565 A  
HETATM    7  C   UNL     1     -12.468  14.547  70.158  1.00  0.00    -0.321 A  
ENDROOT
BRANCH   7   8
HETATM    8  O   UNL     1     -11.834  14.962  69.003  1.00  0.00    -0.302 OA 
BRANCH   8   9
HETATM    9  C   UNL     1     -10.700  15.810  69.216  1.00  0.00    -0.246 C  
BRANCH   9  10
HETATM   10  C   UNL     1     -10.203  16.501  67.945  1.00  0.00    -0.273 C  
HETATM   11  O   UNL     1     -10.742  15.804  66.808  1.00  0.00    -0.315 OA 
HETATM   12  H   UNL     1     -10.433  16.233  66.019  1.00  0.00     0.000 HD 
BRANCH  10  13
HETATM   13  C   UNL     1     -10.607  17.979  67.887  1.00  0.00    -0.372 C  
HETATM   14  O   UNL     1      -9.731  18.786  68.677  1.00  0.00    -0.354 OA 
HETATM   15  H   UNL     1      -9.981  19.702  68.641  1.00  0.00     0.000 HD 
ENDBRANCH  10  13
ENDBRANCH   9  10
ENDBRANCH   8   9
ENDBRANCH   7   8
TORSDOF 4
ENDMDL
MODEL       66
REMARK 921   NORMALIZED FREE ENERGY PREDICTED BY IDOCK:   -4.11 KCAL/MOL
REMARK 922        TOTAL FREE ENERGY PREDICTED BY IDOCK:   -5.32 KCAL/MOL
REMARK 923 INTER-LIGAND FREE ENERGY PREDICTED BY IDOCK:   -5.14 KCAL/MOL
REMARK 924 INTRA-LIGAND FREE ENERGY PREDICTED BY IDOCK:   -0.18 KCAL/MOL
REMARK 927      BINDING AFFINITY PREDICTED BY RF-SCORE:    0.00 PKD
ROOT
HETATM    1  C   UNL     1     -12.883  14.081  65.498  1.00  0.00    -0.453 C  
HETATM    2  C   UNL     1     -11.907  12.961  65.240  1.00  0.00    -0.429 A  
HETATM    3  C   UNL     1     -11.369  12.828  63.947  1.00  0.00    -0.498 A  
HETATM    4  C   UNL     1     -10.459  11.812  63.646  1.00  0.00    -0.490 A  
HETATM    5  C   UNL     1     -10.084  10.916  64.634  1.00  0.00    -0.391 A  
HETATM    6  C   UNL     1     -10.615  11.032  65.918  1.00  0.00    -0.270 A  
HETATM    7  C   UNL     1     -11.528  12.048  66.243  1.00  0.00    -0.345 A  
ENDROOT
BRANCH   7   8
HETATM    8  O   UNL     1     -12.076  12.209  67.501  1.00  0.00    -0.534 OA 
BRANCH   8   9
HETATM    9  C   UNL     1     -11.145  12.067  68.580  1.00  0.00    -0.250 C  
BRANCH   9  10
HETATM   10  C   UNL     1     -11.422  10.858  69.476  1.00  0.00    -0.301 C  
HETATM   11  O   UNL     1     -10.169  10.379  69.994  1.00  0.00    -0.407 OA 
HETATM   12  H   UNL     1     -10.341   9.629  70.550  1.00  0.00     0.000 HD 
BRANCH  10  13
HETATM   13  C   UNL     1     -12.370  11.193  70.634  1.00  0.00    -0.388 C  
HETATM   14  O   UNL     1     -12.349  10.168  71.630  1.00  0.00    -0.387 OA 
HETATM   15  H   UNL     1     -12.937  10.375  72.348  1.00  0.00     0.000 HD 
ENDBRANCH  10  13
ENDBRANCH   9  10
ENDBRANCH   8   9
ENDBRANCH   7   8
TORSDOF 4
ENDMDL
MODEL       67
REMARK 921   NORMALIZED FREE ENERGY PREDICTED BY IDOCK:   -4.11 KCAL/MOL
REMARK 922        TOTAL FREE ENERGY PREDICTED BY IDOCK:   -5.32 KCAL/MOL
REMARK 923 INTER-LIGAND FREE ENERGY PREDICTED BY IDOCK:   -4.89 KCAL/MOL
REMARK 924 INTRA-LIGAND FREE ENERGY PREDICTED BY IDOCK:   -0.43 KCAL/MOL
REMARK 927      BINDING AFFINITY PREDICTED BY RF-SCORE:    0.00 PKD
ROOT
HETATM    1  C   UNL     1     -11.769  15.316  69.013  1.00  0.00    -0.368 C  
HETATM    2  C   UNL     1     -10.972  16.394  68.324  1.00  0.00    -0.355 A  
HETATM    3  C   UNL     1     -10.625  17.543  69.059  1.00  0.00    -0.146 A  
HETATM    4  C   UNL     1      -9.887  18.576  68.476  1.00  0.00    -0.414 A  
HETATM    5  C   UNL     1      -9.493  18.472  67.152  1.00  0.00    -0.294 A  
HETATM    6  C   UNL     1      -9.837  17.342  66.409  1.00  0.00    -0.311 A  
HETATM    7  C   UNL     1     -10.575  16.290  66.977  1.00  0.00    -0.284 A  
ENDROOT
BRANCH   7   8
HETATM    8  O   UNL     1     -10.932  15.148  66.285  1.00  0.00    -0.337 OA 
BRANCH   8   9
HETATM    9  C   UNL     1      -9.899  14.605  65.456  1.00  0.00    -0.292 C  
BRANCH   9  10
HETATM   10  C   UNL     1     -10.414  13.642  64.385  1.00  0.00    -0.300 C  
HETATM   11  O   UNL     1     -10.013  12.308  64.743  1.00  0.00    -0.365 OA 
HETATM   12  H   UNL     1     -10.333  11.710  64.078  1.00  0.00     0.000 HD 
BRANCH  10  13
HETATM   13  C   UNL     1     -11.938  13.702  64.227  1.00  0.00    -0.445 C  
HETATM   14  O   UNL     1     -12.371  15.021  63.888  1.00  0.00    -0.977 OA 
HETATM   15  H   UNL     1     -13.315  15.059  63.791  1.00  0.00     0.000 HD 
ENDBRANCH  10  13
ENDBRANCH   9  10
ENDBRANCH   8   9
ENDBRANCH   7   8
TORSDOF 4
ENDMDL
MODEL       68
REMARK 921   NORMALIZED FREE ENERGY PREDICTED BY IDOCK:   -4.10 KCAL/MOL
REMARK 922        TOTAL FREE ENERGY PREDICTED BY IDOCK:   -5.30 KCAL/MOL
REMARK 923 INTER-LIGAND FREE ENERGY PREDICTED BY IDOCK:   -4.94 KCAL/MOL
REMARK 924 INTRA-LIGAND FREE ENERGY PREDICTED BY IDOCK:   -0.37 KCAL/MOL
REMARK 927      BINDING AFFINITY PREDICTED BY RF-SCORE:    0.00 PKD
ROOT
HETATM    1  C   UNL     1      -7.340  17.318  68.888  1.00  0.00    -0.243 C  
HETATM    2  C   UNL     1      -8.300  18.288  68.249  1.00  0.00    -0.316 A  
HETATM    3  C   UNL     1      -7.772  19.399  67.563  1.00  0.00    -0.289 A  
HETATM    4  C   UNL     1      -8.610  20.332  66.949  1.00  0.00    -0.370 A  
HETATM    5  C   UNL     1      -9.984  20.167  67.018  1.00  0.00    -0.596 A  
HETATM    6  C   UNL     1     -10.521  19.075  67.701  1.00  0.00    -0.523 A  
HETATM    7  C   UNL     1      -9.696  18.123  68.322  1.00  0.00    -0.337 A  
ENDROOT
BRANCH   7   8
HETATM    8  O   UNL     1     -10.180  17.022  69.002  1.00  0.00    -0.290 OA 
BRANCH   8   9
HETATM    9  C   UNL     1     -10.917  16.097  68.193  1.00  0.00    -0.341 C  
BRANCH   9  10
HETATM   10  C   UNL     1     -10.837  14.651  68.686  1.00  0.00    -0.255 C  
HETATM   11  O   UNL     1      -9.612  14.489  69.423  1.00  0.00    -0.411 OA 
HETATM   12  H   UNL     1      -9.563  13.592  69.729  1.00  0.00     0.000 HD 
BRANCH  10  13
HETATM   13  C   UNL     1     -12.030  14.267  69.570  1.00  0.00    -0.336 C  
HETATM   14  O   UNL     1     -12.906  15.379  69.767  1.00  0.00    -0.628 OA 
HETATM   15  H   UNL     1     -13.645  15.141  70.315  1.00  0.00     0.000 HD 
ENDBRANCH  10  13
ENDBRANCH   9  10
ENDBRANCH   8   9
ENDBRANCH   7   8
TORSDOF 4
ENDMDL
MODEL       69
REMARK 921   NORMALIZED FREE ENERGY PREDICTED BY IDOCK:   -4.09 KCAL/MOL
REMARK 922        TOTAL FREE ENERGY PREDICTED BY IDOCK:   -5.30 KCAL/MOL
REMARK 923 INTER-LIGAND FREE ENERGY PREDICTED BY IDOCK:   -5.11 KCAL/MOL
REMARK 924 INTRA-LIGAND FREE ENERGY PREDICTED BY IDOCK:   -0.19 KCAL/MOL
REMARK 927      BINDING AFFINITY PREDICTED BY RF-SCORE:    0.00 PKD
ROOT
HETATM    1  C   UNL     1     -10.863  15.349  65.268  1.00  0.00    -0.423 C  
HETATM    2  C   UNL     1     -11.223  14.832  66.638  1.00  0.00    -0.346 A  
HETATM    3  C   UNL     1     -11.495  13.459  66.784  1.00  0.00    -0.376 A  
HETATM    4  C   UNL     1     -11.833  12.919  68.027  1.00  0.00    -0.390 A  
HETATM    5  C   UNL     1     -11.907  13.747  69.134  1.00  0.00    -0.398 A  
HETATM    6  C   UNL     1     -11.648  15.112  69.003  1.00  0.00    -0.350 A  
HETATM    7  C   UNL     1     -11.302  15.674  67.763  1.00  0.00    -0.261 A  
ENDROOT
BRANCH   7   8
HETATM    8  O   UNL     1     -11.028  17.017  67.584  1.00  0.00    -0.290 OA 
BRANCH   8   9
HETATM    9  C   UNL     1     -10.146  17.582  68.561  1.00  0.00    -0.363 C  
BRANCH   9  10
HETATM   10  C   UNL     1     -10.013  19.102  68.461  1.00  0.00    -0.425 C  
HETATM   11  O   UNL     1      -8.671  19.466  68.831  1.00  0.00    -0.365 OA 
HETATM   12  H   UNL     1      -8.588  20.410  68.769  1.00  0.00     0.000 HD 
BRANCH  10  13
HETATM   13  C   UNL     1     -10.325  19.627  67.055  1.00  0.00    -0.460 C  
HETATM   14  O   UNL     1      -9.783  20.935  66.859  1.00  0.00    -0.664 OA 
HETATM   15  H   UNL     1      -9.976  21.260  65.988  1.00  0.00     0.000 HD 
ENDBRANCH  10  13
ENDBRANCH   9  10
ENDBRANCH   8   9
ENDBRANCH   7   8
TORSDOF 4
ENDMDL
MODEL       70
REMARK 921   NORMALIZED FREE ENERGY PREDICTED BY IDOCK:   -4.01 KCAL/MOL
REMARK 922        TOTAL FREE ENERGY PREDICTED BY IDOCK:   -5.20 KCAL/MOL
REMARK 923 INTER-LIGAND FREE ENERGY PREDICTED BY IDOCK:   -4.72 KCAL/MOL
REMARK 924 INTRA-LIGAND FREE ENERGY PREDICTED BY IDOCK:   -0.49 KCAL/MOL
REMARK 927      BINDING AFFINITY PREDICTED BY RF-SCORE:    0.00 PKD
ROOT
HETATM    1  C   UNL     1      -9.906   9.216  68.625  1.00  0.00    -0.175 C  
HETATM    2  C   UNL     1     -10.864   9.995  69.490  1.00  0.00    -0.283 A  
HETATM    3  C   UNL     1     -11.411   9.360  70.621  1.00  0.00    -0.352 A  
HETATM    4  C   UNL     1     -12.303  10.029  71.462  1.00  0.00    -0.513 A  
HETATM    5  C   UNL     1     -12.662  11.336  71.176  1.00  0.00    -0.492 A  
HETATM    6  C   UNL     1     -12.134  11.975  70.054  1.00  0.00    -0.355 A  
HETATM    7  C   UNL     1     -11.232  11.322  69.198  1.00  0.00    -0.273 A  
ENDROOT
BRANCH   7   8
HETATM    8  O   UNL     1     -10.676  11.914  68.080  1.00  0.00    -0.198 OA 
BRANCH   8   9
HETATM    9  C   UNL     1     -11.614  12.246  67.051  1.00  0.00    -0.349 C  
BRANCH   9  10
HETATM   10  C   UNL     1     -11.575  13.717  66.634  1.00  0.00    -0.364 C  
HETATM   11  O   UNL     1     -12.519  14.443  67.441  1.00  0.00    -0.603 OA 
HETATM   12  H   UNL     1     -12.495  15.357  67.182  1.00  0.00     0.000 HD 
BRANCH  10  13
HETATM   13  C   UNL     1     -10.179  14.332  66.788  1.00  0.00    -0.272 C  
HETATM   14  O   UNL     1      -9.220  13.644  65.983  1.00  0.00    -0.489 OA 
HETATM   15  H   UNL     1      -8.354  14.025  66.078  1.00  0.00     0.000 HD 
ENDBRANCH  10  13
ENDBRANCH   9  10
ENDBRANCH   8   9
ENDBRANCH   7   8
TORSDOF 4
ENDMDL
MODEL       71
REMARK 921   NORMALIZED FREE ENERGY PREDICTED BY IDOCK:   -3.99 KCAL/MOL
REMARK 922        TOTAL FREE ENERGY PREDICTED BY IDOCK:   -5.18 KCAL/MOL
REMARK 923 INTER-LIGAND FREE ENERGY PREDICTED BY IDOCK:   -4.88 KCAL/MOL
REMARK 924 INTRA-LIGAND FREE ENERGY PREDICTED BY IDOCK:   -0.30 KCAL/MOL
REMARK 927      BINDING AFFINITY PREDICTED BY RF-SCORE:    0.00 PKD
ROOT
HETATM    1  C   UNL     1     -10.337  11.124  67.029  1.00  0.00    -0.263 C  
HETATM    2  C   UNL     1     -10.999  11.868  65.897  1.00  0.00    -0.354 A  
HETATM    3  C   UNL     1     -10.741  11.447  64.579  1.00  0.00    -0.391 A  
HETATM    4  C   UNL     1     -11.325  12.095  63.488  1.00  0.00    -0.535 A  
HETATM    5  C   UNL     1     -12.168  13.172  63.705  1.00  0.00    -0.528 A  
HETATM    6  C   UNL     1     -12.426  13.605  65.005  1.00  0.00    -0.454 A  
HETATM    7  C   UNL     1     -11.853  12.965  66.117  1.00  0.00    -0.429 A  
ENDROOT
BRANCH   7   8
HETATM    8  O   UNL     1     -12.084  13.351  67.423  1.00  0.00    -0.355 OA 
BRANCH   8   9
HETATM    9  C   UNL     1     -11.605  14.659  67.753  1.00  0.00    -0.359 C  
BRANCH   9  10
HETATM   10  C   UNL     1     -10.238  14.658  68.439  1.00  0.00    -0.235 C  
HETATM   11  O   UNL     1      -9.261  15.155  67.507  1.00  0.00    -0.183 OA 
HETATM   12  H   UNL     1      -8.413  15.154  67.933  1.00  0.00     0.000 HD 
BRANCH  10  13
HETATM   13  C   UNL     1     -10.222  15.511  69.713  1.00  0.00    -0.294 C  
HETATM   14  O   UNL     1     -10.928  14.866  70.776  1.00  0.00    -0.495 OA 
HETATM   15  H   UNL     1     -10.918  15.395  71.565  1.00  0.00     0.000 HD 
ENDBRANCH  10  13
ENDBRANCH   9  10
ENDBRANCH   8   9
ENDBRANCH   7   8
TORSDOF 4
ENDMDL
MODEL       72
REMARK 921   NORMALIZED FREE ENERGY PREDICTED BY IDOCK:   -3.98 KCAL/MOL
REMARK 922        TOTAL FREE ENERGY PREDICTED BY IDOCK:   -5.17 KCAL/MOL
REMARK 923 INTER-LIGAND FREE ENERGY PREDICTED BY IDOCK:   -4.70 KCAL/MOL
REMARK 924 INTRA-LIGAND FREE ENERGY PREDICTED BY IDOCK:   -0.47 KCAL/MOL
REMARK 927      BINDING AFFINITY PREDICTED BY RF-SCORE:    0.00 PKD
ROOT
HETATM    1  C   UNL     1     -12.490  12.310  64.419  1.00  0.00    -0.484 C  
HETATM    2  C   UNL     1     -11.594  13.390  64.971  1.00  0.00    -0.339 A  
HETATM    3  C   UNL     1     -11.733  14.697  64.468  1.00  0.00    -0.410 A  
HETATM    4  C   UNL     1     -10.933  15.740  64.940  1.00  0.00    -0.443 A  
HETATM    5  C   UNL     1      -9.983  15.485  65.916  1.00  0.00    -0.377 A  
HETATM    6  C   UNL     1      -9.830  14.193  66.418  1.00  0.00    -0.308 A  
HETATM    7  C   UNL     1     -10.626  13.131  65.960  1.00  0.00    -0.281 A  
ENDROOT
BRANCH   7   8
HETATM    8  O   UNL     1     -10.517  11.836  66.432  1.00  0.00    -0.222 OA 
BRANCH   8   9
HETATM    9  C   UNL     1      -9.441  11.625  67.353  1.00  0.00    -0.167 C  
BRANCH   9  10
HETATM   10  C   UNL     1      -9.845  10.832  68.597  1.00  0.00    -0.184 C  
HETATM   11  O   UNL     1      -8.799  10.962  69.577  1.00  0.00    -0.391 OA 
HETATM   12  H   UNL     1      -9.050  10.469  70.350  1.00  0.00     0.000 HD 
BRANCH  10  13
HETATM   13  C   UNL     1     -11.175  11.310  69.191  1.00  0.00    -0.273 C  
HETATM   14  O   UNL     1     -12.285  10.739  68.496  1.00  0.00    -0.824 OA 
HETATM   15  H   UNL     1     -13.110  11.035  68.863  1.00  0.00     0.000 HD 
ENDBRANCH  10  13
ENDBRANCH   9  10
ENDBRANCH   8   9
ENDBRANCH   7   8
TORSDOF 4
ENDMDL
MODEL       73
REMARK 921   NORMALIZED FREE ENERGY PREDICTED BY IDOCK:   -3.98 KCAL/MOL
REMARK 922        TOTAL FREE ENERGY PREDICTED BY IDOCK:   -5.16 KCAL/MOL
REMARK 923 INTER-LIGAND FREE ENERGY PREDICTED BY IDOCK:   -4.90 KCAL/MOL
REMARK 924 INTRA-LIGAND FREE ENERGY PREDICTED BY IDOCK:   -0.26 KCAL/MOL
REMARK 927      BINDING AFFINITY PREDICTED BY RF-SCORE:    0.00 PKD
ROOT
HETATM    1  C   UNL     1     -12.371  14.221  64.217  1.00  0.00    -0.407 C  
HETATM    2  C   UNL     1     -11.599  12.995  64.635  1.00  0.00    -0.389 A  
HETATM    3  C   UNL     1     -11.134  12.123  63.632  1.00  0.00    -0.528 A  
HETATM    4  C   UNL     1     -10.412  10.972  63.955  1.00  0.00    -0.433 A  
HETATM    5  C   UNL     1     -10.153  10.680  65.284  1.00  0.00    -0.363 A  
HETATM    6  C   UNL     1     -10.613  11.530  66.288  1.00  0.00    -0.309 A  
HETATM    7  C   UNL     1     -11.337  12.695  65.985  1.00  0.00    -0.327 A  
ENDROOT
BRANCH   7   8
HETATM    8  O   UNL     1     -11.808  13.573  66.943  1.00  0.00    -0.366 OA 
BRANCH   8   9
HETATM    9  C   UNL     1     -10.802  14.396  67.544  1.00  0.00    -0.282 C  
BRANCH   9  10
HETATM   10  C   UNL     1     -10.773  15.826  67.001  1.00  0.00    -0.306 C  
HETATM   11  O   UNL     1     -10.841  16.735  68.113  1.00  0.00    -0.350 OA 
HETATM   12  H   UNL     1     -10.824  17.623  67.777  1.00  0.00     0.000 HD 
BRANCH  10  13
HETATM   13  C   UNL     1      -9.517  16.112  66.171  1.00  0.00    -0.327 C  
HETATM   14  O   UNL     1      -9.379  17.510  65.908  1.00  0.00    -0.516 OA 
HETATM   15  H   UNL     1      -8.600  17.688  65.394  1.00  0.00     0.000 HD 
ENDBRANCH  10  13
ENDBRANCH   9  10
ENDBRANCH   8   9
ENDBRANCH   7   8
TORSDOF 4
ENDMDL
MODEL       74
REMARK 921   NORMALIZED FREE ENERGY PREDICTED BY IDOCK:   -3.97 KCAL/MOL
REMARK 922        TOTAL FREE ENERGY PREDICTED BY IDOCK:   -5.15 KCAL/MOL
REMARK 923 INTER-LIGAND FREE ENERGY PREDICTED BY IDOCK:   -4.72 KCAL/MOL
REMARK 924 INTRA-LIGAND FREE ENERGY PREDICTED BY IDOCK:   -0.43 KCAL/MOL
REMARK 927      BINDING AFFINITY PREDICTED BY RF-SCORE:    0.00 PKD
ROOT
HETATM    1  C   UNL     1     -10.955   6.001  68.817  1.00  0.00    -0.384 C  
HETATM    2  C   UNL     1     -10.904   6.379  70.275  1.00  0.00    -0.350 A  
HETATM    3  C   UNL     1     -10.762   5.353  71.228  1.00  0.00    -0.249 A  
HETATM    4  C   UNL     1     -10.707   5.639  72.593  1.00  0.00    -0.285 A  
HETATM    5  C   UNL     1     -10.800   6.954  73.020  1.00  0.00    -0.328 A  
HETATM    6  C   UNL     1     -10.949   7.980  72.088  1.00  0.00    -0.357 A  
HETATM    7  C   UNL     1     -11.002   7.715  70.710  1.00  0.00    -0.252 A  
ENDROOT
BRANCH   7   8
HETATM    8  O   UNL     1     -11.141   8.697  69.748  1.00  0.00    -0.190 OA 
BRANCH   8   9
HETATM    9  C   UNL     1     -10.655   9.987  70.137  1.00  0.00    -0.296 C  
BRANCH   9  10
HETATM   10  C   UNL     1     -11.717  11.086  70.083  1.00  0.00    -0.356 C  
HETATM   11  O   UNL     1     -12.363  11.031  68.798  1.00  0.00    -0.730 OA 
HETATM   12  H   UNL     1     -13.022  11.713  68.764  1.00  0.00     0.000 HD 
BRANCH  10  13
HETATM   13  C   UNL     1     -12.762  10.946  71.196  1.00  0.00    -0.429 C  
HETATM   14  O   UNL     1     -13.642   9.849  70.944  1.00  0.00    -0.516 OA 
HETATM   15  H   UNL     1     -14.290   9.763  71.634  1.00  0.00     0.000 HD 
ENDBRANCH  10  13
ENDBRANCH   9  10
ENDBRANCH   8   9
ENDBRANCH   7   8
TORSDOF 4
ENDMDL
MODEL       75
REMARK 921   NORMALIZED FREE ENERGY PREDICTED BY IDOCK:   -3.96 KCAL/MOL
REMARK 922        TOTAL FREE ENERGY PREDICTED BY IDOCK:   -5.14 KCAL/MOL
REMARK 923 INTER-LIGAND FREE ENERGY PREDICTED BY IDOCK:   -4.76 KCAL/MOL
REMARK 924 INTRA-LIGAND FREE ENERGY PREDICTED BY IDOCK:   -0.38 KCAL/MOL
REMARK 927      BINDING AFFINITY PREDICTED BY RF-SCORE:    0.00 PKD
ROOT
HETATM    1  C   UNL     1     -11.451  12.165  66.695  1.00  0.00    -0.426 C  
HETATM    2  C   UNL     1     -11.772  12.333  68.159  1.00  0.00    -0.408 A  
HETATM    3  C   UNL     1     -11.883  11.178  68.956  1.00  0.00    -0.418 A  
HETATM    4  C   UNL     1     -12.177  11.268  70.318  1.00  0.00    -0.428 A  
HETATM    5  C   UNL     1     -12.367  12.513  70.895  1.00  0.00    -0.349 A  
HETATM    6  C   UNL     1     -12.267  13.666  70.116  1.00  0.00    -0.413 A  
HETATM    7  C   UNL     1     -11.969  13.598  68.745  1.00  0.00    -0.359 A  
ENDROOT
BRANCH   7   8
HETATM    8  O   UNL     1     -11.851  14.710  67.934  1.00  0.00    -0.348 OA 
BRANCH   8   9
HETATM    9  C   UNL     1     -10.667  15.485  68.151  1.00  0.00    -0.282 C  
BRANCH   9  10
HETATM   10  C   UNL     1     -10.472  16.607  67.130  1.00  0.00    -0.300 C  
HETATM   11  O   UNL     1      -9.673  17.639  67.735  1.00  0.00    -0.267 OA 
HETATM   12  H   UNL     1      -9.552  18.336  67.102  1.00  0.00     0.000 HD 
BRANCH  10  13
HETATM   13  C   UNL     1      -9.798  16.117  65.843  1.00  0.00    -0.353 C  
HETATM   14  O   UNL     1      -9.352  14.766  65.976  1.00  0.00    -0.416 OA 
HETATM   15  H   UNL     1      -8.934  14.462  65.178  1.00  0.00     0.000 HD 
ENDBRANCH  10  13
ENDBRANCH   9  10
ENDBRANCH   8   9
ENDBRANCH   7   8
TORSDOF 4
ENDMDL
MODEL       76
REMARK 921   NORMALIZED FREE ENERGY PREDICTED BY IDOCK:   -3.96 KCAL/MOL
REMARK 922        TOTAL FREE ENERGY PREDICTED BY IDOCK:   -5.13 KCAL/MOL
REMARK 923 INTER-LIGAND FREE ENERGY PREDICTED BY IDOCK:   -4.86 KCAL/MOL
REMARK 924 INTRA-LIGAND FREE ENERGY PREDICTED BY IDOCK:   -0.28 KCAL/MOL
REMARK 927      BINDING AFFINITY PREDICTED BY RF-SCORE:    0.00 PKD
ROOT
HETATM    1  C   UNL     1     -11.811  13.960  66.770  1.00  0.00    -0.452 C  
HETATM    2  C   UNL     1     -11.667  14.558  68.146  1.00  0.00    -0.369 A  
HETATM    3  C   UNL     1     -12.062  13.787  69.256  1.00  0.00    -0.374 A  
HETATM    4  C   UNL     1     -11.953  14.285  70.556  1.00  0.00    -0.402 A  
HETATM    5  C   UNL     1     -11.452  15.561  70.759  1.00  0.00    -0.396 A  
HETATM    6  C   UNL     1     -11.064  16.339  69.668  1.00  0.00    -0.333 A  
HETATM    7  C   UNL     1     -11.162  15.856  68.353  1.00  0.00    -0.368 A  
ENDROOT
BRANCH   7   8
HETATM    8  O   UNL     1     -10.784  16.585  67.242  1.00  0.00    -0.313 OA 
BRANCH   8   9
HETATM    9  C   UNL     1      -9.493  17.197  67.340  1.00  0.00    -0.247 C  
BRANCH   9  10
HETATM   10  C   UNL     1      -9.334  18.440  66.464  1.00  0.00    -0.309 C  
HETATM   11  O   UNL     1     -10.456  18.510  65.567  1.00  0.00    -0.597 OA 
HETATM   12  H   UNL     1     -10.358  19.282  65.022  1.00  0.00     0.000 HD 
BRANCH  10  13
HETATM   13  C   UNL     1      -9.247  19.730  67.288  1.00  0.00    -0.341 C  
HETATM   14  O   UNL     1      -9.226  19.448  68.689  1.00  0.00    -0.360 OA 
HETATM   15  H   UNL     1      -9.172  20.248  69.200  1.00  0.00     0.000 HD 
ENDBRANCH  10  13
ENDBRANCH   9  10
ENDBRANCH   8   9
ENDBRANCH   7   8
TORSDOF 4
ENDMDL
MODEL       77
REMARK 921   NORMALIZED FREE ENERGY PREDICTED BY IDOCK:   -3.94 KCAL/MOL
REMARK 922        TOTAL FREE ENERGY PREDICTED BY IDOCK:   -5.12 KCAL/MOL
REMARK 923 INTER-LIGAND FREE ENERGY PREDICTED BY IDOCK:   -5.03 KCAL/MOL
REMARK 924 INTRA-LIGAND FREE ENERGY PREDICTED BY IDOCK:   -0.09 KCAL/MOL
REMARK 927      BINDING AFFINITY PREDICTED BY RF-SCORE:    0.00 PKD
ROOT
HETATM    1  C   UNL     1     -10.134   8.646  69.602  1.00  0.00    -0.201 C  
HETATM    2  C   UNL     1     -10.406   9.611  68.476  1.00  0.00    -0.231 A  
HETATM    3  C   UNL     1      -9.997   9.256  67.177  1.00  0.00    -0.276 A  
HETATM    4  C   UNL     1     -10.221  10.106  66.093  1.00  0.00    -0.285 A  
HETATM    5  C   UNL     1     -10.853  11.322  66.297  1.00  0.00    -0.296 A  
HETATM    6  C   UNL     1     -11.257  11.690  67.580  1.00  0.00    -0.345 A  
HETATM    7  C   UNL     1     -11.045  10.848  68.684  1.00  0.00    -0.252 A  
ENDROOT
BRANCH   7   8
HETATM    8  O   UNL     1     -11.434  11.165  69.972  1.00  0.00    -0.285 OA 
BRANCH   8   9
HETATM    9  C   UNL     1     -12.772  10.778  70.303  1.00  0.00    -0.216 C  
BRANCH   9  10
HETATM   10  C   UNL     1     -12.967  10.446  71.783  1.00  0.00    -0.475 C  
HETATM   11  O   UNL     1     -13.459  11.620  72.452  1.00  0.00    -0.602 OA 
HETATM   12  H   UNL     1     -13.580  11.414  73.371  1.00  0.00     0.000 HD 
BRANCH  10  13
HETATM   13  C   UNL     1     -13.939   9.279  71.998  1.00  0.00    -0.327 C  
HETATM   14  O   UNL     1     -13.967   8.877  73.369  1.00  0.00    -1.236 OA 
HETATM   15  H   UNL     1     -14.569   8.154  73.503  1.00  0.00     0.000 HD 
ENDBRANCH  10  13
ENDBRANCH   9  10
ENDBRANCH   8   9
ENDBRANCH   7   8
TORSDOF 4
ENDMDL
MODEL       78
REMARK 921   NORMALIZED FREE ENERGY PREDICTED BY IDOCK:   -3.94 KCAL/MOL
REMARK 922        TOTAL FREE ENERGY PREDICTED BY IDOCK:   -5.12 KCAL/MOL
REMARK 923 INTER-LIGAND FREE ENERGY PREDICTED BY IDOCK:   -4.74 KCAL/MOL
REMARK 924 INTRA-LIGAND FREE ENERGY PREDICTED BY IDOCK:   -0.38 KCAL/MOL
REMARK 927      BINDING AFFINITY PREDICTED BY RF-SCORE:    0.00 PKD
ROOT
HETATM    1  C   UNL     1     -10.069   8.282  69.115  1.00  0.00    -0.205 C  
HETATM    2  C   UNL     1     -10.651   9.634  68.791  1.00  0.00    -0.242 A  
HETATM    3  C   UNL     1     -10.621  10.072  67.453  1.00  0.00    -0.330 A  
HETATM    4  C   UNL     1     -11.145  11.314  67.090  1.00  0.00    -0.364 A  
HETATM    5  C   UNL     1     -11.700  12.132  68.060  1.00  0.00    -0.409 A  
HETATM    6  C   UNL     1     -11.729  11.715  69.390  1.00  0.00    -0.405 A  
HETATM    7  C   UNL     1     -11.212  10.468  69.777  1.00  0.00    -0.298 A  
ENDROOT
BRANCH   7   8
HETATM    8  O   UNL     1     -11.225  10.006  71.080  1.00  0.00    -0.341 OA 
BRANCH   8   9
HETATM    9  C   UNL     1     -12.529   9.719  71.598  1.00  0.00    -0.410 C  
BRANCH   9  10
HETATM   10  C   UNL     1     -12.725   8.253  71.989  1.00  0.00    -0.342 C  
HETATM   11  O   UNL     1     -13.109   7.517  70.815  1.00  0.00    -0.579 OA 
HETATM   12  H   UNL     1     -13.231   6.607  71.058  1.00  0.00     0.000 HD 
BRANCH  10  13
HETATM   13  C   UNL     1     -11.461   7.636  72.599  1.00  0.00    -0.349 C  
HETATM   14  O   UNL     1     -11.638   6.241  72.853  1.00  0.00    -0.466 OA 
HETATM   15  H   UNL     1     -10.855   5.858  73.231  1.00  0.00     0.000 HD 
ENDBRANCH  10  13
ENDBRANCH   9  10
ENDBRANCH   8   9
ENDBRANCH   7   8
TORSDOF 4
ENDMDL
MODEL       79
REMARK 921   NORMALIZED FREE ENERGY PREDICTED BY IDOCK:   -3.94 KCAL/MOL
REMARK 922        TOTAL FREE ENERGY PREDICTED BY IDOCK:   -5.11 KCAL/MOL
REMARK 923 INTER-LIGAND FREE ENERGY PREDICTED BY IDOCK:   -4.83 KCAL/MOL
REMARK 924 INTRA-LIGAND FREE ENERGY PREDICTED BY IDOCK:   -0.28 KCAL/MOL
REMARK 927      BINDING AFFINITY PREDICTED BY RF-SCORE:    0.00 PKD
ROOT
HETATM    1  C   UNL     1     -11.223   4.684  73.393  1.00  0.00    -0.423 C  
HETATM    2  C   UNL     1     -10.359   5.905  73.211  1.00  0.00    -0.234 A  
HETATM    3  C   UNL     1      -8.975   5.785  73.437  1.00  0.00    -0.126 A  
HETATM    4  C   UNL     1      -8.121   6.879  73.284  1.00  0.00    -0.113 A  
HETATM    5  C   UNL     1      -8.644   8.106  72.909  1.00  0.00    -0.269 A  
HETATM    6  C   UNL     1     -10.014   8.242  72.689  1.00  0.00    -0.357 A  
HETATM    7  C   UNL     1     -10.890   7.153  72.833  1.00  0.00    -0.323 A  
ENDROOT
BRANCH   7   8
HETATM    8  O   UNL     1     -12.252   7.236  72.618  1.00  0.00    -0.050 OA 
BRANCH   8   9
HETATM    9  C   UNL     1     -12.632   8.035  71.493  1.00  0.00    -0.312 C  
BRANCH   9  10
HETATM   10  C   UNL     1     -13.496   9.243  71.861  1.00  0.00    -0.430 C  
HETATM   11  O   UNL     1     -13.814   9.164  73.262  1.00  0.00    -1.118 OA 
HETATM   12  H   UNL     1     -14.351   9.913  73.490  1.00  0.00     0.000 HD 
BRANCH  10  13
HETATM   13  C   UNL     1     -12.799  10.575  71.561  1.00  0.00    -0.463 C  
HETATM   14  O   UNL     1     -13.418  11.652  72.268  1.00  0.00    -0.610 OA 
HETATM   15  H   UNL     1     -12.986  12.478  72.082  1.00  0.00     0.000 HD 
ENDBRANCH  10  13
ENDBRANCH   9  10
ENDBRANCH   8   9
ENDBRANCH   7   8
TORSDOF 4
ENDMDL
MODEL       80
REMARK 921   NORMALIZED FREE ENERGY PREDICTED BY IDOCK:   -3.91 KCAL/MOL
REMARK 922        TOTAL FREE ENERGY PREDICTED BY IDOCK:   -5.07 KCAL/MOL
REMARK 923 INTER-LIGAND FREE ENERGY PREDICTED BY IDOCK:   -5.33 KCAL/MOL
REMARK 924 INTRA-LIGAND FREE ENERGY PREDICTED BY IDOCK:    0.26 KCAL/MOL
REMARK 927      BINDING AFFINITY PREDICTED BY RF-SCORE:    0.00 PKD
ROOT
HETATM    1  C   UNL     1      -8.429  15.283  68.822  1.00  0.00    -0.181 C  
HETATM    2  C   UNL     1      -8.899  16.561  68.175  1.00  0.00    -0.203 A  
HETATM    3  C   UNL     1      -7.942  17.545  67.864  1.00  0.00    -0.227 A  
HETATM    4  C   UNL     1      -8.316  18.749  67.264  1.00  0.00    -0.281 A  
HETATM    5  C   UNL     1      -9.650  18.983  66.974  1.00  0.00    -0.364 A  
HETATM    6  C   UNL     1     -10.610  18.021  67.284  1.00  0.00    -0.358 A  
HETATM    7  C   UNL     1     -10.256  16.801  67.884  1.00  0.00    -0.300 A  
ENDROOT
BRANCH   7   8
HETATM    8  O   UNL     1     -11.168  15.813  68.202  1.00  0.00    -0.329 OA 
BRANCH   8   9
HETATM    9  C   UNL     1     -11.492  14.929  67.123  1.00  0.00    -0.335 C  
BRANCH   9  10
HETATM   10  C   UNL     1     -10.731  15.232  65.832  1.00  0.00    -0.334 C  
HETATM   11  O   UNL     1      -9.764  14.189  65.618  1.00  0.00    -0.476 OA 
HETATM   12  H   UNL     1      -9.291  14.377  64.816  1.00  0.00     0.000 HD 
BRANCH  10  13
HETATM   13  C   UNL     1     -11.659  15.337  64.616  1.00  0.00    -0.333 C  
HETATM   14  O   UNL     1     -11.412  16.536  63.879  1.00  0.00    -1.608 OA 
HETATM   15  H   UNL     1     -11.987  16.601  63.125  1.00  0.00     0.000 HD 
ENDBRANCH  10  13
ENDBRANCH   9  10
ENDBRANCH   8   9
ENDBRANCH   7   8
TORSDOF 4
ENDMDL
MODEL       81
REMARK 921   NORMALIZED FREE ENERGY PREDICTED BY IDOCK:   -3.88 KCAL/MOL
REMARK 922        TOTAL FREE ENERGY PREDICTED BY IDOCK:   -5.04 KCAL/MOL
REMARK 923 INTER-LIGAND FREE ENERGY PREDICTED BY IDOCK:   -4.71 KCAL/MOL
REMARK 924 INTRA-LIGAND FREE ENERGY PREDICTED BY IDOCK:   -0.33 KCAL/MOL
REMARK 927      BINDING AFFINITY PREDICTED BY RF-SCORE:    0.00 PKD
ROOT
HETATM    1  C   UNL     1     -12.420   8.167  71.963  1.00  0.00    -0.375 C  
HETATM    2  C   UNL     1     -12.241   9.513  71.309  1.00  0.00    -0.433 A  
HETATM    3  C   UNL     1     -12.965  10.606  71.819  1.00  0.00    -0.577 A  
HETATM    4  C   UNL     1     -12.842  11.879  71.257  1.00  0.00    -0.391 A  
HETATM    5  C   UNL     1     -11.997  12.069  70.176  1.00  0.00    -0.401 A  
HETATM    6  C   UNL     1     -11.278  10.993  69.655  1.00  0.00    -0.345 A  
HETATM    7  C   UNL     1     -11.385   9.706  70.208  1.00  0.00    -0.257 A  
ENDROOT
BRANCH   7   8
HETATM    8  O   UNL     1     -10.689   8.611  69.732  1.00  0.00    -0.228 OA 
BRANCH   8   9
HETATM    9  C   UNL     1     -10.059   8.810  68.462  1.00  0.00    -0.189 C  
BRANCH   9  10
HETATM   10  C   UNL     1     -10.781   8.118  67.304  1.00  0.00    -0.193 C  
HETATM   11  O   UNL     1     -10.053   8.381  66.092  1.00  0.00    -0.462 OA 
HETATM   12  H   UNL     1     -10.501   7.953  65.373  1.00  0.00     0.000 HD 
BRANCH  10  13
HETATM   13  C   UNL     1     -10.911   6.605  67.514  1.00  0.00    -0.342 C  
HETATM   14  O   UNL     1     -11.470   6.308  68.795  1.00  0.00    -0.517 OA 
HETATM   15  H   UNL     1     -11.550   5.370  68.926  1.00  0.00     0.000 HD 
ENDBRANCH  10  13
ENDBRANCH   9  10
ENDBRANCH   8   9
ENDBRANCH   7   8
TORSDOF 4
ENDMDL
MODEL       82
REMARK 921   NORMALIZED FREE ENERGY PREDICTED BY IDOCK:   -3.87 KCAL/MOL
REMARK 922        TOTAL FREE ENERGY PREDICTED BY IDOCK:   -5.03 KCAL/MOL
REMARK 923 INTER-LIGAND FREE ENERGY PREDICTED BY IDOCK:   -5.15 KCAL/MOL
REMARK 924 INTRA-LIGAND FREE ENERGY PREDICTED BY IDOCK:    0.12 KCAL/MOL
REMARK 927      BINDING AFFINITY PREDICTED BY RF-SCORE:    0.00 PKD
ROOT
HETATM    1  C   UNL     1      -9.586  11.596  66.944  1.00  0.00    -0.199 C  
HETATM    2  C   UNL     1     -10.539  11.878  65.810  1.00  0.00    -0.309 A  
HETATM    3  C   UNL     1     -10.295  11.268  64.565  1.00  0.00    -0.381 A  
HETATM    4  C   UNL     1     -11.142  11.489  63.477  1.00  0.00    -0.434 A  
HETATM    5  C   UNL     1     -12.237  12.324  63.622  1.00  0.00    -0.665 A  
HETATM    6  C   UNL     1     -12.487  12.941  64.848  1.00  0.00    -0.540 A  
HETATM    7  C   UNL     1     -11.650  12.729  65.956  1.00  0.00    -0.383 A  
ENDROOT
BRANCH   7   8
HETATM    8  O   UNL     1     -11.860  13.310  67.192  1.00  0.00    -0.354 OA 
BRANCH   8   9
HETATM    9  C   UNL     1     -10.906  14.317  67.548  1.00  0.00    -0.280 C  
BRANCH   9  10
HETATM   10  C   UNL     1     -11.247  15.706  67.006  1.00  0.00    -0.127 C  
HETATM   11  O   UNL     1     -11.241  16.636  68.104  1.00  0.00    -0.339 OA 
HETATM   12  H   UNL     1     -11.453  17.498  67.767  1.00  0.00     0.000 HD 
BRANCH  10  13
HETATM   13  C   UNL     1     -10.263  16.171  65.926  1.00  0.00    -0.360 C  
HETATM   14  O   UNL     1     -10.866  16.138  64.631  1.00  0.00    -0.779 OA 
HETATM   15  H   UNL     1     -10.256  16.426  63.961  1.00  0.00     0.000 HD 
ENDBRANCH  10  13
ENDBRANCH   9  10
ENDBRANCH   8   9
ENDBRANCH   7   8
TORSDOF 4
ENDMDL
MODEL       83
REMARK 921   NORMALIZED FREE ENERGY PREDICTED BY IDOCK:   -3.84 KCAL/MOL
REMARK 922        TOTAL FREE ENERGY PREDICTED BY IDOCK:   -5.00 KCAL/MOL
REMARK 923 INTER-LIGAND FREE ENERGY PREDICTED BY IDOCK:   -4.51 KCAL/MOL
REMARK 924 INTRA-LIGAND FREE ENERGY PREDICTED BY IDOCK:   -0.49 KCAL/MOL
REMARK 927      BINDING AFFINITY PREDICTED BY RF-SCORE:    0.00 PKD
ROOT
HETATM    1  C   UNL     1      -7.628  17.090  69.010  1.00  0.00    -0.194 C  
HETATM    2  C   UNL     1      -8.483  17.988  68.153  1.00  0.00    -0.273 A  
HETATM    3  C   UNL     1      -8.259  19.377  68.208  1.00  0.00    -0.372 A  
HETATM    4  C   UNL     1      -9.017  20.260  67.438  1.00  0.00    -0.457 A  
HETATM    5  C   UNL     1     -10.010  19.765  66.608  1.00  0.00    -0.556 A  
HETATM    6  C   UNL     1     -10.248  18.392  66.549  1.00  0.00    -0.423 A  
HETATM    7  C   UNL     1      -9.495  17.486  67.313  1.00  0.00    -0.253 A  
ENDROOT
BRANCH   7   8
HETATM    8  O   UNL     1      -9.687  16.118  67.282  1.00  0.00    -0.229 OA 
BRANCH   8   9
HETATM    9  C   UNL     1     -10.997  15.708  66.875  1.00  0.00    -0.243 C  
BRANCH   9  10
HETATM   10  C   UNL     1     -11.629  14.663  67.796  1.00  0.00    -0.359 C  
HETATM   11  O   UNL     1     -12.519  13.847  67.015  1.00  0.00    -0.483 OA 
HETATM   12  H   UNL     1     -12.911  13.198  67.588  1.00  0.00     0.000 HD 
BRANCH  10  13
HETATM   13  C   UNL     1     -10.582  13.779  68.484  1.00  0.00    -0.253 C  
HETATM   14  O   UNL     1     -10.011  14.439  69.616  1.00  0.00    -0.414 OA 
HETATM   15  H   UNL     1      -9.362  13.891  70.042  1.00  0.00     0.000 HD 
ENDBRANCH  10  13
ENDBRANCH   9  10
ENDBRANCH   8   9
ENDBRANCH   7   8
TORSDOF 4
ENDMDL
MODEL       84
REMARK 921   NORMALIZED FREE ENERGY PREDICTED BY IDOCK:   -3.83 KCAL/MOL
REMARK 922        TOTAL FREE ENERGY PREDICTED BY IDOCK:   -4.98 KCAL/MOL
REMARK 923 INTER-LIGAND FREE ENERGY PREDICTED BY IDOCK:   -4.74 KCAL/MOL
REMARK 924 INTRA-LIGAND FREE ENERGY PREDICTED BY IDOCK:   -0.23 KCAL/MOL
REMARK 927      BINDING AFFINITY PREDICTED BY RF-SCORE:    0.00 PKD
ROOT
HETATM    1  C   UNL     1     -10.636  16.344  68.003  1.00  0.00    -0.314 C  
HETATM    2  C   UNL     1     -11.064  15.031  67.397  1.00  0.00    -0.324 A  
HETATM    3  C   UNL     1     -11.112  14.926  65.994  1.00  0.00    -0.334 A  
HETATM    4  C   UNL     1     -11.499  13.737  65.374  1.00  0.00    -0.318 A  
HETATM    5  C   UNL     1     -11.847  12.643  66.149  1.00  0.00    -0.477 A  
HETATM    6  C   UNL     1     -11.811  12.735  67.540  1.00  0.00    -0.402 A  
HETATM    7  C   UNL     1     -11.421  13.920  68.185  1.00  0.00    -0.312 A  
ENDROOT
BRANCH   7   8
HETATM    8  O   UNL     1     -11.361  14.058  69.559  1.00  0.00    -0.256 OA 
BRANCH   8   9
HETATM    9  C   UNL     1     -12.636  14.148  70.205  1.00  0.00    -0.306 C  
BRANCH   9  10
HETATM   10  C   UNL     1     -12.725  13.341  71.502  1.00  0.00    -0.281 C  
HETATM   11  O   UNL     1     -13.936  13.710  72.184  1.00  0.00    -0.492 OA 
HETATM   12  H   UNL     1     -13.991  13.209  72.990  1.00  0.00     0.000 HD 
BRANCH  10  13
HETATM   13  C   UNL     1     -12.709  11.828  71.253  1.00  0.00    -0.316 C  
HETATM   14  O   UNL     1     -13.441  11.131  72.262  1.00  0.00    -0.608 OA 
HETATM   15  H   UNL     1     -13.431  10.193  72.108  1.00  0.00     0.000 HD 
ENDBRANCH  10  13
ENDBRANCH   9  10
ENDBRANCH   8   9
ENDBRANCH   7   8
TORSDOF 4
ENDMDL
MODEL       85
REMARK 921   NORMALIZED FREE ENERGY PREDICTED BY IDOCK:   -3.78 KCAL/MOL
REMARK 922        TOTAL FREE ENERGY PREDICTED BY IDOCK:   -4.92 KCAL/MOL
REMARK 923 INTER-LIGAND FREE ENERGY PREDICTED BY IDOCK:   -4.57 KCAL/MOL
REMARK 924 INTRA-LIGAND FREE ENERGY PREDICTED BY IDOCK:   -0.34 KCAL/MOL
REMARK 927      BINDING AFFINITY PREDICTED BY RF-SCORE:    0.00 PKD
ROOT
HETATM    1  C   UNL     1     -11.060  11.581  68.360  1.00  0.00    -0.288 C  
HETATM    2  C   UNL     1     -11.746  12.229  69.535  1.00  0.00    -0.398 A  
HETATM    3  C   UNL     1     -11.775  13.634  69.601  1.00  0.00    -0.383 A  
HETATM    4  C   UNL     1     -12.397  14.293  70.664  1.00  0.00    -0.431 A  
HETATM    5  C   UNL     1     -12.991  13.553  71.673  1.00  0.00    -0.447 A  
HETATM    6  C   UNL     1     -12.963  12.160  71.625  1.00  0.00    -0.427 A  
HETATM    7  C   UNL     1     -12.347  11.477  70.563  1.00  0.00    -0.342 A  
ENDROOT
BRANCH   7   8
HETATM    8  O   UNL     1     -12.300  10.099  70.466  1.00  0.00    -0.281 OA 
BRANCH   8   9
HETATM    9  C   UNL     1     -11.395   9.467  71.378  1.00  0.00    -0.392 C  
BRANCH   9  10
HETATM   10  C   UNL     1     -10.397   8.528  70.699  1.00  0.00    -0.199 C  
HETATM   11  O   UNL     1     -10.960   8.093  69.448  1.00  0.00    -0.411 OA 
HETATM   12  H   UNL     1     -10.340   7.510  69.027  1.00  0.00     0.000 HD 
BRANCH  10  13
HETATM   13  C   UNL     1      -9.038   9.194  70.453  1.00  0.00    -0.233 C  
HETATM   14  O   UNL     1      -8.218   9.141  71.622  1.00  0.00    -0.343 OA 
HETATM   15  H   UNL     1      -7.376   9.554  71.471  1.00  0.00     0.000 HD 
ENDBRANCH  10  13
ENDBRANCH   9  10
ENDBRANCH   8   9
ENDBRANCH   7   8
TORSDOF 4
ENDMDL
MODEL       86
REMARK 921   NORMALIZED FREE ENERGY PREDICTED BY IDOCK:   -3.78 KCAL/MOL
REMARK 922        TOTAL FREE ENERGY PREDICTED BY IDOCK:   -4.91 KCAL/MOL
REMARK 923 INTER-LIGAND FREE ENERGY PREDICTED BY IDOCK:   -4.66 KCAL/MOL
REMARK 924 INTRA-LIGAND FREE ENERGY PREDICTED BY IDOCK:   -0.25 KCAL/MOL
REMARK 927      BINDING AFFINITY PREDICTED BY RF-SCORE:    0.00 PKD
ROOT
HETATM    1  C   UNL     1     -10.927  13.741  64.520  1.00  0.00    -0.399 C  
HETATM    2  C   UNL     1     -11.121  13.083  65.862  1.00  0.00    -0.303 A  
HETATM    3  C   UNL     1     -10.959  11.688  65.952  1.00  0.00    -0.334 A  
HETATM    4  C   UNL     1     -11.124  11.020  67.168  1.00  0.00    -0.333 A  
HETATM    5  C   UNL     1     -11.459  11.740  68.303  1.00  0.00    -0.370 A  
HETATM    6  C   UNL     1     -11.630  13.122  68.226  1.00  0.00    -0.370 A  
HETATM    7  C   UNL     1     -11.465  13.814  67.015  1.00  0.00    -0.346 A  
ENDROOT
BRANCH   7   8
HETATM    8  O   UNL     1     -11.616  15.181  66.891  1.00  0.00    -0.285 OA 
BRANCH   8   9
HETATM    9  C   UNL     1     -10.731  15.957  67.707  1.00  0.00    -0.320 C  
BRANCH   9  10
HETATM   10  C   UNL     1      -9.830  16.901  66.911  1.00  0.00    -0.276 C  
HETATM   11  O   UNL     1     -10.279  16.914  65.544  1.00  0.00    -0.580 OA 
HETATM   12  H   UNL     1      -9.719  17.500  65.050  1.00  0.00     0.000 HD 
BRANCH  10  13
HETATM   13  C   UNL     1      -9.835  18.328  67.472  1.00  0.00    -0.317 C  
HETATM   14  O   UNL     1     -10.696  19.179  66.713  1.00  0.00    -0.425 OA 
HETATM   15  H   UNL     1     -10.699  20.063  67.061  1.00  0.00     0.000 HD 
ENDBRANCH  10  13
ENDBRANCH   9  10
ENDBRANCH   8   9
ENDBRANCH   7   8
TORSDOF 4
ENDMDL
MODEL       87
REMARK 921   NORMALIZED FREE ENERGY PREDICTED BY IDOCK:   -3.77 KCAL/MOL
REMARK 922        TOTAL FREE ENERGY PREDICTED BY IDOCK:   -4.91 KCAL/MOL
REMARK 923 INTER-LIGAND FREE ENERGY PREDICTED BY IDOCK:   -4.59 KCAL/MOL
REMARK 924 INTRA-LIGAND FREE ENERGY PREDICTED BY IDOCK:   -0.31 KCAL/MOL
REMARK 927      BINDING AFFINITY PREDICTED BY RF-SCORE:    0.00 PKD
ROOT
HETATM    1  C   UNL     1      -9.177   9.041  70.834  1.00  0.00    -0.320 C  
HETATM    2  C   UNL     1     -10.625   9.279  71.179  1.00  0.00    -0.402 A  
HETATM    3  C   UNL     1     -11.209   8.495  72.191  1.00  0.00    -0.432 A  
HETATM    4  C   UNL     1     -12.546   8.668  72.556  1.00  0.00    -0.367 A  
HETATM    5  C   UNL     1     -13.312   9.624  71.910  1.00  0.00    -0.526 A  
HETATM    6  C   UNL     1     -12.749  10.403  70.900  1.00  0.00    -0.477 A  
HETATM    7  C   UNL     1     -11.406  10.248  70.520  1.00  0.00    -0.341 A  
ENDROOT
BRANCH   7   8
HETATM    8  O   UNL     1     -10.800  11.000  69.532  1.00  0.00    -0.242 OA 
BRANCH   8   9
HETATM    9  C   UNL     1     -11.321  10.787  68.215  1.00  0.00    -0.309 C  
BRANCH   9  10
HETATM   10  C   UNL     1     -10.349  10.068  67.279  1.00  0.00    -0.237 C  
HETATM   11  O   UNL     1     -10.676   8.667  67.272  1.00  0.00    -0.392 OA 
HETATM   12  H   UNL     1     -10.072   8.221  66.691  1.00  0.00     0.000 HD 
BRANCH  10  13
HETATM   13  C   UNL     1     -10.396  10.619  65.849  1.00  0.00    -0.224 C  
HETATM   14  O   UNL     1     -11.223  11.782  65.771  1.00  0.00    -0.322 OA 
HETATM   15  H   UNL     1     -11.253  12.124  64.884  1.00  0.00     0.000 HD 
ENDBRANCH  10  13
ENDBRANCH   9  10
ENDBRANCH   8   9
ENDBRANCH   7   8
TORSDOF 4
ENDMDL
MODEL       88
REMARK 921   NORMALIZED FREE ENERGY PREDICTED BY IDOCK:   -3.76 KCAL/MOL
REMARK 922        TOTAL FREE ENERGY PREDICTED BY IDOCK:   -4.89 KCAL/MOL
REMARK 923 INTER-LIGAND FREE ENERGY PREDICTED BY IDOCK:   -5.44 KCAL/MOL
REMARK 924 INTRA-LIGAND FREE ENERGY PREDICTED BY IDOCK:    0.54 KCAL/MOL
REMARK 927      BINDING AFFINITY PREDICTED BY RF-SCORE:    0.00 PKD
ROOT
HETATM    1  C   UNL     1     -12.229  13.585  67.552  1.00  0.00    -0.247 C  
HETATM    2  C   UNL     1     -12.086  14.153  68.941  1.00  0.00    -0.339 A  
HETATM    3  C   UNL     1     -12.308  13.301  70.039  1.00  0.00    -0.269 A  
HETATM    4  C   UNL     1     -12.190  13.767  71.350  1.00  0.00    -0.243 A  
HETATM    5  C   UNL     1     -11.853  15.092  71.576  1.00  0.00    -0.429 A  
HETATM    6  C   UNL     1     -11.638  15.950  70.498  1.00  0.00    -0.402 A  
HETATM    7  C   UNL     1     -11.748  15.501  69.172  1.00  0.00    -0.365 A  
ENDROOT
BRANCH   7   8
HETATM    8  O   UNL     1     -11.536  16.309  68.072  1.00  0.00    -0.272 OA 
BRANCH   8   9
HETATM    9  C   UNL     1     -10.515  15.849  67.179  1.00  0.00    -0.313 C  
BRANCH   9  10
HETATM   10  C   UNL     1     -10.561  16.509  65.801  1.00  0.00    -0.296 C  
HETATM   11  O   UNL     1      -9.237  16.963  65.470  1.00  0.00    -0.443 OA 
HETATM   12  H   UNL     1      -9.265  17.374  64.614  1.00  0.00     0.000 HD 
BRANCH  10  13
HETATM   13  C   UNL     1     -11.071  15.557  64.712  1.00  0.00    -0.407 C  
HETATM   14  O   UNL     1     -11.966  16.225  63.821  1.00  0.00    -1.409 OA 
HETATM   15  H   UNL     1     -12.283  15.635  63.146  1.00  0.00     0.000 HD 
ENDBRANCH  10  13
ENDBRANCH   9  10
ENDBRANCH   8   9
ENDBRANCH   7   8
TORSDOF 4
ENDMDL
MODEL       89
REMARK 921   NORMALIZED FREE ENERGY PREDICTED BY IDOCK:   -3.75 KCAL/MOL
REMARK 922        TOTAL FREE ENERGY PREDICTED BY IDOCK:   -4.88 KCAL/MOL
REMARK 923 INTER-LIGAND FREE ENERGY PREDICTED BY IDOCK:   -4.65 KCAL/MOL
REMARK 924 INTRA-LIGAND FREE ENERGY PREDICTED BY IDOCK:   -0.23 KCAL/MOL
REMARK 927      BINDING AFFINITY PREDICTED BY RF-SCORE:    0.00 PKD
ROOT
HETATM    1  C   UNL     1     -11.478  11.370  68.773  1.00  0.00    -0.354 C  
HETATM    2  C   UNL     1     -12.151  11.986  69.973  1.00  0.00    -0.355 A  
HETATM    3  C   UNL     1     -12.658  11.130  70.969  1.00  0.00    -0.503 A  
HETATM    4  C   UNL     1     -13.291  11.640  72.104  1.00  0.00    -0.310 A  
HETATM    5  C   UNL     1     -13.428  13.011  72.253  1.00  0.00    -0.645 A  
HETATM    6  C   UNL     1     -12.938  13.871  71.270  1.00  0.00    -0.414 A  
HETATM    7  C   UNL     1     -12.294  13.379  70.123  1.00  0.00    -0.252 A  
ENDROOT
BRANCH   7   8
HETATM    8  O   UNL     1     -11.785  14.190  69.126  1.00  0.00    -0.283 OA 
BRANCH   8   9
HETATM    9  C   UNL     1     -10.723  15.054  69.545  1.00  0.00    -0.256 C  
BRANCH   9  10
HETATM   10  C   UNL     1     -11.092  16.538  69.519  1.00  0.00    -0.245 C  
HETATM   11  O   UNL     1     -11.385  16.957  70.864  1.00  0.00    -0.419 OA 
HETATM   12  H   UNL     1     -11.614  17.879  70.848  1.00  0.00     0.000 HD 
BRANCH  10  13
HETATM   13  C   UNL     1      -9.975  17.410  68.934  1.00  0.00    -0.308 C  
HETATM   14  O   UNL     1     -10.106  17.536  67.517  1.00  0.00    -0.301 OA 
HETATM   15  H   UNL     1      -9.414  18.076  67.154  1.00  0.00     0.000 HD 
ENDBRANCH  10  13
ENDBRANCH   9  10
ENDBRANCH   8   9
ENDBRANCH   7   8
TORSDOF 4
ENDMDL
MODEL       90
REMARK 921   NORMALIZED FREE ENERGY PREDICTED BY IDOCK:   -3.74 KCAL/MOL
REMARK 922        TOTAL FREE ENERGY PREDICTED BY IDOCK:   -4.87 KCAL/MOL
REMARK 923 INTER-LIGAND FREE ENERGY PREDICTED BY IDOCK:   -4.42 KCAL/MOL
REMARK 924 INTRA-LIGAND FREE ENERGY PREDICTED BY IDOCK:   -0.46 KCAL/MOL
REMARK 927      BINDING AFFINITY PREDICTED BY RF-SCORE:    0.00 PKD
ROOT
HETATM    1  C   UNL     1     -11.553  11.407  68.572  1.00  0.00    -0.384 C  
HETATM    2  C   UNL     1     -11.256  11.513  67.098  1.00  0.00    -0.365 A  
HETATM    3  C   UNL     1     -11.899  12.522  66.357  1.00  0.00    -0.445 A  
HETATM    4  C   UNL     1     -11.664  12.673  64.989  1.00  0.00    -0.401 A  
HETATM    5  C   UNL     1     -10.787  11.813  64.348  1.00  0.00    -0.389 A  
HETATM    6  C   UNL     1     -10.149  10.804  65.068  1.00  0.00    -0.377 A  
HETATM    7  C   UNL     1     -10.368  10.637  66.445  1.00  0.00    -0.231 A  
ENDROOT
BRANCH   7   8
HETATM    8  O   UNL     1      -9.753   9.659  67.203  1.00  0.00    -0.160 OA 
BRANCH   8   9
HETATM    9  C   UNL     1      -9.681   8.374  66.575  1.00  0.00    -0.260 C  
BRANCH   9  10
HETATM   10  C   UNL     1     -10.758   7.398  67.049  1.00  0.00    -0.319 C  
HETATM   11  O   UNL     1     -10.638   6.184  66.286  1.00  0.00    -0.474 OA 
HETATM   12  H   UNL     1     -11.307   5.577  66.580  1.00  0.00     0.000 HD 
BRANCH  10  13
HETATM   13  C   UNL     1     -10.647   7.084  68.545  1.00  0.00    -0.202 C  
HETATM   14  O   UNL     1     -11.012   8.215  69.339  1.00  0.00    -0.411 OA 
HETATM   15  H   UNL     1     -10.943   8.021  70.266  1.00  0.00     0.000 HD 
ENDBRANCH  10  13
ENDBRANCH   9  10
ENDBRANCH   8   9
ENDBRANCH   7   8
TORSDOF 4
ENDMDL
MODEL       91
REMARK 921   NORMALIZED FREE ENERGY PREDICTED BY IDOCK:   -3.73 KCAL/MOL
REMARK 922        TOTAL FREE ENERGY PREDICTED BY IDOCK:   -4.86 KCAL/MOL
REMARK 923 INTER-LIGAND FREE ENERGY PREDICTED BY IDOCK:   -4.40 KCAL/MOL
REMARK 924 INTRA-LIGAND FREE ENERGY PREDICTED BY IDOCK:   -0.46 KCAL/MOL
REMARK 927      BINDING AFFINITY PREDICTED BY RF-SCORE:    0.00 PKD
ROOT
HETATM    1  C   UNL     1      -8.397   8.988  71.095  1.00  0.00    -0.212 C  
HETATM    2  C   UNL     1      -9.852   8.851  71.468  1.00  0.00    -0.384 A  
HETATM    3  C   UNL     1     -10.205   7.895  72.439  1.00  0.00    -0.327 A  
HETATM    4  C   UNL     1     -11.535   7.721  72.828  1.00  0.00    -0.415 A  
HETATM    5  C   UNL     1     -12.524   8.496  72.246  1.00  0.00    -0.448 A  
HETATM    6  C   UNL     1     -12.189   9.441  71.277  1.00  0.00    -0.425 A  
HETATM    7  C   UNL     1     -10.858   9.636  70.874  1.00  0.00    -0.339 A  
ENDROOT
BRANCH   7   8
HETATM    8  O   UNL     1     -10.475  10.564  69.925  1.00  0.00    -0.241 OA 
BRANCH   8   9
HETATM    9  C   UNL     1     -11.519  11.448  69.500  1.00  0.00    -0.312 C  
BRANCH   9  10
HETATM   10  C   UNL     1     -11.879  11.307  68.020  1.00  0.00    -0.170 C  
HETATM   11  O   UNL     1     -12.047  12.624  67.466  1.00  0.00    -0.411 OA 
HETATM   12  H   UNL     1     -12.271  12.536  66.547  1.00  0.00     0.000 HD 
BRANCH  10  13
HETATM   13  C   UNL     1     -10.811  10.543  67.228  1.00  0.00    -0.279 C  
HETATM   14  O   UNL     1     -10.888   9.139  67.480  1.00  0.00    -0.434 OA 
HETATM   15  H   UNL     1     -10.226   8.665  66.989  1.00  0.00     0.000 HD 
ENDBRANCH  10  13
ENDBRANCH   9  10
ENDBRANCH   8   9
ENDBRANCH   7   8
TORSDOF 4
ENDMDL
MODEL       92
REMARK 921   NORMALIZED FREE ENERGY PREDICTED BY IDOCK:   -3.73 KCAL/MOL
REMARK 922        TOTAL FREE ENERGY PREDICTED BY IDOCK:   -4.85 KCAL/MOL
REMARK 923 INTER-LIGAND FREE ENERGY PREDICTED BY IDOCK:   -4.35 KCAL/MOL
REMARK 924 INTRA-LIGAND FREE ENERGY PREDICTED BY IDOCK:   -0.50 KCAL/MOL
REMARK 927      BINDING AFFINITY PREDICTED BY RF-SCORE:    0.00 PKD
ROOT
HETATM    1  C   UNL     1     -10.259   9.578  66.431  1.00  0.00    -0.302 C  
HETATM    2  C   UNL     1     -10.804  10.443  67.539  1.00  0.00    -0.358 A  
HETATM    3  C   UNL     1     -11.220  11.750  67.224  1.00  0.00    -0.364 A  
HETATM    4  C   UNL     1     -11.734  12.600  68.206  1.00  0.00    -0.389 A  
HETATM    5  C   UNL     1     -11.833  12.152  69.513  1.00  0.00    -0.386 A  
HETATM    6  C   UNL     1     -11.417  10.862  69.842  1.00  0.00    -0.402 A  
HETATM    7  C   UNL     1     -10.901   9.990  68.869  1.00  0.00    -0.220 A  
ENDROOT
BRANCH   7   8
HETATM    8  O   UNL     1     -10.484   8.701  69.143  1.00  0.00    -0.220 OA 
BRANCH   8   9
HETATM    9  C   UNL     1      -9.797   8.548  70.390  1.00  0.00    -0.179 C  
BRANCH   9  10
HETATM   10  C   UNL     1     -10.504   7.610  71.369  1.00  0.00    -0.208 C  
HETATM   11  O   UNL     1     -11.216   8.410  72.331  1.00  0.00    -0.353 OA 
HETATM   12  H   UNL     1     -11.654   7.828  72.939  1.00  0.00     0.000 HD 
BRANCH  10  13
HETATM   13  C   UNL     1     -11.475   6.654  70.668  1.00  0.00    -0.364 C  
HETATM   14  O   UNL     1     -12.797   7.195  70.632  1.00  0.00    -0.609 OA 
HETATM   15  H   UNL     1     -13.400   6.603  70.197  1.00  0.00     0.000 HD 
ENDBRANCH  10  13
ENDBRANCH   9  10
ENDBRANCH   8   9
ENDBRANCH   7   8
TORSDOF 4
ENDMDL
MODEL       93
REMARK 921   NORMALIZED FREE ENERGY PREDICTED BY IDOCK:   -3.71 KCAL/MOL
REMARK 922        TOTAL FREE ENERGY PREDICTED BY IDOCK:   -4.82 KCAL/MOL
REMARK 923 INTER-LIGAND FREE ENERGY PREDICTED BY IDOCK:   -4.37 KCAL/MOL
REMARK 924 INTRA-LIGAND FREE ENERGY PREDICTED BY IDOCK:   -0.46 KCAL/MOL
REMARK 927      BINDING AFFINITY PREDICTED BY RF-SCORE:    0.00 PKD
ROOT
HETATM    1  C   UNL     1      -8.755   8.051  72.776  1.00  0.00    -0.262 C  
HETATM    2  C   UNL     1      -9.493   7.195  71.778  1.00  0.00    -0.160 A  
HETATM    3  C   UNL     1      -9.049   5.876  71.571  1.00  0.00    -0.150 A  
HETATM    4  C   UNL     1      -9.692   5.034  70.661  1.00  0.00    -0.266 A  
HETATM    5  C   UNL     1     -10.782   5.504  69.947  1.00  0.00    -0.358 A  
HETATM    6  C   UNL     1     -11.228   6.812  70.136  1.00  0.00    -0.387 A  
HETATM    7  C   UNL     1     -10.598   7.674  71.049  1.00  0.00    -0.217 A  
ENDROOT
BRANCH   7   8
HETATM    8  O   UNL     1     -11.008   8.974  71.278  1.00  0.00    -0.261 OA 
BRANCH   8   9
HETATM    9  C   UNL     1     -12.266   9.094  71.951  1.00  0.00    -0.379 C  
BRANCH   9  10
HETATM   10  C   UNL     1     -13.099  10.289  71.486  1.00  0.00    -0.433 C  
HETATM   11  O   UNL     1     -13.390  11.113  72.630  1.00  0.00    -0.398 OA 
HETATM   12  H   UNL     1     -13.908  11.855  72.341  1.00  0.00     0.000 HD 
BRANCH  10  13
HETATM   13  C   UNL     1     -12.384  11.121  70.415  1.00  0.00    -0.344 C  
HETATM   14  O   UNL     1     -12.502  10.515  69.127  1.00  0.00    -0.750 OA 
HETATM   15  H   UNL     1     -12.058  11.030  68.463  1.00  0.00     0.000 HD 
ENDBRANCH  10  13
ENDBRANCH   9  10
ENDBRANCH   8   9
ENDBRANCH   7   8
TORSDOF 4
ENDMDL
MODEL       94
REMARK 921   NORMALIZED FREE ENERGY PREDICTED BY IDOCK:   -3.69 KCAL/MOL
REMARK 922        TOTAL FREE ENERGY PREDICTED BY IDOCK:   -4.80 KCAL/MOL
REMARK 923 INTER-LIGAND FREE ENERGY PREDICTED BY IDOCK:   -4.56 KCAL/MOL
REMARK 924 INTRA-LIGAND FREE ENERGY PREDICTED BY IDOCK:   -0.24 KCAL/MOL
REMARK 927      BINDING AFFINITY PREDICTED BY RF-SCORE:    0.00 PKD
ROOT
HETATM    1  C   UNL     1     -12.181  12.630  70.491  1.00  0.00    -0.383 C  
HETATM    2  C   UNL     1     -12.265  11.180  70.894  1.00  0.00    -0.468 A  
HETATM    3  C   UNL     1     -13.254  10.799  71.820  1.00  0.00    -0.523 A  
HETATM    4  C   UNL     1     -13.383   9.470  72.232  1.00  0.00    -0.526 A  
HETATM    5  C   UNL     1     -12.520   8.512  71.726  1.00  0.00    -0.388 A  
HETATM    6  C   UNL     1     -11.530   8.877  70.814  1.00  0.00    -0.319 A  
HETATM    7  C   UNL     1     -11.386  10.206  70.384  1.00  0.00    -0.326 A  
ENDROOT
BRANCH   7   8
HETATM    8  O   UNL     1     -10.427  10.615  69.477  1.00  0.00    -0.223 OA 
BRANCH   8   9
HETATM    9  C   UNL     1     -10.723  10.301  68.112  1.00  0.00    -0.246 C  
BRANCH   9  10
HETATM   10  C   UNL     1     -10.801  11.528  67.202  1.00  0.00    -0.268 C  
HETATM   11  O   UNL     1     -10.023  12.583  67.795  1.00  0.00    -0.200 OA 
HETATM   12  H   UNL     1     -10.071  13.345  67.230  1.00  0.00     0.000 HD 
BRANCH  10  13
HETATM   13  C   UNL     1     -10.293  11.240  65.785  1.00  0.00    -0.258 C  
HETATM   14  O   UNL     1      -9.221  12.117  65.433  1.00  0.00    -0.433 OA 
HETATM   15  H   UNL     1      -8.906  11.938  64.554  1.00  0.00     0.000 HD 
ENDBRANCH  10  13
ENDBRANCH   9  10
ENDBRANCH   8   9
ENDBRANCH   7   8
TORSDOF 4
ENDMDL
MODEL       95
REMARK 921   NORMALIZED FREE ENERGY PREDICTED BY IDOCK:   -3.65 KCAL/MOL
REMARK 922        TOTAL FREE ENERGY PREDICTED BY IDOCK:   -4.76 KCAL/MOL
REMARK 923 INTER-LIGAND FREE ENERGY PREDICTED BY IDOCK:   -4.55 KCAL/MOL
REMARK 924 INTRA-LIGAND FREE ENERGY PREDICTED BY IDOCK:   -0.21 KCAL/MOL
REMARK 927      BINDING AFFINITY PREDICTED BY RF-SCORE:    0.00 PKD
ROOT
HETATM    1  C   UNL     1     -12.864  14.417  71.992  1.00  0.00    -0.419 C  
HETATM    2  C   UNL     1     -12.329  14.446  70.582  1.00  0.00    -0.422 A  
HETATM    3  C   UNL     1     -12.125  15.697  69.970  1.00  0.00    -0.379 A  
HETATM    4  C   UNL     1     -11.631  15.791  68.668  1.00  0.00    -0.392 A  
HETATM    5  C   UNL     1     -11.342  14.634  67.962  1.00  0.00    -0.329 A  
HETATM    6  C   UNL     1     -11.546  13.387  68.554  1.00  0.00    -0.368 A  
HETATM    7  C   UNL     1     -12.038  13.271  69.864  1.00  0.00    -0.308 A  
ENDROOT
BRANCH   7   8
HETATM    8  O   UNL     1     -12.250  12.061  70.495  1.00  0.00    -0.364 OA 
BRANCH   8   9
HETATM    9  C   UNL     1     -12.053  10.911  69.664  1.00  0.00    -0.329 C  
BRANCH   9  10
HETATM   10  C   UNL     1     -11.098   9.877  70.262  1.00  0.00    -0.308 C  
HETATM   11  O   UNL     1     -11.841   8.675  70.532  1.00  0.00    -0.461 OA 
HETATM   12  H   UNL     1     -11.249   8.032  70.903  1.00  0.00     0.000 HD 
BRANCH  10  13
HETATM   13  C   UNL     1      -9.919   9.562  69.334  1.00  0.00    -0.191 C  
HETATM   14  O   UNL     1      -8.708  10.143  69.822  1.00  0.00    -0.276 OA 
HETATM   15  H   UNL     1      -7.977   9.948  69.246  1.00  0.00     0.000 HD 
ENDBRANCH  10  13
ENDBRANCH   9  10
ENDBRANCH   8   9
ENDBRANCH   7   8
TORSDOF 4
ENDMDL
MODEL       96
REMARK 921   NORMALIZED FREE ENERGY PREDICTED BY IDOCK:   -3.62 KCAL/MOL
REMARK 922        TOTAL FREE ENERGY PREDICTED BY IDOCK:   -4.72 KCAL/MOL
REMARK 923 INTER-LIGAND FREE ENERGY PREDICTED BY IDOCK:   -4.27 KCAL/MOL
REMARK 924 INTRA-LIGAND FREE ENERGY PREDICTED BY IDOCK:   -0.44 KCAL/MOL
REMARK 927      BINDING AFFINITY PREDICTED BY RF-SCORE:    0.00 PKD
ROOT
HETATM    1  C   UNL     1     -11.148  16.478  68.566  1.00  0.00    -0.335 C  
HETATM    2  C   UNL     1     -11.682  15.393  69.466  1.00  0.00    -0.364 A  
HETATM    3  C   UNL     1     -12.209  15.762  70.718  1.00  0.00    -0.441 A  
HETATM    4  C   UNL     1     -12.720  14.803  71.596  1.00  0.00    -0.399 A  
HETATM    5  C   UNL     1     -12.703  13.466  71.232  1.00  0.00    -0.424 A  
HETATM    6  C   UNL     1     -12.177  13.086  69.998  1.00  0.00    -0.306 A  
HETATM    7  C   UNL     1     -11.662  14.034  69.099  1.00  0.00    -0.333 A  
ENDROOT
BRANCH   7   8
HETATM    8  O   UNL     1     -11.138  13.708  67.863  1.00  0.00    -0.248 OA 
BRANCH   8   9
HETATM    9  C   UNL     1     -10.620  12.376  67.766  1.00  0.00    -0.217 C  
BRANCH   9  10
HETATM   10  C   UNL     1      -9.420  12.251  66.826  1.00  0.00    -0.222 C  
HETATM   11  O   UNL     1      -9.631  13.123  65.701  1.00  0.00    -0.463 OA 
HETATM   12  H   UNL     1      -8.886  13.045  65.117  1.00  0.00     0.000 HD 
BRANCH  10  13
HETATM   13  C   UNL     1      -8.096  12.602  67.515  1.00  0.00    -0.178 C  
HETATM   14  O   UNL     1      -8.322  13.211  68.788  1.00  0.00    -0.344 OA 
HETATM   15  H   UNL     1      -7.502  13.429  69.215  1.00  0.00     0.000 HD 
ENDBRANCH  10  13
ENDBRANCH   9  10
ENDBRANCH   8   9
ENDBRANCH   7   8
TORSDOF 4
ENDMDL
MODEL       97
REMARK 921   NORMALIZED FREE ENERGY PREDICTED BY IDOCK:   -3.61 KCAL/MOL
REMARK 922        TOTAL FREE ENERGY PREDICTED BY IDOCK:   -4.70 KCAL/MOL
REMARK 923 INTER-LIGAND FREE ENERGY PREDICTED BY IDOCK:   -4.46 KCAL/MOL
REMARK 924 INTRA-LIGAND FREE ENERGY PREDICTED BY IDOCK:   -0.25 KCAL/MOL
REMARK 927      BINDING AFFINITY PREDICTED BY RF-SCORE:    0.00 PKD
ROOT
HETATM    1  C   UNL     1      -8.925  14.092  67.075  1.00  0.00    -0.251 C  
HETATM    2  C   UNL     1     -10.138  14.147  66.182  1.00  0.00    -0.324 A  
HETATM    3  C   UNL     1     -10.396  15.337  65.476  1.00  0.00    -0.408 A  
HETATM    4  C   UNL     1     -11.503  15.449  64.632  1.00  0.00    -0.339 A  
HETATM    5  C   UNL     1     -12.366  14.375  64.491  1.00  0.00    -0.440 A  
HETATM    6  C   UNL     1     -12.127  13.192  65.190  1.00  0.00    -0.463 A  
HETATM    7  C   UNL     1     -11.017  13.056  66.040  1.00  0.00    -0.275 A  
ENDROOT
BRANCH   7   8
HETATM    8  O   UNL     1     -10.734  11.904  66.747  1.00  0.00    -0.227 OA 
BRANCH   8   9
HETATM    9  C   UNL     1     -11.709  11.555  67.737  1.00  0.00    -0.227 C  
BRANCH   9  10
HETATM   10  C   UNL     1     -11.102  11.022  69.035  1.00  0.00    -0.244 C  
HETATM   11  O   UNL     1      -9.730  11.448  69.105  1.00  0.00    -0.404 OA 
HETATM   12  H   UNL     1      -9.353  11.117  69.911  1.00  0.00     0.000 HD 
BRANCH  10  13
HETATM   13  C   UNL     1     -11.860  11.505  70.278  1.00  0.00    -0.342 C  
HETATM   14  O   UNL     1     -11.870  12.931  70.354  1.00  0.00    -0.510 OA 
HETATM   15  H   UNL     1     -12.340  13.231  71.124  1.00  0.00     0.000 HD 
ENDBRANCH  10  13
ENDBRANCH   9  10
ENDBRANCH   8   9
ENDBRANCH   7   8
TORSDOF 4
ENDMDL
MODEL       98
REMARK 921   NORMALIZED FREE ENERGY PREDICTED BY IDOCK:   -3.60 KCAL/MOL
REMARK 922        TOTAL FREE ENERGY PREDICTED BY IDOCK:   -4.70 KCAL/MOL
REMARK 923 INTER-LIGAND FREE ENERGY PREDICTED BY IDOCK:   -4.49 KCAL/MOL
REMARK 924 INTRA-LIGAND FREE ENERGY PREDICTED BY IDOCK:   -0.20 KCAL/MOL
REMARK 927      BINDING AFFINITY PREDICTED BY RF-SCORE:    0.00 PKD
ROOT
HETATM    1  C   UNL     1     -11.865  12.422  68.897  1.00  0.00    -0.350 C  
HETATM    2  C   UNL     1     -11.476  13.650  68.113  1.00  0.00    -0.348 A  
HETATM    3  C   UNL     1     -11.249  14.848  68.816  1.00  0.00    -0.288 A  
HETATM    4  C   UNL     1     -10.885  16.019  68.147  1.00  0.00    -0.322 A  
HETATM    5  C   UNL     1     -10.749  16.004  66.769  1.00  0.00    -0.259 A  
HETATM    6  C   UNL     1     -10.979  14.826  66.058  1.00  0.00    -0.328 A  
HETATM    7  C   UNL     1     -11.341  13.636  66.712  1.00  0.00    -0.328 A  
ENDROOT
BRANCH   7   8
HETATM    8  O   UNL     1     -11.571  12.443  66.054  1.00  0.00    -0.362 OA 
BRANCH   8   9
HETATM    9  C   UNL     1     -10.390  11.783  65.585  1.00  0.00    -0.252 C  
BRANCH   9  10
HETATM   10  C   UNL     1     -10.337  11.624  64.065  1.00  0.00    -0.357 C  
HETATM   11  O   UNL     1      -9.930  12.878  63.491  1.00  0.00    -0.681 OA 
HETATM   12  H   UNL     1      -9.898  12.780  62.547  1.00  0.00     0.000 HD 
BRANCH  10  13
HETATM   13  C   UNL     1      -9.375  10.514  63.625  1.00  0.00    -0.289 C  
HETATM   14  O   UNL     1      -8.137  10.593  64.334  1.00  0.00    -0.330 OA 
HETATM   15  H   UNL     1      -7.540   9.906  64.061  1.00  0.00     0.000 HD 
ENDBRANCH  10  13
ENDBRANCH   9  10
ENDBRANCH   8   9
ENDBRANCH   7   8
TORSDOF 4
ENDMDL
MODEL       99
REMARK 921   NORMALIZED FREE ENERGY PREDICTED BY IDOCK:   -3.60 KCAL/MOL
REMARK 922        TOTAL FREE ENERGY PREDICTED BY IDOCK:   -4.70 KCAL/MOL
REMARK 923 INTER-LIGAND FREE ENERGY PREDICTED BY IDOCK:   -4.21 KCAL/MOL
REMARK 924 INTRA-LIGAND FREE ENERGY PREDICTED BY IDOCK:   -0.49 KCAL/MOL
REMARK 927      BINDING AFFINITY PREDICTED BY RF-SCORE:    0.00 PKD
ROOT
HETATM    1  C   UNL     1      -9.939   9.653  70.170  1.00  0.00    -0.309 C  
HETATM    2  C   UNL     1     -11.244   9.266  70.818  1.00  0.00    -0.351 A  
HETATM    3  C   UNL     1     -12.053  10.286  71.355  1.00  0.00    -0.457 A  
HETATM    4  C   UNL     1     -13.273   9.991  71.967  1.00  0.00    -0.545 A  
HETATM    5  C   UNL     1     -13.693   8.674  72.054  1.00  0.00    -0.470 A  
HETATM    6  C   UNL     1     -12.898   7.653  71.534  1.00  0.00    -0.376 A  
HETATM    7  C   UNL     1     -11.670   7.927  70.910  1.00  0.00    -0.257 A  
ENDROOT
BRANCH   7   8
HETATM    8  O   UNL     1     -10.852   6.952  70.373  1.00  0.00    -0.238 OA 
BRANCH   8   9
HETATM    9  C   UNL     1     -11.392   6.285  69.226  1.00  0.00    -0.341 C  
BRANCH   9  10
HETATM   10  C   UNL     1     -10.326   5.770  68.257  1.00  0.00    -0.212 C  
HETATM   11  O   UNL     1     -10.961   5.468  67.002  1.00  0.00    -0.419 OA 
HETATM   12  H   UNL     1     -10.299   5.148  66.401  1.00  0.00     0.000 HD 
BRANCH  10  13
HETATM   13  C   UNL     1      -9.195   6.782  68.038  1.00  0.00    -0.117 C  
HETATM   14  O   UNL     1      -8.178   6.643  69.032  1.00  0.00    -0.115 OA 
HETATM   15  H   UNL     1      -7.477   7.270  68.896  1.00  0.00     0.000 HD 
ENDBRANCH  10  13
ENDBRANCH   9  10
ENDBRANCH   8   9
ENDBRANCH   7   8
TORSDOF 4
ENDMDL
MODEL      100
REMARK 921   NORMALIZED FREE ENERGY PREDICTED BY IDOCK:   -3.60 KCAL/MOL
REMARK 922        TOTAL FREE ENERGY PREDICTED BY IDOCK:   -4.69 KCAL/MOL
REMARK 923 INTER-LIGAND FREE ENERGY PREDICTED BY IDOCK:   -4.24 KCAL/MOL
REMARK 924 INTRA-LIGAND FREE ENERGY PREDICTED BY IDOCK:   -0.45 KCAL/MOL
REMARK 927      BINDING AFFINITY PREDICTED BY RF-SCORE:    0.00 PKD
ROOT
HETATM    1  C   UNL     1     -10.727  10.758  68.137  1.00  0.00    -0.257 C  
HETATM    2  C   UNL     1     -10.530   9.948  69.393  1.00  0.00    -0.250 A  
HETATM    3  C   UNL     1      -9.471   9.022  69.433  1.00  0.00    -0.159 A  
HETATM    4  C   UNL     1      -9.236   8.243  70.568  1.00  0.00    -0.160 A  
HETATM    5  C   UNL     1     -10.061   8.379  71.673  1.00  0.00    -0.308 A  
HETATM    6  C   UNL     1     -11.119   9.288  71.645  1.00  0.00    -0.438 A  
HETATM    7  C   UNL     1     -11.370  10.083  70.515  1.00  0.00    -0.335 A  
ENDROOT
BRANCH   7   8
HETATM    8  O   UNL     1     -12.399  11.002  70.442  1.00  0.00    -0.320 OA 
BRANCH   8   9
HETATM    9  C   UNL     1     -12.798  11.553  71.702  1.00  0.00    -0.370 C  
BRANCH   9  10
HETATM   10  C   UNL     1     -13.319  12.988  71.608  1.00  0.00    -0.292 C  
HETATM   11  O   UNL     1     -13.607  13.455  72.938  1.00  0.00    -0.608 OA 
HETATM   12  H   UNL     1     -13.931  14.346  72.879  1.00  0.00     0.000 HD 
BRANCH  10  13
HETATM   13  C   UNL     1     -12.317  13.931  70.932  1.00  0.00    -0.377 C  
HETATM   14  O   UNL     1     -12.447  13.890  69.510  1.00  0.00    -0.371 OA 
HETATM   15  H   UNL     1     -11.825  14.474  69.091  1.00  0.00     0.000 HD 
ENDBRANCH  10  13
ENDBRANCH   9  10
ENDBRANCH   8   9
ENDBRANCH   7   8
TORSDOF 4
ENDMDL
MODEL      101
REMARK 921   NORMALIZED FREE ENERGY PREDICTED BY IDOCK:   -3.59 KCAL/MOL
REMARK 922        TOTAL FREE ENERGY PREDICTED BY IDOCK:   -4.68 KCAL/MOL
REMARK 923 INTER-LIGAND FREE ENERGY PREDICTED BY IDOCK:   -4.50 KCAL/MOL
REMARK 924 INTRA-LIGAND FREE ENERGY PREDICTED BY IDOCK:   -0.18 KCAL/MOL
REMARK 927      BINDING AFFINITY PREDICTED BY RF-SCORE:    0.00 PKD
ROOT
HETATM    1  C   UNL     1      -7.510  17.119  66.312  1.00  0.00    -0.344 C  
HETATM    2  C   UNL     1      -8.554  18.031  66.905  1.00  0.00    -0.262 A  
HETATM    3  C   UNL     1      -8.497  19.403  66.593  1.00  0.00    -0.339 A  
HETATM    4  C   UNL     1      -9.435  20.299  67.110  1.00  0.00    -0.557 A  
HETATM    5  C   UNL     1     -10.436  19.833  67.947  1.00  0.00    -0.531 A  
HETATM    6  C   UNL     1     -10.500  18.478  68.271  1.00  0.00    -0.326 A  
HETATM    7  C   UNL     1      -9.569  17.559  67.759  1.00  0.00    -0.269 A  
ENDROOT
BRANCH   7   8
HETATM    8  O   UNL     1      -9.595  16.207  68.043  1.00  0.00    -0.217 OA 
BRANCH   8   9
HETATM    9  C   UNL     1     -10.748  15.516  67.551  1.00  0.00    -0.300 C  
BRANCH   9  10
HETATM   10  C   UNL     1     -10.718  14.009  67.811  1.00  0.00    -0.243 C  
HETATM   11  O   UNL     1      -9.908  13.765  68.974  1.00  0.00    -0.419 OA 
HETATM   12  H   UNL     1      -9.889  12.829  69.135  1.00  0.00     0.000 HD 
BRANCH  10  13
HETATM   13  C   UNL     1     -12.120  13.423  68.021  1.00  0.00    -0.248 C  
HETATM   14  O   UNL     1     -12.055  12.029  68.329  1.00  0.00    -0.447 OA 
HETATM   15  H   UNL     1     -12.924  11.665  68.459  1.00  0.00     0.000 HD 
ENDBRANCH  10  13
ENDBRANCH   9  10
ENDBRANCH   8   9
ENDBRANCH   7   8
TORSDOF 4
ENDMDL
MODEL      102
REMARK 921   NORMALIZED FREE ENERGY PREDICTED BY IDOCK:   -3.58 KCAL/MOL
REMARK 922        TOTAL FREE ENERGY PREDICTED BY IDOCK:   -4.67 KCAL/MOL
REMARK 923 INTER-LIGAND FREE ENERGY PREDICTED BY IDOCK:   -4.39 KCAL/MOL
REMARK 924 INTRA-LIGAND FREE ENERGY PREDICTED BY IDOCK:   -0.29 KCAL/MOL
REMARK 927      BINDING AFFINITY PREDICTED BY RF-SCORE:    0.00 PKD
ROOT
HETATM    1  C   UNL     1      -9.033   6.131  71.914  1.00  0.00    -0.140 C  
HETATM    2  C   UNL     1      -9.252   6.733  70.549  1.00  0.00    -0.156 A  
HETATM    3  C   UNL     1      -8.301   6.474  69.544  1.00  0.00    -0.130 A  
HETATM    4  C   UNL     1      -8.448   7.002  68.259  1.00  0.00    -0.123 A  
HETATM    5  C   UNL     1      -9.544   7.798  67.969  1.00  0.00    -0.166 A  
HETATM    6  C   UNL     1     -10.490   8.069  68.957  1.00  0.00    -0.212 A  
HETATM    7  C   UNL     1     -10.363   7.545  70.254  1.00  0.00    -0.213 A  
ENDROOT
BRANCH   7   8
HETATM    8  O   UNL     1     -11.277   7.778  71.264  1.00  0.00    -0.247 OA 
BRANCH   8   9
HETATM    9  C   UNL     1     -11.389   9.149  71.664  1.00  0.00    -0.376 C  
BRANCH   9  10
HETATM   10  C   UNL     1     -12.822   9.682  71.636  1.00  0.00    -0.405 C  
HETATM   11  O   UNL     1     -13.115  10.127  70.300  1.00  0.00    -0.586 OA 
HETATM   12  H   UNL     1     -14.005  10.459  70.282  1.00  0.00     0.000 HD 
BRANCH  10  13
HETATM   13  C   UNL     1     -13.848   8.627  72.068  1.00  0.00    -0.440 C  
HETATM   14  O   UNL     1     -14.366   8.915  73.368  1.00  0.00    -1.192 OA 
HETATM   15  H   UNL     1     -15.002   8.261  73.637  1.00  0.00     0.000 HD 
ENDBRANCH  10  13
ENDBRANCH   9  10
ENDBRANCH   8   9
ENDBRANCH   7   8
TORSDOF 4
ENDMDL
MODEL      103
REMARK 921   NORMALIZED FREE ENERGY PREDICTED BY IDOCK:   -3.56 KCAL/MOL
REMARK 922        TOTAL FREE ENERGY PREDICTED BY IDOCK:   -4.65 KCAL/MOL
REMARK 923 INTER-LIGAND FREE ENERGY PREDICTED BY IDOCK:   -4.21 KCAL/MOL
REMARK 924 INTRA-LIGAND FREE ENERGY PREDICTED BY IDOCK:   -0.44 KCAL/MOL
REMARK 927      BINDING AFFINITY PREDICTED BY RF-SCORE:    0.00 PKD
ROOT
HETATM    1  C   UNL     1      -9.021  12.328  67.336  1.00  0.00    -0.183 C  
HETATM    2  C   UNL     1     -10.322  12.781  66.725  1.00  0.00    -0.248 A  
HETATM    3  C   UNL     1     -10.965  13.906  67.276  1.00  0.00    -0.299 A  
HETATM    4  C   UNL     1     -12.172  14.375  66.753  1.00  0.00    -0.319 A  
HETATM    5  C   UNL     1     -12.751  13.721  65.678  1.00  0.00    -0.523 A  
HETATM    6  C   UNL     1     -12.129  12.601  65.127  1.00  0.00    -0.508 A  
HETATM    7  C   UNL     1     -10.913  12.115  65.634  1.00  0.00    -0.295 A  
ENDROOT
BRANCH   7   8
HETATM    8  O   UNL     1     -10.255  11.015  65.118  1.00  0.00    -0.260 OA 
BRANCH   8   9
HETATM    9  C   UNL     1     -10.121  11.015  63.692  1.00  0.00    -0.371 C  
BRANCH   9  10
HETATM   10  C   UNL     1      -8.918  10.216  63.188  1.00  0.00    -0.248 C  
HETATM   11  O   UNL     1      -8.049  11.108  62.470  1.00  0.00    -0.422 OA 
HETATM   12  H   UNL     1      -7.302  10.612  62.157  1.00  0.00     0.000 HD 
BRANCH  10  13
HETATM   13  C   UNL     1      -8.145   9.542  64.327  1.00  0.00    -0.142 C  
HETATM   14  O   UNL     1      -8.868   8.428  64.855  1.00  0.00    -0.394 OA 
HETATM   15  H   UNL     1      -8.389   8.010  65.561  1.00  0.00     0.000 HD 
ENDBRANCH  10  13
ENDBRANCH   9  10
ENDBRANCH   8   9
ENDBRANCH   7   8
TORSDOF 4
ENDMDL
MODEL      104
REMARK 921   NORMALIZED FREE ENERGY PREDICTED BY IDOCK:   -3.56 KCAL/MOL
REMARK 922        TOTAL FREE ENERGY PREDICTED BY IDOCK:   -4.65 KCAL/MOL
REMARK 923 INTER-LIGAND FREE ENERGY PREDICTED BY IDOCK:   -4.16 KCAL/MOL
REMARK 924 INTRA-LIGAND FREE ENERGY PREDICTED BY IDOCK:   -0.48 KCAL/MOL
REMARK 927      BINDING AFFINITY PREDICTED BY RF-SCORE:    0.00 PKD
ROOT
HETATM    1  C   UNL     1      -9.476   9.504  69.975  1.00  0.00    -0.265 C  
HETATM    2  C   UNL     1     -10.756   9.479  70.771  1.00  0.00    -0.391 A  
HETATM    3  C   UNL     1     -11.709  10.489  70.538  1.00  0.00    -0.443 A  
HETATM    4  C   UNL     1     -12.914  10.519  71.243  1.00  0.00    -0.532 A  
HETATM    5  C   UNL     1     -13.176   9.544  72.191  1.00  0.00    -0.539 A  
HETATM    6  C   UNL     1     -12.238   8.542  72.438  1.00  0.00    -0.432 A  
HETATM    7  C   UNL     1     -11.022   8.490  71.738  1.00  0.00    -0.306 A  
ENDROOT
BRANCH   7   8
HETATM    8  O   UNL     1     -10.065   7.514  71.940  1.00  0.00    -0.171 OA 
BRANCH   8   9
HETATM    9  C   UNL     1     -10.527   6.174  71.737  1.00  0.00    -0.216 C  
BRANCH   9  10
HETATM   10  C   UNL     1      -9.616   5.341  70.834  1.00  0.00    -0.175 C  
HETATM   11  O   UNL     1      -9.890   3.948  71.072  1.00  0.00    -0.183 OA 
HETATM   12  H   UNL     1      -9.324   3.431  70.512  1.00  0.00     0.000 HD 
BRANCH  10  13
HETATM   13  C   UNL     1      -9.812   5.662  69.347  1.00  0.00    -0.175 C  
HETATM   14  O   UNL     1     -11.054   6.331  69.123  1.00  0.00    -0.337 OA 
HETATM   15  H   UNL     1     -11.176   6.531  68.202  1.00  0.00     0.000 HD 
ENDBRANCH  10  13
ENDBRANCH   9  10
ENDBRANCH   8   9
ENDBRANCH   7   8
TORSDOF 4
ENDMDL
MODEL      105
REMARK 921   NORMALIZED FREE ENERGY PREDICTED BY IDOCK:   -3.56 KCAL/MOL
REMARK 922        TOTAL FREE ENERGY PREDICTED BY IDOCK:   -4.65 KCAL/MOL
REMARK 923 INTER-LIGAND FREE ENERGY PREDICTED BY IDOCK:   -4.17 KCAL/MOL
REMARK 924 INTRA-LIGAND FREE ENERGY PREDICTED BY IDOCK:   -0.47 KCAL/MOL
REMARK 927      BINDING AFFINITY PREDICTED BY RF-SCORE:    0.00 PKD
ROOT
HETATM    1  C   UNL     1     -11.122  12.141  67.583  1.00  0.00    -0.320 C  
HETATM    2  C   UNL     1     -11.314  12.249  66.092  1.00  0.00    -0.402 A  
HETATM    3  C   UNL     1     -12.347  13.074  65.609  1.00  0.00    -0.504 A  
HETATM    4  C   UNL     1     -12.575  13.217  64.239  1.00  0.00    -0.253 A  
HETATM    5  C   UNL     1     -11.775  12.532  63.338  1.00  0.00    -0.567 A  
HETATM    6  C   UNL     1     -10.753  11.705  63.803  1.00  0.00    -0.482 A  
HETATM    7  C   UNL     1     -10.504  11.551  65.177  1.00  0.00    -0.286 A  
ENDROOT
BRANCH   7   8
HETATM    8  O   UNL     1      -9.499  10.750  65.685  1.00  0.00    -0.189 OA 
BRANCH   8   9
HETATM    9  C   UNL     1      -9.648   9.354  65.404  1.00  0.00    -0.226 C  
BRANCH   9  10
HETATM   10  C   UNL     1      -8.323   8.633  65.153  1.00  0.00    -0.168 C  
HETATM   11  O   UNL     1      -8.586   7.224  65.037  1.00  0.00    -0.337 OA 
HETATM   12  H   UNL     1      -7.763   6.776  64.882  1.00  0.00     0.000 HD 
BRANCH  10  13
HETATM   13  C   UNL     1      -7.613   9.135  63.890  1.00  0.00    -0.113 C  
HETATM   14  O   UNL     1      -7.395  10.546  63.946  1.00  0.00    -0.326 OA 
HETATM   15  H   UNL     1      -6.955  10.857  63.163  1.00  0.00     0.000 HD 
ENDBRANCH  10  13
ENDBRANCH   9  10
ENDBRANCH   8   9
ENDBRANCH   7   8
TORSDOF 4
ENDMDL
MODEL      106
REMARK 921   NORMALIZED FREE ENERGY PREDICTED BY IDOCK:   -3.55 KCAL/MOL
REMARK 922        TOTAL FREE ENERGY PREDICTED BY IDOCK:   -4.64 KCAL/MOL
REMARK 923 INTER-LIGAND FREE ENERGY PREDICTED BY IDOCK:   -4.41 KCAL/MOL
REMARK 924 INTRA-LIGAND FREE ENERGY PREDICTED BY IDOCK:   -0.23 KCAL/MOL
REMARK 927      BINDING AFFINITY PREDICTED BY RF-SCORE:    0.00 PKD
ROOT
HETATM    1  C   UNL     1      -6.488  18.870  67.839  1.00  0.00    -0.227 C  
HETATM    2  C   UNL     1      -7.986  18.996  67.724  1.00  0.00    -0.292 A  
HETATM    3  C   UNL     1      -8.519  20.191  67.206  1.00  0.00    -0.403 A  
HETATM    4  C   UNL     1      -9.898  20.367  67.073  1.00  0.00    -0.594 A  
HETATM    5  C   UNL     1     -10.757  19.352  67.463  1.00  0.00    -0.570 A  
HETATM    6  C   UNL     1     -10.243  18.166  67.986  1.00  0.00    -0.392 A  
HETATM    7  C   UNL     1      -8.859  17.966  68.123  1.00  0.00    -0.265 A  
ENDROOT
BRANCH   7   8
HETATM    8  O   UNL     1      -8.302  16.807  68.627  1.00  0.00    -0.232 OA 
BRANCH   8   9
HETATM    9  C   UNL     1      -9.158  15.660  68.575  1.00  0.00    -0.196 C  
BRANCH   9  10
HETATM   10  C   UNL     1      -8.663  14.566  67.628  1.00  0.00    -0.183 C  
HETATM   11  O   UNL     1      -8.718  15.071  66.282  1.00  0.00    -0.453 OA 
HETATM   12  H   UNL     1      -8.411  14.392  65.693  1.00  0.00     0.000 HD 
BRANCH  10  13
HETATM   13  C   UNL     1      -7.236  14.111  67.954  1.00  0.00    -0.158 C  
HETATM   14  O   UNL     1      -6.739  13.215  66.958  1.00  0.00    -0.443 OA 
HETATM   15  H   UNL     1      -5.854  12.933  67.160  1.00  0.00     0.000 HD 
ENDBRANCH  10  13
ENDBRANCH   9  10
ENDBRANCH   8   9
ENDBRANCH   7   8
TORSDOF 4
ENDMDL
MODEL      107
REMARK 921   NORMALIZED FREE ENERGY PREDICTED BY IDOCK:   -3.55 KCAL/MOL
REMARK 922        TOTAL FREE ENERGY PREDICTED BY IDOCK:   -4.64 KCAL/MOL
REMARK 923 INTER-LIGAND FREE ENERGY PREDICTED BY IDOCK:   -4.35 KCAL/MOL
REMARK 924 INTRA-LIGAND FREE ENERGY PREDICTED BY IDOCK:   -0.29 KCAL/MOL
REMARK 927      BINDING AFFINITY PREDICTED BY RF-SCORE:    0.00 PKD
ROOT
HETATM    1  C   UNL     1     -12.025  13.679  68.744  1.00  0.00    -0.394 C  
HETATM    2  C   UNL     1     -11.647  13.985  67.317  1.00  0.00    -0.396 A  
HETATM    3  C   UNL     1     -12.536  13.606  66.293  1.00  0.00    -0.420 A  
HETATM    4  C   UNL     1     -12.242  13.863  64.952  1.00  0.00    -0.445 A  
HETATM    5  C   UNL     1     -11.055  14.496  64.621  1.00  0.00    -0.356 A  
HETATM    6  C   UNL     1     -10.162  14.870  65.625  1.00  0.00    -0.382 A  
HETATM    7  C   UNL     1     -10.439  14.626  66.980  1.00  0.00    -0.269 A  
ENDROOT
BRANCH   7   8
HETATM    8  O   UNL     1      -9.591  14.984  68.009  1.00  0.00    -0.204 OA 
BRANCH   8   9
HETATM    9  C   UNL     1      -9.385  16.394  68.150  1.00  0.00    -0.209 C  
BRANCH   9  10
HETATM   10  C   UNL     1     -10.632  17.155  68.601  1.00  0.00    -0.352 C  
HETATM   11  O   UNL     1     -10.863  16.867  69.991  1.00  0.00    -0.369 OA 
HETATM   12  H   UNL     1     -11.638  17.339  70.271  1.00  0.00     0.000 HD 
BRANCH  10  13
HETATM   13  C   UNL     1     -10.499  18.670  68.400  1.00  0.00    -0.213 C  
HETATM   14  O   UNL     1     -10.258  18.989  67.028  1.00  0.00    -0.339 OA 
HETATM   15  H   UNL     1     -10.176  19.928  66.903  1.00  0.00     0.000 HD 
ENDBRANCH  10  13
ENDBRANCH   9  10
ENDBRANCH   8   9
ENDBRANCH   7   8
TORSDOF 4
ENDMDL
MODEL      108
REMARK 921   NORMALIZED FREE ENERGY PREDICTED BY IDOCK:   -3.55 KCAL/MOL
REMARK 922        TOTAL FREE ENERGY PREDICTED BY IDOCK:   -4.63 KCAL/MOL
REMARK 923 INTER-LIGAND FREE ENERGY PREDICTED BY IDOCK:   -4.43 KCAL/MOL
REMARK 924 INTRA-LIGAND FREE ENERGY PREDICTED BY IDOCK:   -0.21 KCAL/MOL
REMARK 927      BINDING AFFINITY PREDICTED BY RF-SCORE:    0.00 PKD
ROOT
HETATM    1  C   UNL     1     -12.352  12.807  63.736  1.00  0.00    -0.533 C  
HETATM    2  C   UNL     1     -11.812  13.736  64.793  1.00  0.00    -0.413 A  
HETATM    3  C   UNL     1     -11.519  15.064  64.431  1.00  0.00    -0.240 A  
HETATM    4  C   UNL     1     -11.017  15.972  65.366  1.00  0.00    -0.261 A  
HETATM    5  C   UNL     1     -10.799  15.560  66.670  1.00  0.00    -0.285 A  
HETATM    6  C   UNL     1     -11.078  14.245  67.041  1.00  0.00    -0.317 A  
HETATM    7  C   UNL     1     -11.587  13.317  66.118  1.00  0.00    -0.348 A  
ENDROOT
BRANCH   7   8
HETATM    8  O   UNL     1     -11.886  12.007  66.440  1.00  0.00    -0.578 OA 
BRANCH   8   9
HETATM    9  C   UNL     1     -10.787  11.256  66.969  1.00  0.00    -0.280 C  
BRANCH   9  10
HETATM   10  C   UNL     1     -10.947  10.891  68.446  1.00  0.00    -0.237 C  
HETATM   11  O   UNL     1     -11.777   9.719  68.537  1.00  0.00    -0.384 OA 
HETATM   12  H   UNL     1     -11.877   9.493  69.454  1.00  0.00     0.000 HD 
BRANCH  10  13
HETATM   13  C   UNL     1      -9.602  10.630  69.134  1.00  0.00    -0.177 C  
HETATM   14  O   UNL     1      -8.718  11.741  68.976  1.00  0.00    -0.373 OA 
HETATM   15  H   UNL     1      -7.884  11.580  69.403  1.00  0.00     0.000 HD 
ENDBRANCH  10  13
ENDBRANCH   9  10
ENDBRANCH   8   9
ENDBRANCH   7   8
TORSDOF 4
ENDMDL
MODEL      109
REMARK 921   NORMALIZED FREE ENERGY PREDICTED BY IDOCK:   -3.53 KCAL/MOL
REMARK 922        TOTAL FREE ENERGY PREDICTED BY IDOCK:   -4.61 KCAL/MOL
REMARK 923 INTER-LIGAND FREE ENERGY PREDICTED BY IDOCK:   -4.48 KCAL/MOL
REMARK 924 INTRA-LIGAND FREE ENERGY PREDICTED BY IDOCK:   -0.13 KCAL/MOL
REMARK 927      BINDING AFFINITY PREDICTED BY RF-SCORE:    0.00 PKD
ROOT
HETATM    1  C   UNL     1      -8.408  15.255  69.409  1.00  0.00    -0.232 C  
HETATM    2  C   UNL     1      -8.902  16.322  68.466  1.00  0.00    -0.219 A  
HETATM    3  C   UNL     1      -8.145  16.597  67.311  1.00  0.00    -0.193 A  
HETATM    4  C   UNL     1      -8.550  17.573  66.399  1.00  0.00    -0.273 A  
HETATM    5  C   UNL     1      -9.713  18.288  66.634  1.00  0.00    -0.339 A  
HETATM    6  C   UNL     1     -10.469  18.031  67.778  1.00  0.00    -0.421 A  
HETATM    7  C   UNL     1     -10.082  17.051  68.706  1.00  0.00    -0.307 A  
ENDROOT
BRANCH   7   8
HETATM    8  O   UNL     1     -10.801  16.755  69.849  1.00  0.00    -0.309 OA 
BRANCH   8   9
HETATM    9  C   UNL     1     -11.866  15.817  69.657  1.00  0.00    -0.340 C  
BRANCH   9  10
HETATM   10  C   UNL     1     -12.701  15.571  70.915  1.00  0.00    -0.468 C  
HETATM   11  O   UNL     1     -13.653  14.531  70.633  1.00  0.00    -0.480 OA 
HETATM   12  H   UNL     1     -14.172  14.378  71.413  1.00  0.00     0.000 HD 
BRANCH  10  13
HETATM   13  C   UNL     1     -11.841  15.175  72.121  1.00  0.00    -0.415 C  
HETATM   14  O   UNL     1     -12.014  16.093  73.203  1.00  0.00    -0.480 OA 
HETATM   15  H   UNL     1     -11.480  15.848  73.950  1.00  0.00     0.000 HD 
ENDBRANCH  10  13
ENDBRANCH   9  10
ENDBRANCH   8   9
ENDBRANCH   7   8
TORSDOF 4
ENDMDL
MODEL      110
REMARK 921   NORMALIZED FREE ENERGY PREDICTED BY IDOCK:   -3.53 KCAL/MOL
REMARK 922        TOTAL FREE ENERGY PREDICTED BY IDOCK:   -4.60 KCAL/MOL
REMARK 923 INTER-LIGAND FREE ENERGY PREDICTED BY IDOCK:   -4.30 KCAL/MOL
REMARK 924 INTRA-LIGAND FREE ENERGY PREDICTED BY IDOCK:   -0.30 KCAL/MOL
REMARK 927      BINDING AFFINITY PREDICTED BY RF-SCORE:    0.00 PKD
ROOT
HETATM    1  C   UNL     1     -12.830  13.103  71.376  1.00  0.00    -0.401 C  
HETATM    2  C   UNL     1     -12.235  12.020  70.512  1.00  0.00    -0.414 A  
HETATM    3  C   UNL     1     -11.941  10.778  71.105  1.00  0.00    -0.361 A  
HETATM    4  C   UNL     1     -11.391   9.735  70.357  1.00  0.00    -0.362 A  
HETATM    5  C   UNL     1     -11.125   9.925  69.011  1.00  0.00    -0.184 A  
HETATM    6  C   UNL     1     -11.404  11.153  68.412  1.00  0.00    -0.357 A  
HETATM    7  C   UNL     1     -11.961  12.214  69.145  1.00  0.00    -0.255 A  
ENDROOT
BRANCH   7   8
HETATM    8  O   UNL     1     -12.263  13.446  68.596  1.00  0.00    -0.298 OA 
BRANCH   8   9
HETATM    9  C   UNL     1     -11.124  14.234  68.234  1.00  0.00    -0.258 C  
BRANCH   9  10
HETATM   10  C   UNL     1     -10.945  15.485  69.095  1.00  0.00    -0.259 C  
HETATM   11  O   UNL     1     -10.026  15.178  70.158  1.00  0.00    -0.492 OA 
HETATM   12  H   UNL     1      -9.915  15.955  70.693  1.00  0.00     0.000 HD 
BRANCH  10  13
HETATM   13  C   UNL     1     -10.426  16.682  68.289  1.00  0.00    -0.321 C  
HETATM   14  O   UNL     1     -10.760  17.917  68.925  1.00  0.00    -0.334 OA 
HETATM   15  H   UNL     1     -10.438  18.659  68.425  1.00  0.00     0.000 HD 
ENDBRANCH  10  13
ENDBRANCH   9  10
ENDBRANCH   8   9
ENDBRANCH   7   8
TORSDOF 4
ENDMDL
MODEL      111
REMARK 921   NORMALIZED FREE ENERGY PREDICTED BY IDOCK:   -3.51 KCAL/MOL
REMARK 922        TOTAL FREE ENERGY PREDICTED BY IDOCK:   -4.59 KCAL/MOL
REMARK 923 INTER-LIGAND FREE ENERGY PREDICTED BY IDOCK:   -4.31 KCAL/MOL
REMARK 924 INTRA-LIGAND FREE ENERGY PREDICTED BY IDOCK:   -0.28 KCAL/MOL
REMARK 927      BINDING AFFINITY PREDICTED BY RF-SCORE:    0.00 PKD
ROOT
HETATM    1  C   UNL     1     -12.167  13.623  70.461  1.00  0.00    -0.438 C  
HETATM    2  C   UNL     1     -11.884  13.409  68.996  1.00  0.00    -0.378 A  
HETATM    3  C   UNL     1     -11.755  14.540  68.167  1.00  0.00    -0.369 A  
HETATM    4  C   UNL     1     -11.491  14.407  66.803  1.00  0.00    -0.381 A  
HETATM    5  C   UNL     1     -11.359  13.143  66.252  1.00  0.00    -0.348 A  
HETATM    6  C   UNL     1     -11.493  12.014  67.059  1.00  0.00    -0.402 A  
HETATM    7  C   UNL     1     -11.753  12.125  68.435  1.00  0.00    -0.332 A  
ENDROOT
BRANCH   7   8
HETATM    8  O   UNL     1     -11.886  11.037  69.277  1.00  0.00    -0.298 OA 
BRANCH   8   9
HETATM    9  C   UNL     1     -10.673  10.312  69.511  1.00  0.00    -0.249 C  
BRANCH   9  10
HETATM   10  C   UNL     1     -10.888   8.959  70.192  1.00  0.00    -0.231 C  
HETATM   11  O   UNL     1      -9.675   8.195  70.075  1.00  0.00    -0.172 OA 
HETATM   12  H   UNL     1      -9.808   7.354  70.497  1.00  0.00     0.000 HD 
BRANCH  10  13
HETATM   13  C   UNL     1     -11.273   9.101  71.669  1.00  0.00    -0.377 C  
HETATM   14  O   UNL     1     -12.693   9.113  71.833  1.00  0.00    -0.334 OA 
HETATM   15  H   UNL     1     -12.932   9.201  72.749  1.00  0.00     0.000 HD 
ENDBRANCH  10  13
ENDBRANCH   9  10
ENDBRANCH   8   9
ENDBRANCH   7   8
TORSDOF 4
ENDMDL
MODEL      112
REMARK 921   NORMALIZED FREE ENERGY PREDICTED BY IDOCK:   -3.50 KCAL/MOL
REMARK 922        TOTAL FREE ENERGY PREDICTED BY IDOCK:   -4.58 KCAL/MOL
REMARK 923 INTER-LIGAND FREE ENERGY PREDICTED BY IDOCK:   -4.24 KCAL/MOL
REMARK 924 INTRA-LIGAND FREE ENERGY PREDICTED BY IDOCK:   -0.34 KCAL/MOL
REMARK 927      BINDING AFFINITY PREDICTED BY RF-SCORE:    0.00 PKD
ROOT
HETATM    1  C   UNL     1     -11.803  11.095  69.211  1.00  0.00    -0.422 C  
HETATM    2  C   UNL     1     -11.835  12.586  68.987  1.00  0.00    -0.344 A  
HETATM    3  C   UNL     1     -11.969  13.428  70.107  1.00  0.00    -0.396 A  
HETATM    4  C   UNL     1     -12.003  14.816  69.965  1.00  0.00    -0.369 A  
HETATM    5  C   UNL     1     -11.909  15.377  68.702  1.00  0.00    -0.317 A  
HETATM    6  C   UNL     1     -11.783  14.554  67.582  1.00  0.00    -0.410 A  
HETATM    7  C   UNL     1     -11.742  13.156  67.703  1.00  0.00    -0.369 A  
ENDROOT
BRANCH   7   8
HETATM    8  O   UNL     1     -11.611  12.300  66.626  1.00  0.00    -0.362 OA 
BRANCH   8   9
HETATM    9  C   UNL     1     -10.604  12.680  65.681  1.00  0.00    -0.273 C  
BRANCH   9  10
HETATM   10  C   UNL     1      -9.559  11.592  65.428  1.00  0.00    -0.205 C  
HETATM   11  O   UNL     1      -8.399  11.881  66.228  1.00  0.00    -0.375 OA 
HETATM   12  H   UNL     1      -7.749  11.206  66.070  1.00  0.00     0.000 HD 
BRANCH  10  13
HETATM   13  C   UNL     1     -10.081  10.189  65.758  1.00  0.00    -0.254 C  
HETATM   14  O   UNL     1      -9.393   9.632  66.879  1.00  0.00    -0.140 OA 
HETATM   15  H   UNL     1      -9.716   8.762  67.084  1.00  0.00     0.000 HD 
ENDBRANCH  10  13
ENDBRANCH   9  10
ENDBRANCH   8   9
ENDBRANCH   7   8
TORSDOF 4
ENDMDL
MODEL      113
REMARK 921   NORMALIZED FREE ENERGY PREDICTED BY IDOCK:   -3.50 KCAL/MOL
REMARK 922        TOTAL FREE ENERGY PREDICTED BY IDOCK:   -4.56 KCAL/MOL
REMARK 923 INTER-LIGAND FREE ENERGY PREDICTED BY IDOCK:   -4.55 KCAL/MOL
REMARK 924 INTRA-LIGAND FREE ENERGY PREDICTED BY IDOCK:   -0.01 KCAL/MOL
REMARK 927      BINDING AFFINITY PREDICTED BY RF-SCORE:    0.00 PKD
ROOT
HETATM    1  C   UNL     1     -11.684  15.701  68.866  1.00  0.00    -0.396 C  
HETATM    2  C   UNL     1     -11.398  15.039  67.542  1.00  0.00    -0.340 A  
HETATM    3  C   UNL     1     -10.807  15.810  66.523  1.00  0.00    -0.230 A  
HETATM    4  C   UNL     1     -10.517  15.254  65.275  1.00  0.00    -0.436 A  
HETATM    5  C   UNL     1     -10.817  13.924  65.033  1.00  0.00    -0.389 A  
HETATM    6  C   UNL     1     -11.409  13.150  66.031  1.00  0.00    -0.337 A  
HETATM    7  C   UNL     1     -11.706  13.688  67.294  1.00  0.00    -0.380 A  
ENDROOT
BRANCH   7   8
HETATM    8  O   UNL     1     -12.284  12.961  68.317  1.00  0.00    -0.206 OA 
BRANCH   8   9
HETATM    9  C   UNL     1     -11.366  12.501  69.316  1.00  0.00    -0.245 C  
BRANCH   9  10
HETATM   10  C   UNL     1     -11.214  10.980  69.357  1.00  0.00    -0.268 C  
HETATM   11  O   UNL     1     -12.283  10.396  68.591  1.00  0.00    -0.750 OA 
HETATM   12  H   UNL     1     -12.189   9.451  68.617  1.00  0.00     0.000 HD 
BRANCH  10  13
HETATM   13  C   UNL     1      -9.863  10.511  68.804  1.00  0.00    -0.186 C  
HETATM   14  O   UNL     1      -8.832  10.640  69.784  1.00  0.00    -0.386 OA 
HETATM   15  H   UNL     1      -7.994  10.349  69.442  1.00  0.00     0.000 HD 
ENDBRANCH  10  13
ENDBRANCH   9  10
ENDBRANCH   8   9
ENDBRANCH   7   8
TORSDOF 4
ENDMDL
MODEL      114
REMARK 921   NORMALIZED FREE ENERGY PREDICTED BY IDOCK:   -3.49 KCAL/MOL
REMARK 922        TOTAL FREE ENERGY PREDICTED BY IDOCK:   -4.56 KCAL/MOL
REMARK 923 INTER-LIGAND FREE ENERGY PREDICTED BY IDOCK:   -4.28 KCAL/MOL
REMARK 924 INTRA-LIGAND FREE ENERGY PREDICTED BY IDOCK:   -0.28 KCAL/MOL
REMARK 927      BINDING AFFINITY PREDICTED BY RF-SCORE:    0.00 PKD
ROOT
HETATM    1  C   UNL     1      -7.263  20.939  67.301  1.00  0.00    -0.408 C  
HETATM    2  C   UNL     1      -8.418  19.983  67.458  1.00  0.00    -0.393 A  
HETATM    3  C   UNL     1      -9.672  20.359  66.939  1.00  0.00    -0.567 A  
HETATM    4  C   UNL     1     -10.780  19.517  67.052  1.00  0.00    -0.592 A  
HETATM    5  C   UNL     1     -10.647  18.294  67.689  1.00  0.00    -0.427 A  
HETATM    6  C   UNL     1      -9.412  17.912  68.215  1.00  0.00    -0.300 A  
HETATM    7  C   UNL     1      -8.284  18.742  68.108  1.00  0.00    -0.304 A  
ENDROOT
BRANCH   7   8
HETATM    8  O   UNL     1      -7.040  18.405  68.605  1.00  0.00    -0.261 OA 
BRANCH   8   9
HETATM    9  C   UNL     1      -6.456  17.240  68.013  1.00  0.00    -0.154 C  
BRANCH   9  10
HETATM   10  C   UNL     1      -5.997  16.197  69.033  1.00  0.00    -0.128 C  
HETATM   11  O   UNL     1      -5.790  16.856  70.295  1.00  0.00    -0.216 OA 
HETATM   12  H   UNL     1      -5.505  16.209  70.929  1.00  0.00     0.000 HD 
BRANCH  10  13
HETATM   13  C   UNL     1      -7.009  15.057  69.202  1.00  0.00    -0.139 C  
HETATM   14  O   UNL     1      -6.807  14.366  70.436  1.00  0.00    -0.395 OA 
HETATM   15  H   UNL     1      -7.434  13.659  70.540  1.00  0.00     0.000 HD 
ENDBRANCH  10  13
ENDBRANCH   9  10
ENDBRANCH   8   9
ENDBRANCH   7   8
TORSDOF 4
ENDMDL
MODEL      115
REMARK 921   NORMALIZED FREE ENERGY PREDICTED BY IDOCK:   -3.47 KCAL/MOL
REMARK 922        TOTAL FREE ENERGY PREDICTED BY IDOCK:   -4.54 KCAL/MOL
REMARK 923 INTER-LIGAND FREE ENERGY PREDICTED BY IDOCK:   -4.09 KCAL/MOL
REMARK 924 INTRA-LIGAND FREE ENERGY PREDICTED BY IDOCK:   -0.45 KCAL/MOL
REMARK 927      BINDING AFFINITY PREDICTED BY RF-SCORE:    0.00 PKD
ROOT
HETATM    1  C   UNL     1      -8.298  10.296  69.405  1.00  0.00    -0.169 C  
HETATM    2  C   UNL     1      -9.465  10.988  68.747  1.00  0.00    -0.190 A  
HETATM    3  C   UNL     1      -9.220  11.770  67.602  1.00  0.00    -0.180 A  
HETATM    4  C   UNL     1     -10.258  12.434  66.947  1.00  0.00    -0.238 A  
HETATM    5  C   UNL     1     -11.551  12.329  67.433  1.00  0.00    -0.425 A  
HETATM    6  C   UNL     1     -11.808  11.564  68.571  1.00  0.00    -0.365 A  
HETATM    7  C   UNL     1     -10.778  10.884  69.243  1.00  0.00    -0.231 A  
ENDROOT
BRANCH   7   8
HETATM    8  O   UNL     1     -10.983  10.109  70.368  1.00  0.00    -0.289 OA 
BRANCH   8   9
HETATM    9  C   UNL     1     -12.088  10.518  71.182  1.00  0.00    -0.370 C  
BRANCH   9  10
HETATM   10  C   UNL     1     -12.920   9.352  71.718  1.00  0.00    -0.402 C  
HETATM   11  O   UNL     1     -14.020   9.126  70.818  1.00  0.00    -0.560 OA 
HETATM   12  H   UNL     1     -14.537   8.403  71.151  1.00  0.00     0.000 HD 
BRANCH  10  13
HETATM   13  C   UNL     1     -12.099   8.066  71.867  1.00  0.00    -0.317 C  
HETATM   14  O   UNL     1     -11.016   8.248  72.781  1.00  0.00    -0.354 OA 
HETATM   15  H   UNL     1     -10.506   7.451  72.874  1.00  0.00     0.000 HD 
ENDBRANCH  10  13
ENDBRANCH   9  10
ENDBRANCH   8   9
ENDBRANCH   7   8
TORSDOF 4
ENDMDL
MODEL      116
REMARK 921   NORMALIZED FREE ENERGY PREDICTED BY IDOCK:   -3.47 KCAL/MOL
REMARK 922        TOTAL FREE ENERGY PREDICTED BY IDOCK:   -4.53 KCAL/MOL
REMARK 923 INTER-LIGAND FREE ENERGY PREDICTED BY IDOCK:   -4.32 KCAL/MOL
REMARK 924 INTRA-LIGAND FREE ENERGY PREDICTED BY IDOCK:   -0.21 KCAL/MOL
REMARK 927      BINDING AFFINITY PREDICTED BY RF-SCORE:    0.00 PKD
ROOT
HETATM    1  C   UNL     1      -8.337  13.624  67.346  1.00  0.00    -0.198 C  
HETATM    2  C   UNL     1      -9.474  14.019  66.438  1.00  0.00    -0.278 A  
HETATM    3  C   UNL     1     -10.364  13.018  66.006  1.00  0.00    -0.293 A  
HETATM    4  C   UNL     1     -11.437  13.321  65.165  1.00  0.00    -0.319 A  
HETATM    5  C   UNL     1     -11.628  14.627  64.745  1.00  0.00    -0.418 A  
HETATM    6  C   UNL     1     -10.750  15.628  65.160  1.00  0.00    -0.463 A  
HETATM    7  C   UNL     1      -9.667  15.346  66.008  1.00  0.00    -0.338 A  
ENDROOT
BRANCH   7   8
HETATM    8  O   UNL     1      -8.775  16.304  66.452  1.00  0.00    -0.260 OA 
BRANCH   8   9
HETATM    9  C   UNL     1      -9.248  17.098  67.546  1.00  0.00    -0.233 C  
BRANCH   9  10
HETATM   10  C   UNL     1      -8.979  18.595  67.378  1.00  0.00    -0.272 C  
HETATM   11  O   UNL     1      -7.588  18.774  67.060  1.00  0.00    -0.223 OA 
HETATM   12  H   UNL     1      -7.421  19.703  66.957  1.00  0.00     0.000 HD 
BRANCH  10  13
HETATM   13  C   UNL     1      -9.848  19.227  66.284  1.00  0.00    -0.392 C  
HETATM   14  O   UNL     1      -9.698  20.648  66.263  1.00  0.00    -0.632 OA 
HETATM   15  H   UNL     1     -10.237  21.040  65.585  1.00  0.00     0.000 HD 
ENDBRANCH  10  13
ENDBRANCH   9  10
ENDBRANCH   8   9
ENDBRANCH   7   8
TORSDOF 4
ENDMDL
MODEL      117
REMARK 921   NORMALIZED FREE ENERGY PREDICTED BY IDOCK:   -3.46 KCAL/MOL
REMARK 922        TOTAL FREE ENERGY PREDICTED BY IDOCK:   -4.52 KCAL/MOL
REMARK 923 INTER-LIGAND FREE ENERGY PREDICTED BY IDOCK:   -4.35 KCAL/MOL
REMARK 924 INTRA-LIGAND FREE ENERGY PREDICTED BY IDOCK:   -0.17 KCAL/MOL
REMARK 927      BINDING AFFINITY PREDICTED BY RF-SCORE:    0.00 PKD
ROOT
HETATM    1  C   UNL     1     -12.886  12.165  64.072  1.00  0.00    -0.383 C  
HETATM    2  C   UNL     1     -12.054  13.062  64.953  1.00  0.00    -0.459 A  
HETATM    3  C   UNL     1     -11.888  14.407  64.572  1.00  0.00    -0.463 A  
HETATM    4  C   UNL     1     -11.130  15.288  65.347  1.00  0.00    -0.351 A  
HETATM    5  C   UNL     1     -10.526  14.831  66.507  1.00  0.00    -0.291 A  
HETATM    6  C   UNL     1     -10.675  13.499  66.892  1.00  0.00    -0.274 A  
HETATM    7  C   UNL     1     -11.437  12.598  66.130  1.00  0.00    -0.365 A  
ENDROOT
BRANCH   7   8
HETATM    8  O   UNL     1     -11.621  11.272  66.474  1.00  0.00    -0.344 OA 
BRANCH   8   9
HETATM    9  C   UNL     1     -10.424  10.581  66.848  1.00  0.00    -0.246 C  
BRANCH   9  10
HETATM   10  C   UNL     1     -10.659   9.128  67.266  1.00  0.00    -0.233 C  
HETATM   11  O   UNL     1      -9.839   8.280  66.443  1.00  0.00    -0.301 OA 
HETATM   12  H   UNL     1      -9.985   7.378  66.702  1.00  0.00     0.000 HD 
BRANCH  10  13
HETATM   13  C   UNL     1     -10.337   8.884  68.745  1.00  0.00    -0.211 C  
HETATM   14  O   UNL     1     -11.370   8.131  69.381  1.00  0.00    -0.426 OA 
HETATM   15  H   UNL     1     -11.171   7.980  70.298  1.00  0.00     0.000 HD 
ENDBRANCH  10  13
ENDBRANCH   9  10
ENDBRANCH   8   9
ENDBRANCH   7   8
TORSDOF 4
ENDMDL
MODEL      118
REMARK 921   NORMALIZED FREE ENERGY PREDICTED BY IDOCK:   -3.43 KCAL/MOL
REMARK 922        TOTAL FREE ENERGY PREDICTED BY IDOCK:   -4.49 KCAL/MOL
REMARK 923 INTER-LIGAND FREE ENERGY PREDICTED BY IDOCK:   -4.00 KCAL/MOL
REMARK 924 INTRA-LIGAND FREE ENERGY PREDICTED BY IDOCK:   -0.48 KCAL/MOL
REMARK 927      BINDING AFFINITY PREDICTED BY RF-SCORE:    0.00 PKD
ROOT
HETATM    1  C   UNL     1     -10.688   9.451  68.421  1.00  0.00    -0.213 C  
HETATM    2  C   UNL     1      -9.548   8.987  69.292  1.00  0.00    -0.162 A  
HETATM    3  C   UNL     1      -8.426   8.407  68.672  1.00  0.00    -0.128 A  
HETATM    4  C   UNL     1      -7.338   7.960  69.424  1.00  0.00    -0.081 A  
HETATM    5  C   UNL     1      -7.364   8.083  70.804  1.00  0.00    -0.057 A  
HETATM    6  C   UNL     1      -8.473   8.649  71.432  1.00  0.00    -0.240 A  
HETATM    7  C   UNL     1      -9.576   9.110  70.694  1.00  0.00    -0.255 A  
ENDROOT
BRANCH   7   8
HETATM    8  O   UNL     1     -10.693   9.684  71.270  1.00  0.00    -0.335 OA 
BRANCH   8   9
HETATM    9  C   UNL     1     -11.439   8.813  72.126  1.00  0.00    -0.351 C  
BRANCH   9  10
HETATM   10  C   UNL     1     -12.953   8.904  71.927  1.00  0.00    -0.382 C  
HETATM   11  O   UNL     1     -13.582   8.916  73.221  1.00  0.00    -1.012 OA 
HETATM   12  H   UNL     1     -14.521   8.972  73.097  1.00  0.00     0.000 HD 
BRANCH  10  13
HETATM   13  C   UNL     1     -13.365  10.151  71.137  1.00  0.00    -0.295 C  
HETATM   14  O   UNL     1     -13.045  11.346  71.854  1.00  0.00    -0.492 OA 
HETATM   15  H   UNL     1     -13.301  12.119  71.364  1.00  0.00     0.000 HD 
ENDBRANCH  10  13
ENDBRANCH   9  10
ENDBRANCH   8   9
ENDBRANCH   7   8
TORSDOF 4
ENDMDL
MODEL      119
REMARK 921   NORMALIZED FREE ENERGY PREDICTED BY IDOCK:   -3.43 KCAL/MOL
REMARK 922        TOTAL FREE ENERGY PREDICTED BY IDOCK:   -4.48 KCAL/MOL
REMARK 923 INTER-LIGAND FREE ENERGY PREDICTED BY IDOCK:   -4.12 KCAL/MOL
REMARK 924 INTRA-LIGAND FREE ENERGY PREDICTED BY IDOCK:   -0.36 KCAL/MOL
REMARK 927      BINDING AFFINITY PREDICTED BY RF-SCORE:    0.00 PKD
ROOT
HETATM    1  C   UNL     1     -11.618  14.681  67.443  1.00  0.00    -0.408 C  
HETATM    2  C   UNL     1     -11.797  13.620  68.499  1.00  0.00    -0.406 A  
HETATM    3  C   UNL     1     -12.245  14.014  69.774  1.00  0.00    -0.396 A  
HETATM    4  C   UNL     1     -12.431  13.078  70.793  1.00  0.00    -0.384 A  
HETATM    5  C   UNL     1     -12.167  11.740  70.550  1.00  0.00    -0.438 A  
HETATM    6  C   UNL     1     -11.715  11.337  69.293  1.00  0.00    -0.403 A  
HETATM    7  C   UNL     1     -11.525  12.261  68.253  1.00  0.00    -0.315 A  
ENDROOT
BRANCH   7   8
HETATM    8  O   UNL     1     -11.088  11.909  66.990  1.00  0.00    -0.267 OA 
BRANCH   8   9
HETATM    9  C   UNL     1      -9.665  11.906  66.830  1.00  0.00    -0.200 C  
BRANCH   9  10
HETATM   10  C   UNL     1      -9.075  10.511  66.613  1.00  0.00    -0.155 C  
HETATM   11  O   UNL     1      -8.763   9.945  67.899  1.00  0.00    -0.128 OA 
HETATM   12  H   UNL     1      -8.396   9.079  67.764  1.00  0.00     0.000 HD 
BRANCH  10  13
HETATM   13  C   UNL     1     -10.029   9.583  65.854  1.00  0.00    -0.272 C  
HETATM   14  O   UNL     1     -10.300  10.081  64.542  1.00  0.00    -0.349 OA 
HETATM   15  H   UNL     1     -10.892   9.506  64.071  1.00  0.00     0.000 HD 
ENDBRANCH  10  13
ENDBRANCH   9  10
ENDBRANCH   8   9
ENDBRANCH   7   8
TORSDOF 4
ENDMDL
MODEL      120
REMARK 921   NORMALIZED FREE ENERGY PREDICTED BY IDOCK:   -3.43 KCAL/MOL
REMARK 922        TOTAL FREE ENERGY PREDICTED BY IDOCK:   -4.48 KCAL/MOL
REMARK 923 INTER-LIGAND FREE ENERGY PREDICTED BY IDOCK:   -4.45 KCAL/MOL
REMARK 924 INTRA-LIGAND FREE ENERGY PREDICTED BY IDOCK:   -0.03 KCAL/MOL
REMARK 927      BINDING AFFINITY PREDICTED BY RF-SCORE:    0.00 PKD
ROOT
HETATM    1  C   UNL     1      -7.819  17.013  68.453  1.00  0.00    -0.233 C  
HETATM    2  C   UNL     1      -8.613  18.154  67.870  1.00  0.00    -0.259 A  
HETATM    3  C   UNL     1      -9.609  18.752  68.665  1.00  0.00    -0.432 A  
HETATM    4  C   UNL     1     -10.377  19.813  68.182  1.00  0.00    -0.561 A  
HETATM    5  C   UNL     1     -10.161  20.283  66.897  1.00  0.00    -0.565 A  
HETATM    6  C   UNL     1      -9.183  19.696  66.095  1.00  0.00    -0.397 A  
HETATM    7  C   UNL     1      -8.396  18.630  66.563  1.00  0.00    -0.291 A  
ENDROOT
BRANCH   7   8
HETATM    8  O   UNL     1      -7.411  18.021  65.810  1.00  0.00    -0.493 OA 
BRANCH   8   9
HETATM    9  C   UNL     1      -6.081  18.475  66.087  1.00  0.00    -0.178 C  
BRANCH   9  10
HETATM   10  C   UNL     1      -5.571  19.522  65.096  1.00  0.00    -0.179 C  
HETATM   11  O   UNL     1      -6.242  19.324  63.839  1.00  0.00    -0.390 OA 
HETATM   12  H   UNL     1      -5.924  19.974  63.224  1.00  0.00     0.000 HD 
BRANCH  10  13
HETATM   13  C   UNL     1      -5.802  20.956  65.588  1.00  0.00    -0.238 C  
HETATM   14  O   UNL     1      -6.114  20.980  66.982  1.00  0.00    -0.236 OA 
HETATM   15  H   UNL     1      -6.258  21.869  67.287  1.00  0.00     0.000 HD 
ENDBRANCH  10  13
ENDBRANCH   9  10
ENDBRANCH   8   9
ENDBRANCH   7   8
TORSDOF 4
ENDMDL
MODEL      121
REMARK 921   NORMALIZED FREE ENERGY PREDICTED BY IDOCK:   -3.43 KCAL/MOL
REMARK 922        TOTAL FREE ENERGY PREDICTED BY IDOCK:   -4.48 KCAL/MOL
REMARK 923 INTER-LIGAND FREE ENERGY PREDICTED BY IDOCK:   -4.30 KCAL/MOL
REMARK 924 INTRA-LIGAND FREE ENERGY PREDICTED BY IDOCK:   -0.18 KCAL/MOL
REMARK 927      BINDING AFFINITY PREDICTED BY RF-SCORE:    0.00 PKD
ROOT
HETATM    1  C   UNL     1     -11.014  16.666  68.234  1.00  0.00    -0.341 C  
HETATM    2  C   UNL     1     -10.094  17.810  67.893  1.00  0.00    -0.342 A  
HETATM    3  C   UNL     1     -10.647  18.955  67.288  1.00  0.00    -0.529 A  
HETATM    4  C   UNL     1      -9.847  20.048  66.948  1.00  0.00    -0.571 A  
HETATM    5  C   UNL     1      -8.487  20.006  67.206  1.00  0.00    -0.390 A  
HETATM    6  C   UNL     1      -7.924  18.875  67.798  1.00  0.00    -0.275 A  
HETATM    7  C   UNL     1      -8.711  17.766  68.151  1.00  0.00    -0.266 A  
ENDROOT
BRANCH   7   8
HETATM    8  O   UNL     1      -8.202  16.628  68.746  1.00  0.00    -0.230 OA 
BRANCH   8   9
HETATM    9  C   UNL     1      -7.433  15.791  67.874  1.00  0.00    -0.134 C  
BRANCH   9  10
HETATM   10  C   UNL     1      -7.842  14.318  67.918  1.00  0.00    -0.152 C  
HETATM   11  O   UNL     1      -7.865  13.894  69.292  1.00  0.00    -0.339 OA 
HETATM   12  H   UNL     1      -8.119  12.979  69.320  1.00  0.00     0.000 HD 
BRANCH  10  13
HETATM   13  C   UNL     1      -9.212  14.071  67.275  1.00  0.00    -0.230 C  
HETATM   14  O   UNL     1      -9.265  14.607  65.951  1.00  0.00    -0.502 OA 
HETATM   15  H   UNL     1     -10.114  14.454  65.552  1.00  0.00     0.000 HD 
ENDBRANCH  10  13
ENDBRANCH   9  10
ENDBRANCH   8   9
ENDBRANCH   7   8
TORSDOF 4
ENDMDL
MODEL      122
REMARK 921   NORMALIZED FREE ENERGY PREDICTED BY IDOCK:   -3.42 KCAL/MOL
REMARK 922        TOTAL FREE ENERGY PREDICTED BY IDOCK:   -4.47 KCAL/MOL
REMARK 923 INTER-LIGAND FREE ENERGY PREDICTED BY IDOCK:   -4.23 KCAL/MOL
REMARK 924 INTRA-LIGAND FREE ENERGY PREDICTED BY IDOCK:   -0.24 KCAL/MOL
REMARK 927      BINDING AFFINITY PREDICTED BY RF-SCORE:    0.00 PKD
ROOT
HETATM    1  C   UNL     1     -11.633  15.494  69.667  1.00  0.00    -0.359 C  
HETATM    2  C   UNL     1     -11.183  15.764  68.254  1.00  0.00    -0.356 A  
HETATM    3  C   UNL     1     -10.604  17.014  67.963  1.00  0.00    -0.373 A  
HETATM    4  C   UNL     1     -10.167  17.324  66.674  1.00  0.00    -0.319 A  
HETATM    5  C   UNL     1     -10.308  16.389  65.661  1.00  0.00    -0.371 A  
HETATM    6  C   UNL     1     -10.887  15.149  65.933  1.00  0.00    -0.342 A  
HETATM    7  C   UNL     1     -11.330  14.816  67.224  1.00  0.00    -0.357 A  
ENDROOT
BRANCH   7   8
HETATM    8  O   UNL     1     -11.901  13.599  67.544  1.00  0.00    -0.350 OA 
BRANCH   8   9
HETATM    9  C   UNL     1     -11.094  12.459  67.230  1.00  0.00    -0.281 C  
BRANCH   9  10
HETATM   10  C   UNL     1      -9.725  12.469  67.912  1.00  0.00    -0.205 C  
HETATM   11  O   UNL     1      -9.727  11.472  68.949  1.00  0.00    -0.354 OA 
HETATM   12  H   UNL     1      -8.878  11.478  69.373  1.00  0.00     0.000 HD 
BRANCH  10  13
HETATM   13  C   UNL     1      -8.579  12.196  66.931  1.00  0.00    -0.191 C  
HETATM   14  O   UNL     1      -7.565  13.198  67.029  1.00  0.00    -0.376 OA 
HETATM   15  H   UNL     1      -6.855  13.028  66.421  1.00  0.00     0.000 HD 
ENDBRANCH  10  13
ENDBRANCH   9  10
ENDBRANCH   8   9
ENDBRANCH   7   8
TORSDOF 4
ENDMDL
MODEL      123
REMARK 921   NORMALIZED FREE ENERGY PREDICTED BY IDOCK:   -3.42 KCAL/MOL
REMARK 922        TOTAL FREE ENERGY PREDICTED BY IDOCK:   -4.47 KCAL/MOL
REMARK 923 INTER-LIGAND FREE ENERGY PREDICTED BY IDOCK:   -4.24 KCAL/MOL
REMARK 924 INTRA-LIGAND FREE ENERGY PREDICTED BY IDOCK:   -0.22 KCAL/MOL
REMARK 927      BINDING AFFINITY PREDICTED BY RF-SCORE:    0.00 PKD
ROOT
HETATM    1  C   UNL     1      -8.189  10.600  68.651  1.00  0.00    -0.135 C  
HETATM    2  C   UNL     1      -9.543  10.434  69.294  1.00  0.00    -0.226 A  
HETATM    3  C   UNL     1      -9.678   9.500  70.338  1.00  0.00    -0.328 A  
HETATM    4  C   UNL     1     -10.905   9.302  70.973  1.00  0.00    -0.385 A  
HETATM    5  C   UNL     1     -12.010  10.032  70.568  1.00  0.00    -0.357 A  
HETATM    6  C   UNL     1     -11.893  10.955  69.529  1.00  0.00    -0.404 A  
HETATM    7  C   UNL     1     -10.667  11.173  68.879  1.00  0.00    -0.207 A  
ENDROOT
BRANCH   7   8
HETATM    8  O   UNL     1     -10.499  12.082  67.852  1.00  0.00    -0.193 OA 
BRANCH   8   9
HETATM    9  C   UNL     1     -10.929  11.618  66.568  1.00  0.00    -0.299 C  
BRANCH   9  10
HETATM   10  C   UNL     1     -11.749  12.646  65.786  1.00  0.00    -0.419 C  
HETATM   11  O   UNL     1     -12.201  13.659  66.703  1.00  0.00    -0.415 OA 
HETATM   12  H   UNL     1     -12.710  14.297  66.218  1.00  0.00     0.000 HD 
BRANCH  10  13
HETATM   13  C   UNL     1     -10.948  13.292  64.650  1.00  0.00    -0.370 C  
HETATM   14  O   UNL     1      -9.621  12.766  64.589  1.00  0.00    -0.507 OA 
HETATM   15  H   UNL     1      -9.124  13.167  63.885  1.00  0.00     0.000 HD 
ENDBRANCH  10  13
ENDBRANCH   9  10
ENDBRANCH   8   9
ENDBRANCH   7   8
TORSDOF 4
ENDMDL
MODEL      124
REMARK 921   NORMALIZED FREE ENERGY PREDICTED BY IDOCK:   -3.41 KCAL/MOL
REMARK 922        TOTAL FREE ENERGY PREDICTED BY IDOCK:   -4.46 KCAL/MOL
REMARK 923 INTER-LIGAND FREE ENERGY PREDICTED BY IDOCK:   -4.19 KCAL/MOL
REMARK 924 INTRA-LIGAND FREE ENERGY PREDICTED BY IDOCK:   -0.27 KCAL/MOL
REMARK 927      BINDING AFFINITY PREDICTED BY RF-SCORE:    0.00 PKD
ROOT
HETATM    1  C   UNL     1     -12.090  14.371  64.505  1.00  0.00    -0.498 C  
HETATM    2  C   UNL     1     -10.845  14.747  65.268  1.00  0.00    -0.395 A  
HETATM    3  C   UNL     1     -10.467  16.102  65.306  1.00  0.00    -0.356 A  
HETATM    4  C   UNL     1      -9.325  16.513  65.997  1.00  0.00    -0.302 A  
HETATM    5  C   UNL     1      -8.547  15.572  66.651  1.00  0.00    -0.325 A  
HETATM    6  C   UNL     1      -8.904  14.224  66.615  1.00  0.00    -0.167 A  
HETATM    7  C   UNL     1     -10.051  13.790  65.930  1.00  0.00    -0.313 A  
ENDROOT
BRANCH   7   8
HETATM    8  O   UNL     1     -10.451  12.469  65.872  1.00  0.00    -0.255 OA 
BRANCH   8   9
HETATM    9  C   UNL     1      -9.420  11.549  65.498  1.00  0.00    -0.212 C  
BRANCH   9  10
HETATM   10  C   UNL     1      -9.812  10.621  64.347  1.00  0.00    -0.334 C  
HETATM   11  O   UNL     1     -10.440  11.411  63.321  1.00  0.00    -0.478 OA 
HETATM   12  H   UNL     1     -10.684  10.835  62.606  1.00  0.00     0.000 HD 
BRANCH  10  13
HETATM   13  C   UNL     1      -8.609   9.872  63.762  1.00  0.00    -0.199 C  
HETATM   14  O   UNL     1      -7.548  10.773  63.437  1.00  0.00    -0.355 OA 
HETATM   15  H   UNL     1      -6.802  10.309  63.075  1.00  0.00     0.000 HD 
ENDBRANCH  10  13
ENDBRANCH   9  10
ENDBRANCH   8   9
ENDBRANCH   7   8
TORSDOF 4
ENDMDL
MODEL      125
REMARK 921   NORMALIZED FREE ENERGY PREDICTED BY IDOCK:   -3.40 KCAL/MOL
REMARK 922        TOTAL FREE ENERGY PREDICTED BY IDOCK:   -4.45 KCAL/MOL
REMARK 923 INTER-LIGAND FREE ENERGY PREDICTED BY IDOCK:   -4.20 KCAL/MOL
REMARK 924 INTRA-LIGAND FREE ENERGY PREDICTED BY IDOCK:   -0.26 KCAL/MOL
REMARK 927      BINDING AFFINITY PREDICTED BY RF-SCORE:    0.00 PKD
ROOT
HETATM    1  C   UNL     1     -11.909   6.962  71.527  1.00  0.00    -0.366 C  
HETATM    2  C   UNL     1     -12.005   8.446  71.278  1.00  0.00    -0.323 A  
HETATM    3  C   UNL     1     -12.966   9.184  71.995  1.00  0.00    -0.496 A  
HETATM    4  C   UNL     1     -13.102  10.561  71.809  1.00  0.00    -0.570 A  
HETATM    5  C   UNL     1     -12.284  11.212  70.901  1.00  0.00    -0.468 A  
HETATM    6  C   UNL     1     -11.334  10.492  70.178  1.00  0.00    -0.400 A  
HETATM    7  C   UNL     1     -11.177   9.108  70.352  1.00  0.00    -0.240 A  
ENDROOT
BRANCH   7   8
HETATM    8  O   UNL     1     -10.245   8.353  69.666  1.00  0.00    -0.199 OA 
BRANCH   8   9
HETATM    9  C   UNL     1      -9.326   9.114  68.873  1.00  0.00    -0.146 C  
BRANCH   9  10
HETATM   10  C   UNL     1      -9.254   8.662  67.414  1.00  0.00    -0.136 C  
HETATM   11  O   UNL     1      -9.848   7.356  67.312  1.00  0.00    -0.150 OA 
HETATM   12  H   UNL     1      -9.803   7.075  66.406  1.00  0.00     0.000 HD 
BRANCH  10  13
HETATM   13  C   UNL     1      -9.966   9.632  66.464  1.00  0.00    -0.246 C  
HETATM   14  O   UNL     1      -9.671   9.329  65.099  1.00  0.00    -0.456 OA 
HETATM   15  H   UNL     1     -10.112   9.930  64.510  1.00  0.00     0.000 HD 
ENDBRANCH  10  13
ENDBRANCH   9  10
ENDBRANCH   8   9
ENDBRANCH   7   8
TORSDOF 4
ENDMDL
MODEL      126
REMARK 921   NORMALIZED FREE ENERGY PREDICTED BY IDOCK:   -3.40 KCAL/MOL
REMARK 922        TOTAL FREE ENERGY PREDICTED BY IDOCK:   -4.45 KCAL/MOL
REMARK 923 INTER-LIGAND FREE ENERGY PREDICTED BY IDOCK:   -4.36 KCAL/MOL
REMARK 924 INTRA-LIGAND FREE ENERGY PREDICTED BY IDOCK:   -0.09 KCAL/MOL
REMARK 927      BINDING AFFINITY PREDICTED BY RF-SCORE:    0.00 PKD
ROOT
HETATM    1  C   UNL     1     -11.915  13.753  68.774  1.00  0.00    -0.400 C  
HETATM    2  C   UNL     1     -12.376  13.983  70.190  1.00  0.00    -0.409 A  
HETATM    3  C   UNL     1     -12.331  15.292  70.705  1.00  0.00    -0.427 A  
HETATM    4  C   UNL     1     -12.745  15.569  72.009  1.00  0.00    -0.490 A  
HETATM    5  C   UNL     1     -13.205  14.539  72.813  1.00  0.00    -0.600 A  
HETATM    6  C   UNL     1     -13.248  13.235  72.319  1.00  0.00    -0.567 A  
HETATM    7  C   UNL     1     -12.840  12.936  71.009  1.00  0.00    -0.184 A  
ENDROOT
BRANCH   7   8
HETATM    8  O   UNL     1     -12.872  11.663  70.472  1.00  0.00    -0.115 OA 
BRANCH   8   9
HETATM    9  C   UNL     1     -11.804  10.809  70.896  1.00  0.00    -0.297 C  
BRANCH   9  10
HETATM   10  C   UNL     1     -10.684  10.668  69.865  1.00  0.00    -0.204 C  
HETATM   11  O   UNL     1      -9.803   9.614  70.291  1.00  0.00    -0.241 OA 
HETATM   12  H   UNL     1      -9.107   9.527  69.651  1.00  0.00     0.000 HD 
BRANCH  10  13
HETATM   13  C   UNL     1     -11.216  10.365  68.459  1.00  0.00    -0.251 C  
HETATM   14  O   UNL     1     -10.160   9.966  67.582  1.00  0.00    -0.176 OA 
HETATM   15  H   UNL     1     -10.490   9.778  66.711  1.00  0.00     0.000 HD 
ENDBRANCH  10  13
ENDBRANCH   9  10
ENDBRANCH   8   9
ENDBRANCH   7   8
TORSDOF 4
ENDMDL
MODEL      127
REMARK 921   NORMALIZED FREE ENERGY PREDICTED BY IDOCK:   -3.38 KCAL/MOL
REMARK 922        TOTAL FREE ENERGY PREDICTED BY IDOCK:   -4.42 KCAL/MOL
REMARK 923 INTER-LIGAND FREE ENERGY PREDICTED BY IDOCK:   -4.08 KCAL/MOL
REMARK 924 INTRA-LIGAND FREE ENERGY PREDICTED BY IDOCK:   -0.34 KCAL/MOL
REMARK 927      BINDING AFFINITY PREDICTED BY RF-SCORE:    0.00 PKD
ROOT
HETATM    1  C   UNL     1     -12.519  12.325  63.590  1.00  0.00    -0.647 C  
HETATM    2  C   UNL     1     -11.955  12.585  64.964  1.00  0.00    -0.478 A  
HETATM    3  C   UNL     1     -12.442  13.689  65.689  1.00  0.00    -0.540 A  
HETATM    4  C   UNL     1     -11.960  13.981  66.967  1.00  0.00    -0.472 A  
HETATM    5  C   UNL     1     -10.983  13.177  67.529  1.00  0.00    -0.282 A  
HETATM    6  C   UNL     1     -10.485  12.085  66.819  1.00  0.00    -0.243 A  
HETATM    7  C   UNL     1     -10.958  11.770  65.534  1.00  0.00    -0.290 A  
ENDROOT
BRANCH   7   8
HETATM    8  O   UNL     1     -10.503  10.696  64.795  1.00  0.00    -0.325 OA 
BRANCH   8   9
HETATM    9  C   UNL     1      -9.419  10.997  63.909  1.00  0.00    -0.251 C  
BRANCH   9  10
HETATM   10  C   UNL     1      -8.299   9.955  63.933  1.00  0.00    -0.172 C  
HETATM   11  O   UNL     1      -7.453  10.170  62.789  1.00  0.00    -0.131 OA 
HETATM   12  H   UNL     1      -6.758   9.523  62.804  1.00  0.00     0.000 HD 
BRANCH  10  13
HETATM   13  C   UNL     1      -7.463  10.022  65.217  1.00  0.00    -0.137 C  
HETATM   14  O   UNL     1      -8.171   9.462  66.324  1.00  0.00    -0.109 OA 
HETATM   15  H   UNL     1      -7.654   9.503  67.120  1.00  0.00     0.000 HD 
ENDBRANCH  10  13
ENDBRANCH   9  10
ENDBRANCH   8   9
ENDBRANCH   7   8
TORSDOF 4
ENDMDL
MODEL      128
REMARK 921   NORMALIZED FREE ENERGY PREDICTED BY IDOCK:   -3.38 KCAL/MOL
REMARK 922        TOTAL FREE ENERGY PREDICTED BY IDOCK:   -4.42 KCAL/MOL
REMARK 923 INTER-LIGAND FREE ENERGY PREDICTED BY IDOCK:   -4.14 KCAL/MOL
REMARK 924 INTRA-LIGAND FREE ENERGY PREDICTED BY IDOCK:   -0.28 KCAL/MOL
REMARK 927      BINDING AFFINITY PREDICTED BY RF-SCORE:    0.00 PKD
ROOT
HETATM    1  C   UNL     1     -12.720  12.021  63.923  1.00  0.00    -0.467 C  
HETATM    2  C   UNL     1     -11.875  13.087  64.573  1.00  0.00    -0.431 A  
HETATM    3  C   UNL     1     -12.046  14.421  64.158  1.00  0.00    -0.405 A  
HETATM    4  C   UNL     1     -11.294  15.454  64.723  1.00  0.00    -0.381 A  
HETATM    5  C   UNL     1     -10.362  15.162  65.705  1.00  0.00    -0.379 A  
HETATM    6  C   UNL     1     -10.177  13.844  66.121  1.00  0.00    -0.307 A  
HETATM    7  C   UNL     1     -10.925  12.791  65.569  1.00  0.00    -0.280 A  
ENDROOT
BRANCH   7   8
HETATM    8  O   UNL     1     -10.784  11.471  65.953  1.00  0.00    -0.265 OA 
BRANCH   8   9
HETATM    9  C   UNL     1      -9.429  11.013  66.032  1.00  0.00    -0.207 C  
BRANCH   9  10
HETATM   10  C   UNL     1      -8.706  11.002  64.684  1.00  0.00     0.049 C  
HETATM   11  O   UNL     1      -7.392  10.449  64.878  1.00  0.00    -0.236 OA 
HETATM   12  H   UNL     1      -6.942  10.442  64.042  1.00  0.00     0.000 HD 
BRANCH  10  13
HETATM   13  C   UNL     1      -9.458  10.193  63.622  1.00  0.00    -0.267 C  
HETATM   14  O   UNL     1      -9.800  11.007  62.498  1.00  0.00    -0.567 OA 
HETATM   15  H   UNL     1     -10.267  10.506  61.839  1.00  0.00     0.000 HD 
ENDBRANCH  10  13
ENDBRANCH   9  10
ENDBRANCH   8   9
ENDBRANCH   7   8
TORSDOF 4
ENDMDL
MODEL      129
REMARK 921   NORMALIZED FREE ENERGY PREDICTED BY IDOCK:   -3.37 KCAL/MOL
REMARK 922        TOTAL FREE ENERGY PREDICTED BY IDOCK:   -4.41 KCAL/MOL
REMARK 923 INTER-LIGAND FREE ENERGY PREDICTED BY IDOCK:   -4.31 KCAL/MOL
REMARK 924 INTRA-LIGAND FREE ENERGY PREDICTED BY IDOCK:   -0.10 KCAL/MOL
REMARK 927      BINDING AFFINITY PREDICTED BY RF-SCORE:    0.00 PKD
ROOT
HETATM    1  C   UNL     1     -12.573  14.457  64.833  1.00  0.00    -0.298 C  
HETATM    2  C   UNL     1     -11.707  13.225  64.755  1.00  0.00    -0.390 A  
HETATM    3  C   UNL     1     -11.663  12.514  63.541  1.00  0.00    -0.595 A  
HETATM    4  C   UNL     1     -10.879  11.366  63.406  1.00  0.00    -0.375 A  
HETATM    5  C   UNL     1     -10.135  10.916  64.484  1.00  0.00    -0.404 A  
HETATM    6  C   UNL     1     -10.175  11.607  65.695  1.00  0.00    -0.284 A  
HETATM    7  C   UNL     1     -10.953  12.765  65.852  1.00  0.00    -0.274 A  
ENDROOT
BRANCH   7   8
HETATM    8  O   UNL     1     -11.019  13.488  67.028  1.00  0.00    -0.282 OA 
BRANCH   8   9
HETATM    9  C   UNL     1     -10.033  14.519  67.150  1.00  0.00    -0.252 C  
BRANCH   9  10
HETATM   10  C   UNL     1      -8.801  14.100  67.954  1.00  0.00    -0.182 C  
HETATM   11  O   UNL     1      -7.725  13.841  67.036  1.00  0.00    -0.366 OA 
HETATM   12  H   UNL     1      -6.960  13.580  67.535  1.00  0.00     0.000 HD 
BRANCH  10  13
HETATM   13  C   UNL     1      -8.373  15.166  68.970  1.00  0.00    -0.209 C  
HETATM   14  O   UNL     1      -7.508  14.614  69.964  1.00  0.00    -0.397 OA 
HETATM   15  H   UNL     1      -7.242  15.275  70.593  1.00  0.00     0.000 HD 
ENDBRANCH  10  13
ENDBRANCH   9  10
ENDBRANCH   8   9
ENDBRANCH   7   8
TORSDOF 4
ENDMDL
MODEL      130
REMARK 921   NORMALIZED FREE ENERGY PREDICTED BY IDOCK:   -3.37 KCAL/MOL
REMARK 922        TOTAL FREE ENERGY PREDICTED BY IDOCK:   -4.41 KCAL/MOL
REMARK 923 INTER-LIGAND FREE ENERGY PREDICTED BY IDOCK:   -4.22 KCAL/MOL
REMARK 924 INTRA-LIGAND FREE ENERGY PREDICTED BY IDOCK:   -0.19 KCAL/MOL
REMARK 927      BINDING AFFINITY PREDICTED BY RF-SCORE:    0.00 PKD
ROOT
HETATM    1  C   UNL     1     -10.908  16.751  68.288  1.00  0.00    -0.366 C  
HETATM    2  C   UNL     1     -10.087  17.965  67.936  1.00  0.00    -0.350 A  
HETATM    3  C   UNL     1     -10.746  19.081  67.386  1.00  0.00    -0.559 A  
HETATM    4  C   UNL     1     -10.042  20.236  67.040  1.00  0.00    -0.567 A  
HETATM    5  C   UNL     1      -8.671  20.285  67.235  1.00  0.00    -0.441 A  
HETATM    6  C   UNL     1      -8.004  19.184  67.772  1.00  0.00    -0.305 A  
HETATM    7  C   UNL     1      -8.694  18.014  68.131  1.00  0.00    -0.272 A  
ENDROOT
BRANCH   7   8
HETATM    8  O   UNL     1      -8.080  16.901  68.673  1.00  0.00    -0.233 OA 
BRANCH   8   9
HETATM    9  C   UNL     1      -7.129  16.265  67.812  1.00  0.00    -0.133 C  
BRANCH   9  10
HETATM   10  C   UNL     1      -6.599  14.938  68.357  1.00  0.00    -0.103 C  
HETATM   11  O   UNL     1      -5.516  14.502  67.517  1.00  0.00    -0.338 OA 
HETATM   12  H   UNL     1      -5.186  13.678  67.855  1.00  0.00     0.000 HD 
BRANCH  10  13
HETATM   13  C   UNL     1      -6.117  15.051  69.808  1.00  0.00    -0.135 C  
HETATM   14  O   UNL     1      -6.551  13.933  70.585  1.00  0.00    -0.416 OA 
HETATM   15  H   UNL     1      -6.253  14.003  71.485  1.00  0.00     0.000 HD 
ENDBRANCH  10  13
ENDBRANCH   9  10
ENDBRANCH   8   9
ENDBRANCH   7   8
TORSDOF 4
ENDMDL
MODEL      131
REMARK 921   NORMALIZED FREE ENERGY PREDICTED BY IDOCK:   -3.36 KCAL/MOL
REMARK 922        TOTAL FREE ENERGY PREDICTED BY IDOCK:   -4.39 KCAL/MOL
REMARK 923 INTER-LIGAND FREE ENERGY PREDICTED BY IDOCK:   -4.20 KCAL/MOL
REMARK 924 INTRA-LIGAND FREE ENERGY PREDICTED BY IDOCK:   -0.19 KCAL/MOL
REMARK 927      BINDING AFFINITY PREDICTED BY RF-SCORE:    0.00 PKD
ROOT
HETATM    1  C   UNL     1     -10.448   9.348  70.693  1.00  0.00    -0.354 C  
HETATM    2  C   UNL     1     -10.590   8.379  69.546  1.00  0.00    -0.217 A  
HETATM    3  C   UNL     1     -10.907   7.039  69.838  1.00  0.00    -0.280 A  
HETATM    4  C   UNL     1     -11.053   6.095  68.820  1.00  0.00    -0.398 A  
HETATM    5  C   UNL     1     -10.878   6.479  67.501  1.00  0.00    -0.433 A  
HETATM    6  C   UNL     1     -10.556   7.802  67.198  1.00  0.00    -0.401 A  
HETATM    7  C   UNL     1     -10.409   8.769  68.206  1.00  0.00    -0.207 A  
ENDROOT
BRANCH   7   8
HETATM    8  O   UNL     1     -10.099  10.092  67.955  1.00  0.00    -0.156 OA 
BRANCH   8   9
HETATM    9  C   UNL     1     -10.432  10.544  66.637  1.00  0.00    -0.228 C  
BRANCH   9  10
HETATM   10  C   UNL     1     -10.826  12.020  66.576  1.00  0.00    -0.277 C  
HETATM   11  O   UNL     1     -12.054  12.193  67.306  1.00  0.00    -0.565 OA 
HETATM   12  H   UNL     1     -12.299  13.110  67.267  1.00  0.00     0.000 HD 
BRANCH  10  13
HETATM   13  C   UNL     1      -9.744  12.940  67.154  1.00  0.00    -0.221 C  
HETATM   14  O   UNL     1      -8.954  13.523  66.116  1.00  0.00    -0.460 OA 
HETATM   15  H   UNL     1      -8.283  14.093  66.473  1.00  0.00     0.000 HD 
ENDBRANCH  10  13
ENDBRANCH   9  10
ENDBRANCH   8   9
ENDBRANCH   7   8
TORSDOF 4
ENDMDL
MODEL      132
REMARK 921   NORMALIZED FREE ENERGY PREDICTED BY IDOCK:   -3.33 KCAL/MOL
REMARK 922        TOTAL FREE ENERGY PREDICTED BY IDOCK:   -4.36 KCAL/MOL
REMARK 923 INTER-LIGAND FREE ENERGY PREDICTED BY IDOCK:   -4.10 KCAL/MOL
REMARK 924 INTRA-LIGAND FREE ENERGY PREDICTED BY IDOCK:   -0.26 KCAL/MOL
REMARK 927      BINDING AFFINITY PREDICTED BY RF-SCORE:    0.00 PKD
ROOT
HETATM    1  C   UNL     1     -11.291  15.527  70.893  1.00  0.00    -0.406 C  
HETATM    2  C   UNL     1     -11.134  14.798  69.582  1.00  0.00    -0.299 A  
HETATM    3  C   UNL     1     -11.947  13.675  69.340  1.00  0.00    -0.394 A  
HETATM    4  C   UNL     1     -11.850  12.959  68.145  1.00  0.00    -0.380 A  
HETATM    5  C   UNL     1     -10.935  13.356  67.183  1.00  0.00    -0.292 A  
HETATM    6  C   UNL     1     -10.117  14.462  67.413  1.00  0.00    -0.243 A  
HETATM    7  C   UNL     1     -10.202  15.199  68.606  1.00  0.00    -0.227 A  
ENDROOT
BRANCH   7   8
HETATM    8  O   UNL     1      -9.420  16.305  68.876  1.00  0.00    -0.231 OA 
BRANCH   8   9
HETATM    9  C   UNL     1      -9.040  17.064  67.723  1.00  0.00    -0.228 C  
BRANCH   9  10
HETATM   10  C   UNL     1      -9.562  18.502  67.734  1.00  0.00    -0.290 C  
HETATM   11  O   UNL     1     -10.249  18.726  68.978  1.00  0.00    -0.491 OA 
HETATM   12  H   UNL     1     -10.574  19.618  68.985  1.00  0.00     0.000 HD 
BRANCH  10  13
HETATM   13  C   UNL     1      -8.441  19.534  67.567  1.00  0.00    -0.302 C  
HETATM   14  O   UNL     1      -7.758  19.759  68.801  1.00  0.00    -0.316 OA 
HETATM   15  H   UNL     1      -7.063  20.399  68.698  1.00  0.00     0.000 HD 
ENDBRANCH  10  13
ENDBRANCH   9  10
ENDBRANCH   8   9
ENDBRANCH   7   8
TORSDOF 4
ENDMDL
MODEL      133
REMARK 921   NORMALIZED FREE ENERGY PREDICTED BY IDOCK:   -3.28 KCAL/MOL
REMARK 922        TOTAL FREE ENERGY PREDICTED BY IDOCK:   -4.30 KCAL/MOL
REMARK 923 INTER-LIGAND FREE ENERGY PREDICTED BY IDOCK:   -3.86 KCAL/MOL
REMARK 924 INTRA-LIGAND FREE ENERGY PREDICTED BY IDOCK:   -0.45 KCAL/MOL
REMARK 927      BINDING AFFINITY PREDICTED BY RF-SCORE:    0.00 PKD
ROOT
HETATM    1  C   UNL     1     -12.033  11.898  70.225  1.00  0.00    -0.416 C  
HETATM    2  C   UNL     1     -12.051  10.578  70.953  1.00  0.00    -0.487 A  
HETATM    3  C   UNL     1     -13.156  10.282  71.773  1.00  0.00    -0.570 A  
HETATM    4  C   UNL     1     -13.231   9.075  72.473  1.00  0.00    -0.467 A  
HETATM    5  C   UNL     1     -12.200   8.157  72.364  1.00  0.00    -0.374 A  
HETATM    6  C   UNL     1     -11.096   8.440  71.561  1.00  0.00    -0.329 A  
HETATM    7  C   UNL     1     -11.002   9.645  70.846  1.00  0.00    -0.342 A  
ENDROOT
BRANCH   7   8
HETATM    8  O   UNL     1      -9.933   9.968  70.032  1.00  0.00    -0.249 OA 
BRANCH   8   9
HETATM    9  C   UNL     1      -9.938   9.321  68.755  1.00  0.00    -0.181 C  
BRANCH   9  10
HETATM   10  C   UNL     1      -8.560   9.257  68.093  1.00  0.00    -0.125 C  
HETATM   11  O   UNL     1      -8.122  10.601  67.825  1.00  0.00    -0.109 OA 
HETATM   12  H   UNL     1      -7.267  10.561  67.414  1.00  0.00     0.000 HD 
BRANCH  10  13
HETATM   13  C   UNL     1      -7.525   8.537  68.965  1.00  0.00    -0.089 C  
HETATM   14  O   UNL     1      -8.150   7.598  69.842  1.00  0.00    -0.119 OA 
HETATM   15  H   UNL     1      -7.509   7.152  70.383  1.00  0.00     0.000 HD 
ENDBRANCH  10  13
ENDBRANCH   9  10
ENDBRANCH   8   9
ENDBRANCH   7   8
TORSDOF 4
ENDMDL
MODEL      134
REMARK 921   NORMALIZED FREE ENERGY PREDICTED BY IDOCK:   -3.26 KCAL/MOL
REMARK 922        TOTAL FREE ENERGY PREDICTED BY IDOCK:   -4.28 KCAL/MOL
REMARK 923 INTER-LIGAND FREE ENERGY PREDICTED BY IDOCK:   -3.87 KCAL/MOL
REMARK 924 INTRA-LIGAND FREE ENERGY PREDICTED BY IDOCK:   -0.41 KCAL/MOL
REMARK 927      BINDING AFFINITY PREDICTED BY RF-SCORE:    0.00 PKD
ROOT
HETATM    1  C   UNL     1     -10.316  10.329  66.262  1.00  0.00    -0.256 C  
HETATM    2  C   UNL     1     -10.799  10.708  67.639  1.00  0.00    -0.346 A  
HETATM    3  C   UNL     1     -11.491  11.923  67.794  1.00  0.00    -0.389 A  
HETATM    4  C   UNL     1     -11.964  12.328  69.044  1.00  0.00    -0.300 A  
HETATM    5  C   UNL     1     -11.745  11.525  70.151  1.00  0.00    -0.395 A  
HETATM    6  C   UNL     1     -11.054  10.321  70.013  1.00  0.00    -0.373 A  
HETATM    7  C   UNL     1     -10.573   9.893  68.765  1.00  0.00    -0.222 A  
ENDROOT
BRANCH   7   8
HETATM    8  O   UNL     1      -9.891   8.707  68.576  1.00  0.00    -0.160 OA 
BRANCH   8   9
HETATM    9  C   UNL     1     -10.652   7.528  68.861  1.00  0.00    -0.169 C  
BRANCH   9  10
HETATM   10  C   UNL     1     -10.586   6.472  67.756  1.00  0.00    -0.259 C  
HETATM   11  O   UNL     1     -11.532   6.826  66.732  1.00  0.00    -0.733 OA 
HETATM   12  H   UNL     1     -11.491   6.171  66.046  1.00  0.00     0.000 HD 
BRANCH  10  13
HETATM   13  C   UNL     1      -9.184   6.348  67.148  1.00  0.00    -0.123 C  
HETATM   14  O   UNL     1      -8.859   7.495  66.361  1.00  0.00    -0.142 OA 
HETATM   15  H   UNL     1      -7.990   7.418  65.984  1.00  0.00     0.000 HD 
ENDBRANCH  10  13
ENDBRANCH   9  10
ENDBRANCH   8   9
ENDBRANCH   7   8
TORSDOF 4
ENDMDL
MODEL      135
REMARK 921   NORMALIZED FREE ENERGY PREDICTED BY IDOCK:   -3.26 KCAL/MOL
REMARK 922        TOTAL FREE ENERGY PREDICTED BY IDOCK:   -4.27 KCAL/MOL
REMARK 923 INTER-LIGAND FREE ENERGY PREDICTED BY IDOCK:   -3.92 KCAL/MOL
REMARK 924 INTRA-LIGAND FREE ENERGY PREDICTED BY IDOCK:   -0.35 KCAL/MOL
REMARK 927      BINDING AFFINITY PREDICTED BY RF-SCORE:    0.00 PKD
ROOT
HETATM    1  C   UNL     1     -12.511  13.824  65.927  1.00  0.00    -0.512 C  
HETATM    2  C   UNL     1     -11.179  14.173  66.540  1.00  0.00    -0.333 A  
HETATM    3  C   UNL     1     -11.054  15.401  67.215  1.00  0.00    -0.302 A  
HETATM    4  C   UNL     1      -9.846  15.780  67.805  1.00  0.00    -0.224 A  
HETATM    5  C   UNL     1      -8.750  14.938  67.720  1.00  0.00    -0.168 A  
HETATM    6  C   UNL     1      -8.857  13.721  67.046  1.00  0.00    -0.230 A  
HETATM    7  C   UNL     1     -10.063  13.318  66.450  1.00  0.00    -0.290 A  
ENDROOT
BRANCH   7   8
HETATM    8  O   UNL     1     -10.221  12.120  65.780  1.00  0.00    -0.240 OA 
BRANCH   8   9
HETATM    9  C   UNL     1      -9.656  10.985  66.445  1.00  0.00    -0.198 C  
BRANCH   9  10
HETATM   10  C   UNL     1     -10.700  10.027  67.021  1.00  0.00    -0.178 C  
HETATM   11  O   UNL     1     -10.154   8.696  67.004  1.00  0.00    -0.218 OA 
HETATM   12  H   UNL     1     -10.802   8.101  67.361  1.00  0.00     0.000 HD 
BRANCH  10  13
HETATM   13  C   UNL     1     -11.114  10.401  68.449  1.00  0.00    -0.268 C  
HETATM   14  O   UNL     1     -12.400  11.023  68.468  1.00  0.00    -0.762 OA 
HETATM   15  H   UNL     1     -12.657  11.255  69.353  1.00  0.00     0.000 HD 
ENDBRANCH  10  13
ENDBRANCH   9  10
ENDBRANCH   8   9
ENDBRANCH   7   8
TORSDOF 4
ENDMDL
MODEL      136
REMARK 921   NORMALIZED FREE ENERGY PREDICTED BY IDOCK:   -3.25 KCAL/MOL
REMARK 922        TOTAL FREE ENERGY PREDICTED BY IDOCK:   -4.26 KCAL/MOL
REMARK 923 INTER-LIGAND FREE ENERGY PREDICTED BY IDOCK:   -3.95 KCAL/MOL
REMARK 924 INTRA-LIGAND FREE ENERGY PREDICTED BY IDOCK:   -0.31 KCAL/MOL
REMARK 927      BINDING AFFINITY PREDICTED BY RF-SCORE:    0.00 PKD
ROOT
HETATM    1  C   UNL     1      -7.981  14.810  67.768  1.00  0.00    -0.167 C  
HETATM    2  C   UNL     1      -9.290  14.862  68.514  1.00  0.00    -0.196 A  
HETATM    3  C   UNL     1      -9.567  15.994  69.302  1.00  0.00    -0.255 A  
HETATM    4  C   UNL     1     -10.762  16.102  70.015  1.00  0.00    -0.318 A  
HETATM    5  C   UNL     1     -11.690  15.075  69.952  1.00  0.00    -0.343 A  
HETATM    6  C   UNL     1     -11.426  13.943  69.181  1.00  0.00    -0.345 A  
HETATM    7  C   UNL     1     -10.232  13.817  68.452  1.00  0.00    -0.248 A  
ENDROOT
BRANCH   7   8
HETATM    8  O   UNL     1      -9.929  12.720  67.669  1.00  0.00    -0.209 OA 
BRANCH   8   9
HETATM    9  C   UNL     1      -9.117  11.732  68.313  1.00  0.00    -0.187 C  
BRANCH   9  10
HETATM   10  C   UNL     1      -9.852  10.421  68.594  1.00  0.00    -0.177 C  
HETATM   11  O   UNL     1     -10.238  10.405  69.980  1.00  0.00    -0.407 OA 
HETATM   12  H   UNL     1     -10.695   9.591  70.155  1.00  0.00     0.000 HD 
BRANCH  10  13
HETATM   13  C   UNL     1     -11.091  10.242  67.708  1.00  0.00    -0.269 C  
HETATM   14  O   UNL     1     -12.266  10.730  68.358  1.00  0.00    -0.832 OA 
HETATM   15  H   UNL     1     -13.034  10.619  67.809  1.00  0.00     0.000 HD 
ENDBRANCH  10  13
ENDBRANCH   9  10
ENDBRANCH   8   9
ENDBRANCH   7   8
TORSDOF 4
ENDMDL
MODEL      137
REMARK 921   NORMALIZED FREE ENERGY PREDICTED BY IDOCK:   -3.25 KCAL/MOL
REMARK 922        TOTAL FREE ENERGY PREDICTED BY IDOCK:   -4.26 KCAL/MOL
REMARK 923 INTER-LIGAND FREE ENERGY PREDICTED BY IDOCK:   -3.79 KCAL/MOL
REMARK 924 INTRA-LIGAND FREE ENERGY PREDICTED BY IDOCK:   -0.47 KCAL/MOL
REMARK 927      BINDING AFFINITY PREDICTED BY RF-SCORE:    0.00 PKD
ROOT
HETATM    1  C   UNL     1      -8.255  12.879  67.210  1.00  0.00    -0.176 C  
HETATM    2  C   UNL     1      -8.673  14.291  67.532  1.00  0.00    -0.204 A  
HETATM    3  C   UNL     1      -8.416  14.787  68.824  1.00  0.00    -0.170 A  
HETATM    4  C   UNL     1      -8.779  16.087  69.183  1.00  0.00    -0.248 A  
HETATM    5  C   UNL     1      -9.406  16.902  68.255  1.00  0.00    -0.248 A  
HETATM    6  C   UNL     1      -9.674  16.422  66.973  1.00  0.00    -0.253 A  
HETATM    7  C   UNL     1      -9.314  15.119  66.591  1.00  0.00    -0.267 A  
ENDROOT
BRANCH   7   8
HETATM    8  O   UNL     1      -9.550  14.600  65.332  1.00  0.00    -0.225 OA 
BRANCH   8   9
HETATM    9  C   UNL     1     -10.634  15.216  64.626  1.00  0.00    -0.136 C  
BRANCH   9  10
HETATM   10  C   UNL     1     -11.973  14.502  64.814  1.00  0.00    -0.442 C  
HETATM   11  O   UNL     1     -12.848  14.885  63.738  1.00  0.00    -0.722 OA 
HETATM   12  H   UNL     1     -13.680  14.442  63.855  1.00  0.00     0.000 HD 
BRANCH  10  13
HETATM   13  C   UNL     1     -11.825  12.976  64.845  1.00  0.00    -0.361 C  
HETATM   14  O   UNL     1     -11.472  12.517  66.151  1.00  0.00    -0.335 OA 
HETATM   15  H   UNL     1     -11.380  11.571  66.170  1.00  0.00     0.000 HD 
ENDBRANCH  10  13
ENDBRANCH   9  10
ENDBRANCH   8   9
ENDBRANCH   7   8
TORSDOF 4
ENDMDL
MODEL      138
REMARK 921   NORMALIZED FREE ENERGY PREDICTED BY IDOCK:   -3.22 KCAL/MOL
REMARK 922        TOTAL FREE ENERGY PREDICTED BY IDOCK:   -4.23 KCAL/MOL
REMARK 923 INTER-LIGAND FREE ENERGY PREDICTED BY IDOCK:   -4.05 KCAL/MOL
REMARK 924 INTRA-LIGAND FREE ENERGY PREDICTED BY IDOCK:   -0.18 KCAL/MOL
REMARK 927      BINDING AFFINITY PREDICTED BY RF-SCORE:    0.00 PKD
ROOT
HETATM    1  C   UNL     1     -10.613  12.464  67.505  1.00  0.00    -0.240 C  
HETATM    2  C   UNL     1     -11.217  13.455  68.467  1.00  0.00    -0.316 A  
HETATM    3  C   UNL     1     -11.145  14.825  68.150  1.00  0.00    -0.288 A  
HETATM    4  C   UNL     1     -11.687  15.791  69.000  1.00  0.00    -0.405 A  
HETATM    5  C   UNL     1     -12.301  15.398  70.178  1.00  0.00    -0.395 A  
HETATM    6  C   UNL     1     -12.373  14.045  70.508  1.00  0.00    -0.437 A  
HETATM    7  C   UNL     1     -11.839  13.057  69.666  1.00  0.00    -0.319 A  
ENDROOT
BRANCH   7   8
HETATM    8  O   UNL     1     -11.892  11.704  69.945  1.00  0.00    -0.312 OA 
BRANCH   8   9
HETATM    9  C   UNL     1     -12.274  11.387  71.288  1.00  0.00    -0.134 C  
BRANCH   9  10
HETATM   10  C   UNL     1     -12.167   9.898  71.622  1.00  0.00    -0.395 C  
HETATM   11  O   UNL     1     -12.769   9.148  70.552  1.00  0.00    -0.471 OA 
HETATM   12  H   UNL     1     -12.703   8.224  70.759  1.00  0.00     0.000 HD 
BRANCH  10  13
HETATM   13  C   UNL     1     -10.716   9.446  71.821  1.00  0.00    -0.120 C  
HETATM   14  O   UNL     1     -10.635   8.029  71.987  1.00  0.00    -0.218 OA 
HETATM   15  H   UNL     1      -9.736   7.748  72.111  1.00  0.00     0.000 HD 
ENDBRANCH  10  13
ENDBRANCH   9  10
ENDBRANCH   8   9
ENDBRANCH   7   8
TORSDOF 4
ENDMDL
MODEL      139
REMARK 921   NORMALIZED FREE ENERGY PREDICTED BY IDOCK:   -3.21 KCAL/MOL
REMARK 922        TOTAL FREE ENERGY PREDICTED BY IDOCK:   -4.22 KCAL/MOL
REMARK 923 INTER-LIGAND FREE ENERGY PREDICTED BY IDOCK:   -3.90 KCAL/MOL
REMARK 924 INTRA-LIGAND FREE ENERGY PREDICTED BY IDOCK:   -0.31 KCAL/MOL
REMARK 927      BINDING AFFINITY PREDICTED BY RF-SCORE:    0.00 PKD
ROOT
HETATM    1  C   UNL     1     -10.389   5.419  69.408  1.00  0.00    -0.339 C  
HETATM    2  C   UNL     1     -10.654   6.343  70.570  1.00  0.00    -0.291 A  
HETATM    3  C   UNL     1     -10.668   5.798  71.868  1.00  0.00    -0.297 A  
HETATM    4  C   UNL     1     -10.907   6.602  72.984  1.00  0.00    -0.297 A  
HETATM    5  C   UNL     1     -11.139   7.957  72.814  1.00  0.00    -0.462 A  
HETATM    6  C   UNL     1     -11.136   8.509  71.533  1.00  0.00    -0.343 A  
HETATM    7  C   UNL     1     -10.894   7.719  70.397  1.00  0.00    -0.244 A  
ENDROOT
BRANCH   7   8
HETATM    8  O   UNL     1     -10.872   8.221  69.109  1.00  0.00    -0.151 OA 
BRANCH   8   9
HETATM    9  C   UNL     1      -9.660   8.895  68.752  1.00  0.00    -0.157 C  
BRANCH   9  10
HETATM   10  C   UNL     1      -9.695  10.401  69.015  1.00  0.00    -0.206 C  
HETATM   11  O   UNL     1      -8.341  10.887  69.054  1.00  0.00    -0.188 OA 
HETATM   12  H   UNL     1      -8.363  11.822  69.218  1.00  0.00     0.000 HD 
BRANCH  10  13
HETATM   13  C   UNL     1     -10.490  11.164  67.950  1.00  0.00    -0.190 C  
HETATM   14  O   UNL     1     -11.828  10.672  67.852  1.00  0.00    -0.738 OA 
HETATM   15  H   UNL     1     -12.321  11.145  67.192  1.00  0.00     0.000 HD 
ENDBRANCH  10  13
ENDBRANCH   9  10
ENDBRANCH   8   9
ENDBRANCH   7   8
TORSDOF 4
ENDMDL
MODEL      140
REMARK 921   NORMALIZED FREE ENERGY PREDICTED BY IDOCK:   -3.21 KCAL/MOL
REMARK 922        TOTAL FREE ENERGY PREDICTED BY IDOCK:   -4.21 KCAL/MOL
REMARK 923 INTER-LIGAND FREE ENERGY PREDICTED BY IDOCK:   -4.05 KCAL/MOL
REMARK 924 INTRA-LIGAND FREE ENERGY PREDICTED BY IDOCK:   -0.16 KCAL/MOL
REMARK 927      BINDING AFFINITY PREDICTED BY RF-SCORE:    0.00 PKD
ROOT
HETATM    1  C   UNL     1      -8.609   9.151  69.599  1.00  0.00    -0.143 C  
HETATM    2  C   UNL     1      -9.960   9.769  69.854  1.00  0.00    -0.282 A  
HETATM    3  C   UNL     1     -10.514  10.601  68.863  1.00  0.00    -0.232 A  
HETATM    4  C   UNL     1     -11.762  11.200  69.040  1.00  0.00    -0.408 A  
HETATM    5  C   UNL     1     -12.467  10.979  70.211  1.00  0.00    -0.365 A  
HETATM    6  C   UNL     1     -11.928  10.163  71.205  1.00  0.00    -0.473 A  
HETATM    7  C   UNL     1     -10.675   9.546  71.046  1.00  0.00    -0.340 A  
ENDROOT
BRANCH   7   8
HETATM    8  O   UNL     1     -10.103   8.724  71.998  1.00  0.00    -0.313 OA 
BRANCH   8   9
HETATM    9  C   UNL     1     -10.992   7.752  72.559  1.00  0.00    -0.338 C  
BRANCH   9  10
HETATM   10  C   UNL     1     -10.275   6.577  73.227  1.00  0.00    -0.224 C  
HETATM   11  O   UNL     1      -9.859   6.987  74.542  1.00  0.00    -0.454 OA 
HETATM   12  H   UNL     1      -9.413   6.258  74.956  1.00  0.00     0.000 HD 
BRANCH  10  13
HETATM   13  C   UNL     1     -11.161   5.330  73.327  1.00  0.00    -0.316 C  
HETATM   14  O   UNL     1     -10.414   4.202  73.786  1.00  0.00    -0.159 OA 
HETATM   15  H   UNL     1     -10.963   3.428  73.848  1.00  0.00     0.000 HD 
ENDBRANCH  10  13
ENDBRANCH   9  10
ENDBRANCH   8   9
ENDBRANCH   7   8
TORSDOF 4
ENDMDL
MODEL      141
REMARK 921   NORMALIZED FREE ENERGY PREDICTED BY IDOCK:   -3.21 KCAL/MOL
REMARK 922        TOTAL FREE ENERGY PREDICTED BY IDOCK:   -4.21 KCAL/MOL
REMARK 923 INTER-LIGAND FREE ENERGY PREDICTED BY IDOCK:   -4.14 KCAL/MOL
REMARK 924 INTRA-LIGAND FREE ENERGY PREDICTED BY IDOCK:   -0.07 KCAL/MOL
REMARK 927      BINDING AFFINITY PREDICTED BY RF-SCORE:    0.00 PKD
ROOT
HETATM    1  C   UNL     1     -10.758  10.020  69.774  1.00  0.00    -0.304 C  
HETATM    2  C   UNL     1     -10.818  10.679  68.419  1.00  0.00    -0.282 A  
HETATM    3  C   UNL     1     -10.033  10.143  67.380  1.00  0.00    -0.238 A  
HETATM    4  C   UNL     1     -10.046  10.707  66.103  1.00  0.00    -0.306 A  
HETATM    5  C   UNL     1     -10.838  11.816  65.853  1.00  0.00    -0.339 A  
HETATM    6  C   UNL     1     -11.615  12.362  66.875  1.00  0.00    -0.437 A  
HETATM    7  C   UNL     1     -11.620  11.807  68.166  1.00  0.00    -0.323 A  
ENDROOT
BRANCH   7   8
HETATM    8  O   UNL     1     -12.378  12.307  69.208  1.00  0.00    -0.110 OA 
BRANCH   8   9
HETATM    9  C   UNL     1     -11.735  13.329  69.977  1.00  0.00    -0.225 C  
BRANCH   9  10
HETATM   10  C   UNL     1     -12.102  14.748  69.540  1.00  0.00    -0.290 C  
HETATM   11  O   UNL     1     -13.184  15.213  70.367  1.00  0.00    -0.650 OA 
HETATM   12  H   UNL     1     -13.412  16.094  70.096  1.00  0.00     0.000 HD 
BRANCH  10  13
HETATM   13  C   UNL     1     -10.918  15.717  69.641  1.00  0.00    -0.306 C  
HETATM   14  O   UNL     1     -11.041  16.784  68.698  1.00  0.00    -0.326 OA 
HETATM   15  H   UNL     1     -10.308  17.384  68.760  1.00  0.00     0.000 HD 
ENDBRANCH  10  13
ENDBRANCH   9  10
ENDBRANCH   8   9
ENDBRANCH   7   8
TORSDOF 4
ENDMDL
MODEL      142
REMARK 921   NORMALIZED FREE ENERGY PREDICTED BY IDOCK:   -3.19 KCAL/MOL
REMARK 922        TOTAL FREE ENERGY PREDICTED BY IDOCK:   -4.19 KCAL/MOL
REMARK 923 INTER-LIGAND FREE ENERGY PREDICTED BY IDOCK:   -4.12 KCAL/MOL
REMARK 924 INTRA-LIGAND FREE ENERGY PREDICTED BY IDOCK:   -0.07 KCAL/MOL
REMARK 927      BINDING AFFINITY PREDICTED BY RF-SCORE:    0.00 PKD
ROOT
HETATM    1  C   UNL     1      -9.933   9.897  69.996  1.00  0.00    -0.302 C  
HETATM    2  C   UNL     1     -10.309  10.932  68.966  1.00  0.00    -0.230 A  
HETATM    3  C   UNL     1      -9.364  11.267  67.979  1.00  0.00    -0.166 A  
HETATM    4  C   UNL     1      -9.652  12.217  66.997  1.00  0.00    -0.208 A  
HETATM    5  C   UNL     1     -10.886  12.846  66.997  1.00  0.00    -0.282 A  
HETATM    6  C   UNL     1     -11.830  12.530  67.974  1.00  0.00    -0.382 A  
HETATM    7  C   UNL     1     -11.562  11.574  68.968  1.00  0.00    -0.318 A  
ENDROOT
BRANCH   7   8
HETATM    8  O   UNL     1     -12.466  11.222  69.952  1.00  0.00    -0.242 OA 
BRANCH   8   9
HETATM    9  C   UNL     1     -12.306  11.924  71.189  1.00  0.00    -0.198 C  
BRANCH   9  10
HETATM   10  C   UNL     1     -13.268  13.101  71.357  1.00  0.00    -0.207 C  
HETATM   11  O   UNL     1     -13.936  12.965  72.624  1.00  0.00    -0.727 OA 
HETATM   12  H   UNL     1     -14.534  13.695  72.728  1.00  0.00     0.000 HD 
BRANCH  10  13
HETATM   13  C   UNL     1     -12.555  14.456  71.288  1.00  0.00    -0.351 C  
HETATM   14  O   UNL     1     -11.208  14.308  70.833  1.00  0.00    -0.504 OA 
HETATM   15  H   UNL     1     -10.765  15.148  70.791  1.00  0.00     0.000 HD 
ENDBRANCH  10  13
ENDBRANCH   9  10
ENDBRANCH   8   9
ENDBRANCH   7   8
TORSDOF 4
ENDMDL
MODEL      143
REMARK 921   NORMALIZED FREE ENERGY PREDICTED BY IDOCK:   -3.18 KCAL/MOL
REMARK 922        TOTAL FREE ENERGY PREDICTED BY IDOCK:   -4.17 KCAL/MOL
REMARK 923 INTER-LIGAND FREE ENERGY PREDICTED BY IDOCK:   -4.03 KCAL/MOL
REMARK 924 INTRA-LIGAND FREE ENERGY PREDICTED BY IDOCK:   -0.14 KCAL/MOL
REMARK 927      BINDING AFFINITY PREDICTED BY RF-SCORE:    0.00 PKD
ROOT
HETATM    1  C   UNL     1     -11.931  11.848  70.359  1.00  0.00    -0.400 C  
HETATM    2  C   UNL     1     -11.388  10.481  70.027  1.00  0.00    -0.392 A  
HETATM    3  C   UNL     1     -11.683   9.415  70.897  1.00  0.00    -0.378 A  
HETATM    4  C   UNL     1     -11.211   8.125  70.644  1.00  0.00    -0.268 A  
HETATM    5  C   UNL     1     -10.435   7.890  69.520  1.00  0.00    -0.226 A  
HETATM    6  C   UNL     1     -10.130   8.938  68.652  1.00  0.00    -0.206 A  
HETATM    7  C   UNL     1     -10.598  10.242  68.887  1.00  0.00    -0.219 A  
ENDROOT
BRANCH   7   8
HETATM    8  O   UNL     1     -10.329  11.311  68.053  1.00  0.00    -0.174 OA 
BRANCH   8   9
HETATM    9  C   UNL     1     -11.246  11.465  66.965  1.00  0.00    -0.283 C  
BRANCH   9  10
HETATM   10  C   UNL     1     -10.566  11.583  65.600  1.00  0.00    -0.274 C  
HETATM   11  O   UNL     1     -10.268  10.259  65.124  1.00  0.00    -0.314 OA 
HETATM   12  H   UNL     1      -9.845  10.332  64.277  1.00  0.00     0.000 HD 
BRANCH  10  13
HETATM   13  C   UNL     1     -11.435  12.320  64.574  1.00  0.00    -0.341 C  
HETATM   14  O   UNL     1     -10.760  13.467  64.054  1.00  0.00    -0.555 OA 
HETATM   15  H   UNL     1     -11.298  13.925  63.419  1.00  0.00     0.000 HD 
ENDBRANCH  10  13
ENDBRANCH   9  10
ENDBRANCH   8   9
ENDBRANCH   7   8
TORSDOF 4
ENDMDL
MODEL      144
REMARK 921   NORMALIZED FREE ENERGY PREDICTED BY IDOCK:   -3.17 KCAL/MOL
REMARK 922        TOTAL FREE ENERGY PREDICTED BY IDOCK:   -4.17 KCAL/MOL
REMARK 923 INTER-LIGAND FREE ENERGY PREDICTED BY IDOCK:   -3.69 KCAL/MOL
REMARK 924 INTRA-LIGAND FREE ENERGY PREDICTED BY IDOCK:   -0.47 KCAL/MOL
REMARK 927      BINDING AFFINITY PREDICTED BY RF-SCORE:    0.00 PKD
ROOT
HETATM    1  C   UNL     1     -13.382  14.363  65.308  1.00  0.00     0.496 C  
HETATM    2  C   UNL     1     -12.239  13.534  64.782  1.00  0.00    -0.450 A  
HETATM    3  C   UNL     1     -12.533  12.450  63.933  1.00  0.00    -0.573 A  
HETATM    4  C   UNL     1     -11.518  11.646  63.412  1.00  0.00    -0.360 A  
HETATM    5  C   UNL     1     -10.198  11.914  63.739  1.00  0.00    -0.442 A  
HETATM    6  C   UNL     1      -9.892  12.980  64.585  1.00  0.00    -0.028 A  
HETATM    7  C   UNL     1     -10.898  13.804  65.116  1.00  0.00    -0.345 A  
ENDROOT
BRANCH   7   8
HETATM    8  O   UNL     1     -10.645  14.876  65.951  1.00  0.00    -0.297 OA 
BRANCH   8   9
HETATM    9  C   UNL     1      -9.739  14.596  67.024  1.00  0.00    -0.243 C  
BRANCH   9  10
HETATM   10  C   UNL     1     -10.268  13.562  68.020  1.00  0.00    -0.243 C  
HETATM   11  O   UNL     1      -9.150  13.010  68.738  1.00  0.00    -0.385 OA 
HETATM   12  H   UNL     1      -9.478  12.369  69.357  1.00  0.00     0.000 HD 
BRANCH  10  13
HETATM   13  C   UNL     1     -11.275  14.163  69.008  1.00  0.00    -0.271 C  
HETATM   14  O   UNL     1     -12.108  15.133  68.370  1.00  0.00    -0.553 OA 
HETATM   15  H   UNL     1     -12.732  15.506  68.982  1.00  0.00     0.000 HD 
ENDBRANCH  10  13
ENDBRANCH   9  10
ENDBRANCH   8   9
ENDBRANCH   7   8
TORSDOF 4
ENDMDL
MODEL      145
REMARK 921   NORMALIZED FREE ENERGY PREDICTED BY IDOCK:   -3.17 KCAL/MOL
REMARK 922        TOTAL FREE ENERGY PREDICTED BY IDOCK:   -4.16 KCAL/MOL
REMARK 923 INTER-LIGAND FREE ENERGY PREDICTED BY IDOCK:   -3.93 KCAL/MOL
REMARK 924 INTRA-LIGAND FREE ENERGY PREDICTED BY IDOCK:   -0.23 KCAL/MOL
REMARK 927      BINDING AFFINITY PREDICTED BY RF-SCORE:    0.00 PKD
ROOT
HETATM    1  C   UNL     1     -11.050  16.420  64.659  1.00  0.00    -0.202 C  
HETATM    2  C   UNL     1     -10.575  16.734  66.055  1.00  0.00    -0.232 A  
HETATM    3  C   UNL     1     -10.210  18.059  66.355  1.00  0.00    -0.393 A  
HETATM    4  C   UNL     1      -9.764  18.413  67.630  1.00  0.00    -0.306 A  
HETATM    5  C   UNL     1      -9.673  17.444  68.615  1.00  0.00    -0.308 A  
HETATM    6  C   UNL     1     -10.025  16.125  68.330  1.00  0.00    -0.230 A  
HETATM    7  C   UNL     1     -10.480  15.748  67.056  1.00  0.00    -0.309 A  
ENDROOT
BRANCH   7   8
HETATM    8  O   UNL     1     -10.847  14.458  66.727  1.00  0.00    -0.293 OA 
BRANCH   8   9
HETATM    9  C   UNL     1     -11.553  13.757  67.757  1.00  0.00    -0.346 C  
BRANCH   9  10
HETATM   10  C   UNL     1     -11.822  12.288  67.427  1.00  0.00    -0.257 C  
HETATM   11  O   UNL     1     -11.766  12.125  65.999  1.00  0.00    -0.434 OA 
HETATM   12  H   UNL     1     -11.934  11.213  65.794  1.00  0.00     0.000 HD 
BRANCH  10  13
HETATM   13  C   UNL     1     -10.818  11.343  68.097  1.00  0.00    -0.213 C  
HETATM   14  O   UNL     1     -10.032  12.032  69.072  1.00  0.00    -0.411 OA 
HETATM   15  H   UNL     1      -9.409  11.447  69.487  1.00  0.00     0.000 HD 
ENDBRANCH  10  13
ENDBRANCH   9  10
ENDBRANCH   8   9
ENDBRANCH   7   8
TORSDOF 4
ENDMDL
MODEL      146
REMARK 921   NORMALIZED FREE ENERGY PREDICTED BY IDOCK:   -3.17 KCAL/MOL
REMARK 922        TOTAL FREE ENERGY PREDICTED BY IDOCK:   -4.16 KCAL/MOL
REMARK 923 INTER-LIGAND FREE ENERGY PREDICTED BY IDOCK:   -3.96 KCAL/MOL
REMARK 924 INTRA-LIGAND FREE ENERGY PREDICTED BY IDOCK:   -0.20 KCAL/MOL
REMARK 927      BINDING AFFINITY PREDICTED BY RF-SCORE:    0.00 PKD
ROOT
HETATM    1  C   UNL     1      -8.780   9.063  70.843  1.00  0.00    -0.280 C  
HETATM    2  C   UNL     1     -10.109   8.368  70.991  1.00  0.00    -0.242 A  
HETATM    3  C   UNL     1     -10.978   8.798  72.012  1.00  0.00    -0.438 A  
HETATM    4  C   UNL     1     -12.224   8.195  72.199  1.00  0.00    -0.398 A  
HETATM    5  C   UNL     1     -12.610   7.153  71.372  1.00  0.00    -0.432 A  
HETATM    6  C   UNL     1     -11.756   6.712  70.362  1.00  0.00    -0.446 A  
HETATM    7  C   UNL     1     -10.501   7.307  70.153  1.00  0.00    -0.218 A  
ENDROOT
BRANCH   7   8
HETATM    8  O   UNL     1      -9.623   6.911  69.162  1.00  0.00    -0.145 OA 
BRANCH   8   9
HETATM    9  C   UNL     1     -10.093   7.129  67.827  1.00  0.00    -0.172 C  
BRANCH   9  10
HETATM   10  C   UNL     1     -10.071   5.873  66.955  1.00  0.00    -0.188 C  
HETATM   11  O   UNL     1     -11.322   5.787  66.250  1.00  0.00    -0.733 OA 
HETATM   12  H   UNL     1     -11.309   5.006  65.709  1.00  0.00     0.000 HD 
BRANCH  10  13
HETATM   13  C   UNL     1      -8.910   5.874  65.954  1.00  0.00    -0.149 C  
HETATM   14  O   UNL     1      -8.638   4.556  65.475  1.00  0.00    -0.118 OA 
HETATM   15  H   UNL     1      -7.919   4.556  64.855  1.00  0.00     0.000 HD 
ENDBRANCH  10  13
ENDBRANCH   9  10
ENDBRANCH   8   9
ENDBRANCH   7   8
TORSDOF 4
ENDMDL
MODEL      147
REMARK 921   NORMALIZED FREE ENERGY PREDICTED BY IDOCK:   -3.16 KCAL/MOL
REMARK 922        TOTAL FREE ENERGY PREDICTED BY IDOCK:   -4.16 KCAL/MOL
REMARK 923 INTER-LIGAND FREE ENERGY PREDICTED BY IDOCK:   -3.74 KCAL/MOL
REMARK 924 INTRA-LIGAND FREE ENERGY PREDICTED BY IDOCK:   -0.42 KCAL/MOL
REMARK 927      BINDING AFFINITY PREDICTED BY RF-SCORE:    0.00 PKD
ROOT
HETATM    1  C   UNL     1     -12.211  12.476  65.150  1.00  0.00    -0.509 C  
HETATM    2  C   UNL     1     -11.225  13.566  65.485  1.00  0.00    -0.304 A  
HETATM    3  C   UNL     1     -11.448  14.854  64.960  1.00  0.00    -0.379 A  
HETATM    4  C   UNL     1     -10.572  15.906  65.236  1.00  0.00    -0.441 A  
HETATM    5  C   UNL     1      -9.462  15.680  66.033  1.00  0.00    -0.390 A  
HETATM    6  C   UNL     1      -9.225  14.407  66.553  1.00  0.00    -0.269 A  
HETATM    7  C   UNL     1     -10.095  13.337  66.292  1.00  0.00    -0.294 A  
ENDROOT
BRANCH   7   8
HETATM    8  O   UNL     1      -9.908  12.062  66.791  1.00  0.00    -0.199 OA 
BRANCH   8   9
HETATM    9  C   UNL     1      -8.855  11.323  66.160  1.00  0.00    -0.190 C  
BRANCH   9  10
HETATM   10  C   UNL     1      -7.740  10.904  67.119  1.00  0.00    -0.123 C  
HETATM   11  O   UNL     1      -6.475  11.154  66.481  1.00  0.00    -0.121 OA 
HETATM   12  H   UNL     1      -5.782  10.893  67.076  1.00  0.00     0.000 HD 
BRANCH  10  13
HETATM   13  C   UNL     1      -7.804  11.651  68.456  1.00  0.00    -0.140 C  
HETATM   14  O   UNL     1      -8.822  11.112  69.300  1.00  0.00    -0.377 OA 
HETATM   15  H   UNL     1      -8.862  11.576  70.129  1.00  0.00     0.000 HD 
ENDBRANCH  10  13
ENDBRANCH   9  10
ENDBRANCH   8   9
ENDBRANCH   7   8
TORSDOF 4
ENDMDL
MODEL      148
REMARK 921   NORMALIZED FREE ENERGY PREDICTED BY IDOCK:   -3.16 KCAL/MOL
REMARK 922        TOTAL FREE ENERGY PREDICTED BY IDOCK:   -4.15 KCAL/MOL
REMARK 923 INTER-LIGAND FREE ENERGY PREDICTED BY IDOCK:   -3.94 KCAL/MOL
REMARK 924 INTRA-LIGAND FREE ENERGY PREDICTED BY IDOCK:   -0.21 KCAL/MOL
REMARK 927      BINDING AFFINITY PREDICTED BY RF-SCORE:    0.00 PKD
ROOT
HETATM    1  C   UNL     1      -7.777  14.023  67.279  1.00  0.00    -0.120 C  
HETATM    2  C   UNL     1      -9.230  13.678  67.487  1.00  0.00    -0.218 A  
HETATM    3  C   UNL     1      -9.591  12.319  67.553  1.00  0.00    -0.184 A  
HETATM    4  C   UNL     1     -10.920  11.935  67.745  1.00  0.00    -0.278 A  
HETATM    5  C   UNL     1     -11.901  12.905  67.866  1.00  0.00    -0.388 A  
HETATM    6  C   UNL     1     -11.558  14.255  67.795  1.00  0.00    -0.383 A  
HETATM    7  C   UNL     1     -10.227  14.663  67.607  1.00  0.00    -0.232 A  
ENDROOT
BRANCH   7   8
HETATM    8  O   UNL     1      -9.838  15.987  67.538  1.00  0.00    -0.231 OA 
BRANCH   8   9
HETATM    9  C   UNL     1     -10.622  16.795  66.654  1.00  0.00    -0.198 C  
BRANCH   9  10
HETATM   10  C   UNL     1     -10.132  18.240  66.545  1.00  0.00    -0.385 C  
HETATM   11  O   UNL     1     -10.672  18.814  65.341  1.00  0.00    -0.556 OA 
HETATM   12  H   UNL     1     -10.367  19.711  65.273  1.00  0.00     0.000 HD 
BRANCH  10  13
HETATM   13  C   UNL     1     -10.542  19.090  67.754  1.00  0.00    -0.404 C  
HETATM   14  O   UNL     1      -9.474  19.193  68.698  1.00  0.00    -0.365 OA 
HETATM   15  H   UNL     1      -9.727  19.719  69.448  1.00  0.00     0.000 HD 
ENDBRANCH  10  13
ENDBRANCH   9  10
ENDBRANCH   8   9
ENDBRANCH   7   8
TORSDOF 4
ENDMDL
MODEL      149
REMARK 921   NORMALIZED FREE ENERGY PREDICTED BY IDOCK:   -3.14 KCAL/MOL
REMARK 922        TOTAL FREE ENERGY PREDICTED BY IDOCK:   -4.13 KCAL/MOL
REMARK 923 INTER-LIGAND FREE ENERGY PREDICTED BY IDOCK:   -3.93 KCAL/MOL
REMARK 924 INTRA-LIGAND FREE ENERGY PREDICTED BY IDOCK:   -0.20 KCAL/MOL
REMARK 927      BINDING AFFINITY PREDICTED BY RF-SCORE:    0.00 PKD
ROOT
HETATM    1  C   UNL     1      -7.827   8.578  72.119  1.00  0.00    -0.136 C  
HETATM    2  C   UNL     1      -8.347   9.033  70.779  1.00  0.00    -0.228 A  
HETATM    3  C   UNL     1      -7.541   9.888  70.004  1.00  0.00    -0.179 A  
HETATM    4  C   UNL     1      -7.967  10.343  68.755  1.00  0.00    -0.122 A  
HETATM    5  C   UNL     1      -9.204   9.951  68.270  1.00  0.00    -0.130 A  
HETATM    6  C   UNL     1     -10.016   9.110  69.030  1.00  0.00    -0.189 A  
HETATM    7  C   UNL     1      -9.606   8.638  70.288  1.00  0.00    -0.170 A  
ENDROOT
BRANCH   7   8
HETATM    8  O   UNL     1     -10.370   7.797  71.074  1.00  0.00    -0.201 OA 
BRANCH   8   9
HETATM    9  C   UNL     1     -11.776   7.846  70.809  1.00  0.00    -0.218 C  
BRANCH   9  10
HETATM   10  C   UNL     1     -12.641   7.434  72.001  1.00  0.00    -0.230 C  
HETATM   11  O   UNL     1     -11.871   7.609  73.203  1.00  0.00    -0.607 OA 
HETATM   12  H   UNL     1     -12.408   7.353  73.944  1.00  0.00     0.000 HD 
BRANCH  10  13
HETATM   13  C   UNL     1     -13.939   8.245  72.092  1.00  0.00    -0.319 C  
HETATM   14  O   UNL     1     -13.940   9.090  73.244  1.00  0.00    -1.205 OA 
HETATM   15  H   UNL     1     -14.745   9.593  73.301  1.00  0.00     0.000 HD 
ENDBRANCH  10  13
ENDBRANCH   9  10
ENDBRANCH   8   9
ENDBRANCH   7   8
TORSDOF 4
ENDMDL
MODEL      150
REMARK 921   NORMALIZED FREE ENERGY PREDICTED BY IDOCK:   -3.13 KCAL/MOL
REMARK 922        TOTAL FREE ENERGY PREDICTED BY IDOCK:   -4.12 KCAL/MOL
REMARK 923 INTER-LIGAND FREE ENERGY PREDICTED BY IDOCK:   -3.68 KCAL/MOL
REMARK 924 INTRA-LIGAND FREE ENERGY PREDICTED BY IDOCK:   -0.43 KCAL/MOL
REMARK 927      BINDING AFFINITY PREDICTED BY RF-SCORE:    0.00 PKD
ROOT
HETATM    1  C   UNL     1     -10.575  16.402  69.779  1.00  0.00    -0.288 C  
HETATM    2  C   UNL     1      -9.444  15.880  68.930  1.00  0.00    -0.234 A  
HETATM    3  C   UNL     1      -8.194  16.523  69.012  1.00  0.00    -0.208 A  
HETATM    4  C   UNL     1      -7.108  16.086  68.252  1.00  0.00    -0.122 A  
HETATM    5  C   UNL     1      -7.261  15.005  67.399  1.00  0.00    -0.224 A  
HETATM    6  C   UNL     1      -8.496  14.363  67.302  1.00  0.00    -0.229 A  
HETATM    7  C   UNL     1      -9.600  14.784  68.061  1.00  0.00    -0.209 A  
ENDROOT
BRANCH   7   8
HETATM    8  O   UNL     1     -10.840  14.176  68.006  1.00  0.00    -0.240 OA 
BRANCH   8   9
HETATM    9  C   UNL     1     -11.676  14.622  66.932  1.00  0.00    -0.350 C  
BRANCH   9  10
HETATM   10  C   UNL     1     -12.579  13.527  66.362  1.00  0.00    -0.186 C  
HETATM   11  O   UNL     1     -13.557  14.144  65.505  1.00  0.00    -0.685 OA 
HETATM   12  H   UNL     1     -14.118  13.465  65.152  1.00  0.00     0.000 HD 
BRANCH  10  13
HETATM   13  C   UNL     1     -11.794  12.470  65.577  1.00  0.00    -0.439 C  
HETATM   14  O   UNL     1     -10.926  11.728  66.435  1.00  0.00    -0.271 OA 
HETATM   15  H   UNL     1     -10.439  11.073  65.949  1.00  0.00     0.000 HD 
ENDBRANCH  10  13
ENDBRANCH   9  10
ENDBRANCH   8   9
ENDBRANCH   7   8
TORSDOF 4
ENDMDL
MODEL      151
REMARK 921   NORMALIZED FREE ENERGY PREDICTED BY IDOCK:   -3.12 KCAL/MOL
REMARK 922        TOTAL FREE ENERGY PREDICTED BY IDOCK:   -4.10 KCAL/MOL
REMARK 923 INTER-LIGAND FREE ENERGY PREDICTED BY IDOCK:   -3.89 KCAL/MOL
REMARK 924 INTRA-LIGAND FREE ENERGY PREDICTED BY IDOCK:   -0.22 KCAL/MOL
REMARK 927      BINDING AFFINITY PREDICTED BY RF-SCORE:    0.00 PKD
ROOT
HETATM    1  C   UNL     1      -7.217  10.741  68.806  1.00  0.00    -0.091 C  
HETATM    2  C   UNL     1      -8.638  10.503  69.250  1.00  0.00    -0.136 A  
HETATM    3  C   UNL     1      -8.866   9.618  70.320  1.00  0.00    -0.253 A  
HETATM    4  C   UNL     1     -10.159   9.358  70.777  1.00  0.00    -0.366 A  
HETATM    5  C   UNL     1     -11.238   9.976  70.166  1.00  0.00    -0.367 A  
HETATM    6  C   UNL     1     -11.027  10.850  69.100  1.00  0.00    -0.290 A  
HETATM    7  C   UNL     1      -9.735  11.129  68.627  1.00  0.00    -0.198 A  
ENDROOT
BRANCH   7   8
HETATM    8  O   UNL     1      -9.475  11.993  67.580  1.00  0.00    -0.177 OA 
BRANCH   8   9
HETATM    9  C   UNL     1      -9.868  13.350  67.815  1.00  0.00    -0.234 C  
BRANCH   9  10
HETATM   10  C   UNL     1     -10.080  14.158  66.533  1.00  0.00    -0.280 C  
HETATM   11  O   UNL     1      -8.834  14.783  66.178  1.00  0.00    -0.472 OA 
HETATM   12  H   UNL     1      -8.967  15.285  65.382  1.00  0.00     0.000 HD 
BRANCH  10  13
HETATM   13  C   UNL     1     -10.577  13.291  65.370  1.00  0.00    -0.296 C  
HETATM   14  O   UNL     1     -10.081  13.771  64.119  1.00  0.00    -0.729 OA 
HETATM   15  H   UNL     1     -10.389  13.234  63.398  1.00  0.00     0.000 HD 
ENDBRANCH  10  13
ENDBRANCH   9  10
ENDBRANCH   8   9
ENDBRANCH   7   8
TORSDOF 4
ENDMDL
MODEL      152
REMARK 921   NORMALIZED FREE ENERGY PREDICTED BY IDOCK:   -3.10 KCAL/MOL
REMARK 922        TOTAL FREE ENERGY PREDICTED BY IDOCK:   -4.07 KCAL/MOL
REMARK 923 INTER-LIGAND FREE ENERGY PREDICTED BY IDOCK:   -3.52 KCAL/MOL
REMARK 924 INTRA-LIGAND FREE ENERGY PREDICTED BY IDOCK:   -0.56 KCAL/MOL
REMARK 927      BINDING AFFINITY PREDICTED BY RF-SCORE:    0.00 PKD
ROOT
HETATM    1  C   UNL     1      -9.326   3.836  69.840  1.00  0.00    -0.248 C  
HETATM    2  C   UNL     1      -9.857   4.067  71.233  1.00  0.00    -0.242 A  
HETATM    3  C   UNL     1     -10.026   2.953  72.077  1.00  0.00    -0.227 A  
HETATM    4  C   UNL     1     -10.513   3.102  73.377  1.00  0.00    -0.252 A  
HETATM    5  C   UNL     1     -10.839   4.365  73.844  1.00  0.00    -0.339 A  
HETATM    6  C   UNL     1     -10.684   5.476  73.016  1.00  0.00    -0.295 A  
HETATM    7  C   UNL     1     -10.192   5.349  71.707  1.00  0.00    -0.206 A  
ENDROOT
BRANCH   7   8
HETATM    8  O   UNL     1     -10.013   6.420  70.852  1.00  0.00    -0.183 OA 
BRANCH   8   9
HETATM    9  C   UNL     1     -11.185   7.213  70.635  1.00  0.00    -0.280 C  
BRANCH   9  10
HETATM   10  C   UNL     1     -11.046   8.659  71.114  1.00  0.00    -0.266 C  
HETATM   11  O   UNL     1     -11.689   8.777  72.396  1.00  0.00    -0.353 OA 
HETATM   12  H   UNL     1     -11.603   9.674  72.694  1.00  0.00     0.000 HD 
BRANCH  10  13
HETATM   13  C   UNL     1      -9.582   9.101  71.225  1.00  0.00    -0.261 C  
HETATM   14  O   UNL     1      -9.038   8.772  72.505  1.00  0.00    -0.367 OA 
HETATM   15  H   UNL     1      -8.131   9.046  72.574  1.00  0.00     0.000 HD 
ENDBRANCH  10  13
ENDBRANCH   9  10
ENDBRANCH   8   9
ENDBRANCH   7   8
TORSDOF 4
ENDMDL
MODEL      153
REMARK 921   NORMALIZED FREE ENERGY PREDICTED BY IDOCK:   -3.06 KCAL/MOL
REMARK 922        TOTAL FREE ENERGY PREDICTED BY IDOCK:   -4.03 KCAL/MOL
REMARK 923 INTER-LIGAND FREE ENERGY PREDICTED BY IDOCK:   -3.72 KCAL/MOL
REMARK 924 INTRA-LIGAND FREE ENERGY PREDICTED BY IDOCK:   -0.31 KCAL/MOL
REMARK 927      BINDING AFFINITY PREDICTED BY RF-SCORE:    0.00 PKD
ROOT
HETATM    1  C   UNL     1      -7.230   8.312  71.964  1.00  0.00    -0.106 C  
HETATM    2  C   UNL     1      -8.668   8.647  71.656  1.00  0.00    -0.270 A  
HETATM    3  C   UNL     1      -8.962   9.263  70.425  1.00  0.00    -0.278 A  
HETATM    4  C   UNL     1     -10.274   9.596  70.081  1.00  0.00    -0.313 A  
HETATM    5  C   UNL     1     -11.303   9.321  70.967  1.00  0.00    -0.390 A  
HETATM    6  C   UNL     1     -11.025   8.718  72.193  1.00  0.00    -0.404 A  
HETATM    7  C   UNL     1      -9.714   8.371  72.557  1.00  0.00    -0.289 A  
ENDROOT
BRANCH   7   8
HETATM    8  O   UNL     1      -9.389   7.765  73.756  1.00  0.00    -0.280 OA 
BRANCH   8   9
HETATM    9  C   UNL     1     -10.307   6.751  74.180  1.00  0.00    -0.291 C  
BRANCH   9  10
HETATM   10  C   UNL     1     -10.070   5.392  73.519  1.00  0.00    -0.187 C  
HETATM   11  O   UNL     1      -9.199   4.621  74.366  1.00  0.00    -0.112 OA 
HETATM   12  H   UNL     1      -9.051   3.777  73.956  1.00  0.00     0.000 HD 
BRANCH  10  13
HETATM   13  C   UNL     1     -11.373   4.623  73.276  1.00  0.00    -0.304 C  
HETATM   14  O   UNL     1     -12.437   5.508  72.920  1.00  0.00    -0.500 OA 
HETATM   15  H   UNL     1     -13.245   5.031  72.769  1.00  0.00     0.000 HD 
ENDBRANCH  10  13
ENDBRANCH   9  10
ENDBRANCH   8   9
ENDBRANCH   7   8
TORSDOF 4
ENDMDL
MODEL      154
REMARK 921   NORMALIZED FREE ENERGY PREDICTED BY IDOCK:   -3.00 KCAL/MOL
REMARK 922        TOTAL FREE ENERGY PREDICTED BY IDOCK:   -3.95 KCAL/MOL
REMARK 923 INTER-LIGAND FREE ENERGY PREDICTED BY IDOCK:   -3.65 KCAL/MOL
REMARK 924 INTRA-LIGAND FREE ENERGY PREDICTED BY IDOCK:   -0.31 KCAL/MOL
REMARK 927      BINDING AFFINITY PREDICTED BY RF-SCORE:    0.00 PKD
ROOT
HETATM    1  C   UNL     1      -7.724   6.876  70.602  1.00  0.00    -0.096 C  
HETATM    2  C   UNL     1      -8.901   6.666  69.684  1.00  0.00    -0.143 A  
HETATM    3  C   UNL     1      -8.687   6.747  68.295  1.00  0.00    -0.123 A  
HETATM    4  C   UNL     1      -9.737   6.560  67.392  1.00  0.00    -0.150 A  
HETATM    5  C   UNL     1     -11.010   6.296  67.870  1.00  0.00    -0.421 A  
HETATM    6  C   UNL     1     -11.237   6.220  69.244  1.00  0.00    -0.458 A  
HETATM    7  C   UNL     1     -10.195   6.401  70.168  1.00  0.00    -0.187 A  
ENDROOT
BRANCH   7   8
HETATM    8  O   UNL     1     -10.369   6.327  71.537  1.00  0.00    -0.198 OA 
BRANCH   8   9
HETATM    9  C   UNL     1     -11.640   6.793  72.004  1.00  0.00    -0.291 C  
BRANCH   9  10
HETATM   10  C   UNL     1     -11.615   8.233  72.517  1.00  0.00    -0.385 C  
HETATM   11  O   UNL     1     -10.247   8.675  72.568  1.00  0.00    -0.290 OA 
HETATM   12  H   UNL     1     -10.232   9.569  72.887  1.00  0.00     0.000 HD 
BRANCH  10  13
HETATM   13  C   UNL     1     -12.436   9.183  71.637  1.00  0.00    -0.359 C  
HETATM   14  O   UNL     1     -13.633   8.555  71.175  1.00  0.00    -0.548 OA 
HETATM   15  H   UNL     1     -14.141   9.143  70.629  1.00  0.00     0.000 HD 
ENDBRANCH  10  13
ENDBRANCH   9  10
ENDBRANCH   8   9
ENDBRANCH   7   8
TORSDOF 4
ENDMDL
MODEL      155
REMARK 921   NORMALIZED FREE ENERGY PREDICTED BY IDOCK:   -2.98 KCAL/MOL
REMARK 922        TOTAL FREE ENERGY PREDICTED BY IDOCK:   -3.93 KCAL/MOL
REMARK 923 INTER-LIGAND FREE ENERGY PREDICTED BY IDOCK:   -3.73 KCAL/MOL
REMARK 924 INTRA-LIGAND FREE ENERGY PREDICTED BY IDOCK:   -0.20 KCAL/MOL
REMARK 927      BINDING AFFINITY PREDICTED BY RF-SCORE:    0.00 PKD
ROOT
HETATM    1  C   UNL     1      -7.196  10.875  66.242  1.00  0.00    -0.126 C  
HETATM    2  C   UNL     1      -8.381   9.994  66.548  1.00  0.00    -0.126 A  
HETATM    3  C   UNL     1      -8.193   8.599  66.551  1.00  0.00    -0.107 A  
HETATM    4  C   UNL     1      -9.251   7.730  66.828  1.00  0.00    -0.202 A  
HETATM    5  C   UNL     1     -10.507   8.247  67.100  1.00  0.00    -0.386 A  
HETATM    6  C   UNL     1     -10.709   9.627  67.093  1.00  0.00    -0.258 A  
HETATM    7  C   UNL     1      -9.658  10.519  66.820  1.00  0.00    -0.170 A  
ENDROOT
BRANCH   7   8
HETATM    8  O   UNL     1      -9.806  11.892  66.810  1.00  0.00    -0.193 OA 
BRANCH   8   9
HETATM    9  C   UNL     1     -10.426  12.417  65.630  1.00  0.00    -0.261 C  
BRANCH   9  10
HETATM   10  C   UNL     1     -11.853  12.919  65.858  1.00  0.00    -0.424 C  
HETATM   11  O   UNL     1     -11.916  13.537  67.155  1.00  0.00    -0.380 OA 
HETATM   12  H   UNL     1     -12.801  13.849  67.297  1.00  0.00     0.000 HD 
BRANCH  10  13
HETATM   13  C   UNL     1     -12.301  13.918  64.784  1.00  0.00    -0.400 C  
HETATM   14  O   UNL     1     -11.838  13.527  63.490  1.00  0.00    -0.700 OA 
HETATM   15  H   UNL     1     -12.116  14.146  62.824  1.00  0.00     0.000 HD 
ENDBRANCH  10  13
ENDBRANCH   9  10
ENDBRANCH   8   9
ENDBRANCH   7   8
TORSDOF 4
ENDMDL
MODEL      156
REMARK 921   NORMALIZED FREE ENERGY PREDICTED BY IDOCK:   -2.98 KCAL/MOL
REMARK 922        TOTAL FREE ENERGY PREDICTED BY IDOCK:   -3.93 KCAL/MOL
REMARK 923 INTER-LIGAND FREE ENERGY PREDICTED BY IDOCK:   -3.60 KCAL/MOL
REMARK 924 INTRA-LIGAND FREE ENERGY PREDICTED BY IDOCK:   -0.33 KCAL/MOL
REMARK 927      BINDING AFFINITY PREDICTED BY RF-SCORE:    0.00 PKD
ROOT
HETATM    1  C   UNL     1     -11.844   6.580  71.224  1.00  0.00    -0.385 C  
HETATM    2  C   UNL     1     -12.122   8.061  71.262  1.00  0.00    -0.314 A  
HETATM    3  C   UNL     1     -13.177   8.523  72.071  1.00  0.00    -0.399 A  
HETATM    4  C   UNL     1     -13.483   9.883  72.149  1.00  0.00    -0.454 A  
HETATM    5  C   UNL     1     -12.742  10.794  71.415  1.00  0.00    -0.544 A  
HETATM    6  C   UNL     1     -11.699  10.350  70.602  1.00  0.00    -0.444 A  
HETATM    7  C   UNL     1     -11.371   8.987  70.513  1.00  0.00    -0.243 A  
ENDROOT
BRANCH   7   8
HETATM    8  O   UNL     1     -10.343   8.499  69.729  1.00  0.00    -0.203 OA 
BRANCH   8   9
HETATM    9  C   UNL     1      -9.030   8.755  70.240  1.00  0.00    -0.161 C  
BRANCH   9  10
HETATM   10  C   UNL     1      -8.094   7.548  70.162  1.00  0.00    -0.119 C  
HETATM   11  O   UNL     1      -8.233   6.786  71.375  1.00  0.00    -0.110 OA 
HETATM   12  H   UNL     1      -7.652   6.037  71.327  1.00  0.00     0.000 HD 
BRANCH  10  13
HETATM   13  C   UNL     1      -8.390   6.655  68.951  1.00  0.00    -0.120 C  
HETATM   14  O   UNL     1      -7.611   7.046  67.819  1.00  0.00    -0.105 OA 
HETATM   15  H   UNL     1      -7.794   6.492  67.068  1.00  0.00     0.000 HD 
ENDBRANCH  10  13
ENDBRANCH   9  10
ENDBRANCH   8   9
ENDBRANCH   7   8
TORSDOF 4
ENDMDL
MODEL      157
REMARK 921   NORMALIZED FREE ENERGY PREDICTED BY IDOCK:   -2.98 KCAL/MOL
REMARK 922        TOTAL FREE ENERGY PREDICTED BY IDOCK:   -3.92 KCAL/MOL
REMARK 923 INTER-LIGAND FREE ENERGY PREDICTED BY IDOCK:   -3.36 KCAL/MOL
REMARK 924 INTRA-LIGAND FREE ENERGY PREDICTED BY IDOCK:   -0.57 KCAL/MOL
REMARK 927      BINDING AFFINITY PREDICTED BY RF-SCORE:    0.00 PKD
ROOT
HETATM    1  C   UNL     1      -7.602   6.418  70.502  1.00  0.00    -0.096 C  
HETATM    2  C   UNL     1      -8.811   6.521  69.607  1.00  0.00    -0.138 A  
HETATM    3  C   UNL     1      -8.664   7.139  68.351  1.00  0.00    -0.125 A  
HETATM    4  C   UNL     1      -9.746   7.264  67.478  1.00  0.00    -0.181 A  
HETATM    5  C   UNL     1     -10.987   6.776  67.853  1.00  0.00    -0.309 A  
HETATM    6  C   UNL     1     -11.149   6.167  69.098  1.00  0.00    -0.448 A  
HETATM    7  C   UNL     1     -10.074   6.028  69.990  1.00  0.00    -0.186 A  
ENDROOT
BRANCH   7   8
HETATM    8  O   UNL     1     -10.182   5.426  71.229  1.00  0.00    -0.205 OA 
BRANCH   8   9
HETATM    9  C   UNL     1     -11.226   5.951  72.058  1.00  0.00    -0.273 C  
BRANCH   9  10
HETATM   10  C   UNL     1     -10.907   7.324  72.651  1.00  0.00    -0.290 C  
HETATM   11  O   UNL     1     -12.137   7.924  73.094  1.00  0.00    -0.655 OA 
HETATM   12  H   UNL     1     -11.939   8.777  73.462  1.00  0.00     0.000 HD 
BRANCH  10  13
HETATM   13  C   UNL     1      -9.918   7.242  73.819  1.00  0.00    -0.322 C  
HETATM   14  O   UNL     1      -9.083   6.088  73.710  1.00  0.00    -0.127 OA 
HETATM   15  H   UNL     1      -8.470   6.037  74.434  1.00  0.00     0.000 HD 
ENDBRANCH  10  13
ENDBRANCH   9  10
ENDBRANCH   8   9
ENDBRANCH   7   8
TORSDOF 4
ENDMDL
MODEL      158
REMARK 921   NORMALIZED FREE ENERGY PREDICTED BY IDOCK:   -2.95 KCAL/MOL
REMARK 922        TOTAL FREE ENERGY PREDICTED BY IDOCK:   -3.89 KCAL/MOL
REMARK 923 INTER-LIGAND FREE ENERGY PREDICTED BY IDOCK:   -3.56 KCAL/MOL
REMARK 924 INTRA-LIGAND FREE ENERGY PREDICTED BY IDOCK:   -0.33 KCAL/MOL
REMARK 927      BINDING AFFINITY PREDICTED BY RF-SCORE:    0.00 PKD
ROOT
HETATM    1  C   UNL     1     -11.379  13.986  64.936  1.00  0.00    -0.354 C  
HETATM    2  C   UNL     1     -11.101  15.181  65.812  1.00  0.00    -0.330 A  
HETATM    3  C   UNL     1     -10.720  16.388  65.197  1.00  0.00    -0.309 A  
HETATM    4  C   UNL     1     -10.450  17.529  65.955  1.00  0.00    -0.251 A  
HETATM    5  C   UNL     1     -10.553  17.474  67.335  1.00  0.00    -0.311 A  
HETATM    6  C   UNL     1     -10.922  16.282  67.959  1.00  0.00    -0.328 A  
HETATM    7  C   UNL     1     -11.202  15.124  67.216  1.00  0.00    -0.324 A  
ENDROOT
BRANCH   7   8
HETATM    8  O   UNL     1     -11.579  13.923  67.786  1.00  0.00    -0.307 OA 
BRANCH   8   9
HETATM    9  C   UNL     1     -12.652  14.021  68.729  1.00  0.00     0.466 C  
BRANCH   9  10
HETATM   10  C   UNL     1     -12.293  13.506  70.124  1.00  0.00    -0.275 C  
HETATM   11  O   UNL     1     -11.078  12.742  70.028  1.00  0.00    -0.437 OA 
HETATM   12  H   UNL     1     -10.855  12.422  70.893  1.00  0.00     0.000 HD 
BRANCH  10  13
HETATM   13  C   UNL     1     -12.115  14.640  71.140  1.00  0.00    -0.342 C  
HETATM   14  O   UNL     1     -12.848  15.803  70.749  1.00  0.00    -0.457 OA 
HETATM   15  H   UNL     1     -12.738  16.507  71.378  1.00  0.00     0.000 HD 
ENDBRANCH  10  13
ENDBRANCH   9  10
ENDBRANCH   8   9
ENDBRANCH   7   8
TORSDOF 4
ENDMDL
MODEL      159
REMARK 921   NORMALIZED FREE ENERGY PREDICTED BY IDOCK:   -2.92 KCAL/MOL
REMARK 922        TOTAL FREE ENERGY PREDICTED BY IDOCK:   -3.86 KCAL/MOL
REMARK 923 INTER-LIGAND FREE ENERGY PREDICTED BY IDOCK:   -3.67 KCAL/MOL
REMARK 924 INTRA-LIGAND FREE ENERGY PREDICTED BY IDOCK:   -0.18 KCAL/MOL
REMARK 927      BINDING AFFINITY PREDICTED BY RF-SCORE:    0.00 PKD
ROOT
HETATM    1  C   UNL     1      -8.628   4.757  70.373  1.00  0.00    -0.117 C  
HETATM    2  C   UNL     1      -9.498   4.475  71.572  1.00  0.00    -0.214 A  
HETATM    3  C   UNL     1      -9.246   3.310  72.321  1.00  0.00    -0.156 A  
HETATM    4  C   UNL     1     -10.016   2.995  73.443  1.00  0.00    -0.174 A  
HETATM    5  C   UNL     1     -11.047   3.838  73.823  1.00  0.00    -0.285 A  
HETATM    6  C   UNL     1     -11.313   4.991  73.086  1.00  0.00    -0.397 A  
HETATM    7  C   UNL     1     -10.548   5.330  71.957  1.00  0.00    -0.216 A  
ENDROOT
BRANCH   7   8
HETATM    8  O   UNL     1     -10.767   6.464  71.199  1.00  0.00    -0.228 OA 
BRANCH   8   9
HETATM    9  C   UNL     1     -10.835   7.681  71.952  1.00  0.00    -0.233 C  
BRANCH   9  10
HETATM   10  C   UNL     1     -11.357   8.872  71.147  1.00  0.00    -0.291 C  
HETATM   11  O   UNL     1     -11.361   8.513  69.754  1.00  0.00    -0.452 OA 
HETATM   12  H   UNL     1     -11.684   9.253  69.255  1.00  0.00     0.000 HD 
BRANCH  10  13
HETATM   13  C   UNL     1     -12.766   9.298  71.578  1.00  0.00    -0.350 C  
HETATM   14  O   UNL     1     -13.358  10.173  70.615  1.00  0.00    -0.556 OA 
HETATM   15  H   UNL     1     -14.231  10.437  70.882  1.00  0.00     0.000 HD 
ENDBRANCH  10  13
ENDBRANCH   9  10
ENDBRANCH   8   9
ENDBRANCH   7   8
TORSDOF 4
ENDMDL
MODEL      160
REMARK 921   NORMALIZED FREE ENERGY PREDICTED BY IDOCK:   -2.92 KCAL/MOL
REMARK 922        TOTAL FREE ENERGY PREDICTED BY IDOCK:   -3.85 KCAL/MOL
REMARK 923 INTER-LIGAND FREE ENERGY PREDICTED BY IDOCK:   -3.66 KCAL/MOL
REMARK 924 INTRA-LIGAND FREE ENERGY PREDICTED BY IDOCK:   -0.19 KCAL/MOL
REMARK 927      BINDING AFFINITY PREDICTED BY RF-SCORE:    0.00 PKD
ROOT
HETATM    1  C   UNL     1      -8.137  13.335  67.645  1.00  0.00    -0.174 C  
HETATM    2  C   UNL     1      -9.038  14.177  66.778  1.00  0.00    -0.266 A  
HETATM    3  C   UNL     1     -10.143  13.560  66.163  1.00  0.00    -0.307 A  
HETATM    4  C   UNL     1     -11.015  14.288  65.350  1.00  0.00    -0.335 A  
HETATM    5  C   UNL     1     -10.787  15.638  65.139  1.00  0.00    -0.448 A  
HETATM    6  C   UNL     1      -9.690  16.261  65.736  1.00  0.00    -0.299 A  
HETATM    7  C   UNL     1      -8.804  15.549  66.560  1.00  0.00    -0.313 A  
ENDROOT
BRANCH   7   8
HETATM    8  O   UNL     1      -7.710  16.122  67.180  1.00  0.00    -0.155 OA 
BRANCH   8   9
HETATM    9  C   UNL     1      -8.017  16.867  68.364  1.00  0.00    -0.232 C  
BRANCH   9  10
HETATM   10  C   UNL     1      -8.101  18.377  68.135  1.00  0.00    -0.290 C  
HETATM   11  O   UNL     1      -9.478  18.777  68.251  1.00  0.00    -0.318 OA 
HETATM   12  H   UNL     1      -9.531  19.715  68.108  1.00  0.00     0.000 HD 
BRANCH  10  13
HETATM   13  C   UNL     1      -7.245  19.169  69.130  1.00  0.00    -0.300 C  
HETATM   14  O   UNL     1      -5.955  18.574  69.290  1.00  0.00    -0.221 OA 
HETATM   15  H   UNL     1      -5.424  19.065  69.906  1.00  0.00     0.000 HD 
ENDBRANCH  10  13
ENDBRANCH   9  10
ENDBRANCH   8   9
ENDBRANCH   7   8
TORSDOF 4
ENDMDL
MODEL      161
REMARK 921   NORMALIZED FREE ENERGY PREDICTED BY IDOCK:   -2.91 KCAL/MOL
REMARK 922        TOTAL FREE ENERGY PREDICTED BY IDOCK:   -3.85 KCAL/MOL
REMARK 923 INTER-LIGAND FREE ENERGY PREDICTED BY IDOCK:   -3.54 KCAL/MOL
REMARK 924 INTRA-LIGAND FREE ENERGY PREDICTED BY IDOCK:   -0.31 KCAL/MOL
REMARK 927      BINDING AFFINITY PREDICTED BY RF-SCORE:    0.00 PKD
ROOT
HETATM    1  C   UNL     1      -7.921  11.025  67.174  1.00  0.00    -0.135 C  
HETATM    2  C   UNL     1      -9.334  11.528  67.029  1.00  0.00    -0.185 A  
HETATM    3  C   UNL     1      -9.647  12.332  65.916  1.00  0.00    -0.207 A  
HETATM    4  C   UNL     1     -10.938  12.828  65.725  1.00  0.00    -0.306 A  
HETATM    5  C   UNL     1     -11.928  12.530  66.648  1.00  0.00    -0.351 A  
HETATM    6  C   UNL     1     -11.630  11.741  67.759  1.00  0.00    -0.374 A  
HETATM    7  C   UNL     1     -10.340  11.229  67.968  1.00  0.00    -0.183 A  
ENDROOT
BRANCH   7   8
HETATM    8  O   UNL     1      -9.998  10.437  69.047  1.00  0.00    -0.193 OA 
BRANCH   8   9
HETATM    9  C   UNL     1     -10.655   9.165  69.087  1.00  0.00    -0.208 C  
BRANCH   9  10
HETATM   10  C   UNL     1      -9.813   8.021  68.519  1.00  0.00    -0.174 C  
HETATM   11  O   UNL     1      -9.838   6.930  69.456  1.00  0.00    -0.158 OA 
HETATM   12  H   UNL     1      -9.315   6.220  69.104  1.00  0.00     0.000 HD 
BRANCH  10  13
HETATM   13  C   UNL     1     -10.318   7.544  67.152  1.00  0.00    -0.313 C  
HETATM   14  O   UNL     1     -11.532   6.802  67.281  1.00  0.00    -0.752 OA 
HETATM   15  H   UNL     1     -11.846   6.506  66.434  1.00  0.00     0.000 HD 
ENDBRANCH  10  13
ENDBRANCH   9  10
ENDBRANCH   8   9
ENDBRANCH   7   8
TORSDOF 4
ENDMDL
MODEL      162
REMARK 921   NORMALIZED FREE ENERGY PREDICTED BY IDOCK:   -2.89 KCAL/MOL
REMARK 922        TOTAL FREE ENERGY PREDICTED BY IDOCK:   -3.81 KCAL/MOL
REMARK 923 INTER-LIGAND FREE ENERGY PREDICTED BY IDOCK:   -3.47 KCAL/MOL
REMARK 924 INTRA-LIGAND FREE ENERGY PREDICTED BY IDOCK:   -0.34 KCAL/MOL
REMARK 927      BINDING AFFINITY PREDICTED BY RF-SCORE:    0.00 PKD
ROOT
HETATM    1  C   UNL     1     -12.105  11.433  70.420  1.00  0.00    -0.473 C  
HETATM    2  C   UNL     1     -11.542  10.104  70.856  1.00  0.00    -0.459 A  
HETATM    3  C   UNL     1     -12.255   9.358  71.814  1.00  0.00    -0.465 A  
HETATM    4  C   UNL     1     -11.786   8.120  72.257  1.00  0.00    -0.441 A  
HETATM    5  C   UNL     1     -10.599   7.618  71.751  1.00  0.00    -0.250 A  
HETATM    6  C   UNL     1      -9.878   8.349  70.807  1.00  0.00    -0.215 A  
HETATM    7  C   UNL     1     -10.333   9.595  70.345  1.00  0.00    -0.291 A  
ENDROOT
BRANCH   7   8
HETATM    8  O   UNL     1      -9.660  10.353  69.406  1.00  0.00    -0.217 OA 
BRANCH   8   9
HETATM    9  C   UNL     1      -8.233  10.310  69.515  1.00  0.00    -0.155 C  
BRANCH   9  10
HETATM   10  C   UNL     1      -7.550  11.631  69.160  1.00  0.00     0.044 C  
HETATM   11  O   UNL     1      -6.471  11.848  70.086  1.00  0.00    -0.330 OA 
HETATM   12  H   UNL     1      -6.047  12.669  69.866  1.00  0.00     0.000 HD 
BRANCH  10  13
HETATM   13  C   UNL     1      -7.014  11.646  67.724  1.00  0.00    -0.084 C  
HETATM   14  O   UNL     1      -7.915  10.992  66.829  1.00  0.00    -0.138 OA 
HETATM   15  H   UNL     1      -7.582  11.001  65.939  1.00  0.00     0.000 HD 
ENDBRANCH  10  13
ENDBRANCH   9  10
ENDBRANCH   8   9
ENDBRANCH   7   8
TORSDOF 4
ENDMDL
MODEL      163
REMARK 921   NORMALIZED FREE ENERGY PREDICTED BY IDOCK:   -2.88 KCAL/MOL
REMARK 922        TOTAL FREE ENERGY PREDICTED BY IDOCK:   -3.80 KCAL/MOL
REMARK 923 INTER-LIGAND FREE ENERGY PREDICTED BY IDOCK:   -3.52 KCAL/MOL
REMARK 924 INTRA-LIGAND FREE ENERGY PREDICTED BY IDOCK:   -0.28 KCAL/MOL
REMARK 927      BINDING AFFINITY PREDICTED BY RF-SCORE:    0.00 PKD
ROOT
HETATM    1  C   UNL     1      -9.107   8.690  65.985  1.00  0.00    -0.255 C  
HETATM    2  C   UNL     1      -9.914   9.879  66.440  1.00  0.00    -0.309 A  
HETATM    3  C   UNL     1     -10.391  10.776  65.465  1.00  0.00    -0.308 A  
HETATM    4  C   UNL     1     -11.145  11.895  65.823  1.00  0.00    -0.367 A  
HETATM    5  C   UNL     1     -11.425  12.132  67.158  1.00  0.00    -0.413 A  
HETATM    6  C   UNL     1     -10.953  11.256  68.136  1.00  0.00    -0.284 A  
HETATM    7  C   UNL     1     -10.196  10.122  67.797  1.00  0.00    -0.191 A  
ENDROOT
BRANCH   7   8
HETATM    8  O   UNL     1      -9.713   9.222  68.727  1.00  0.00    -0.153 OA 
BRANCH   8   9
HETATM    9  C   UNL     1     -10.714   8.634  69.565  1.00  0.00    -0.182 C  
BRANCH   9  10
HETATM   10  C   UNL     1     -10.636   7.108  69.637  1.00  0.00    -0.234 C  
HETATM   11  O   UNL     1     -11.434   6.562  68.572  1.00  0.00    -0.575 OA 
HETATM   12  H   UNL     1     -11.386   5.614  68.616  1.00  0.00     0.000 HD 
BRANCH  10  13
HETATM   13  C   UNL     1      -9.198   6.589  69.527  1.00  0.00    -0.142 C  
HETATM   14  O   UNL     1      -9.132   5.188  69.801  1.00  0.00    -0.110 OA 
HETATM   15  H   UNL     1      -8.240   4.866  69.734  1.00  0.00     0.000 HD 
ENDBRANCH  10  13
ENDBRANCH   9  10
ENDBRANCH   8   9
ENDBRANCH   7   8
TORSDOF 4
ENDMDL
MODEL      164
REMARK 921   NORMALIZED FREE ENERGY PREDICTED BY IDOCK:   -2.83 KCAL/MOL
REMARK 922        TOTAL FREE ENERGY PREDICTED BY IDOCK:   -3.74 KCAL/MOL
REMARK 923 INTER-LIGAND FREE ENERGY PREDICTED BY IDOCK:   -3.48 KCAL/MOL
REMARK 924 INTRA-LIGAND FREE ENERGY PREDICTED BY IDOCK:   -0.26 KCAL/MOL
REMARK 927      BINDING AFFINITY PREDICTED BY RF-SCORE:    0.00 PKD
ROOT
HETATM    1  C   UNL     1     -11.515  15.977  68.478  1.00  0.00    -0.357 C  
HETATM    2  C   UNL     1     -10.300  16.386  67.685  1.00  0.00    -0.284 A  
HETATM    3  C   UNL     1     -10.188  17.728  67.278  1.00  0.00    -0.350 A  
HETATM    4  C   UNL     1      -9.086  18.169  66.542  1.00  0.00    -0.287 A  
HETATM    5  C   UNL     1      -8.089  17.270  66.201  1.00  0.00    -0.272 A  
HETATM    6  C   UNL     1      -8.190  15.935  66.591  1.00  0.00    -0.317 A  
HETATM    7  C   UNL     1      -9.288  15.472  67.335  1.00  0.00    -0.207 A  
ENDROOT
BRANCH   7   8
HETATM    8  O   UNL     1      -9.430  14.162  67.752  1.00  0.00    -0.198 OA 
BRANCH   8   9
HETATM    9  C   UNL     1      -8.716  13.204  66.963  1.00  0.00    -0.189 C  
BRANCH   9  10
HETATM   10  C   UNL     1      -8.970  11.754  67.379  1.00  0.00    -0.173 C  
HETATM   11  O   UNL     1      -9.060  11.702  68.813  1.00  0.00    -0.338 OA 
HETATM   12  H   UNL     1      -9.217  10.802  69.072  1.00  0.00     0.000 HD 
BRANCH  10  13
HETATM   13  C   UNL     1     -10.249  11.182  66.757  1.00  0.00    -0.232 C  
HETATM   14  O   UNL     1     -11.391  11.474  67.564  1.00  0.00    -0.280 OA 
HETATM   15  H   UNL     1     -12.184  11.119  67.179  1.00  0.00     0.000 HD 
ENDBRANCH  10  13
ENDBRANCH   9  10
ENDBRANCH   8   9
ENDBRANCH   7   8
TORSDOF 4
ENDMDL
MODEL      165
REMARK 921   NORMALIZED FREE ENERGY PREDICTED BY IDOCK:   -2.79 KCAL/MOL
REMARK 922        TOTAL FREE ENERGY PREDICTED BY IDOCK:   -3.70 KCAL/MOL
REMARK 923 INTER-LIGAND FREE ENERGY PREDICTED BY IDOCK:   -3.28 KCAL/MOL
REMARK 924 INTRA-LIGAND FREE ENERGY PREDICTED BY IDOCK:   -0.42 KCAL/MOL
REMARK 927      BINDING AFFINITY PREDICTED BY RF-SCORE:    0.00 PKD
ROOT
HETATM    1  C   UNL     1     -11.132   6.714  67.185  1.00  0.00    -0.427 C  
HETATM    2  C   UNL     1     -10.571   5.802  68.246  1.00  0.00    -0.286 A  
HETATM    3  C   UNL     1     -10.990   5.986  69.577  1.00  0.00    -0.467 A  
HETATM    4  C   UNL     1     -10.508   5.173  70.604  1.00  0.00    -0.269 A  
HETATM    5  C   UNL     1      -9.598   4.170  70.311  1.00  0.00    -0.269 A  
HETATM    6  C   UNL     1      -9.168   3.980  68.998  1.00  0.00    -0.215 A  
HETATM    7  C   UNL     1      -9.644   4.785  67.949  1.00  0.00    -0.154 A  
ENDROOT
BRANCH   7   8
HETATM    8  O   UNL     1      -9.255   4.631  66.632  1.00  0.00    -0.118 OA 
BRANCH   8   9
HETATM    9  C   UNL     1      -8.751   3.330  66.306  1.00  0.00    -0.129 C  
BRANCH   9  10
HETATM   10  C   UNL     1      -9.009   2.918  64.856  1.00  0.00    -0.133 C  
HETATM   11  O   UNL     1     -10.424   2.724  64.683  1.00  0.00    -0.365 OA 
HETATM   12  H   UNL     1     -10.583   2.467  63.783  1.00  0.00     0.000 HD 
BRANCH  10  13
HETATM   13  C   UNL     1      -8.500   3.959  63.852  1.00  0.00    -0.094 C  
HETATM   14  O   UNL     1      -9.386   5.077  63.774  1.00  0.00    -0.351 OA 
HETATM   15  H   UNL     1      -9.071   5.722  63.152  1.00  0.00     0.000 HD 
ENDBRANCH  10  13
ENDBRANCH   9  10
ENDBRANCH   8   9
ENDBRANCH   7   8
TORSDOF 4
ENDMDL
MODEL      166
REMARK 921   NORMALIZED FREE ENERGY PREDICTED BY IDOCK:   -2.77 KCAL/MOL
REMARK 922        TOTAL FREE ENERGY PREDICTED BY IDOCK:   -3.67 KCAL/MOL
REMARK 923 INTER-LIGAND FREE ENERGY PREDICTED BY IDOCK:   -3.17 KCAL/MOL
REMARK 924 INTRA-LIGAND FREE ENERGY PREDICTED BY IDOCK:   -0.50 KCAL/MOL
REMARK 927      BINDING AFFINITY PREDICTED BY RF-SCORE:    0.00 PKD
ROOT
HETATM    1  C   UNL     1      -9.893   4.089  70.839  1.00  0.00    -0.229 C  
HETATM    2  C   UNL     1     -10.109   5.038  71.990  1.00  0.00    -0.255 A  
HETATM    3  C   UNL     1      -9.624   4.671  73.259  1.00  0.00    -0.143 A  
HETATM    4  C   UNL     1      -9.792   5.508  74.365  1.00  0.00    -0.223 A  
HETATM    5  C   UNL     1     -10.452   6.716  74.213  1.00  0.00    -0.161 A  
HETATM    6  C   UNL     1     -10.945   7.089  72.962  1.00  0.00    -0.327 A  
HETATM    7  C   UNL     1     -10.783   6.264  71.837  1.00  0.00    -0.230 A  
ENDROOT
BRANCH   7   8
HETATM    8  O   UNL     1     -11.246   6.593  70.577  1.00  0.00    -0.285 OA 
BRANCH   8   9
HETATM    9  C   UNL     1     -11.008   7.950  70.189  1.00  0.00    -0.233 C  
BRANCH   9  10
HETATM   10  C   UNL     1      -9.928   8.102  69.117  1.00  0.00    -0.192 C  
HETATM   11  O   UNL     1      -8.646   7.870  69.728  1.00  0.00    -0.130 OA 
HETATM   12  H   UNL     1      -7.975   7.965  69.062  1.00  0.00     0.000 HD 
BRANCH  10  13
HETATM   13  C   UNL     1     -10.126   7.135  67.944  1.00  0.00    -0.173 C  
HETATM   14  O   UNL     1     -11.514   6.920  67.680  1.00  0.00    -0.585 OA 
HETATM   15  H   UNL     1     -11.638   6.321  66.953  1.00  0.00     0.000 HD 
ENDBRANCH  10  13
ENDBRANCH   9  10
ENDBRANCH   8   9
ENDBRANCH   7   8
TORSDOF 4
ENDMDL
MODEL      167
REMARK 921   NORMALIZED FREE ENERGY PREDICTED BY IDOCK:   -2.77 KCAL/MOL
REMARK 922        TOTAL FREE ENERGY PREDICTED BY IDOCK:   -3.67 KCAL/MOL
REMARK 923 INTER-LIGAND FREE ENERGY PREDICTED BY IDOCK:   -3.34 KCAL/MOL
REMARK 924 INTRA-LIGAND FREE ENERGY PREDICTED BY IDOCK:   -0.33 KCAL/MOL
REMARK 927      BINDING AFFINITY PREDICTED BY RF-SCORE:    0.00 PKD
ROOT
HETATM    1  C   UNL     1      -8.068   8.722  71.212  1.00  0.00    -0.195 C  
HETATM    2  C   UNL     1      -9.478   8.203  71.339  1.00  0.00    -0.211 A  
HETATM    3  C   UNL     1     -10.057   8.148  72.621  1.00  0.00    -0.379 A  
HETATM    4  C   UNL     1     -11.359   7.678  72.804  1.00  0.00    -0.419 A  
HETATM    5  C   UNL     1     -12.093   7.254  71.708  1.00  0.00    -0.353 A  
HETATM    6  C   UNL     1     -11.529   7.296  70.433  1.00  0.00    -0.279 A  
HETATM    7  C   UNL     1     -10.222   7.768  70.226  1.00  0.00    -0.199 A  
ENDROOT
BRANCH   7   8
HETATM    8  O   UNL     1      -9.623   7.837  68.983  1.00  0.00    -0.154 OA 
BRANCH   8   9
HETATM    9  C   UNL     1     -10.361   8.578  68.005  1.00  0.00    -0.217 C  
BRANCH   9  10
HETATM   10  C   UNL     1      -9.660   9.858  67.547  1.00  0.00    -0.157 C  
HETATM   11  O   UNL     1     -10.252  10.282  66.306  1.00  0.00    -0.231 OA 
HETATM   12  H   UNL     1      -9.817  11.077  66.022  1.00  0.00     0.000 HD 
BRANCH  10  13
HETATM   13  C   UNL     1      -9.763  10.984  68.583  1.00  0.00    -0.195 C  
HETATM   14  O   UNL     1      -8.470  11.375  69.050  1.00  0.00    -0.346 OA 
HETATM   15  H   UNL     1      -8.533  12.073  69.692  1.00  0.00     0.000 HD 
ENDBRANCH  10  13
ENDBRANCH   9  10
ENDBRANCH   8   9
ENDBRANCH   7   8
TORSDOF 4
ENDMDL
MODEL      168
REMARK 921   NORMALIZED FREE ENERGY PREDICTED BY IDOCK:   -2.73 KCAL/MOL
REMARK 922        TOTAL FREE ENERGY PREDICTED BY IDOCK:   -3.62 KCAL/MOL
REMARK 923 INTER-LIGAND FREE ENERGY PREDICTED BY IDOCK:   -3.43 KCAL/MOL
REMARK 924 INTRA-LIGAND FREE ENERGY PREDICTED BY IDOCK:   -0.19 KCAL/MOL
REMARK 927      BINDING AFFINITY PREDICTED BY RF-SCORE:    0.00 PKD
ROOT
HETATM    1  C   UNL     1      -9.966   9.923  69.937  1.00  0.00    -0.292 C  
HETATM    2  C   UNL     1     -10.211   8.804  68.957  1.00  0.00    -0.218 A  
HETATM    3  C   UNL     1      -9.926   9.030  67.598  1.00  0.00    -0.252 A  
HETATM    4  C   UNL     1     -10.131   8.032  66.642  1.00  0.00    -0.329 A  
HETATM    5  C   UNL     1     -10.628   6.801  67.037  1.00  0.00    -0.405 A  
HETATM    6  C   UNL     1     -10.923   6.565  68.379  1.00  0.00    -0.358 A  
HETATM    7  C   UNL     1     -10.720   7.553  69.357  1.00  0.00    -0.193 A  
ENDROOT
BRANCH   7   8
HETATM    8  O   UNL     1     -10.989   7.366  70.699  1.00  0.00    -0.245 OA 
BRANCH   8   9
HETATM    9  C   UNL     1     -11.076   5.995  71.105  1.00  0.00    -0.271 C  
BRANCH   9  10
HETATM   10  C   UNL     1     -10.224   5.663  72.331  1.00  0.00    -0.193 C  
HETATM   11  O   UNL     1     -10.320   6.756  73.261  1.00  0.00    -0.218 OA 
HETATM   12  H   UNL     1      -9.791   6.550  74.022  1.00  0.00     0.000 HD 
BRANCH  10  13
HETATM   13  C   UNL     1     -10.663   4.361  73.013  1.00  0.00    -0.207 C  
HETATM   14  O   UNL     1     -11.830   4.564  73.811  1.00  0.00    -0.252 OA 
HETATM   15  H   UNL     1     -12.102   3.758  74.234  1.00  0.00     0.000 HD 
ENDBRANCH  10  13
ENDBRANCH   9  10
ENDBRANCH   8   9
ENDBRANCH   7   8
TORSDOF 4
ENDMDL
MODEL      169
REMARK 921   NORMALIZED FREE ENERGY PREDICTED BY IDOCK:   -2.70 KCAL/MOL
REMARK 922        TOTAL FREE ENERGY PREDICTED BY IDOCK:   -3.58 KCAL/MOL
REMARK 923 INTER-LIGAND FREE ENERGY PREDICTED BY IDOCK:   -3.66 KCAL/MOL
REMARK 924 INTRA-LIGAND FREE ENERGY PREDICTED BY IDOCK:    0.07 KCAL/MOL
REMARK 927      BINDING AFFINITY PREDICTED BY RF-SCORE:    0.00 PKD
ROOT
HETATM    1  C   UNL     1      -8.427   6.864  72.637  1.00  0.00    -0.125 C  
HETATM    2  C   UNL     1      -8.094   8.018  71.725  1.00  0.00    -0.142 A  
HETATM    3  C   UNL     1      -6.755   8.448  71.654  1.00  0.00    -0.073 A  
HETATM    4  C   UNL     1      -6.383   9.510  70.827  1.00  0.00    -0.091 A  
HETATM    5  C   UNL     1      -7.346  10.156  70.069  1.00  0.00    -0.172 A  
HETATM    6  C   UNL     1      -8.677   9.745  70.136  1.00  0.00    -0.215 A  
HETATM    7  C   UNL     1      -9.072   8.676  70.957  1.00  0.00    -0.199 A  
ENDROOT
BRANCH   7   8
HETATM    8  O   UNL     1     -10.376   8.228  71.051  1.00  0.00    -0.187 OA 
BRANCH   8   9
HETATM    9  C   UNL     1     -11.084   8.689  72.207  1.00  0.00    -0.325 C  
BRANCH   9  10
HETATM   10  C   UNL     1     -12.320   9.526  71.876  1.00  0.00    -0.373 C  
HETATM   11  O   UNL     1     -12.131  10.124  70.582  1.00  0.00    -0.286 OA 
HETATM   12  H   UNL     1     -12.898  10.645  70.376  1.00  0.00     0.000 HD 
BRANCH  10  13
HETATM   13  C   UNL     1     -13.609   8.696  71.881  1.00  0.00    -0.410 C  
HETATM   14  O   UNL     1     -14.191   8.653  73.186  1.00  0.00    -1.059 OA 
HETATM   15  H   UNL     1     -14.990   8.139  73.189  1.00  0.00     0.000 HD 
ENDBRANCH  10  13
ENDBRANCH   9  10
ENDBRANCH   8   9
ENDBRANCH   7   8
TORSDOF 4
ENDMDL
MODEL      170
REMARK 921   NORMALIZED FREE ENERGY PREDICTED BY IDOCK:   -2.70 KCAL/MOL
REMARK 922        TOTAL FREE ENERGY PREDICTED BY IDOCK:   -3.58 KCAL/MOL
REMARK 923 INTER-LIGAND FREE ENERGY PREDICTED BY IDOCK:   -3.24 KCAL/MOL
REMARK 924 INTRA-LIGAND FREE ENERGY PREDICTED BY IDOCK:   -0.34 KCAL/MOL
REMARK 927      BINDING AFFINITY PREDICTED BY RF-SCORE:    0.00 PKD
ROOT
HETATM    1  C   UNL     1     -10.088   5.198  68.442  1.00  0.00    -0.205 C  
HETATM    2  C   UNL     1     -10.124   6.675  68.144  1.00  0.00    -0.174 A  
HETATM    3  C   UNL     1     -10.135   7.086  66.797  1.00  0.00    -0.270 A  
HETATM    4  C   UNL     1     -10.168   8.440  66.457  1.00  0.00    -0.277 A  
HETATM    5  C   UNL     1     -10.186   9.396  67.459  1.00  0.00    -0.288 A  
HETATM    6  C   UNL     1     -10.168   9.004  68.798  1.00  0.00    -0.226 A  
HETATM    7  C   UNL     1     -10.138   7.648  69.162  1.00  0.00    -0.194 A  
ENDROOT
BRANCH   7   8
HETATM    8  O   UNL     1     -10.127   7.209  70.472  1.00  0.00    -0.194 OA 
BRANCH   8   9
HETATM    9  C   UNL     1     -11.421   7.107  71.078  1.00  0.00    -0.297 C  
BRANCH   9  10
HETATM   10  C   UNL     1     -11.374   6.892  72.592  1.00  0.00    -0.235 C  
HETATM   11  O   UNL     1     -12.091   5.684  72.901  1.00  0.00    -0.550 OA 
HETATM   12  H   UNL     1     -12.063   5.550  73.841  1.00  0.00     0.000 HD 
BRANCH  10  13
HETATM   13  C   UNL     1      -9.941   6.797  73.126  1.00  0.00    -0.192 C  
HETATM   14  O   UNL     1      -9.346   5.542  72.789  1.00  0.00    -0.139 OA 
HETATM   15  H   UNL     1      -8.457   5.482  73.121  1.00  0.00     0.000 HD 
ENDBRANCH  10  13
ENDBRANCH   9  10
ENDBRANCH   8   9
ENDBRANCH   7   8
TORSDOF 4
ENDMDL
MODEL      171
REMARK 921   NORMALIZED FREE ENERGY PREDICTED BY IDOCK:   -2.64 KCAL/MOL
REMARK 922        TOTAL FREE ENERGY PREDICTED BY IDOCK:   -3.51 KCAL/MOL
REMARK 923 INTER-LIGAND FREE ENERGY PREDICTED BY IDOCK:   -3.11 KCAL/MOL
REMARK 924 INTRA-LIGAND FREE ENERGY PREDICTED BY IDOCK:   -0.41 KCAL/MOL
REMARK 927      BINDING AFFINITY PREDICTED BY RF-SCORE:    0.00 PKD
ROOT
HETATM    1  C   UNL     1      -7.728   9.531  68.804  1.00  0.00    -0.080 C  
HETATM    2  C   UNL     1      -8.525   9.967  67.601  1.00  0.00    -0.114 A  
HETATM    3  C   UNL     1      -8.357  11.283  67.129  1.00  0.00    -0.151 A  
HETATM    4  C   UNL     1      -9.066  11.746  66.018  1.00  0.00    -0.159 A  
HETATM    5  C   UNL     1      -9.952  10.900  65.372  1.00  0.00    -0.319 A  
HETATM    6  C   UNL     1     -10.134   9.597  65.833  1.00  0.00    -0.304 A  
HETATM    7  C   UNL     1      -9.428   9.109  66.946  1.00  0.00    -0.171 A  
ENDROOT
BRANCH   7   8
HETATM    8  O   UNL     1      -9.567   7.825  67.435  1.00  0.00    -0.140 OA 
BRANCH   8   9
HETATM    9  C   UNL     1     -10.725   7.127  66.961  1.00  0.00    -0.350 C  
BRANCH   9  10
HETATM   10  C   UNL     1     -10.558   5.607  66.934  1.00  0.00    -0.296 C  
HETATM   11  O   UNL     1     -11.200   5.100  65.751  1.00  0.00    -0.808 OA 
HETATM   12  H   UNL     1     -11.096   4.156  65.735  1.00  0.00     0.000 HD 
BRANCH  10  13
HETATM   13  C   UNL     1      -9.085   5.179  66.950  1.00  0.00    -0.116 C  
HETATM   14  O   UNL     1      -8.478   5.465  68.212  1.00  0.00    -0.098 OA 
HETATM   15  H   UNL     1      -7.565   5.200  68.222  1.00  0.00     0.000 HD 
ENDBRANCH  10  13
ENDBRANCH   9  10
ENDBRANCH   8   9
ENDBRANCH   7   8
TORSDOF 4
ENDMDL
MODEL      172
REMARK 921   NORMALIZED FREE ENERGY PREDICTED BY IDOCK:   -2.62 KCAL/MOL
REMARK 922        TOTAL FREE ENERGY PREDICTED BY IDOCK:   -3.48 KCAL/MOL
REMARK 923 INTER-LIGAND FREE ENERGY PREDICTED BY IDOCK:   -3.21 KCAL/MOL
REMARK 924 INTRA-LIGAND FREE ENERGY PREDICTED BY IDOCK:   -0.27 KCAL/MOL
REMARK 927      BINDING AFFINITY PREDICTED BY RF-SCORE:    0.00 PKD
ROOT
HETATM    1  C   UNL     1      -8.920   8.668  71.218  1.00  0.00    -0.268 C  
HETATM    2  C   UNL     1     -10.363   8.234  71.275  1.00  0.00    -0.256 A  
HETATM    3  C   UNL     1     -11.276   9.040  71.981  1.00  0.00    -0.379 A  
HETATM    4  C   UNL     1     -12.625   8.693  72.070  1.00  0.00    -0.434 A  
HETATM    5  C   UNL     1     -13.074   7.535  71.458  1.00  0.00    -0.402 A  
HETATM    6  C   UNL     1     -12.180   6.722  70.762  1.00  0.00    -0.353 A  
HETATM    7  C   UNL     1     -10.819   7.055  70.657  1.00  0.00    -0.246 A  
ENDROOT
BRANCH   7   8
HETATM    8  O   UNL     1      -9.896   6.288  69.972  1.00  0.00    -0.165 OA 
BRANCH   8   9
HETATM    9  C   UNL     1      -9.821   4.923  70.398  1.00  0.00    -0.232 C  
BRANCH   9  10
HETATM   10  C   UNL     1      -9.392   4.758  71.857  1.00  0.00    -0.139 C  
HETATM   11  O   UNL     1      -9.839   3.471  72.319  1.00  0.00    -0.146 OA 
HETATM   12  H   UNL     1      -9.573   3.369  73.225  1.00  0.00     0.000 HD 
BRANCH  10  13
HETATM   13  C   UNL     1      -7.874   4.876  72.038  1.00  0.00    -0.108 C  
HETATM   14  O   UNL     1      -7.504   4.722  73.410  1.00  0.00    -0.084 OA 
HETATM   15  H   UNL     1      -6.563   4.795  73.522  1.00  0.00     0.000 HD 
ENDBRANCH  10  13
ENDBRANCH   9  10
ENDBRANCH   8   9
ENDBRANCH   7   8
TORSDOF 4
ENDMDL
MODEL      173
REMARK 921   NORMALIZED FREE ENERGY PREDICTED BY IDOCK:   -2.61 KCAL/MOL
REMARK 922        TOTAL FREE ENERGY PREDICTED BY IDOCK:   -3.47 KCAL/MOL
REMARK 923 INTER-LIGAND FREE ENERGY PREDICTED BY IDOCK:   -3.06 KCAL/MOL
REMARK 924 INTRA-LIGAND FREE ENERGY PREDICTED BY IDOCK:   -0.41 KCAL/MOL
REMARK 927      BINDING AFFINITY PREDICTED BY RF-SCORE:    0.00 PKD
ROOT
HETATM    1  C   UNL     1     -10.612   8.040  67.119  1.00  0.00    -0.367 C  
HETATM    2  C   UNL     1      -9.213   8.132  67.672  1.00  0.00    -0.150 A  
HETATM    3  C   UNL     1      -8.142   8.254  66.766  1.00  0.00    -0.103 A  
HETATM    4  C   UNL     1      -6.823   8.344  67.216  1.00  0.00    -0.070 A  
HETATM    5  C   UNL     1      -6.562   8.309  68.576  1.00  0.00    -0.059 A  
HETATM    6  C   UNL     1      -7.612   8.181  69.485  1.00  0.00    -0.100 A  
HETATM    7  C   UNL     1      -8.946   8.093  69.054  1.00  0.00    -0.144 A  
ENDROOT
BRANCH   7   8
HETATM    8  O   UNL     1     -10.020   7.974  69.914  1.00  0.00    -0.185 OA 
BRANCH   8   9
HETATM    9  C   UNL     1     -10.247   9.116  70.748  1.00  0.00    -0.260 C  
BRANCH   9  10
HETATM   10  C   UNL     1     -11.333   8.900  71.804  1.00  0.00    -0.361 C  
HETATM   11  O   UNL     1     -12.381   9.859  71.581  1.00  0.00    -0.372 OA 
HETATM   12  H   UNL     1     -13.054   9.726  72.237  1.00  0.00     0.000 HD 
BRANCH  10  13
HETATM   13  C   UNL     1     -11.912   7.480  71.767  1.00  0.00    -0.301 C  
HETATM   14  O   UNL     1     -12.557   7.218  70.519  1.00  0.00    -0.591 OA 
HETATM   15  H   UNL     1     -12.916   6.339  70.496  1.00  0.00     0.000 HD 
ENDBRANCH  10  13
ENDBRANCH   9  10
ENDBRANCH   8   9
ENDBRANCH   7   8
TORSDOF 4
ENDMDL
MODEL      174
REMARK 921   NORMALIZED FREE ENERGY PREDICTED BY IDOCK:   -2.61 KCAL/MOL
REMARK 922        TOTAL FREE ENERGY PREDICTED BY IDOCK:   -3.47 KCAL/MOL
REMARK 923 INTER-LIGAND FREE ENERGY PREDICTED BY IDOCK:   -3.01 KCAL/MOL
REMARK 924 INTRA-LIGAND FREE ENERGY PREDICTED BY IDOCK:   -0.45 KCAL/MOL
REMARK 927      BINDING AFFINITY PREDICTED BY RF-SCORE:    0.00 PKD
ROOT
HETATM    1  C   UNL     1     -10.433   5.700  74.398  1.00  0.00    -0.214 C  
HETATM    2  C   UNL     1      -9.312   6.625  73.998  1.00  0.00    -0.216 A  
HETATM    3  C   UNL     1      -8.008   6.325  74.434  1.00  0.00    -0.108 A  
HETATM    4  C   UNL     1      -6.928   7.143  74.095  1.00  0.00    -0.089 A  
HETATM    5  C   UNL     1      -7.143   8.272  73.322  1.00  0.00    -0.147 A  
HETATM    6  C   UNL     1      -8.431   8.586  72.889  1.00  0.00    -0.134 A  
HETATM    7  C   UNL     1      -9.530   7.775  73.214  1.00  0.00    -0.283 A  
ENDROOT
BRANCH   7   8
HETATM    8  O   UNL     1     -10.822   8.040  72.803  1.00  0.00    -0.343 OA 
BRANCH   8   9
HETATM    9  C   UNL     1     -10.934   9.059  71.804  1.00  0.00    -0.372 C  
BRANCH   9  10
HETATM   10  C   UNL     1     -12.112   8.858  70.850  1.00  0.00    -0.177 C  
HETATM   11  O   UNL     1     -11.645   9.049  69.503  1.00  0.00    -0.395 OA 
HETATM   12  H   UNL     1     -12.377   8.925  68.911  1.00  0.00     0.000 HD 
BRANCH  10  13
HETATM   13  C   UNL     1     -12.747   7.469  70.988  1.00  0.00    -0.162 C  
HETATM   14  O   UNL     1     -11.868   6.450  70.509  1.00  0.00    -0.374 OA 
HETATM   15  H   UNL     1     -12.261   5.589  70.594  1.00  0.00     0.000 HD 
ENDBRANCH  10  13
ENDBRANCH   9  10
ENDBRANCH   8   9
ENDBRANCH   7   8
TORSDOF 4
ENDMDL
MODEL      175
REMARK 921   NORMALIZED FREE ENERGY PREDICTED BY IDOCK:   -2.58 KCAL/MOL
REMARK 922        TOTAL FREE ENERGY PREDICTED BY IDOCK:   -3.43 KCAL/MOL
REMARK 923 INTER-LIGAND FREE ENERGY PREDICTED BY IDOCK:   -3.23 KCAL/MOL
REMARK 924 INTRA-LIGAND FREE ENERGY PREDICTED BY IDOCK:   -0.20 KCAL/MOL
REMARK 927      BINDING AFFINITY PREDICTED BY RF-SCORE:    0.00 PKD
ROOT
HETATM    1  C   UNL     1      -8.886   8.728  71.234  1.00  0.00    -0.288 C  
HETATM    2  C   UNL     1     -10.299   8.205  71.283  1.00  0.00    -0.243 A  
HETATM    3  C   UNL     1     -11.246   8.904  72.055  1.00  0.00    -0.422 A  
HETATM    4  C   UNL     1     -12.570   8.470  72.139  1.00  0.00    -0.431 A  
HETATM    5  C   UNL     1     -12.960   7.329  71.456  1.00  0.00    -0.434 A  
HETATM    6  C   UNL     1     -12.031   6.622  70.694  1.00  0.00    -0.404 A  
HETATM    7  C   UNL     1     -10.695   7.044  70.592  1.00  0.00    -0.231 A  
ENDROOT
BRANCH   7   8
HETATM    8  O   UNL     1      -9.741   6.382  69.844  1.00  0.00    -0.164 OA 
BRANCH   8   9
HETATM    9  C   UNL     1      -9.618   4.985  70.132  1.00  0.00    -0.188 C  
BRANCH   9  10
HETATM   10  C   UNL     1      -8.749   4.224  69.130  1.00  0.00    -0.085 C  
HETATM   11  O   UNL     1      -8.315   2.998  69.743  1.00  0.00    -0.050 OA 
HETATM   12  H   UNL     1      -7.774   2.526  69.121  1.00  0.00     0.000 HD 
BRANCH  10  13
HETATM   13  C   UNL     1      -9.491   3.918  67.824  1.00  0.00    -0.179 C  
HETATM   14  O   UNL     1      -8.878   4.577  66.714  1.00  0.00    -0.111 OA 
HETATM   15  H   UNL     1      -9.339   4.388  65.905  1.00  0.00     0.000 HD 
ENDBRANCH  10  13
ENDBRANCH   9  10
ENDBRANCH   8   9
ENDBRANCH   7   8
TORSDOF 4
ENDMDL
MODEL      176
REMARK 921   NORMALIZED FREE ENERGY PREDICTED BY IDOCK:   -2.56 KCAL/MOL
REMARK 922        TOTAL FREE ENERGY PREDICTED BY IDOCK:   -3.41 KCAL/MOL
REMARK 923 INTER-LIGAND FREE ENERGY PREDICTED BY IDOCK:   -3.00 KCAL/MOL
REMARK 924 INTRA-LIGAND FREE ENERGY PREDICTED BY IDOCK:   -0.41 KCAL/MOL
REMARK 927      BINDING AFFINITY PREDICTED BY RF-SCORE:    0.00 PKD
ROOT
HETATM    1  C   UNL     1      -8.804   9.537  69.823  1.00  0.00    -0.211 C  
HETATM    2  C   UNL     1      -9.050   9.799  68.359  1.00  0.00    -0.123 A  
HETATM    3  C   UNL     1      -8.657   8.819  67.428  1.00  0.00    -0.126 A  
HETATM    4  C   UNL     1      -8.859   9.003  66.059  1.00  0.00    -0.208 A  
HETATM    5  C   UNL     1      -9.452  10.170  65.606  1.00  0.00    -0.275 A  
HETATM    6  C   UNL     1      -9.840  11.153  66.516  1.00  0.00    -0.242 A  
HETATM    7  C   UNL     1      -9.650  10.987  67.898  1.00  0.00    -0.172 A  
ENDROOT
BRANCH   7   8
HETATM    8  O   UNL     1     -10.024  11.927  68.838  1.00  0.00    -0.136 OA 
BRANCH   8   9
HETATM    9  C   UNL     1     -11.267  12.583  68.565  1.00  0.00    -0.283 C  
BRANCH   9  10
HETATM   10  C   UNL     1     -11.999  13.061  69.820  1.00  0.00    -0.308 C  
HETATM   11  O   UNL     1     -11.640  12.196  70.912  1.00  0.00    -0.164 OA 
HETATM   12  H   UNL     1     -12.095  12.492  71.691  1.00  0.00     0.000 HD 
BRANCH  10  13
HETATM   13  C   UNL     1     -11.664  14.514  70.176  1.00  0.00    -0.297 C  
HETATM   14  O   UNL     1     -10.269  14.777  70.015  1.00  0.00    -0.452 OA 
HETATM   15  H   UNL     1     -10.062  15.678  70.236  1.00  0.00     0.000 HD 
ENDBRANCH  10  13
ENDBRANCH   9  10
ENDBRANCH   8   9
ENDBRANCH   7   8
TORSDOF 4
ENDMDL
MODEL      177
REMARK 921   NORMALIZED FREE ENERGY PREDICTED BY IDOCK:   -2.56 KCAL/MOL
REMARK 922        TOTAL FREE ENERGY PREDICTED BY IDOCK:   -3.41 KCAL/MOL
REMARK 923 INTER-LIGAND FREE ENERGY PREDICTED BY IDOCK:   -3.15 KCAL/MOL
REMARK 924 INTRA-LIGAND FREE ENERGY PREDICTED BY IDOCK:   -0.26 KCAL/MOL
REMARK 927      BINDING AFFINITY PREDICTED BY RF-SCORE:    0.00 PKD
ROOT
HETATM    1  C   UNL     1      -8.984  15.916  68.985  1.00  0.00    -0.245 C  
HETATM    2  C   UNL     1      -9.644  15.636  67.658  1.00  0.00    -0.220 A  
HETATM    3  C   UNL     1     -10.121  16.725  66.905  1.00  0.00    -0.286 A  
HETATM    4  C   UNL     1     -10.740  16.531  65.669  1.00  0.00    -0.257 A  
HETATM    5  C   UNL     1     -10.892  15.245  65.176  1.00  0.00    -0.441 A  
HETATM    6  C   UNL     1     -10.431  14.156  65.915  1.00  0.00    -0.313 A  
HETATM    7  C   UNL     1      -9.802  14.330  67.158  1.00  0.00    -0.252 A  
ENDROOT
BRANCH   7   8
HETATM    8  O   UNL     1      -9.321  13.284  67.923  1.00  0.00    -0.198 OA 
BRANCH   8   9
HETATM    9  C   UNL     1      -8.399  12.424  67.246  1.00  0.00    -0.184 C  
BRANCH   9  10
HETATM   10  C   UNL     1      -8.689  10.935  67.443  1.00  0.00    -0.130 C  
HETATM   11  O   UNL     1     -10.091  10.779  67.727  1.00  0.00    -0.168 OA 
HETATM   12  H   UNL     1     -10.271   9.855  67.849  1.00  0.00     0.000 HD 
BRANCH  10  13
HETATM   13  C   UNL     1      -8.311  10.097  66.215  1.00  0.00    -0.130 C  
HETATM   14  O   UNL     1      -7.377  10.789  65.385  1.00  0.00    -0.325 OA 
HETATM   15  H   UNL     1      -7.143  10.270  64.624  1.00  0.00     0.000 HD 
ENDBRANCH  10  13
ENDBRANCH   9  10
ENDBRANCH   8   9
ENDBRANCH   7   8
TORSDOF 4
ENDMDL
MODEL      178
REMARK 921   NORMALIZED FREE ENERGY PREDICTED BY IDOCK:   -2.55 KCAL/MOL
REMARK 922        TOTAL FREE ENERGY PREDICTED BY IDOCK:   -3.40 KCAL/MOL
REMARK 923 INTER-LIGAND FREE ENERGY PREDICTED BY IDOCK:   -2.97 KCAL/MOL
REMARK 924 INTRA-LIGAND FREE ENERGY PREDICTED BY IDOCK:   -0.44 KCAL/MOL
REMARK 927      BINDING AFFINITY PREDICTED BY RF-SCORE:    0.00 PKD
ROOT
HETATM    1  C   UNL     1      -8.709   3.651  67.452  1.00  0.00    -0.129 C  
HETATM    2  C   UNL     1      -9.282   4.286  68.693  1.00  0.00    -0.197 A  
HETATM    3  C   UNL     1      -9.386   3.503  69.858  1.00  0.00    -0.247 A  
HETATM    4  C   UNL     1      -9.907   4.035  71.039  1.00  0.00    -0.230 A  
HETATM    5  C   UNL     1     -10.334   5.352  71.066  1.00  0.00    -0.307 A  
HETATM    6  C   UNL     1     -10.243   6.138  69.917  1.00  0.00    -0.246 A  
HETATM    7  C   UNL     1      -9.719   5.625  68.720  1.00  0.00    -0.137 A  
ENDROOT
BRANCH   7   8
HETATM    8  O   UNL     1      -9.601   6.365  67.559  1.00  0.00    -0.119 OA 
BRANCH   8   9
HETATM    9  C   UNL     1     -10.768   7.118  67.210  1.00  0.00    -0.329 C  
BRANCH   9  10
HETATM   10  C   UNL     1     -10.483   8.593  66.922  1.00  0.00    -0.258 C  
HETATM   11  O   UNL     1     -11.253   9.392  67.837  1.00  0.00    -0.509 OA 
HETATM   12  H   UNL     1     -11.076  10.308  67.658  1.00  0.00     0.000 HD 
BRANCH  10  13
HETATM   13  C   UNL     1      -8.995   8.939  67.055  1.00  0.00    -0.127 C  
HETATM   14  O   UNL     1      -8.537   8.744  68.394  1.00  0.00    -0.132 OA 
HETATM   15  H   UNL     1      -7.615   8.959  68.477  1.00  0.00     0.000 HD 
ENDBRANCH  10  13
ENDBRANCH   9  10
ENDBRANCH   8   9
ENDBRANCH   7   8
TORSDOF 4
ENDMDL
MODEL      179
REMARK 921   NORMALIZED FREE ENERGY PREDICTED BY IDOCK:   -2.54 KCAL/MOL
REMARK 922        TOTAL FREE ENERGY PREDICTED BY IDOCK:   -3.39 KCAL/MOL
REMARK 923 INTER-LIGAND FREE ENERGY PREDICTED BY IDOCK:   -2.96 KCAL/MOL
REMARK 924 INTRA-LIGAND FREE ENERGY PREDICTED BY IDOCK:   -0.43 KCAL/MOL
REMARK 927      BINDING AFFINITY PREDICTED BY RF-SCORE:    0.00 PKD
ROOT
HETATM    1  C   UNL     1     -10.898   6.560  68.166  1.00  0.00    -0.370 C  
HETATM    2  C   UNL     1     -10.560   5.811  69.430  1.00  0.00    -0.383 A  
HETATM    3  C   UNL     1     -10.962   6.361  70.661  1.00  0.00    -0.355 A  
HETATM    4  C   UNL     1     -10.679   5.715  71.867  1.00  0.00    -0.299 A  
HETATM    5  C   UNL     1      -9.987   4.516  71.853  1.00  0.00    -0.258 A  
HETATM    6  C   UNL     1      -9.575   3.963  70.640  1.00  0.00    -0.259 A  
HETATM    7  C   UNL     1      -9.852   4.594  69.417  1.00  0.00    -0.202 A  
ENDROOT
BRANCH   7   8
HETATM    8  O   UNL     1      -9.473   4.082  68.190  1.00  0.00    -0.157 OA 
BRANCH   8   9
HETATM    9  C   UNL     1      -8.070   4.168  67.916  1.00  0.00    -0.090 C  
BRANCH   9  10
HETATM   10  C   UNL     1      -7.557   3.064  66.991  1.00  0.00    -0.074 C  
HETATM   11  O   UNL     1      -7.691   1.803  67.670  1.00  0.00    -0.058 OA 
HETATM   12  H   UNL     1      -7.372   1.117  67.096  1.00  0.00     0.000 HD 
BRANCH  10  13
HETATM   13  C   UNL     1      -8.312   3.018  65.657  1.00  0.00    -0.098 C  
HETATM   14  O   UNL     1      -9.611   2.446  65.819  1.00  0.00    -0.362 OA 
HETATM   15  H   UNL     1     -10.079   2.417  64.992  1.00  0.00     0.000 HD 
ENDBRANCH  10  13
ENDBRANCH   9  10
ENDBRANCH   8   9
ENDBRANCH   7   8
TORSDOF 4
ENDMDL
MODEL      180
REMARK 921   NORMALIZED FREE ENERGY PREDICTED BY IDOCK:   -2.46 KCAL/MOL
REMARK 922        TOTAL FREE ENERGY PREDICTED BY IDOCK:   -3.29 KCAL/MOL
REMARK 923 INTER-LIGAND FREE ENERGY PREDICTED BY IDOCK:   -3.18 KCAL/MOL
REMARK 924 INTRA-LIGAND FREE ENERGY PREDICTED BY IDOCK:   -0.11 KCAL/MOL
REMARK 927      BINDING AFFINITY PREDICTED BY RF-SCORE:    0.00 PKD
ROOT
HETATM    1  C   UNL     1      -9.057   8.999  70.410  1.00  0.00    -0.242 C  
HETATM    2  C   UNL     1      -9.188   8.538  68.980  1.00  0.00    -0.146 A  
HETATM    3  C   UNL     1      -8.411   7.443  68.557  1.00  0.00    -0.125 A  
HETATM    4  C   UNL     1      -8.489   6.967  67.247  1.00  0.00    -0.121 A  
HETATM    5  C   UNL     1      -9.340   7.585  66.345  1.00  0.00    -0.211 A  
HETATM    6  C   UNL     1     -10.110   8.676  66.748  1.00  0.00    -0.366 A  
HETATM    7  C   UNL     1     -10.051   9.167  68.063  1.00  0.00    -0.196 A  
ENDROOT
BRANCH   7   8
HETATM    8  O   UNL     1     -10.799  10.238  68.512  1.00  0.00    -0.213 OA 
BRANCH   8   9
HETATM    9  C   UNL     1     -10.220  11.522  68.251  1.00  0.00    -0.196 C  
BRANCH   9  10
HETATM   10  C   UNL     1     -11.161  12.691  68.546  1.00  0.00    -0.279 C  
HETATM   11  O   UNL     1     -11.945  12.952  67.369  1.00  0.00    -0.363 OA 
HETATM   12  H   UNL     1     -12.529  13.679  67.552  1.00  0.00     0.000 HD 
BRANCH  10  13
HETATM   13  C   UNL     1     -12.088  12.412  69.736  1.00  0.00    -0.223 C  
HETATM   14  O   UNL     1     -11.985  13.440  70.723  1.00  0.00    -0.493 OA 
HETATM   15  H   UNL     1     -12.560  13.266  71.460  1.00  0.00     0.000 HD 
ENDBRANCH  10  13
ENDBRANCH   9  10
ENDBRANCH   8   9
ENDBRANCH   7   8
TORSDOF 4
ENDMDL
MODEL      181
REMARK 921   NORMALIZED FREE ENERGY PREDICTED BY IDOCK:   -2.36 KCAL/MOL
REMARK 922        TOTAL FREE ENERGY PREDICTED BY IDOCK:   -3.16 KCAL/MOL
REMARK 923 INTER-LIGAND FREE ENERGY PREDICTED BY IDOCK:   -2.96 KCAL/MOL
REMARK 924 INTRA-LIGAND FREE ENERGY PREDICTED BY IDOCK:   -0.20 KCAL/MOL
REMARK 927      BINDING AFFINITY PREDICTED BY RF-SCORE:    0.00 PKD
ROOT
HETATM    1  C   UNL     1      -9.016   7.667  73.516  1.00  0.00    -0.295 C  
HETATM    2  C   UNL     1      -9.029   6.757  72.314  1.00  0.00    -0.136 A  
HETATM    3  C   UNL     1      -9.069   5.367  72.528  1.00  0.00    -0.142 A  
HETATM    4  C   UNL     1      -9.084   4.472  71.456  1.00  0.00    -0.174 A  
HETATM    5  C   UNL     1      -9.054   4.959  70.159  1.00  0.00    -0.157 A  
HETATM    6  C   UNL     1      -9.007   6.335  69.932  1.00  0.00    -0.141 A  
HETATM    7  C   UNL     1      -8.995   7.252  70.996  1.00  0.00    -0.149 A  
ENDROOT
BRANCH   7   8
HETATM    8  O   UNL     1      -8.957   8.622  70.822  1.00  0.00    -0.147 OA 
BRANCH   8   9
HETATM    9  C   UNL     1     -10.209   9.212  70.453  1.00  0.00    -0.222 C  
BRANCH   9  10
HETATM   10  C   UNL     1     -10.076  10.349  69.439  1.00  0.00    -0.229 C  
HETATM   11  O   UNL     1      -8.769  10.277  68.844  1.00  0.00    -0.133 OA 
HETATM   12  H   UNL     1      -8.686  10.983  68.214  1.00  0.00     0.000 HD 
BRANCH  10  13
HETATM   13  C   UNL     1     -11.149  10.287  68.346  1.00  0.00    -0.247 C  
HETATM   14  O   UNL     1     -12.439  10.613  68.868  1.00  0.00    -0.791 OA 
HETATM   15  H   UNL     1     -13.104  10.575  68.190  1.00  0.00     0.000 HD 
ENDBRANCH  10  13
ENDBRANCH   9  10
ENDBRANCH   8   9
ENDBRANCH   7   8
TORSDOF 4
ENDMDL
MODEL      182
REMARK 921   NORMALIZED FREE ENERGY PREDICTED BY IDOCK:   -2.36 KCAL/MOL
REMARK 922        TOTAL FREE ENERGY PREDICTED BY IDOCK:   -3.16 KCAL/MOL
REMARK 923 INTER-LIGAND FREE ENERGY PREDICTED BY IDOCK:   -2.80 KCAL/MOL
REMARK 924 INTRA-LIGAND FREE ENERGY PREDICTED BY IDOCK:   -0.36 KCAL/MOL
REMARK 927      BINDING AFFINITY PREDICTED BY RF-SCORE:    0.00 PKD
ROOT
HETATM    1  C   UNL     1      -8.363  10.062  69.625  1.00  0.00    -0.188 C  
HETATM    2  C   UNL     1      -9.431   9.108  70.097  1.00  0.00    -0.235 A  
HETATM    3  C   UNL     1      -9.856   9.188  71.436  1.00  0.00    -0.354 A  
HETATM    4  C   UNL     1     -10.841   8.332  71.932  1.00  0.00    -0.350 A  
HETATM    5  C   UNL     1     -11.407   7.384  71.096  1.00  0.00    -0.291 A  
HETATM    6  C   UNL     1     -10.990   7.288  69.768  1.00  0.00    -0.235 A  
HETATM    7  C   UNL     1     -10.004   8.142  69.248  1.00  0.00    -0.188 A  
ENDROOT
BRANCH   7   8
HETATM    8  O   UNL     1      -9.563   8.091  67.939  1.00  0.00    -0.149 OA 
BRANCH   8   9
HETATM    9  C   UNL     1      -8.513   7.147  67.699  1.00  0.00    -0.120 C  
BRANCH   9  10
HETATM   10  C   UNL     1      -8.288   6.844  66.217  1.00  0.00    -0.126 C  
HETATM   11  O   UNL     1      -9.535   6.408  65.647  1.00  0.00    -0.380 OA 
HETATM   12  H   UNL     1      -9.395   6.219  64.727  1.00  0.00     0.000 HD 
BRANCH  10  13
HETATM   13  C   UNL     1      -7.760   8.058  65.444  1.00  0.00    -0.096 C  
HETATM   14  O   UNL     1      -7.227   9.043  66.331  1.00  0.00    -0.085 OA 
HETATM   15  H   UNL     1      -6.899   9.796  65.852  1.00  0.00     0.000 HD 
ENDBRANCH  10  13
ENDBRANCH   9  10
ENDBRANCH   8   9
ENDBRANCH   7   8
TORSDOF 4
ENDMDL
MODEL      183
REMARK 921   NORMALIZED FREE ENERGY PREDICTED BY IDOCK:   -2.34 KCAL/MOL
REMARK 922        TOTAL FREE ENERGY PREDICTED BY IDOCK:   -3.14 KCAL/MOL
REMARK 923 INTER-LIGAND FREE ENERGY PREDICTED BY IDOCK:   -2.91 KCAL/MOL
REMARK 924 INTRA-LIGAND FREE ENERGY PREDICTED BY IDOCK:   -0.23 KCAL/MOL
REMARK 927      BINDING AFFINITY PREDICTED BY RF-SCORE:    0.00 PKD
ROOT
HETATM    1  C   UNL     1     -10.287   5.299  66.321  1.00  0.00    -0.287 C  
HETATM    2  C   UNL     1      -9.164   6.299  66.207  1.00  0.00    -0.165 A  
HETATM    3  C   UNL     1      -8.156   6.065  65.253  1.00  0.00    -0.134 A  
HETATM    4  C   UNL     1      -7.091   6.954  65.098  1.00  0.00    -0.067 A  
HETATM    5  C   UNL     1      -7.020   8.083  65.898  1.00  0.00    -0.057 A  
HETATM    6  C   UNL     1      -8.008   8.322  66.853  1.00  0.00    -0.099 A  
HETATM    7  C   UNL     1      -9.090   7.444  67.023  1.00  0.00    -0.135 A  
ENDROOT
BRANCH   7   8
HETATM    8  O   UNL     1     -10.097   7.642  67.948  1.00  0.00    -0.168 OA 
BRANCH   8   9
HETATM    9  C   UNL     1      -9.710   8.403  69.098  1.00  0.00    -0.171 C  
BRANCH   9  10
HETATM   10  C   UNL     1     -10.620   9.600  69.376  1.00  0.00    -0.225 C  
HETATM   11  O   UNL     1      -9.927  10.502  70.257  1.00  0.00    -0.357 OA 
HETATM   12  H   UNL     1     -10.492  11.246  70.430  1.00  0.00     0.000 HD 
BRANCH  10  13
HETATM   13  C   UNL     1     -11.028  10.337  68.095  1.00  0.00    -0.274 C  
HETATM   14  O   UNL     1     -12.257  11.043  68.274  1.00  0.00    -0.769 OA 
HETATM   15  H   UNL     1     -12.510  11.499  67.479  1.00  0.00     0.000 HD 
ENDBRANCH  10  13
ENDBRANCH   9  10
ENDBRANCH   8   9
ENDBRANCH   7   8
TORSDOF 4
ENDMDL
MODEL      184
REMARK 921   NORMALIZED FREE ENERGY PREDICTED BY IDOCK:   -2.33 KCAL/MOL
REMARK 922        TOTAL FREE ENERGY PREDICTED BY IDOCK:   -3.13 KCAL/MOL
REMARK 923 INTER-LIGAND FREE ENERGY PREDICTED BY IDOCK:   -2.94 KCAL/MOL
REMARK 924 INTRA-LIGAND FREE ENERGY PREDICTED BY IDOCK:   -0.19 KCAL/MOL
REMARK 927      BINDING AFFINITY PREDICTED BY RF-SCORE:    0.00 PKD
ROOT
HETATM    1  C   UNL     1      -7.084  10.489  67.027  1.00  0.00    -0.094 C  
HETATM    2  C   UNL     1      -8.533  10.623  67.421  1.00  0.00    -0.122 A  
HETATM    3  C   UNL     1      -9.392   9.531  67.193  1.00  0.00    -0.174 A  
HETATM    4  C   UNL     1     -10.744   9.593  67.538  1.00  0.00    -0.321 A  
HETATM    5  C   UNL     1     -11.251  10.749  68.108  1.00  0.00    -0.365 A  
HETATM    6  C   UNL     1     -10.414  11.841  68.333  1.00  0.00    -0.231 A  
HETATM    7  C   UNL     1      -9.051  11.799  67.998  1.00  0.00    -0.180 A  
ENDROOT
BRANCH   7   8
HETATM    8  O   UNL     1      -8.180  12.851  68.208  1.00  0.00    -0.150 OA 
BRANCH   8   9
HETATM    9  C   UNL     1      -8.567  14.080  67.584  1.00  0.00    -0.188 C  
BRANCH   9  10
HETATM   10  C   UNL     1      -9.046  15.146  68.571  1.00  0.00    -0.191 C  
HETATM   11  O   UNL     1      -8.356  14.952  69.819  1.00  0.00    -0.437 OA 
HETATM   12  H   UNL     1      -8.654  15.613  70.432  1.00  0.00     0.000 HD 
BRANCH  10  13
HETATM   13  C   UNL     1      -8.802  16.570  68.059  1.00  0.00    -0.197 C  
HETATM   14  O   UNL     1      -9.541  17.527  68.821  1.00  0.00    -0.291 OA 
HETATM   15  H   UNL     1      -9.390  18.410  68.504  1.00  0.00     0.000 HD 
ENDBRANCH  10  13
ENDBRANCH   9  10
ENDBRANCH   8   9
ENDBRANCH   7   8
TORSDOF 4
ENDMDL
MODEL      185
REMARK 921   NORMALIZED FREE ENERGY PREDICTED BY IDOCK:   -2.32 KCAL/MOL
REMARK 922        TOTAL FREE ENERGY PREDICTED BY IDOCK:   -3.12 KCAL/MOL
REMARK 923 INTER-LIGAND FREE ENERGY PREDICTED BY IDOCK:   -2.82 KCAL/MOL
REMARK 924 INTRA-LIGAND FREE ENERGY PREDICTED BY IDOCK:   -0.30 KCAL/MOL
REMARK 927      BINDING AFFINITY PREDICTED BY RF-SCORE:    0.00 PKD
ROOT
HETATM    1  C   UNL     1     -10.389   9.403  68.937  1.00  0.00    -0.230 C  
HETATM    2  C   UNL     1      -9.231   9.698  68.018  1.00  0.00    -0.132 A  
HETATM    3  C   UNL     1      -7.928   9.420  68.474  1.00  0.00    -0.093 A  
HETATM    4  C   UNL     1      -6.815   9.670  67.669  1.00  0.00    -0.082 A  
HETATM    5  C   UNL     1      -6.992  10.206  66.404  1.00  0.00    -0.105 A  
HETATM    6  C   UNL     1      -8.276  10.494  65.943  1.00  0.00    -0.152 A  
HETATM    7  C   UNL     1      -9.410  10.246  66.734  1.00  0.00    -0.160 A  
ENDROOT
BRANCH   7   8
HETATM    8  O   UNL     1     -10.702  10.507  66.319  1.00  0.00    -0.174 OA 
BRANCH   8   9
HETATM    9  C   UNL     1     -10.826  10.855  64.935  1.00  0.00    -0.080 C  
BRANCH   9  10
HETATM   10  C   UNL     1     -11.690  12.092  64.688  1.00  0.00    -0.332 C  
HETATM   11  O   UNL     1     -12.115  12.611  65.961  1.00  0.00    -0.503 OA 
HETATM   12  H   UNL     1     -12.652  13.380  65.807  1.00  0.00     0.000 HD 
BRANCH  10  13
HETATM   13  C   UNL     1     -10.945  13.180  63.906  1.00  0.00    -0.274 C  
HETATM   14  O   UNL     1      -9.600  13.320  64.369  1.00  0.00    -0.499 OA 
HETATM   15  H   UNL     1      -9.138  13.994  63.884  1.00  0.00     0.000 HD 
ENDBRANCH  10  13
ENDBRANCH   9  10
ENDBRANCH   8   9
ENDBRANCH   7   8
TORSDOF 4
ENDMDL
MODEL      186
REMARK 921   NORMALIZED FREE ENERGY PREDICTED BY IDOCK:   -2.32 KCAL/MOL
REMARK 922        TOTAL FREE ENERGY PREDICTED BY IDOCK:   -3.12 KCAL/MOL
REMARK 923 INTER-LIGAND FREE ENERGY PREDICTED BY IDOCK:   -2.63 KCAL/MOL
REMARK 924 INTRA-LIGAND FREE ENERGY PREDICTED BY IDOCK:   -0.48 KCAL/MOL
REMARK 927      BINDING AFFINITY PREDICTED BY RF-SCORE:    0.00 PKD
ROOT
HETATM    1  C   UNL     1      -9.536   3.881  68.960  1.00  0.00    -0.240 C  
HETATM    2  C   UNL     1      -8.466   4.833  69.431  1.00  0.00    -0.091 A  
HETATM    3  C   UNL     1      -7.143   4.620  68.998  1.00  0.00    -0.052 A  
HETATM    4  C   UNL     1      -6.108   5.467  69.399  1.00  0.00    -0.024 A  
HETATM    5  C   UNL     1      -6.385   6.533  70.240  1.00  0.00    -0.039 A  
HETATM    6  C   UNL     1      -7.689   6.751  70.683  1.00  0.00    -0.097 A  
HETATM    7  C   UNL     1      -8.745   5.914  70.289  1.00  0.00    -0.142 A  
ENDROOT
BRANCH   7   8
HETATM    8  O   UNL     1     -10.054   6.094  70.694  1.00  0.00    -0.184 OA 
BRANCH   8   9
HETATM    9  C   UNL     1     -10.706   7.231  70.118  1.00  0.00    -0.244 C  
BRANCH   9  10
HETATM   10  C   UNL     1     -11.716   7.899  71.053  1.00  0.00    -0.277 C  
HETATM   11  O   UNL     1     -13.033   7.437  70.704  1.00  0.00    -0.583 OA 
HETATM   12  H   UNL     1     -13.660   7.851  71.284  1.00  0.00     0.000 HD 
BRANCH  10  13
HETATM   13  C   UNL     1     -11.434   7.599  72.530  1.00  0.00    -0.352 C  
HETATM   14  O   UNL     1     -10.192   8.170  72.945  1.00  0.00    -0.307 OA 
HETATM   15  H   UNL     1     -10.017   7.984  73.861  1.00  0.00     0.000 HD 
ENDBRANCH  10  13
ENDBRANCH   9  10
ENDBRANCH   8   9
ENDBRANCH   7   8
TORSDOF 4
ENDMDL
MODEL      187
REMARK 921   NORMALIZED FREE ENERGY PREDICTED BY IDOCK:   -2.27 KCAL/MOL
REMARK 922        TOTAL FREE ENERGY PREDICTED BY IDOCK:   -3.06 KCAL/MOL
REMARK 923 INTER-LIGAND FREE ENERGY PREDICTED BY IDOCK:   -2.62 KCAL/MOL
REMARK 924 INTRA-LIGAND FREE ENERGY PREDICTED BY IDOCK:   -0.44 KCAL/MOL
REMARK 927      BINDING AFFINITY PREDICTED BY RF-SCORE:    0.00 PKD
ROOT
HETATM    1  C   UNL     1      -8.683   4.662  65.925  1.00  0.00    -0.121 C  
HETATM    2  C   UNL     1      -8.660   6.130  65.584  1.00  0.00    -0.148 A  
HETATM    3  C   UNL     1      -7.914   6.545  64.465  1.00  0.00    -0.110 A  
HETATM    4  C   UNL     1      -7.855   7.891  64.097  1.00  0.00    -0.136 A  
HETATM    5  C   UNL     1      -8.537   8.835  64.847  1.00  0.00    -0.177 A  
HETATM    6  C   UNL     1      -9.275   8.439  65.962  1.00  0.00    -0.247 A  
HETATM    7  C   UNL     1      -9.351   7.090  66.348  1.00  0.00    -0.138 A  
ENDROOT
BRANCH   7   8
HETATM    8  O   UNL     1     -10.075   6.648  67.438  1.00  0.00    -0.138 OA 
BRANCH   8   9
HETATM    9  C   UNL     1      -9.718   7.264  68.681  1.00  0.00    -0.146 C  
BRANCH   9  10
HETATM   10  C   UNL     1     -10.447   6.674  69.890  1.00  0.00    -0.209 C  
HETATM   11  O   UNL     1     -11.830   6.487  69.540  1.00  0.00    -0.649 OA 
HETATM   12  H   UNL     1     -12.282   6.122  70.291  1.00  0.00     0.000 HD 
BRANCH  10  13
HETATM   13  C   UNL     1      -9.842   5.341  70.346  1.00  0.00    -0.213 C  
HETATM   14  O   UNL     1     -10.013   4.329  69.352  1.00  0.00    -0.183 OA 
HETATM   15  H   UNL     1      -9.638   3.503  69.635  1.00  0.00     0.000 HD 
ENDBRANCH  10  13
ENDBRANCH   9  10
ENDBRANCH   8   9
ENDBRANCH   7   8
TORSDOF 4
ENDMDL
MODEL      188
REMARK 921   NORMALIZED FREE ENERGY PREDICTED BY IDOCK:   -2.27 KCAL/MOL
REMARK 922        TOTAL FREE ENERGY PREDICTED BY IDOCK:   -3.06 KCAL/MOL
REMARK 923 INTER-LIGAND FREE ENERGY PREDICTED BY IDOCK:   -2.95 KCAL/MOL
REMARK 924 INTRA-LIGAND FREE ENERGY PREDICTED BY IDOCK:   -0.11 KCAL/MOL
REMARK 927      BINDING AFFINITY PREDICTED BY RF-SCORE:    0.00 PKD
ROOT
HETATM    1  C   UNL     1      -9.604   5.672  73.142  1.00  0.00    -0.156 C  
HETATM    2  C   UNL     1      -9.558   4.839  71.886  1.00  0.00    -0.206 A  
HETATM    3  C   UNL     1      -9.653   3.440  72.007  1.00  0.00    -0.214 A  
HETATM    4  C   UNL     1      -9.618   2.615  70.882  1.00  0.00    -0.197 A  
HETATM    5  C   UNL     1      -9.482   3.180  69.624  1.00  0.00    -0.191 A  
HETATM    6  C   UNL     1      -9.379   4.564  69.489  1.00  0.00    -0.221 A  
HETATM    7  C   UNL     1      -9.416   5.413  70.608  1.00  0.00    -0.166 A  
ENDROOT
BRANCH   7   8
HETATM    8  O   UNL     1      -9.327   6.789  70.525  1.00  0.00    -0.162 OA 
BRANCH   8   9
HETATM    9  C   UNL     1     -10.575   7.457  70.310  1.00  0.00    -0.231 C  
BRANCH   9  10
HETATM   10  C   UNL     1     -10.488   8.616  69.315  1.00  0.00    -0.217 C  
HETATM   11  O   UNL     1     -11.521   9.565  69.632  1.00  0.00    -0.429 OA 
HETATM   12  H   UNL     1     -11.468  10.284  69.014  1.00  0.00     0.000 HD 
BRANCH  10  13
HETATM   13  C   UNL     1      -9.120   9.308  69.341  1.00  0.00    -0.152 C  
HETATM   14  O   UNL     1      -9.249  10.694  69.664  1.00  0.00    -0.408 OA 
HETATM   15  H   UNL     1      -8.402  11.124  69.680  1.00  0.00     0.000 HD 
ENDBRANCH  10  13
ENDBRANCH   9  10
ENDBRANCH   8   9
ENDBRANCH   7   8
TORSDOF 4
ENDMDL
MODEL      189
REMARK 921   NORMALIZED FREE ENERGY PREDICTED BY IDOCK:   -2.27 KCAL/MOL
REMARK 922        TOTAL FREE ENERGY PREDICTED BY IDOCK:   -3.05 KCAL/MOL
REMARK 923 INTER-LIGAND FREE ENERGY PREDICTED BY IDOCK:   -2.61 KCAL/MOL
REMARK 924 INTRA-LIGAND FREE ENERGY PREDICTED BY IDOCK:   -0.44 KCAL/MOL
REMARK 927      BINDING AFFINITY PREDICTED BY RF-SCORE:    0.00 PKD
ROOT
HETATM    1  C   UNL     1     -10.696   8.961  68.863  1.00  0.00    -0.132 C  
HETATM    2  C   UNL     1      -9.345   8.306  69.006  1.00  0.00    -0.147 A  
HETATM    3  C   UNL     1      -8.521   8.217  67.869  1.00  0.00    -0.132 A  
HETATM    4  C   UNL     1      -7.259   7.623  67.937  1.00  0.00    -0.094 A  
HETATM    5  C   UNL     1      -6.812   7.108  69.142  1.00  0.00    -0.061 A  
HETATM    6  C   UNL     1      -7.620   7.182  70.276  1.00  0.00    -0.090 A  
HETATM    7  C   UNL     1      -8.891   7.779  70.230  1.00  0.00    -0.144 A  
ENDROOT
BRANCH   7   8
HETATM    8  O   UNL     1      -9.725   7.884  71.327  1.00  0.00    -0.156 OA 
BRANCH   8   9
HETATM    9  C   UNL     1      -9.465   6.936  72.368  1.00  0.00    -0.139 C  
BRANCH   9  10
HETATM   10  C   UNL     1     -10.730   6.407  73.046  1.00  0.00    -0.259 C  
HETATM   11  O   UNL     1     -10.782   6.932  74.384  1.00  0.00    -0.468 OA 
HETATM   12  H   UNL     1     -11.567   6.603  74.805  1.00  0.00     0.000 HD 
BRANCH  10  13
HETATM   13  C   UNL     1     -12.006   6.791  72.287  1.00  0.00    -0.210 C  
HETATM   14  O   UNL     1     -12.426   8.115  72.621  1.00  0.00    -0.577 OA 
HETATM   15  H   UNL     1     -13.217   8.354  72.151  1.00  0.00     0.000 HD 
ENDBRANCH  10  13
ENDBRANCH   9  10
ENDBRANCH   8   9
ENDBRANCH   7   8
TORSDOF 4
ENDMDL
MODEL      190
REMARK 921   NORMALIZED FREE ENERGY PREDICTED BY IDOCK:   -2.26 KCAL/MOL
REMARK 922        TOTAL FREE ENERGY PREDICTED BY IDOCK:   -3.04 KCAL/MOL
REMARK 923 INTER-LIGAND FREE ENERGY PREDICTED BY IDOCK:   -2.87 KCAL/MOL
REMARK 924 INTRA-LIGAND FREE ENERGY PREDICTED BY IDOCK:   -0.17 KCAL/MOL
REMARK 927      BINDING AFFINITY PREDICTED BY RF-SCORE:    0.00 PKD
ROOT
HETATM    1  C   UNL     1     -10.366  15.734  69.689  1.00  0.00    -0.290 C  
HETATM    2  C   UNL     1      -9.918  16.815  68.737  1.00  0.00    -0.269 A  
HETATM    3  C   UNL     1     -10.813  17.861  68.446  1.00  0.00    -0.043 A  
HETATM    4  C   UNL     1     -10.457  18.892  67.573  1.00  0.00    -0.522 A  
HETATM    5  C   UNL     1      -9.205  18.883  66.980  1.00  0.00    -0.325 A  
HETATM    6  C   UNL     1      -8.311  17.848  67.254  1.00  0.00    -0.232 A  
HETATM    7  C   UNL     1      -8.647  16.804  68.132  1.00  0.00    -0.218 A  
ENDROOT
BRANCH   7   8
HETATM    8  O   UNL     1      -7.794  15.762  68.441  1.00  0.00    -0.130 OA 
BRANCH   8   9
HETATM    9  C   UNL     1      -7.499  14.887  67.347  1.00  0.00    -0.199 C  
BRANCH   9  10
HETATM   10  C   UNL     1      -7.152  13.461  67.777  1.00  0.00    -0.156 C  
HETATM   11  O   UNL     1      -7.896  12.545  66.954  1.00  0.00    -0.355 OA 
HETATM   12  H   UNL     1      -7.681  11.659  67.222  1.00  0.00     0.000 HD 
BRANCH  10  13
HETATM   13  C   UNL     1      -5.653  13.163  67.662  1.00  0.00    -0.087 C  
HETATM   14  O   UNL     1      -5.399  11.759  67.736  1.00  0.00    -0.047 OA 
HETATM   15  H   UNL     1      -4.469  11.573  67.665  1.00  0.00     0.000 HD 
ENDBRANCH  10  13
ENDBRANCH   9  10
ENDBRANCH   8   9
ENDBRANCH   7   8
TORSDOF 4
ENDMDL
MODEL      191
REMARK 921   NORMALIZED FREE ENERGY PREDICTED BY IDOCK:   -2.25 KCAL/MOL
REMARK 922        TOTAL FREE ENERGY PREDICTED BY IDOCK:   -3.03 KCAL/MOL
REMARK 923 INTER-LIGAND FREE ENERGY PREDICTED BY IDOCK:   -2.80 KCAL/MOL
REMARK 924 INTRA-LIGAND FREE ENERGY PREDICTED BY IDOCK:   -0.23 KCAL/MOL
REMARK 927      BINDING AFFINITY PREDICTED BY RF-SCORE:    0.00 PKD
ROOT
HETATM    1  C   UNL     1     -10.940   5.743  72.657  1.00  0.00    -0.311 C  
HETATM    2  C   UNL     1      -9.491   5.912  72.276  1.00  0.00    -0.158 A  
HETATM    3  C   UNL     1      -8.518   5.823  73.290  1.00  0.00    -0.116 A  
HETATM    4  C   UNL     1      -7.160   5.970  73.000  1.00  0.00    -0.084 A  
HETATM    5  C   UNL     1      -6.762   6.212  71.696  1.00  0.00    -0.059 A  
HETATM    6  C   UNL     1      -7.715   6.311  70.683  1.00  0.00    -0.105 A  
HETATM    7  C   UNL     1      -9.086   6.163  70.951  1.00  0.00    -0.150 A  
ENDROOT
BRANCH   7   8
HETATM    8  O   UNL     1     -10.067   6.244  69.982  1.00  0.00    -0.167 OA 
BRANCH   8   9
HETATM    9  C   UNL     1      -9.575   6.311  68.639  1.00  0.00    -0.123 C  
BRANCH   9  10
HETATM   10  C   UNL     1     -10.271   7.370  67.782  1.00  0.00    -0.196 C  
HETATM   11  O   UNL     1     -11.564   6.867  67.400  1.00  0.00    -0.652 OA 
HETATM   12  H   UNL     1     -11.996   7.525  66.868  1.00  0.00     0.000 HD 
BRANCH  10  13
HETATM   13  C   UNL     1     -10.429   8.706  68.517  1.00  0.00    -0.172 C  
HETATM   14  O   UNL     1     -11.273   9.600  67.787  1.00  0.00    -0.504 OA 
HETATM   15  H   UNL     1     -11.371  10.428  68.242  1.00  0.00     0.000 HD 
ENDBRANCH  10  13
ENDBRANCH   9  10
ENDBRANCH   8   9
ENDBRANCH   7   8
TORSDOF 4
ENDMDL
MODEL      192
REMARK 921   NORMALIZED FREE ENERGY PREDICTED BY IDOCK:   -2.23 KCAL/MOL
REMARK 922        TOTAL FREE ENERGY PREDICTED BY IDOCK:   -3.00 KCAL/MOL
REMARK 923 INTER-LIGAND FREE ENERGY PREDICTED BY IDOCK:   -2.84 KCAL/MOL
REMARK 924 INTRA-LIGAND FREE ENERGY PREDICTED BY IDOCK:   -0.16 KCAL/MOL
REMARK 927      BINDING AFFINITY PREDICTED BY RF-SCORE:    0.00 PKD
ROOT
HETATM    1  C   UNL     1      -9.767   4.399  66.582  1.00  0.00    -0.233 C  
HETATM    2  C   UNL     1      -9.316   5.779  66.175  1.00  0.00    -0.160 A  
HETATM    3  C   UNL     1      -8.428   5.899  65.090  1.00  0.00    -0.130 A  
HETATM    4  C   UNL     1      -7.975   7.149  64.664  1.00  0.00    -0.114 A  
HETATM    5  C   UNL     1      -8.402   8.291  65.322  1.00  0.00    -0.175 A  
HETATM    6  C   UNL     1      -9.277   8.186  66.404  1.00  0.00    -0.250 A  
HETATM    7  C   UNL     1      -9.747   6.939  66.846  1.00  0.00    -0.171 A  
ENDROOT
BRANCH   7   8
HETATM    8  O   UNL     1     -10.620   6.784  67.906  1.00  0.00    -0.196 OA 
BRANCH   8   9
HETATM    9  C   UNL     1     -10.000   6.806  69.197  1.00  0.00    -0.159 C  
BRANCH   9  10
HETATM   10  C   UNL     1     -10.324   8.059  70.012  1.00  0.00    -0.218 C  
HETATM   11  O   UNL     1     -11.246   8.866  69.259  1.00  0.00    -0.434 OA 
HETATM   12  H   UNL     1     -11.447   9.644  69.765  1.00  0.00     0.000 HD 
BRANCH  10  13
HETATM   13  C   UNL     1     -10.924   7.727  71.383  1.00  0.00    -0.235 C  
HETATM   14  O   UNL     1     -11.167   8.913  72.142  1.00  0.00    -0.360 OA 
HETATM   15  H   UNL     1     -11.539   8.707  72.992  1.00  0.00     0.000 HD 
ENDBRANCH  10  13
ENDBRANCH   9  10
ENDBRANCH   8   9
ENDBRANCH   7   8
TORSDOF 4
ENDMDL
MODEL      193
REMARK 921   NORMALIZED FREE ENERGY PREDICTED BY IDOCK:   -2.22 KCAL/MOL
REMARK 922        TOTAL FREE ENERGY PREDICTED BY IDOCK:   -2.99 KCAL/MOL
REMARK 923 INTER-LIGAND FREE ENERGY PREDICTED BY IDOCK:   -2.78 KCAL/MOL
REMARK 924 INTRA-LIGAND FREE ENERGY PREDICTED BY IDOCK:   -0.21 KCAL/MOL
REMARK 927      BINDING AFFINITY PREDICTED BY RF-SCORE:    0.00 PKD
ROOT
HETATM    1  C   UNL     1     -10.391   8.569  68.808  1.00  0.00    -0.233 C  
HETATM    2  C   UNL     1     -10.208   7.179  68.253  1.00  0.00    -0.210 A  
HETATM    3  C   UNL     1      -9.519   7.031  67.035  1.00  0.00    -0.184 A  
HETATM    4  C   UNL     1      -9.317   5.770  66.470  1.00  0.00    -0.162 A  
HETATM    5  C   UNL     1      -9.807   4.646  67.115  1.00  0.00    -0.227 A  
HETATM    6  C   UNL     1     -10.498   4.779  68.319  1.00  0.00     0.146 A  
HETATM    7  C   UNL     1     -10.709   6.037  68.906  1.00  0.00    -0.317 A  
ENDROOT
BRANCH   7   8
HETATM    8  O   UNL     1     -11.380   6.219  70.100  1.00  0.00    -0.372 OA 
BRANCH   8   9
HETATM    9  C   UNL     1     -10.833   5.497  71.209  1.00  0.00    -0.180 C  
BRANCH   9  10
HETATM   10  C   UNL     1     -10.766   6.313  72.501  1.00  0.00    -0.226 C  
HETATM   11  O   UNL     1     -11.122   5.455  73.599  1.00  0.00    -0.408 OA 
HETATM   12  H   UNL     1     -11.080   5.962  74.402  1.00  0.00     0.000 HD 
BRANCH  10  13
HETATM   13  C   UNL     1      -9.377   6.915  72.741  1.00  0.00    -0.135 C  
HETATM   14  O   UNL     1      -9.456   8.089  73.552  1.00  0.00    -0.273 OA 
HETATM   15  H   UNL     1      -8.595   8.463  73.701  1.00  0.00     0.000 HD 
ENDBRANCH  10  13
ENDBRANCH   9  10
ENDBRANCH   8   9
ENDBRANCH   7   8
TORSDOF 4
ENDMDL
MODEL      194
REMARK 921   NORMALIZED FREE ENERGY PREDICTED BY IDOCK:   -2.20 KCAL/MOL
REMARK 922        TOTAL FREE ENERGY PREDICTED BY IDOCK:   -2.96 KCAL/MOL
REMARK 923 INTER-LIGAND FREE ENERGY PREDICTED BY IDOCK:   -2.73 KCAL/MOL
REMARK 924 INTRA-LIGAND FREE ENERGY PREDICTED BY IDOCK:   -0.24 KCAL/MOL
REMARK 927      BINDING AFFINITY PREDICTED BY RF-SCORE:    0.00 PKD
ROOT
HETATM    1  C   UNL     1      -7.083   8.052  73.280  1.00  0.00    -0.136 C  
HETATM    2  C   UNL     1      -8.520   7.640  73.083  1.00  0.00    -0.193 A  
HETATM    3  C   UNL     1      -9.179   6.988  74.142  1.00  0.00    -0.267 A  
HETATM    4  C   UNL     1     -10.510   6.582  74.021  1.00  0.00    -0.306 A  
HETATM    5  C   UNL     1     -11.192   6.819  72.839  1.00  0.00    -0.234 A  
HETATM    6  C   UNL     1     -10.549   7.458  71.779  1.00  0.00    -0.228 A  
HETATM    7  C   UNL     1      -9.212   7.877  71.881  1.00  0.00    -0.154 A  
ENDROOT
BRANCH   7   8
HETATM    8  O   UNL     1      -8.535   8.520  70.862  1.00  0.00    -0.126 OA 
BRANCH   8   9
HETATM    9  C   UNL     1      -9.163   9.716  70.389  1.00  0.00    -0.202 C  
BRANCH   9  10
HETATM   10  C   UNL     1      -9.314   9.770  68.867  1.00  0.00    -0.158 C  
HETATM   11  O   UNL     1      -8.004   9.903  68.286  1.00  0.00    -0.098 OA 
HETATM   12  H   UNL     1      -8.098   9.936  67.341  1.00  0.00     0.000 HD 
BRANCH  10  13
HETATM   13  C   UNL     1     -10.009   8.525  68.303  1.00  0.00    -0.184 C  
HETATM   14  O   UNL     1     -11.022   8.883  67.360  1.00  0.00    -0.441 OA 
HETATM   15  H   UNL     1     -11.453   8.111  67.010  1.00  0.00     0.000 HD 
ENDBRANCH  10  13
ENDBRANCH   9  10
ENDBRANCH   8   9
ENDBRANCH   7   8
TORSDOF 4
ENDMDL
MODEL      195
REMARK 921   NORMALIZED FREE ENERGY PREDICTED BY IDOCK:   -2.20 KCAL/MOL
REMARK 922        TOTAL FREE ENERGY PREDICTED BY IDOCK:   -2.96 KCAL/MOL
REMARK 923 INTER-LIGAND FREE ENERGY PREDICTED BY IDOCK:   -2.54 KCAL/MOL
REMARK 924 INTRA-LIGAND FREE ENERGY PREDICTED BY IDOCK:   -0.42 KCAL/MOL
REMARK 927      BINDING AFFINITY PREDICTED BY RF-SCORE:    0.00 PKD
ROOT
HETATM    1  C   UNL     1      -6.851   9.867  70.371  1.00  0.00    -0.141 C  
HETATM    2  C   UNL     1      -7.707   9.998  69.137  1.00  0.00    -0.104 A  
HETATM    3  C   UNL     1      -7.201  10.730  68.046  1.00  0.00    -0.086 A  
HETATM    4  C   UNL     1      -7.945  10.886  66.875  1.00  0.00    -0.138 A  
HETATM    5  C   UNL     1      -9.205  10.317  66.785  1.00  0.00    -0.180 A  
HETATM    6  C   UNL     1      -9.722   9.596  67.861  1.00  0.00    -0.169 A  
HETATM    7  C   UNL     1      -8.989   9.423  69.046  1.00  0.00    -0.141 A  
ENDROOT
BRANCH   7   8
HETATM    8  O   UNL     1      -9.454   8.711  70.135  1.00  0.00    -0.158 OA 
BRANCH   8   9
HETATM    9  C   UNL     1     -10.880   8.610  70.217  1.00  0.00    -0.235 C  
BRANCH   9  10
HETATM   10  C   UNL     1     -11.365   7.429  71.059  1.00  0.00    -0.275 C  
HETATM   11  O   UNL     1     -12.464   6.803  70.374  1.00  0.00    -0.574 OA 
HETATM   12  H   UNL     1     -12.766   6.070  70.897  1.00  0.00     0.000 HD 
BRANCH  10  13
HETATM   13  C   UNL     1     -10.258   6.398  71.315  1.00  0.00    -0.200 C  
HETATM   14  O   UNL     1      -9.361   6.846  72.333  1.00  0.00    -0.138 OA 
HETATM   15  H   UNL     1      -8.675   6.207  72.491  1.00  0.00     0.000 HD 
ENDBRANCH  10  13
ENDBRANCH   9  10
ENDBRANCH   8   9
ENDBRANCH   7   8
TORSDOF 4
ENDMDL
MODEL      196
REMARK 921   NORMALIZED FREE ENERGY PREDICTED BY IDOCK:   -2.19 KCAL/MOL
REMARK 922        TOTAL FREE ENERGY PREDICTED BY IDOCK:   -2.96 KCAL/MOL
REMARK 923 INTER-LIGAND FREE ENERGY PREDICTED BY IDOCK:   -2.74 KCAL/MOL
REMARK 924 INTRA-LIGAND FREE ENERGY PREDICTED BY IDOCK:   -0.21 KCAL/MOL
REMARK 927      BINDING AFFINITY PREDICTED BY RF-SCORE:    0.00 PKD
ROOT
HETATM    1  C   UNL     1      -9.592   5.056  73.235  1.00  0.00    -0.153 C  
HETATM    2  C   UNL     1      -8.610   5.645  72.255  1.00  0.00    -0.129 A  
HETATM    3  C   UNL     1      -7.509   4.863  71.859  1.00  0.00    -0.085 A  
HETATM    4  C   UNL     1      -6.565   5.352  70.954  1.00  0.00    -0.043 A  
HETATM    5  C   UNL     1      -6.709   6.630  70.440  1.00  0.00    -0.057 A  
HETATM    6  C   UNL     1      -7.791   7.420  70.829  1.00  0.00    -0.096 A  
HETATM    7  C   UNL     1      -8.754   6.946  71.735  1.00  0.00    -0.120 A  
ENDROOT
BRANCH   7   8
HETATM    8  O   UNL     1      -9.847   7.686  72.144  1.00  0.00    -0.167 OA 
BRANCH   8   9
HETATM    9  C   UNL     1     -10.245   8.717  71.233  1.00  0.00    -0.239 C  
BRANCH   9  10
HETATM   10  C   UNL     1     -11.597   9.347  71.571  1.00  0.00    -0.397 C  
HETATM   11  O   UNL     1     -12.206   9.800  70.349  1.00  0.00    -0.444 OA 
HETATM   12  H   UNL     1     -13.045  10.192  70.560  1.00  0.00     0.000 HD 
BRANCH  10  13
HETATM   13  C   UNL     1     -12.536   8.370  72.289  1.00  0.00    -0.361 C  
HETATM   14  O   UNL     1     -13.469   7.787  71.377  1.00  0.00    -0.456 OA 
HETATM   15  H   UNL     1     -14.051   7.181  71.822  1.00  0.00     0.000 HD 
ENDBRANCH  10  13
ENDBRANCH   9  10
ENDBRANCH   8   9
ENDBRANCH   7   8
TORSDOF 4
ENDMDL
MODEL      197
REMARK 921   NORMALIZED FREE ENERGY PREDICTED BY IDOCK:   -2.14 KCAL/MOL
REMARK 922        TOTAL FREE ENERGY PREDICTED BY IDOCK:   -2.89 KCAL/MOL
REMARK 923 INTER-LIGAND FREE ENERGY PREDICTED BY IDOCK:   -2.35 KCAL/MOL
REMARK 924 INTRA-LIGAND FREE ENERGY PREDICTED BY IDOCK:   -0.54 KCAL/MOL
REMARK 927      BINDING AFFINITY PREDICTED BY RF-SCORE:    0.00 PKD
ROOT
HETATM    1  C   UNL     1      -9.581   3.576  67.353  1.00  0.00    -0.172 C  
HETATM    2  C   UNL     1      -8.554   4.222  66.459  1.00  0.00    -0.112 A  
HETATM    3  C   UNL     1      -8.057   3.484  65.368  1.00  0.00    -0.097 A  
HETATM    4  C   UNL     1      -7.105   4.028  64.503  1.00  0.00    -0.054 A  
HETATM    5  C   UNL     1      -6.638   5.313  64.723  1.00  0.00    -0.043 A  
HETATM    6  C   UNL     1      -7.116   6.054  65.804  1.00  0.00    -0.073 A  
HETATM    7  C   UNL     1      -8.076   5.527  66.684  1.00  0.00    -0.105 A  
ENDROOT
BRANCH   7   8
HETATM    8  O   UNL     1      -8.586   6.224  67.763  1.00  0.00    -0.116 OA 
BRANCH   8   9
HETATM    9  C   UNL     1      -9.397   7.352  67.416  1.00  0.00    -0.132 C  
BRANCH   9  10
HETATM   10  C   UNL     1     -10.883   7.157  67.722  1.00  0.00    -0.178 C  
HETATM   11  O   UNL     1     -11.472   6.400  66.650  1.00  0.00    -0.700 OA 
HETATM   12  H   UNL     1     -12.395   6.279  66.840  1.00  0.00     0.000 HD 
BRANCH  10  13
HETATM   13  C   UNL     1     -11.117   6.437  69.056  1.00  0.00    -0.358 C  
HETATM   14  O   UNL     1     -10.441   7.100  70.126  1.00  0.00    -0.206 OA 
HETATM   15  H   UNL     1     -10.586   6.655  70.953  1.00  0.00     0.000 HD 
ENDBRANCH  10  13
ENDBRANCH   9  10
ENDBRANCH   8   9
ENDBRANCH   7   8
TORSDOF 4
ENDMDL
MODEL      198
REMARK 921   NORMALIZED FREE ENERGY PREDICTED BY IDOCK:   -2.14 KCAL/MOL
REMARK 922        TOTAL FREE ENERGY PREDICTED BY IDOCK:   -2.89 KCAL/MOL
REMARK 923 INTER-LIGAND FREE ENERGY PREDICTED BY IDOCK:   -2.45 KCAL/MOL
REMARK 924 INTRA-LIGAND FREE ENERGY PREDICTED BY IDOCK:   -0.44 KCAL/MOL
REMARK 927      BINDING AFFINITY PREDICTED BY RF-SCORE:    0.00 PKD
ROOT
HETATM    1  C   UNL     1      -7.351   9.999  70.121  1.00  0.00    -0.171 C  
HETATM    2  C   UNL     1      -8.575   9.213  70.517  1.00  0.00    -0.252 A  
HETATM    3  C   UNL     1      -8.856   9.059  71.888  1.00  0.00     0.034 A  
HETATM    4  C   UNL     1      -9.975   8.343  72.318  1.00  0.00    -0.383 A  
HETATM    5  C   UNL     1     -10.822   7.771  71.383  1.00  0.00    -0.257 A  
HETATM    6  C   UNL     1     -10.552   7.910  70.022  1.00  0.00    -0.242 A  
HETATM    7  C   UNL     1      -9.434   8.629  69.567  1.00  0.00    -0.162 A  
ENDROOT
BRANCH   7   8
HETATM    8  O   UNL     1      -9.129   8.801  68.230  1.00  0.00    -0.140 OA 
BRANCH   8   9
HETATM    9  C   UNL     1     -10.161   9.426  67.458  1.00  0.00    -0.215 C  
BRANCH   9  10
HETATM   10  C   UNL     1      -9.633  10.252  66.285  1.00  0.00    -0.189 C  
HETATM   11  O   UNL     1      -8.414  10.897  66.694  1.00  0.00    -0.140 OA 
HETATM   12  H   UNL     1      -8.087  11.411  65.965  1.00  0.00     0.000 HD 
BRANCH  10  13
HETATM   13  C   UNL     1      -9.377   9.400  65.036  1.00  0.00    -0.191 C  
HETATM   14  O   UNL     1      -8.315   8.469  65.256  1.00  0.00    -0.143 OA 
HETATM   15  H   UNL     1      -8.156   7.940  64.482  1.00  0.00     0.000 HD 
ENDBRANCH  10  13
ENDBRANCH   9  10
ENDBRANCH   8   9
ENDBRANCH   7   8
TORSDOF 4
ENDMDL
MODEL      199
REMARK 921   NORMALIZED FREE ENERGY PREDICTED BY IDOCK:   -2.08 KCAL/MOL
REMARK 922        TOTAL FREE ENERGY PREDICTED BY IDOCK:   -2.82 KCAL/MOL
REMARK 923 INTER-LIGAND FREE ENERGY PREDICTED BY IDOCK:   -2.89 KCAL/MOL
REMARK 924 INTRA-LIGAND FREE ENERGY PREDICTED BY IDOCK:    0.07 KCAL/MOL
REMARK 927      BINDING AFFINITY PREDICTED BY RF-SCORE:    0.00 PKD
ROOT
HETATM    1  C   UNL     1      -8.060   7.074  73.487  1.00  0.00    -0.125 C  
HETATM    2  C   UNL     1      -9.300   6.726  72.703  1.00  0.00    -0.152 A  
HETATM    3  C   UNL     1     -10.374   6.124  73.384  1.00  0.00    -0.253 A  
HETATM    4  C   UNL     1     -11.550   5.779  72.715  1.00  0.00    -0.266 A  
HETATM    5  C   UNL     1     -11.661   6.028  71.357  1.00  0.00    -0.211 A  
HETATM    6  C   UNL     1     -10.601   6.618  70.667  1.00  0.00    -0.268 A  
HETATM    7  C   UNL     1      -9.412   6.976  71.322  1.00  0.00    -0.164 A  
ENDROOT
BRANCH   7   8
HETATM    8  O   UNL     1      -8.339   7.569  70.685  1.00  0.00    -0.122 OA 
BRANCH   8   9
HETATM    9  C   UNL     1      -8.345   9.001  70.712  1.00  0.00    -0.192 C  
BRANCH   9  10
HETATM   10  C   UNL     1      -9.399   9.628  69.798  1.00  0.00    -0.218 C  
HETATM   11  O   UNL     1     -10.416  10.227  70.621  1.00  0.00    -0.401 OA 
HETATM   12  H   UNL     1     -11.071  10.616  70.054  1.00  0.00     0.000 HD 
BRANCH  10  13
HETATM   13  C   UNL     1      -8.806  10.681  68.856  1.00  0.00    -0.157 C  
HETATM   14  O   UNL     1      -7.766  11.422  69.498  1.00  0.00    -0.360 OA 
HETATM   15  H   UNL     1      -7.398  12.075  68.914  1.00  0.00     0.000 HD 
ENDBRANCH  10  13
ENDBRANCH   9  10
ENDBRANCH   8   9
ENDBRANCH   7   8
TORSDOF 4
ENDMDL
MODEL      200
REMARK 921   NORMALIZED FREE ENERGY PREDICTED BY IDOCK:   -2.06 KCAL/MOL
REMARK 922        TOTAL FREE ENERGY PREDICTED BY IDOCK:   -2.80 KCAL/MOL
REMARK 923 INTER-LIGAND FREE ENERGY PREDICTED BY IDOCK:   -2.34 KCAL/MOL
REMARK 924 INTRA-LIGAND FREE ENERGY PREDICTED BY IDOCK:   -0.46 KCAL/MOL
REMARK 927      BINDING AFFINITY PREDICTED BY RF-SCORE:    0.00 PKD
ROOT
HETATM    1  C   UNL     1      -8.536   9.436  69.741  1.00  0.00    -0.182 C  
HETATM    2  C   UNL     1      -7.863   9.616  68.404  1.00  0.00    -0.085 A  
HETATM    3  C   UNL     1      -7.269   8.493  67.798  1.00  0.00    -0.084 A  
HETATM    4  C   UNL     1      -6.632   8.595  66.559  1.00  0.00    -0.063 A  
HETATM    5  C   UNL     1      -6.578   9.821  65.918  1.00  0.00    -0.083 A  
HETATM    6  C   UNL     1      -7.156  10.944  66.510  1.00  0.00    -0.139 A  
HETATM    7  C   UNL     1      -7.805  10.863  67.753  1.00  0.00    -0.109 A  
ENDROOT
BRANCH   7   8
HETATM    8  O   UNL     1      -8.399  11.944  68.376  1.00  0.00    -0.159 OA 
BRANCH   8   9
HETATM    9  C   UNL     1      -8.850  12.971  67.487  1.00  0.00    -0.195 C  
BRANCH   9  10
HETATM   10  C   UNL     1      -9.981  13.826  68.060  1.00  0.00    -0.246 C  
HETATM   11  O   UNL     1     -10.372  14.789  67.066  1.00  0.00    -0.252 OA 
HETATM   12  H   UNL     1     -11.074  15.320  67.422  1.00  0.00     0.000 HD 
BRANCH  10  13
HETATM   13  C   UNL     1     -11.196  12.988  68.478  1.00  0.00    -0.274 C  
HETATM   14  O   UNL     1     -10.929  12.253  69.674  1.00  0.00    -0.465 OA 
HETATM   15  H   UNL     1     -11.682  11.734  69.933  1.00  0.00     0.000 HD 
ENDBRANCH  10  13
ENDBRANCH   9  10
ENDBRANCH   8   9
ENDBRANCH   7   8
TORSDOF 4
ENDMDL
MODEL      201
REMARK 921   NORMALIZED FREE ENERGY PREDICTED BY IDOCK:   -2.05 KCAL/MOL
REMARK 922        TOTAL FREE ENERGY PREDICTED BY IDOCK:   -2.78 KCAL/MOL
REMARK 923 INTER-LIGAND FREE ENERGY PREDICTED BY IDOCK:   -2.48 KCAL/MOL
REMARK 924 INTRA-LIGAND FREE ENERGY PREDICTED BY IDOCK:   -0.30 KCAL/MOL
REMARK 927      BINDING AFFINITY PREDICTED BY RF-SCORE:    0.00 PKD
ROOT
HETATM    1  C   UNL     1     -10.133   7.011  71.906  1.00  0.00    -0.198 C  
HETATM    2  C   UNL     1      -8.855   7.768  71.653  1.00  0.00    -0.144 A  
HETATM    3  C   UNL     1      -7.833   7.698  72.619  1.00  0.00    -0.123 A  
HETATM    4  C   UNL     1      -6.625   8.376  72.441  1.00  0.00    -0.095 A  
HETATM    5  C   UNL     1      -6.429   9.134  71.299  1.00  0.00    -0.082 A  
HETATM    6  C   UNL     1      -7.435   9.219  70.337  1.00  0.00    -0.124 A  
HETATM    7  C   UNL     1      -8.656   8.542  70.493  1.00  0.00    -0.147 A  
ENDROOT
BRANCH   7   8
HETATM    8  O   UNL     1      -9.679   8.588  69.566  1.00  0.00    -0.172 OA 
BRANCH   8   9
HETATM    9  C   UNL     1      -9.250   8.774  68.212  1.00  0.00    -0.140 C  
BRANCH   9  10
HETATM   10  C   UNL     1      -9.482   7.552  67.321  1.00  0.00    -0.151 C  
HETATM   11  O   UNL     1      -8.264   6.789  67.270  1.00  0.00    -0.119 OA 
HETATM   12  H   UNL     1      -8.408   6.031  66.716  1.00  0.00     0.000 HD 
BRANCH  10  13
HETATM   13  C   UNL     1     -10.628   6.668  67.827  1.00  0.00    -0.252 C  
HETATM   14  O   UNL     1     -11.614   6.470  66.811  1.00  0.00    -0.731 OA 
HETATM   15  H   UNL     1     -12.325   5.922  67.124  1.00  0.00     0.000 HD 
ENDBRANCH  10  13
ENDBRANCH   9  10
ENDBRANCH   8   9
ENDBRANCH   7   8
TORSDOF 4
ENDMDL
MODEL      202
REMARK 921   NORMALIZED FREE ENERGY PREDICTED BY IDOCK:   -2.02 KCAL/MOL
REMARK 922        TOTAL FREE ENERGY PREDICTED BY IDOCK:   -2.74 KCAL/MOL
REMARK 923 INTER-LIGAND FREE ENERGY PREDICTED BY IDOCK:   -2.73 KCAL/MOL
REMARK 924 INTRA-LIGAND FREE ENERGY PREDICTED BY IDOCK:   -0.01 KCAL/MOL
REMARK 927      BINDING AFFINITY PREDICTED BY RF-SCORE:    0.00 PKD
ROOT
HETATM    1  C   UNL     1     -12.963  15.451  68.978  1.00  0.00     1.050 C  
HETATM    2  C   UNL     1     -12.741  15.431  70.469  1.00  0.00    -0.455 A  
HETATM    3  C   UNL     1     -13.862  15.296  71.310  1.00  0.00    -0.562 A  
HETATM    4  C   UNL     1     -13.721  15.270  72.700  1.00  0.00    -0.608 A  
HETATM    5  C   UNL     1     -12.460  15.383  73.261  1.00  0.00    -0.603 A  
HETATM    6  C   UNL     1     -11.341  15.524  72.440  1.00  0.00    -0.349 A  
HETATM    7  C   UNL     1     -11.460  15.549  71.041  1.00  0.00    -0.383 A  
ENDROOT
BRANCH   7   8
HETATM    8  O   UNL     1     -10.382  15.679  70.186  1.00  0.00    -0.303 OA 
BRANCH   8   9
HETATM    9  C   UNL     1      -9.802  14.440  69.764  1.00  0.00     0.512 C  
BRANCH   9  10
HETATM   10  C   UNL     1      -9.800  14.247  68.247  1.00  0.00    -0.235 C  
HETATM   11  O   UNL     1      -9.417  15.490  67.631  1.00  0.00    -0.207 OA 
HETATM   12  H   UNL     1      -9.416  15.371  66.689  1.00  0.00     0.000 HD 
BRANCH  10  13
HETATM   13  C   UNL     1      -8.849  13.131  67.799  1.00  0.00    -0.191 C  
HETATM   14  O   UNL     1      -8.383  13.354  66.467  1.00  0.00    -0.397 OA 
HETATM   15  H   UNL     1      -7.793  12.662  66.189  1.00  0.00     0.000 HD 
ENDBRANCH  10  13
ENDBRANCH   9  10
ENDBRANCH   8   9
ENDBRANCH   7   8
TORSDOF 4
ENDMDL
MODEL      203
REMARK 921   NORMALIZED FREE ENERGY PREDICTED BY IDOCK:   -1.98 KCAL/MOL
REMARK 922        TOTAL FREE ENERGY PREDICTED BY IDOCK:   -2.69 KCAL/MOL
REMARK 923 INTER-LIGAND FREE ENERGY PREDICTED BY IDOCK:   -2.27 KCAL/MOL
REMARK 924 INTRA-LIGAND FREE ENERGY PREDICTED BY IDOCK:   -0.42 KCAL/MOL
REMARK 927      BINDING AFFINITY PREDICTED BY RF-SCORE:    0.00 PKD
ROOT
HETATM    1  C   UNL     1      -9.156   7.011  70.748  1.00  0.00    -0.154 C  
HETATM    2  C   UNL     1      -9.727   5.961  71.667  1.00  0.00    -0.185 A  
HETATM    3  C   UNL     1     -10.461   6.383  72.791  1.00  0.00    -0.238 A  
HETATM    4  C   UNL     1     -11.016   5.459  73.679  1.00  0.00    -0.274 A  
HETATM    5  C   UNL     1     -10.837   4.104  73.454  1.00  0.00    -0.331 A  
HETATM    6  C   UNL     1     -10.106   3.671  72.348  1.00  0.00    -0.233 A  
HETATM    7  C   UNL     1      -9.543   4.584  71.441  1.00  0.00    -0.165 A  
ENDROOT
BRANCH   7   8
HETATM    8  O   UNL     1      -8.818   4.204  70.327  1.00  0.00    -0.078 OA 
BRANCH   8   9
HETATM    9  C   UNL     1      -9.479   3.261  69.477  1.00  0.00    -0.135 C  
BRANCH   9  10
HETATM   10  C   UNL     1      -9.000   3.303  68.025  1.00  0.00    -0.147 C  
HETATM   11  O   UNL     1     -10.022   3.926  67.227  1.00  0.00    -0.225 OA 
HETATM   12  H   UNL     1      -9.725   3.952  66.325  1.00  0.00     0.000 HD 
BRANCH  10  13
HETATM   13  C   UNL     1      -7.679   4.064  67.865  1.00  0.00    -0.067 C  
HETATM   14  O   UNL     1      -6.635   3.451  68.623  1.00  0.00    -0.039 OA 
HETATM   15  H   UNL     1      -5.816   3.923  68.524  1.00  0.00     0.000 HD 
ENDBRANCH  10  13
ENDBRANCH   9  10
ENDBRANCH   8   9
ENDBRANCH   7   8
TORSDOF 4
ENDMDL
MODEL      204
REMARK 921   NORMALIZED FREE ENERGY PREDICTED BY IDOCK:   -1.93 KCAL/MOL
REMARK 922        TOTAL FREE ENERGY PREDICTED BY IDOCK:   -2.64 KCAL/MOL
REMARK 923 INTER-LIGAND FREE ENERGY PREDICTED BY IDOCK:   -2.07 KCAL/MOL
REMARK 924 INTRA-LIGAND FREE ENERGY PREDICTED BY IDOCK:   -0.56 KCAL/MOL
REMARK 927      BINDING AFFINITY PREDICTED BY RF-SCORE:    0.00 PKD
ROOT
HETATM    1  C   UNL     1     -10.227   5.146  67.163  1.00  0.00    -0.254 C  
HETATM    2  C   UNL     1      -9.643   4.984  65.783  1.00  0.00    -0.162 A  
HETATM    3  C   UNL     1     -10.155   3.968  64.955  1.00  0.00    -0.214 A  
HETATM    4  C   UNL     1      -9.656   3.768  63.666  1.00  0.00    -0.152 A  
HETATM    5  C   UNL     1      -8.637   4.579  63.195  1.00  0.00    -0.113 A  
HETATM    6  C   UNL     1      -8.114   5.585  64.007  1.00  0.00    -0.123 A  
HETATM    7  C   UNL     1      -8.604   5.805  65.305  1.00  0.00    -0.129 A  
ENDROOT
BRANCH   7   8
HETATM    8  O   UNL     1      -8.125   6.793  66.144  1.00  0.00    -0.105 OA 
BRANCH   8   9
HETATM    9  C   UNL     1      -8.539   8.120  65.801  1.00  0.00    -0.154 C  
BRANCH   9  10
HETATM   10  C   UNL     1      -9.253   8.854  66.938  1.00  0.00    -0.147 C  
HETATM   11  O   UNL     1     -10.661   8.578  66.843  1.00  0.00    -0.288 OA 
HETATM   12  H   UNL     1     -11.105   9.034  67.548  1.00  0.00     0.000 HD 
BRANCH  10  13
HETATM   13  C   UNL     1      -8.734   8.439  68.320  1.00  0.00    -0.143 C  
HETATM   14  O   UNL     1      -7.307   8.489  68.373  1.00  0.00    -0.090 OA 
HETATM   15  H   UNL     1      -6.986   8.232  69.229  1.00  0.00     0.000 HD 
ENDBRANCH  10  13
ENDBRANCH   9  10
ENDBRANCH   8   9
ENDBRANCH   7   8
TORSDOF 4
ENDMDL
MODEL      205
REMARK 921   NORMALIZED FREE ENERGY PREDICTED BY IDOCK:   -1.92 KCAL/MOL
REMARK 922        TOTAL FREE ENERGY PREDICTED BY IDOCK:   -2.63 KCAL/MOL
REMARK 923 INTER-LIGAND FREE ENERGY PREDICTED BY IDOCK:   -2.37 KCAL/MOL
REMARK 924 INTRA-LIGAND FREE ENERGY PREDICTED BY IDOCK:   -0.26 KCAL/MOL
REMARK 927      BINDING AFFINITY PREDICTED BY RF-SCORE:    0.00 PKD
ROOT
HETATM    1  C   UNL     1      -6.690   8.036  72.886  1.00  0.00    -0.092 C  
HETATM    2  C   UNL     1      -6.990   8.650  71.542  1.00  0.00    -0.091 A  
HETATM    3  C   UNL     1      -6.309   9.826  71.177  1.00  0.00     0.011 A  
HETATM    4  C   UNL     1      -6.542  10.441  69.945  1.00  0.00    -0.124 A  
HETATM    5  C   UNL     1      -7.463   9.890  69.070  1.00  0.00    -0.083 A  
HETATM    6  C   UNL     1      -8.152   8.730  69.422  1.00  0.00    -0.106 A  
HETATM    7  C   UNL     1      -7.929   8.092  70.653  1.00  0.00    -0.096 A  
ENDROOT
BRANCH   7   8
HETATM    8  O   UNL     1      -8.580   6.938  71.044  1.00  0.00    -0.133 OA 
BRANCH   8   9
HETATM    9  C   UNL     1      -9.996   6.951  70.835  1.00  0.00    -0.189 C  
BRANCH   9  10
HETATM   10  C   UNL     1     -10.808   6.810  72.124  1.00  0.00    -0.227 C  
HETATM   11  O   UNL     1     -10.642   8.010  72.900  1.00  0.00    -0.339 OA 
HETATM   12  H   UNL     1     -11.146   7.922  73.700  1.00  0.00     0.000 HD 
BRANCH  10  13
HETATM   13  C   UNL     1     -12.298   6.567  71.855  1.00  0.00    -0.288 C  
HETATM   14  O   UNL     1     -12.713   7.199  70.642  1.00  0.00    -0.609 OA 
HETATM   15  H   UNL     1     -13.636   7.049  70.475  1.00  0.00     0.000 HD 
ENDBRANCH  10  13
ENDBRANCH   9  10
ENDBRANCH   8   9
ENDBRANCH   7   8
TORSDOF 4
ENDMDL
MODEL      206
REMARK 921   NORMALIZED FREE ENERGY PREDICTED BY IDOCK:   -1.90 KCAL/MOL
REMARK 922        TOTAL FREE ENERGY PREDICTED BY IDOCK:   -2.59 KCAL/MOL
REMARK 923 INTER-LIGAND FREE ENERGY PREDICTED BY IDOCK:   -2.39 KCAL/MOL
REMARK 924 INTRA-LIGAND FREE ENERGY PREDICTED BY IDOCK:   -0.21 KCAL/MOL
REMARK 927      BINDING AFFINITY PREDICTED BY RF-SCORE:    0.00 PKD
ROOT
HETATM    1  C   UNL     1      -8.142   5.735  73.295  1.00  0.00    -0.113 C  
HETATM    2  C   UNL     1      -9.047   4.530  73.259  1.00  0.00    -0.119 A  
HETATM    3  C   UNL     1      -9.561   4.044  74.475  1.00  0.00    -0.144 A  
HETATM    4  C   UNL     1     -10.406   2.932  74.508  1.00  0.00    -0.212 A  
HETATM    5  C   UNL     1     -10.740   2.293  73.325  1.00  0.00    -0.267 A  
HETATM    6  C   UNL     1     -10.231   2.759  72.113  1.00  0.00    -0.158 A  
HETATM    7  C   UNL     1      -9.384   3.878  72.057  1.00  0.00    -0.128 A  
ENDROOT
BRANCH   7   8
HETATM    8  O   UNL     1      -8.862   4.383  70.882  1.00  0.00    -0.099 OA 
BRANCH   8   9
HETATM    9  C   UNL     1      -9.842   4.800  69.924  1.00  0.00    -0.221 C  
BRANCH   9  10
HETATM   10  C   UNL     1      -9.604   6.208  69.377  1.00  0.00    -0.137 C  
HETATM   11  O   UNL     1      -8.287   6.256  68.799  1.00  0.00    -0.118 OA 
HETATM   12  H   UNL     1      -8.140   7.130  68.460  1.00  0.00     0.000 HD 
BRANCH  10  13
HETATM   13  C   UNL     1     -10.646   6.613  68.328  1.00  0.00    -0.241 C  
HETATM   14  O   UNL     1     -10.998   7.992  68.454  1.00  0.00    -0.430 OA 
HETATM   15  H   UNL     1     -11.644   8.243  67.804  1.00  0.00     0.000 HD 
ENDBRANCH  10  13
ENDBRANCH   9  10
ENDBRANCH   8   9
ENDBRANCH   7   8
TORSDOF 4
ENDMDL
MODEL      207
REMARK 921   NORMALIZED FREE ENERGY PREDICTED BY IDOCK:   -1.88 KCAL/MOL
REMARK 922        TOTAL FREE ENERGY PREDICTED BY IDOCK:   -2.58 KCAL/MOL
REMARK 923 INTER-LIGAND FREE ENERGY PREDICTED BY IDOCK:   -1.99 KCAL/MOL
REMARK 924 INTRA-LIGAND FREE ENERGY PREDICTED BY IDOCK:   -0.59 KCAL/MOL
REMARK 927      BINDING AFFINITY PREDICTED BY RF-SCORE:    0.00 PKD
ROOT
HETATM    1  C   UNL     1      -9.051   8.332  65.731  1.00  0.00    -0.169 C  
HETATM    2  C   UNL     1      -8.794   9.388  66.775  1.00  0.00    -0.142 A  
HETATM    3  C   UNL     1      -9.118  10.724  66.469  1.00  0.00    -0.181 A  
HETATM    4  C   UNL     1      -8.904  11.747  67.395  1.00  0.00    -0.164 A  
HETATM    5  C   UNL     1      -8.361  11.446  68.633  1.00  0.00    -0.136 A  
HETATM    6  C   UNL     1      -8.029  10.128  68.947  1.00  0.00    -0.110 A  
HETATM    7  C   UNL     1      -8.239   9.083  68.032  1.00  0.00    -0.110 A  
ENDROOT
BRANCH   7   8
HETATM    8  O   UNL     1      -7.934   7.762  68.299  1.00  0.00    -0.118 OA 
BRANCH   8   9
HETATM    9  C   UNL     1      -8.619   7.208  69.428  1.00  0.00    -0.134 C  
BRANCH   9  10
HETATM   10  C   UNL     1      -9.738   6.235  69.050  1.00  0.00    -0.130 C  
HETATM   11  O   UNL     1     -10.933   6.995  68.793  1.00  0.00    -0.386 OA 
HETATM   12  H   UNL     1     -11.627   6.391  68.559  1.00  0.00     0.000 HD 
BRANCH  10  13
HETATM   13  C   UNL     1      -9.387   5.387  67.822  1.00  0.00    -0.116 C  
HETATM   14  O   UNL     1      -8.023   4.963  67.859  1.00  0.00    -0.092 OA 
HETATM   15  H   UNL     1      -7.805   4.438  67.098  1.00  0.00     0.000 HD 
ENDBRANCH  10  13
ENDBRANCH   9  10
ENDBRANCH   8   9
ENDBRANCH   7   8
TORSDOF 4
ENDMDL
MODEL      208
REMARK 921   NORMALIZED FREE ENERGY PREDICTED BY IDOCK:   -1.88 KCAL/MOL
REMARK 922        TOTAL FREE ENERGY PREDICTED BY IDOCK:   -2.57 KCAL/MOL
REMARK 923 INTER-LIGAND FREE ENERGY PREDICTED BY IDOCK:   -2.34 KCAL/MOL
REMARK 924 INTRA-LIGAND FREE ENERGY PREDICTED BY IDOCK:   -0.23 KCAL/MOL
REMARK 927      BINDING AFFINITY PREDICTED BY RF-SCORE:    0.00 PKD
ROOT
HETATM    1  C   UNL     1     -10.827   9.999  70.692  1.00  0.00    -0.367 C  
HETATM    2  C   UNL     1     -10.008   9.926  69.428  1.00  0.00    -0.227 A  
HETATM    3  C   UNL     1      -9.641  11.131  68.799  1.00  0.00    -0.180 A  
HETATM    4  C   UNL     1      -8.882  11.130  67.627  1.00  0.00    -0.136 A  
HETATM    5  C   UNL     1      -8.487   9.925  67.070  1.00  0.00    -0.121 A  
HETATM    6  C   UNL     1      -8.850   8.723  67.678  1.00  0.00    -0.138 A  
HETATM    7  C   UNL     1      -9.610   8.702  68.859  1.00  0.00    -0.159 A  
ENDROOT
BRANCH   7   8
HETATM    8  O   UNL     1      -9.987   7.539  69.503  1.00  0.00    -0.175 OA 
BRANCH   8   9
HETATM    9  C   UNL     1      -8.963   6.542  69.584  1.00  0.00    -0.141 C  
BRANCH   9  10
HETATM   10  C   UNL     1      -9.487   5.150  69.943  1.00  0.00    -0.160 C  
HETATM   11  O   UNL     1     -10.882   5.262  70.276  1.00  0.00    -0.225 OA 
HETATM   12  H   UNL     1     -11.207   4.398  70.499  1.00  0.00     0.000 HD 
BRANCH  10  13
HETATM   13  C   UNL     1      -9.304   4.143  68.802  1.00  0.00    -0.159 C  
HETATM   14  O   UNL     1      -9.955   4.588  67.611  1.00  0.00    -0.152 OA 
HETATM   15  H   UNL     1      -9.842   3.963  66.903  1.00  0.00     0.000 HD 
ENDBRANCH  10  13
ENDBRANCH   9  10
ENDBRANCH   8   9
ENDBRANCH   7   8
TORSDOF 4
ENDMDL
MODEL      209
REMARK 921   NORMALIZED FREE ENERGY PREDICTED BY IDOCK:   -1.85 KCAL/MOL
REMARK 922        TOTAL FREE ENERGY PREDICTED BY IDOCK:   -2.54 KCAL/MOL
REMARK 923 INTER-LIGAND FREE ENERGY PREDICTED BY IDOCK:   -2.05 KCAL/MOL
REMARK 924 INTRA-LIGAND FREE ENERGY PREDICTED BY IDOCK:   -0.48 KCAL/MOL
REMARK 927      BINDING AFFINITY PREDICTED BY RF-SCORE:    0.00 PKD
ROOT
HETATM    1  C   UNL     1      -8.459   6.457  72.551  1.00  0.00    -0.123 C  
HETATM    2  C   UNL     1      -7.924   6.212  71.162  1.00  0.00    -0.116 A  
HETATM    3  C   UNL     1      -6.880   5.282  71.002  1.00  0.00    -0.048 A  
HETATM    4  C   UNL     1      -6.344   5.011  69.741  1.00  0.00    -0.030 A  
HETATM    5  C   UNL     1      -6.842   5.671  68.630  1.00  0.00    -0.059 A  
HETATM    6  C   UNL     1      -7.871   6.601  68.775  1.00  0.00    -0.111 A  
HETATM    7  C   UNL     1      -8.428   6.886  70.033  1.00  0.00    -0.140 A  
ENDROOT
BRANCH   7   8
HETATM    8  O   UNL     1      -9.453   7.792  70.227  1.00  0.00    -0.160 OA 
BRANCH   8   9
HETATM    9  C   UNL     1     -10.387   7.878  69.144  1.00  0.00    -0.219 C  
BRANCH   9  10
HETATM   10  C   UNL     1     -10.745   9.313  68.755  1.00  0.00    -0.154 C  
HETATM   11  O   UNL     1     -11.692   9.820  69.712  1.00  0.00    -0.436 OA 
HETATM   12  H   UNL     1     -11.915  10.711  69.470  1.00  0.00     0.000 HD 
BRANCH  10  13
HETATM   13  C   UNL     1      -9.517  10.230  68.703  1.00  0.00    -0.169 C  
HETATM   14  O   UNL     1      -9.138  10.660  70.012  1.00  0.00    -0.286 OA 
HETATM   15  H   UNL     1      -8.377  11.229  69.980  1.00  0.00     0.000 HD 
ENDBRANCH  10  13
ENDBRANCH   9  10
ENDBRANCH   8   9
ENDBRANCH   7   8
TORSDOF 4
ENDMDL
MODEL      210
REMARK 921   NORMALIZED FREE ENERGY PREDICTED BY IDOCK:   -1.84 KCAL/MOL
REMARK 922        TOTAL FREE ENERGY PREDICTED BY IDOCK:   -2.53 KCAL/MOL
REMARK 923 INTER-LIGAND FREE ENERGY PREDICTED BY IDOCK:   -3.37 KCAL/MOL
REMARK 924 INTRA-LIGAND FREE ENERGY PREDICTED BY IDOCK:    0.85 KCAL/MOL
REMARK 927      BINDING AFFINITY PREDICTED BY RF-SCORE:    0.00 PKD
ROOT
HETATM    1  C   UNL     1     -11.477  11.686  67.889  1.00  0.00    -0.381 C  
HETATM    2  C   UNL     1     -10.837  11.402  66.554  1.00  0.00    -0.334 A  
HETATM    3  C   UNL     1     -10.606  10.061  66.194  1.00  0.00    -0.071 A  
HETATM    4  C   UNL     1     -10.017   9.734  64.971  1.00  0.00    -0.132 A  
HETATM    5  C   UNL     1      -9.650  10.744  64.097  1.00  0.00    -0.333 A  
HETATM    6  C   UNL     1      -9.867  12.078  64.443  1.00  0.00    -0.180 A  
HETATM    7  C   UNL     1     -10.461  12.429  65.667  1.00  0.00    -0.261 A  
ENDROOT
BRANCH   7   8
HETATM    8  O   UNL     1     -10.703  13.734  66.051  1.00  0.00    -0.280 OA 
BRANCH   8   9
HETATM    9  C   UNL     1     -10.466  14.002  67.437  1.00  0.00    -0.263 C  
BRANCH   9  10
HETATM   10  C   UNL     1      -9.455  15.122  67.682  1.00  0.00    -0.201 C  
HETATM   11  O   UNL     1      -8.549  14.699  68.717  1.00  0.00    -0.165 OA 
HETATM   12  H   UNL     1      -7.921  15.395  68.870  1.00  0.00     0.000 HD 
BRANCH  10  13
HETATM   13  C   UNL     1      -8.666  15.486  66.419  1.00  0.00    -0.298 C  
HETATM   14  O   UNL     1      -9.360  16.461  65.639  1.00  0.00    -0.476 OA 
HETATM   15  H   UNL     1      -8.871  16.686  64.856  1.00  0.00     0.000 HD 
ENDBRANCH  10  13
ENDBRANCH   9  10
ENDBRANCH   8   9
ENDBRANCH   7   8
TORSDOF 4
ENDMDL
MODEL      211
REMARK 921   NORMALIZED FREE ENERGY PREDICTED BY IDOCK:   -1.80 KCAL/MOL
REMARK 922        TOTAL FREE ENERGY PREDICTED BY IDOCK:   -2.47 KCAL/MOL
REMARK 923 INTER-LIGAND FREE ENERGY PREDICTED BY IDOCK:   -2.03 KCAL/MOL
REMARK 924 INTRA-LIGAND FREE ENERGY PREDICTED BY IDOCK:   -0.45 KCAL/MOL
REMARK 927      BINDING AFFINITY PREDICTED BY RF-SCORE:    0.00 PKD
ROOT
HETATM    1  C   UNL     1      -9.789   6.996  70.454  1.00  0.00    -0.184 C  
HETATM    2  C   UNL     1     -10.058   5.911  71.466  1.00  0.00    -0.238 A  
HETATM    3  C   UNL     1     -11.293   5.917  72.140  1.00  0.00    -0.344 A  
HETATM    4  C   UNL     1     -11.602   4.938  73.087  1.00  0.00    -0.300 A  
HETATM    5  C   UNL     1     -10.677   3.948  73.373  1.00  0.00    -0.296 A  
HETATM    6  C   UNL     1      -9.446   3.934  72.718  1.00  0.00    -0.162 A  
HETATM    7  C   UNL     1      -9.116   4.906  71.759  1.00  0.00    -0.139 A  
ENDROOT
BRANCH   7   8
HETATM    8  O   UNL     1      -7.914   4.930  71.078  1.00  0.00    -0.087 OA 
BRANCH   8   9
HETATM    9  C   UNL     1      -6.782   5.289  71.878  1.00  0.00    -0.056 C  
BRANCH   9  10
HETATM   10  C   UNL     1      -6.122   6.602  71.452  1.00  0.00    -0.037 C  
HETATM   11  O   UNL     1      -6.290   6.756  70.032  1.00  0.00    -0.037 OA 
HETATM   12  H   UNL     1      -5.880   7.571  69.768  1.00  0.00     0.000 HD 
BRANCH  10  13
HETATM   13  C   UNL     1      -6.711   7.816  72.180  1.00  0.00    -0.059 C  
HETATM   14  O   UNL     1      -7.552   7.412  73.262  1.00  0.00    -0.087 OA 
HETATM   15  H   UNL     1      -7.917   8.165  73.713  1.00  0.00     0.000 HD 
ENDBRANCH  10  13
ENDBRANCH   9  10
ENDBRANCH   8   9
ENDBRANCH   7   8
TORSDOF 4
ENDMDL
MODEL      212
REMARK 921   NORMALIZED FREE ENERGY PREDICTED BY IDOCK:   -1.66 KCAL/MOL
REMARK 922        TOTAL FREE ENERGY PREDICTED BY IDOCK:   -2.30 KCAL/MOL
REMARK 923 INTER-LIGAND FREE ENERGY PREDICTED BY IDOCK:   -2.10 KCAL/MOL
REMARK 924 INTRA-LIGAND FREE ENERGY PREDICTED BY IDOCK:   -0.20 KCAL/MOL
REMARK 927      BINDING AFFINITY PREDICTED BY RF-SCORE:    0.00 PKD
ROOT
HETATM    1  C   UNL     1      -9.000   6.821  69.909  1.00  0.00    -0.144 C  
HETATM    2  C   UNL     1      -9.257   5.469  70.526  1.00  0.00    -0.179 A  
HETATM    3  C   UNL     1     -10.118   5.394  71.637  1.00  0.00    -0.259 A  
HETATM    4  C   UNL     1     -10.396   4.171  72.252  1.00  0.00    -0.197 A  
HETATM    5  C   UNL     1      -9.811   3.013  71.765  1.00  0.00    -0.230 A  
HETATM    6  C   UNL     1      -8.950   3.074  70.670  1.00  0.00    -0.164 A  
HETATM    7  C   UNL     1      -8.660   4.293  70.034  1.00  0.00    -0.068 A  
ENDROOT
BRANCH   7   8
HETATM    8  O   UNL     1      -7.821   4.403  68.942  1.00  0.00    -0.069 OA 
BRANCH   8   9
HETATM    9  C   UNL     1      -8.401   3.993  67.699  1.00  0.00    -0.094 C  
BRANCH   9  10
HETATM   10  C   UNL     1      -8.708   5.154  66.752  1.00  0.00    -0.108 C  
HETATM   11  O   UNL     1      -7.491   5.886  66.521  1.00  0.00    -0.084 OA 
HETATM   12  H   UNL     1      -7.681   6.608  65.934  1.00  0.00     0.000 HD 
BRANCH  10  13
HETATM   13  C   UNL     1      -9.291   4.682  65.415  1.00  0.00    -0.158 C  
HETATM   14  O   UNL     1      -9.042   5.633  64.378  1.00  0.00    -0.349 OA 
HETATM   15  H   UNL     1      -9.404   5.340  63.549  1.00  0.00     0.000 HD 
ENDBRANCH  10  13
ENDBRANCH   9  10
ENDBRANCH   8   9
ENDBRANCH   7   8
TORSDOF 4
ENDMDL
MODEL      213
REMARK 921   NORMALIZED FREE ENERGY PREDICTED BY IDOCK:   -1.64 KCAL/MOL
REMARK 922        TOTAL FREE ENERGY PREDICTED BY IDOCK:   -2.28 KCAL/MOL
REMARK 923 INTER-LIGAND FREE ENERGY PREDICTED BY IDOCK:   -2.01 KCAL/MOL
REMARK 924 INTRA-LIGAND FREE ENERGY PREDICTED BY IDOCK:   -0.27 KCAL/MOL
REMARK 927      BINDING AFFINITY PREDICTED BY RF-SCORE:    0.00 PKD
ROOT
HETATM    1  C   UNL     1     -10.040   9.377  69.233  1.00  0.00    -0.200 C  
HETATM    2  C   UNL     1      -9.222   8.554  68.269  1.00  0.00    -0.140 A  
HETATM    3  C   UNL     1      -8.457   9.227  67.298  1.00  0.00    -0.125 A  
HETATM    4  C   UNL     1      -7.678   8.522  66.378  1.00  0.00    -0.098 A  
HETATM    5  C   UNL     1      -7.661   7.137  66.417  1.00  0.00    -0.100 A  
HETATM    6  C   UNL     1      -8.420   6.457  67.369  1.00  0.00    -0.108 A  
HETATM    7  C   UNL     1      -9.207   7.147  68.306  1.00  0.00    -0.132 A  
ENDROOT
BRANCH   7   8
HETATM    8  O   UNL     1      -9.969   6.519  69.273  1.00  0.00    -0.149 OA 
BRANCH   8   9
HETATM    9  C   UNL     1      -9.283   5.498  70.004  1.00  0.00    -0.140 C  
BRANCH   9  10
HETATM   10  C   UNL     1      -9.732   5.379  71.461  1.00  0.00    -0.159 C  
HETATM   11  O   UNL     1      -8.655   4.804  72.223  1.00  0.00    -0.117 OA 
HETATM   12  H   UNL     1      -8.934   4.730  73.128  1.00  0.00     0.000 HD 
BRANCH  10  13
HETATM   13  C   UNL     1     -10.130   6.731  72.064  1.00  0.00    -0.182 C  
HETATM   14  O   UNL     1     -11.454   6.687  72.600  1.00  0.00    -0.363 OA 
HETATM   15  H   UNL     1     -11.702   7.525  72.974  1.00  0.00     0.000 HD 
ENDBRANCH  10  13
ENDBRANCH   9  10
ENDBRANCH   8   9
ENDBRANCH   7   8
TORSDOF 4
ENDMDL
MODEL      214
REMARK 921   NORMALIZED FREE ENERGY PREDICTED BY IDOCK:   -1.40 KCAL/MOL
REMARK 922        TOTAL FREE ENERGY PREDICTED BY IDOCK:   -1.98 KCAL/MOL
REMARK 923 INTER-LIGAND FREE ENERGY PREDICTED BY IDOCK:   -1.55 KCAL/MOL
REMARK 924 INTRA-LIGAND FREE ENERGY PREDICTED BY IDOCK:   -0.42 KCAL/MOL
REMARK 927      BINDING AFFINITY PREDICTED BY RF-SCORE:    0.00 PKD
ROOT
HETATM    1  C   UNL     1      -8.795   8.016  65.756  1.00  0.00    -0.170 C  
HETATM    2  C   UNL     1      -9.129   8.096  67.224  1.00  0.00    -0.156 A  
HETATM    3  C   UNL     1     -10.404   8.563  67.595  1.00  0.00    -0.317 A  
HETATM    4  C   UNL     1     -10.773   8.659  68.939  1.00  0.00    -0.109 A  
HETATM    5  C   UNL     1      -9.869   8.294  69.923  1.00  0.00    -0.186 A  
HETATM    6  C   UNL     1      -8.600   7.837  69.570  1.00  0.00    -0.135 A  
HETATM    7  C   UNL     1      -8.210   7.729  68.225  1.00  0.00    -0.124 A  
ENDROOT
BRANCH   7   8
HETATM    8  O   UNL     1      -6.968   7.275  67.824  1.00  0.00    -0.071 OA 
BRANCH   8   9
HETATM    9  C   UNL     1      -6.681   5.920  68.190  1.00  0.00    -0.058 C  
BRANCH   9  10
HETATM   10  C   UNL     1      -6.685   4.951  67.007  1.00  0.00    -0.055 C  
HETATM   11  O   UNL     1      -8.049   4.609  66.704  1.00  0.00    -0.102 OA 
HETATM   12  H   UNL     1      -8.052   4.007  65.970  1.00  0.00     0.000 HD 
BRANCH  10  13
HETATM   13  C   UNL     1      -6.009   5.541  65.764  1.00  0.00    -0.025 C  
HETATM   14  O   UNL     1      -6.745   5.231  64.579  1.00  0.00    -0.045 OA 
HETATM   15  H   UNL     1      -6.326   5.596  63.809  1.00  0.00     0.000 HD 
ENDBRANCH  10  13
ENDBRANCH   9  10
ENDBRANCH   8   9
ENDBRANCH   7   8
TORSDOF 4
ENDMDL
MODEL      215
REMARK 921   NORMALIZED FREE ENERGY PREDICTED BY IDOCK:    1.47 KCAL/MOL
REMARK 922        TOTAL FREE ENERGY PREDICTED BY IDOCK:    1.57 KCAL/MOL
REMARK 923 INTER-LIGAND FREE ENERGY PREDICTED BY IDOCK:    1.75 KCAL/MOL
REMARK 924 INTRA-LIGAND FREE ENERGY PREDICTED BY IDOCK:   -0.18 KCAL/MOL
REMARK 927      BINDING AFFINITY PREDICTED BY RF-SCORE:    0.00 PKD
ROOT
HETATM    1  C   UNL     1     -10.924  13.885  73.043  1.00  0.00     4.647 C  
HETATM    2  C   UNL     1     -12.122  14.508  72.371  1.00  0.00    -0.186 A  
HETATM    3  C   UNL     1     -13.119  15.083  73.181  1.00  0.00    -0.619 A  
HETATM    4  C   UNL     1     -14.252  15.676  72.618  1.00  0.00    -0.394 A  
HETATM    5  C   UNL     1     -14.400  15.695  71.241  1.00  0.00    -0.035 A  
HETATM    6  C   UNL     1     -13.423  15.123  70.427  1.00  0.00     0.020 A  
HETATM    7  C   UNL     1     -12.274  14.525  70.972  1.00  0.00    -0.339 A  
ENDROOT
BRANCH   7   8
HETATM    8  O   UNL     1     -11.276  13.953  70.207  1.00  0.00    -0.030 OA 
BRANCH   8   9
HETATM    9  C   UNL     1     -11.733  13.312  69.011  1.00  0.00    -0.322 C  
BRANCH   9  10
HETATM   10  C   UNL     1     -10.665  12.458  68.326  1.00  0.00    -0.230 C  
HETATM   11  O   UNL     1      -9.412  13.162  68.384  1.00  0.00    -0.244 OA 
HETATM   12  H   UNL     1      -8.750  12.632  67.958  1.00  0.00     0.000 HD 
BRANCH  10  13
HETATM   13  C   UNL     1     -10.515  11.077  68.975  1.00  0.00    -0.216 C  
HETATM   14  O   UNL     1     -10.983  10.044  68.105  1.00  0.00    -0.307 OA 
HETATM   15  H   UNL     1     -10.890   9.188  68.508  1.00  0.00     0.000 HD 
ENDBRANCH  10  13
ENDBRANCH   9  10
ENDBRANCH   8   9
ENDBRANCH   7   8
TORSDOF 4
ENDMDL
