MODEL        1
REMARK 921   NORMALIZED FREE ENERGY PREDICTED BY IDOCK:   -4.74 KCAL/MOL
REMARK 922        TOTAL FREE ENERGY PREDICTED BY IDOCK:   -5.03 KCAL/MOL
REMARK 923 INTER-LIGAND FREE ENERGY PREDICTED BY IDOCK:   -5.02 KCAL/MOL
REMARK 924 INTRA-LIGAND FREE ENERGY PREDICTED BY IDOCK:   -0.01 KCAL/MOL
REMARK 927      BINDING AFFINITY PREDICTED BY RF-SCORE:    0.00 PKD
ROOT
HETATM    1  C   UNL     1      -9.652  14.771  66.320  1.00  0.00    -0.312 C  
HETATM    2  N   UNL     1     -10.751  15.256  67.146  1.00  0.00    -0.310 NA 
HETATM    3  C   UNL     1     -10.706  14.888  68.584  1.00  0.00    -0.250 C  
HETATM    4  H   UNL     1     -11.509  15.818  66.758  1.00  0.00     0.000 HD 
HETATM    5  C   UNL     1     -11.951  15.582  69.253  1.00  0.00    -0.338 C  
HETATM    6  C   UNL     1      -9.392  15.392  69.218  1.00  0.00    -0.254 C  
HETATM    7  C   UNL     1     -10.801  13.357  68.755  1.00  0.00    -0.275 C  
ENDROOT
BRANCH   5   8
HETATM    8  C   UNL     1     -12.175  15.258  70.719  1.00  0.00    -0.411 A  
HETATM    9  C   UNL     1     -12.926  14.138  71.097  1.00  0.00    -0.419 A  
HETATM   10  C   UNL     1     -13.314  13.953  72.423  1.00  0.00    -0.629 A  
HETATM   11  C   UNL     1     -12.892  14.848  73.403  1.00  0.00    -0.638 A  
HETATM   12  C   UNL     1     -12.055  15.908  73.055  1.00  0.00    -0.615 A  
HETATM   13  C   UNL     1     -11.699  16.115  71.722  1.00  0.00    -0.568 A  
ENDBRANCH   5   8
TORSDOF 1
ENDMDL
MODEL        2
REMARK 921   NORMALIZED FREE ENERGY PREDICTED BY IDOCK:   -4.56 KCAL/MOL
REMARK 922        TOTAL FREE ENERGY PREDICTED BY IDOCK:   -4.84 KCAL/MOL
REMARK 923 INTER-LIGAND FREE ENERGY PREDICTED BY IDOCK:   -4.97 KCAL/MOL
REMARK 924 INTRA-LIGAND FREE ENERGY PREDICTED BY IDOCK:    0.13 KCAL/MOL
REMARK 927      BINDING AFFINITY PREDICTED BY RF-SCORE:    0.00 PKD
ROOT
HETATM    1  C   UNL     1     -10.935  13.005  64.165  1.00  0.00    -0.408 C  
HETATM    2  N   UNL     1     -10.029  14.024  64.679  1.00  0.00    -0.649 NA 
HETATM    3  C   UNL     1     -10.652  15.133  65.444  1.00  0.00    -0.391 C  
HETATM    4  H   UNL     1      -9.021  13.979  64.522  1.00  0.00     0.000 HD 
HETATM    5  C   UNL     1      -9.466  16.045  65.938  1.00  0.00    -0.351 C  
HETATM    6  C   UNL     1     -11.443  14.569  66.644  1.00  0.00    -0.373 C  
HETATM    7  C   UNL     1     -11.603  15.948  64.543  1.00  0.00    -0.232 C  
ENDROOT
BRANCH   5   8
HETATM    8  C   UNL     1      -9.873  17.315  66.663  1.00  0.00    -0.299 A  
HETATM    9  C   UNL     1     -10.464  18.377  65.967  1.00  0.00    -0.400 A  
HETATM   10  C   UNL     1     -10.644  19.619  66.576  1.00  0.00    -0.591 A  
HETATM   11  C   UNL     1     -10.301  19.793  67.914  1.00  0.00    -0.569 A  
HETATM   12  C   UNL     1      -9.811  18.713  68.648  1.00  0.00    -0.427 A  
HETATM   13  C   UNL     1      -9.594  17.482  68.027  1.00  0.00    -0.282 A  
ENDBRANCH   5   8
TORSDOF 1
ENDMDL
MODEL        3
REMARK 921   NORMALIZED FREE ENERGY PREDICTED BY IDOCK:   -4.52 KCAL/MOL
REMARK 922        TOTAL FREE ENERGY PREDICTED BY IDOCK:   -4.80 KCAL/MOL
REMARK 923 INTER-LIGAND FREE ENERGY PREDICTED BY IDOCK:   -4.80 KCAL/MOL
REMARK 924 INTRA-LIGAND FREE ENERGY PREDICTED BY IDOCK:    0.00 KCAL/MOL
REMARK 927      BINDING AFFINITY PREDICTED BY RF-SCORE:    0.00 PKD
ROOT
HETATM    1  C   UNL     1     -11.243  16.128  69.655  1.00  0.00    -0.331 C  
HETATM    2  N   UNL     1     -12.047  15.240  68.825  1.00  0.00    -0.582 NA 
HETATM    3  C   UNL     1     -11.330  14.520  67.744  1.00  0.00    -0.317 C  
HETATM    4  H   UNL     1     -13.049  15.120  68.979  1.00  0.00     0.000 HD 
HETATM    5  C   UNL     1     -12.398  13.591  67.052  1.00  0.00    -0.260 C  
HETATM    6  C   UNL     1     -10.180  13.680  68.341  1.00  0.00    -0.245 C  
HETATM    7  C   UNL     1     -10.754  15.516  66.717  1.00  0.00    -0.305 C  
ENDROOT
BRANCH   5   8
HETATM    8  C   UNL     1     -11.912  12.827  65.835  1.00  0.00    -0.506 A  
HETATM    9  C   UNL     1     -11.034  11.744  65.973  1.00  0.00    -0.355 A  
HETATM   10  C   UNL     1     -10.420  11.176  64.858  1.00  0.00    -0.372 A  
HETATM   11  C   UNL     1     -10.733  11.634  63.582  1.00  0.00    -0.500 A  
HETATM   12  C   UNL     1     -11.687  12.640  63.424  1.00  0.00    -0.571 A  
HETATM   13  C   UNL     1     -12.272  13.236  64.542  1.00  0.00    -0.456 A  
ENDBRANCH   5   8
TORSDOF 1
ENDMDL
MODEL        4
REMARK 921   NORMALIZED FREE ENERGY PREDICTED BY IDOCK:   -4.52 KCAL/MOL
REMARK 922        TOTAL FREE ENERGY PREDICTED BY IDOCK:   -4.79 KCAL/MOL
REMARK 923 INTER-LIGAND FREE ENERGY PREDICTED BY IDOCK:   -4.77 KCAL/MOL
REMARK 924 INTRA-LIGAND FREE ENERGY PREDICTED BY IDOCK:   -0.02 KCAL/MOL
REMARK 927      BINDING AFFINITY PREDICTED BY RF-SCORE:    0.00 PKD
ROOT
HETATM    1  C   UNL     1     -11.361  16.076  69.841  1.00  0.00    -0.340 C  
HETATM    2  N   UNL     1     -12.114  15.208  68.945  1.00  0.00    -0.572 NA 
HETATM    3  C   UNL     1     -11.355  14.607  67.819  1.00  0.00    -0.322 C  
HETATM    4  H   UNL     1     -13.108  15.022  69.083  1.00  0.00     0.000 HD 
HETATM    5  C   UNL     1     -12.368  13.673  67.056  1.00  0.00    -0.277 C  
HETATM    6  C   UNL     1     -10.162  13.790  68.362  1.00  0.00    -0.248 C  
HETATM    7  C   UNL     1     -10.833  15.704  66.870  1.00  0.00    -0.282 C  
ENDROOT
BRANCH   5   8
HETATM    8  C   UNL     1     -11.839  13.025  65.790  1.00  0.00    -0.453 A  
HETATM    9  C   UNL     1     -12.251  13.477  64.530  1.00  0.00    -0.445 A  
HETATM   10  C   UNL     1     -11.940  12.757  63.377  1.00  0.00    -0.613 A  
HETATM   11  C   UNL     1     -11.149  11.615  63.462  1.00  0.00    -0.476 A  
HETATM   12  C   UNL     1     -10.643  11.215  64.699  1.00  0.00    -0.386 A  
HETATM   13  C   UNL     1     -10.988  11.913  65.858  1.00  0.00    -0.354 A  
ENDBRANCH   5   8
TORSDOF 1
ENDMDL
MODEL        5
REMARK 921   NORMALIZED FREE ENERGY PREDICTED BY IDOCK:   -4.48 KCAL/MOL
REMARK 922        TOTAL FREE ENERGY PREDICTED BY IDOCK:   -4.76 KCAL/MOL
REMARK 923 INTER-LIGAND FREE ENERGY PREDICTED BY IDOCK:   -4.79 KCAL/MOL
REMARK 924 INTRA-LIGAND FREE ENERGY PREDICTED BY IDOCK:    0.04 KCAL/MOL
REMARK 927      BINDING AFFINITY PREDICTED BY RF-SCORE:    0.00 PKD
ROOT
HETATM    1  C   UNL     1     -11.189  12.723  63.859  1.00  0.00    -0.440 C  
HETATM    2  N   UNL     1     -10.274  13.730  64.383  1.00  0.00    -0.729 NA 
HETATM    3  C   UNL     1     -10.887  14.830  65.170  1.00  0.00    -0.404 C  
HETATM    4  H   UNL     1      -9.268  13.682  64.218  1.00  0.00     0.000 HD 
HETATM    5  C   UNL     1      -9.694  15.729  65.669  1.00  0.00    -0.332 C  
HETATM    6  C   UNL     1     -11.673  14.250  66.366  1.00  0.00    -0.403 C  
HETATM    7  C   UNL     1     -11.841  15.662  64.288  1.00  0.00    -0.151 C  
ENDROOT
BRANCH   5   8
HETATM    8  C   UNL     1     -10.090  16.989  66.416  1.00  0.00    -0.325 A  
HETATM    9  C   UNL     1     -10.498  18.134  65.720  1.00  0.00    -0.215 A  
HETATM   10  C   UNL     1     -10.656  19.353  66.379  1.00  0.00    -0.558 A  
HETATM   11  C   UNL     1     -10.480  19.425  67.758  1.00  0.00    -0.556 A  
HETATM   12  C   UNL     1     -10.178  18.269  68.477  1.00  0.00    -0.402 A  
HETATM   13  C   UNL     1      -9.980  17.059  67.812  1.00  0.00    -0.280 A  
ENDBRANCH   5   8
TORSDOF 1
ENDMDL
MODEL        6
REMARK 921   NORMALIZED FREE ENERGY PREDICTED BY IDOCK:   -4.44 KCAL/MOL
REMARK 922        TOTAL FREE ENERGY PREDICTED BY IDOCK:   -4.71 KCAL/MOL
REMARK 923 INTER-LIGAND FREE ENERGY PREDICTED BY IDOCK:   -4.68 KCAL/MOL
REMARK 924 INTRA-LIGAND FREE ENERGY PREDICTED BY IDOCK:   -0.03 KCAL/MOL
REMARK 927      BINDING AFFINITY PREDICTED BY RF-SCORE:    0.00 PKD
ROOT
HETATM    1  C   UNL     1     -12.369  11.851  63.335  1.00  0.00    -0.462 C  
HETATM    2  N   UNL     1     -12.821  12.735  64.402  1.00  0.00    -0.735 NA 
HETATM    3  C   UNL     1     -11.809  13.107  65.423  1.00  0.00    -0.372 C  
HETATM    4  H   UNL     1     -13.781  13.079  64.446  1.00  0.00     0.000 HD 
HETATM    5  C   UNL     1     -12.526  14.107  66.406  1.00  0.00    -0.353 C  
HETATM    6  C   UNL     1     -10.597  13.782  64.744  1.00  0.00    -0.444 C  
HETATM    7  C   UNL     1     -11.332  11.859  66.194  1.00  0.00    -0.383 C  
ENDROOT
BRANCH   5   8
HETATM    8  C   UNL     1     -11.708  14.546  67.607  1.00  0.00    -0.410 A  
HETATM    9  C   UNL     1     -11.937  13.988  68.871  1.00  0.00    -0.387 A  
HETATM   10  C   UNL     1     -11.344  14.533  70.010  1.00  0.00    -0.274 A  
HETATM   11  C   UNL     1     -10.455  15.597  69.890  1.00  0.00    -0.327 A  
HETATM   12  C   UNL     1     -10.137  16.092  68.626  1.00  0.00    -0.231 A  
HETATM   13  C   UNL     1     -10.760  15.573  67.490  1.00  0.00    -0.300 A  
ENDBRANCH   5   8
TORSDOF 1
ENDMDL
MODEL        7
REMARK 921   NORMALIZED FREE ENERGY PREDICTED BY IDOCK:   -4.39 KCAL/MOL
REMARK 922        TOTAL FREE ENERGY PREDICTED BY IDOCK:   -4.66 KCAL/MOL
REMARK 923 INTER-LIGAND FREE ENERGY PREDICTED BY IDOCK:   -4.65 KCAL/MOL
REMARK 924 INTRA-LIGAND FREE ENERGY PREDICTED BY IDOCK:   -0.01 KCAL/MOL
REMARK 927      BINDING AFFINITY PREDICTED BY RF-SCORE:    0.00 PKD
ROOT
HETATM    1  C   UNL     1      -9.789  12.969  65.931  1.00  0.00    -0.237 C  
HETATM    2  N   UNL     1      -9.812  13.577  67.256  1.00  0.00    -0.233 NA 
HETATM    3  C   UNL     1     -11.077  13.443  68.020  1.00  0.00    -0.255 C  
HETATM    4  H   UNL     1      -9.002  14.068  67.637  1.00  0.00     0.000 HD 
HETATM    5  C   UNL     1     -10.816  14.115  69.420  1.00  0.00    -0.169 C  
HETATM    6  C   UNL     1     -11.438  11.951  68.189  1.00  0.00    -0.384 C  
HETATM    7  C   UNL     1     -12.229  14.168  67.294  1.00  0.00    -0.314 C  
ENDROOT
BRANCH   5   8
HETATM    8  C   UNL     1     -12.017  14.193  70.345  1.00  0.00    -0.400 A  
HETATM    9  C   UNL     1     -12.636  15.421  70.611  1.00  0.00    -0.491 A  
HETATM   10  C   UNL     1     -13.596  15.534  71.616  1.00  0.00    -0.575 A  
HETATM   11  C   UNL     1     -14.004  14.403  72.319  1.00  0.00    -0.610 A  
HETATM   12  C   UNL     1     -13.472  13.156  71.990  1.00  0.00    -0.598 A  
HETATM   13  C   UNL     1     -12.483  13.050  71.011  1.00  0.00    -0.385 A  
ENDBRANCH   5   8
TORSDOF 1
ENDMDL
MODEL        8
REMARK 921   NORMALIZED FREE ENERGY PREDICTED BY IDOCK:   -4.39 KCAL/MOL
REMARK 922        TOTAL FREE ENERGY PREDICTED BY IDOCK:   -4.65 KCAL/MOL
REMARK 923 INTER-LIGAND FREE ENERGY PREDICTED BY IDOCK:   -4.68 KCAL/MOL
REMARK 924 INTRA-LIGAND FREE ENERGY PREDICTED BY IDOCK:    0.02 KCAL/MOL
REMARK 927      BINDING AFFINITY PREDICTED BY RF-SCORE:    0.00 PKD
ROOT
HETATM    1  C   UNL     1      -9.520  13.675  66.851  1.00  0.00    -0.262 C  
HETATM    2  N   UNL     1     -10.198  13.259  68.073  1.00  0.00    -0.234 NA 
HETATM    3  C   UNL     1     -10.864  14.332  68.853  1.00  0.00    -0.257 C  
HETATM    4  H   UNL     1     -10.214  12.285  68.375  1.00  0.00     0.000 HD 
HETATM    5  C   UNL     1     -11.568  13.618  70.068  1.00  0.00    -0.250 C  
HETATM    6  C   UNL     1     -11.902  15.061  67.972  1.00  0.00    -0.266 C  
HETATM    7  C   UNL     1      -9.828  15.351  69.369  1.00  0.00    -0.273 C  
ENDROOT
BRANCH   5   8
HETATM    8  C   UNL     1     -12.233  14.538  71.075  1.00  0.00    -0.407 A  
HETATM    9  C   UNL     1     -11.481  15.164  72.077  1.00  0.00    -0.450 A  
HETATM   10  C   UNL     1     -12.108  15.834  73.127  1.00  0.00    -0.603 A  
HETATM   11  C   UNL     1     -13.495  15.951  73.148  1.00  0.00    -0.650 A  
HETATM   12  C   UNL     1     -14.248  15.424  72.099  1.00  0.00    -0.660 A  
HETATM   13  C   UNL     1     -13.624  14.719  71.070  1.00  0.00    -0.364 A  
ENDBRANCH   5   8
TORSDOF 1
ENDMDL
MODEL        9
REMARK 921   NORMALIZED FREE ENERGY PREDICTED BY IDOCK:   -4.37 KCAL/MOL
REMARK 922        TOTAL FREE ENERGY PREDICTED BY IDOCK:   -4.64 KCAL/MOL
REMARK 923 INTER-LIGAND FREE ENERGY PREDICTED BY IDOCK:   -4.60 KCAL/MOL
REMARK 924 INTRA-LIGAND FREE ENERGY PREDICTED BY IDOCK:   -0.04 KCAL/MOL
REMARK 927      BINDING AFFINITY PREDICTED BY RF-SCORE:    0.00 PKD
ROOT
HETATM    1  C   UNL     1      -9.438  15.391  66.077  1.00  0.00    -0.346 C  
HETATM    2  N   UNL     1      -9.452  15.014  67.485  1.00  0.00    -0.202 NA 
HETATM    3  C   UNL     1     -10.712  15.277  68.224  1.00  0.00    -0.254 C  
HETATM    4  H   UNL     1      -8.640  14.592  67.938  1.00  0.00     0.000 HD 
HETATM    5  C   UNL     1     -10.488  14.724  69.682  1.00  0.00    -0.130 C  
HETATM    6  C   UNL     1     -11.889  14.551  67.538  1.00  0.00    -0.404 C  
HETATM    7  C   UNL     1     -11.005  16.791  68.274  1.00  0.00    -0.327 C  
ENDROOT
BRANCH   5   8
HETATM    8  C   UNL     1     -11.619  14.979  70.661  1.00  0.00    -0.358 A  
HETATM    9  C   UNL     1     -11.560  16.055  71.557  1.00  0.00    -0.529 A  
HETATM   10  C   UNL     1     -12.483  16.172  72.595  1.00  0.00    -0.535 A  
HETATM   11  C   UNL     1     -13.524  15.254  72.707  1.00  0.00    -0.619 A  
HETATM   12  C   UNL     1     -13.655  14.240  71.758  1.00  0.00    -0.479 A  
HETATM   13  C   UNL     1     -12.708  14.100  70.743  1.00  0.00    -0.414 A  
ENDBRANCH   5   8
TORSDOF 1
ENDMDL
MODEL       10
REMARK 921   NORMALIZED FREE ENERGY PREDICTED BY IDOCK:   -4.34 KCAL/MOL
REMARK 922        TOTAL FREE ENERGY PREDICTED BY IDOCK:   -4.60 KCAL/MOL
REMARK 923 INTER-LIGAND FREE ENERGY PREDICTED BY IDOCK:   -4.63 KCAL/MOL
REMARK 924 INTRA-LIGAND FREE ENERGY PREDICTED BY IDOCK:    0.03 KCAL/MOL
REMARK 927      BINDING AFFINITY PREDICTED BY RF-SCORE:    0.00 PKD
ROOT
HETATM    1  C   UNL     1     -10.451  12.689  64.017  1.00  0.00    -0.416 C  
HETATM    2  N   UNL     1     -10.144  13.350  65.280  1.00  0.00    -0.464 NA 
HETATM    3  C   UNL     1     -11.156  13.212  66.357  1.00  0.00    -0.289 C  
HETATM    4  H   UNL     1      -9.282  13.879  65.416  1.00  0.00     0.000 HD 
HETATM    5  C   UNL     1     -10.560  13.948  67.615  1.00  0.00    -0.247 C  
HETATM    6  C   UNL     1     -11.402  11.719  66.663  1.00  0.00    -0.381 C  
HETATM    7  C   UNL     1     -12.486  13.873  65.941  1.00  0.00    -0.519 C  
ENDROOT
BRANCH   5   8
HETATM    8  C   UNL     1     -11.475  14.030  68.823  1.00  0.00    -0.327 A  
HETATM    9  C   UNL     1     -11.956  15.265  69.274  1.00  0.00    -0.327 A  
HETATM   10  C   UNL     1     -12.616  15.372  70.497  1.00  0.00    -0.471 A  
HETATM   11  C   UNL     1     -12.870  14.230  71.252  1.00  0.00    -0.422 A  
HETATM   12  C   UNL     1     -12.491  12.980  70.763  1.00  0.00    -0.384 A  
HETATM   13  C   UNL     1     -11.795  12.879  69.558  1.00  0.00    -0.383 A  
ENDBRANCH   5   8
TORSDOF 1
ENDMDL
MODEL       11
REMARK 921   NORMALIZED FREE ENERGY PREDICTED BY IDOCK:   -4.33 KCAL/MOL
REMARK 922        TOTAL FREE ENERGY PREDICTED BY IDOCK:   -4.60 KCAL/MOL
REMARK 923 INTER-LIGAND FREE ENERGY PREDICTED BY IDOCK:   -4.58 KCAL/MOL
REMARK 924 INTRA-LIGAND FREE ENERGY PREDICTED BY IDOCK:   -0.01 KCAL/MOL
REMARK 927      BINDING AFFINITY PREDICTED BY RF-SCORE:    0.00 PKD
ROOT
HETATM    1  C   UNL     1      -8.573  20.168  67.425  1.00  0.00    -0.343 C  
HETATM    2  N   UNL     1      -8.477  18.789  66.965  1.00  0.00    -0.274 NA 
HETATM    3  C   UNL     1      -9.760  18.080  66.735  1.00  0.00    -0.323 C  
HETATM    4  H   UNL     1      -7.576  18.335  66.808  1.00  0.00     0.000 HD 
HETATM    5  C   UNL     1      -9.381  16.653  66.186  1.00  0.00    -0.318 C  
HETATM    6  C   UNL     1     -10.615  18.852  65.707  1.00  0.00    -0.358 C  
HETATM    7  C   UNL     1     -10.548  17.944  68.055  1.00  0.00    -0.366 C  
ENDROOT
BRANCH   5   8
HETATM    8  C   UNL     1     -10.543  15.700  65.975  1.00  0.00    -0.336 A  
HETATM    9  C   UNL     1     -10.994  14.881  67.018  1.00  0.00    -0.327 A  
HETATM   10  C   UNL     1     -11.911  13.858  66.778  1.00  0.00    -0.472 A  
HETATM   11  C   UNL     1     -12.447  13.690  65.504  1.00  0.00    -0.544 A  
HETATM   12  C   UNL     1     -12.087  14.568  64.482  1.00  0.00    -0.501 A  
HETATM   13  C   UNL     1     -11.139  15.566  64.713  1.00  0.00    -0.421 A  
ENDBRANCH   5   8
TORSDOF 1
ENDMDL
MODEL       12
REMARK 921   NORMALIZED FREE ENERGY PREDICTED BY IDOCK:   -4.32 KCAL/MOL
REMARK 922        TOTAL FREE ENERGY PREDICTED BY IDOCK:   -4.59 KCAL/MOL
REMARK 923 INTER-LIGAND FREE ENERGY PREDICTED BY IDOCK:   -4.55 KCAL/MOL
REMARK 924 INTRA-LIGAND FREE ENERGY PREDICTED BY IDOCK:   -0.04 KCAL/MOL
REMARK 927      BINDING AFFINITY PREDICTED BY RF-SCORE:    0.00 PKD
ROOT
HETATM    1  C   UNL     1      -9.592   9.540  70.446  1.00  0.00    -0.269 C  
HETATM    2  N   UNL     1      -9.335  10.469  69.352  1.00  0.00    -0.363 NA 
HETATM    3  C   UNL     1     -10.395  10.579  68.319  1.00  0.00    -0.168 C  
HETATM    4  H   UNL     1      -8.473  11.013  69.299  1.00  0.00     0.000 HD 
HETATM    5  C   UNL     1      -9.906  11.680  67.305  1.00  0.00    -0.203 C  
HETATM    6  C   UNL     1     -11.730  10.993  68.974  1.00  0.00    -0.402 C  
HETATM    7  C   UNL     1     -10.581   9.234  67.587  1.00  0.00    -0.324 C  
ENDROOT
BRANCH   5   8
HETATM    8  C   UNL     1     -10.789  11.893  66.090  1.00  0.00    -0.334 A  
HETATM    9  C   UNL     1     -10.454  11.326  64.854  1.00  0.00    -0.375 A  
HETATM   10  C   UNL     1     -11.137  11.689  63.693  1.00  0.00    -0.506 A  
HETATM   11  C   UNL     1     -12.214  12.568  63.765  1.00  0.00    -0.615 A  
HETATM   12  C   UNL     1     -12.625  13.056  65.005  1.00  0.00    -0.515 A  
HETATM   13  C   UNL     1     -11.917  12.724  66.161  1.00  0.00    -0.476 A  
ENDBRANCH   5   8
TORSDOF 1
ENDMDL
MODEL       13
REMARK 921   NORMALIZED FREE ENERGY PREDICTED BY IDOCK:   -4.31 KCAL/MOL
REMARK 922        TOTAL FREE ENERGY PREDICTED BY IDOCK:   -4.58 KCAL/MOL
REMARK 923 INTER-LIGAND FREE ENERGY PREDICTED BY IDOCK:   -4.67 KCAL/MOL
REMARK 924 INTRA-LIGAND FREE ENERGY PREDICTED BY IDOCK:    0.09 KCAL/MOL
REMARK 927      BINDING AFFINITY PREDICTED BY RF-SCORE:    0.00 PKD
ROOT
HETATM    1  C   UNL     1     -10.516  12.729  66.067  1.00  0.00    -0.274 C  
HETATM    2  N   UNL     1     -10.943  13.859  66.882  1.00  0.00    -0.293 NA 
HETATM    3  C   UNL     1     -10.323  15.170  66.566  1.00  0.00    -0.282 C  
HETATM    4  H   UNL     1     -11.630  13.756  67.629  1.00  0.00     0.000 HD 
HETATM    5  C   UNL     1     -10.996  16.218  67.530  1.00  0.00    -0.207 C  
HETATM    6  C   UNL     1     -10.587  15.538  65.090  1.00  0.00    -0.455 C  
HETATM    7  C   UNL     1      -8.801  15.126  66.817  1.00  0.00    -0.302 C  
ENDROOT
BRANCH   5   8
HETATM    8  C   UNL     1     -10.439  17.627  67.461  1.00  0.00    -0.365 A  
HETATM    9  C   UNL     1      -9.899  18.240  68.600  1.00  0.00    -0.400 A  
HETATM   10  C   UNL     1      -9.584  19.598  68.598  1.00  0.00    -0.457 A  
HETATM   11  C   UNL     1      -9.734  20.346  67.434  1.00  0.00    -0.597 A  
HETATM   12  C   UNL     1     -10.169  19.723  66.264  1.00  0.00    -0.615 A  
HETATM   13  C   UNL     1     -10.523  18.373  66.276  1.00  0.00    -0.421 A  
ENDBRANCH   5   8
TORSDOF 1
ENDMDL
MODEL       14
REMARK 921   NORMALIZED FREE ENERGY PREDICTED BY IDOCK:   -4.31 KCAL/MOL
REMARK 922        TOTAL FREE ENERGY PREDICTED BY IDOCK:   -4.57 KCAL/MOL
REMARK 923 INTER-LIGAND FREE ENERGY PREDICTED BY IDOCK:   -4.59 KCAL/MOL
REMARK 924 INTRA-LIGAND FREE ENERGY PREDICTED BY IDOCK:    0.02 KCAL/MOL
REMARK 927      BINDING AFFINITY PREDICTED BY RF-SCORE:    0.00 PKD
ROOT
HETATM    1  C   UNL     1     -10.895  11.416  66.674  1.00  0.00    -0.289 C  
HETATM    2  N   UNL     1     -11.707  12.469  67.271  1.00  0.00    -0.398 NA 
HETATM    3  C   UNL     1     -11.400  12.817  68.681  1.00  0.00    -0.294 C  
HETATM    4  H   UNL     1     -12.446  12.941  66.749  1.00  0.00     0.000 HD 
HETATM    5  C   UNL     1     -12.358  14.009  69.057  1.00  0.00    -0.139 C  
HETATM    6  C   UNL     1      -9.921  13.242  68.811  1.00  0.00    -0.051 C  
HETATM    7  C   UNL     1     -11.668  11.613  69.608  1.00  0.00    -0.418 C  
ENDROOT
BRANCH   5   8
HETATM    8  C   UNL     1     -12.297  14.470  70.501  1.00  0.00    -0.403 A  
HETATM    9  C   UNL     1     -13.019  13.800  71.497  1.00  0.00    -0.444 A  
HETATM   10  C   UNL     1     -13.139  14.338  72.777  1.00  0.00    -0.589 A  
HETATM   11  C   UNL     1     -12.476  15.519  73.101  1.00  0.00    -0.576 A  
HETATM   12  C   UNL     1     -11.667  16.139  72.149  1.00  0.00    -0.569 A  
HETATM   13  C   UNL     1     -11.579  15.621  70.856  1.00  0.00    -0.424 A  
ENDBRANCH   5   8
TORSDOF 1
ENDMDL
MODEL       15
REMARK 921   NORMALIZED FREE ENERGY PREDICTED BY IDOCK:   -4.28 KCAL/MOL
REMARK 922        TOTAL FREE ENERGY PREDICTED BY IDOCK:   -4.54 KCAL/MOL
REMARK 923 INTER-LIGAND FREE ENERGY PREDICTED BY IDOCK:   -4.54 KCAL/MOL
REMARK 924 INTRA-LIGAND FREE ENERGY PREDICTED BY IDOCK:    0.00 KCAL/MOL
REMARK 927      BINDING AFFINITY PREDICTED BY RF-SCORE:    0.00 PKD
ROOT
HETATM    1  C   UNL     1      -9.565  19.057  66.605  1.00  0.00    -0.340 C  
HETATM    2  N   UNL     1     -10.285  18.102  65.772  1.00  0.00    -0.597 NA 
HETATM    3  C   UNL     1     -10.267  16.688  66.224  1.00  0.00    -0.334 C  
HETATM    4  H   UNL     1     -10.775  18.389  64.924  1.00  0.00     0.000 HD 
HETATM    5  C   UNL     1     -11.160  15.889  65.202  1.00  0.00    -0.319 C  
HETATM    6  C   UNL     1     -10.843  16.583  67.653  1.00  0.00    -0.269 C  
HETATM    7  C   UNL     1      -8.827  16.133  66.211  1.00  0.00    -0.371 C  
ENDROOT
BRANCH   5   8
HETATM    8  C   UNL     1     -11.205  14.386  65.405  1.00  0.00    -0.335 A  
HETATM    9  C   UNL     1     -11.905  13.830  66.483  1.00  0.00    -0.438 A  
HETATM   10  C   UNL     1     -11.775  12.478  66.798  1.00  0.00    -0.453 A  
HETATM   11  C   UNL     1     -11.002  11.647  65.992  1.00  0.00    -0.338 A  
HETATM   12  C   UNL     1     -10.386  12.167  64.854  1.00  0.00    -0.321 A  
HETATM   13  C   UNL     1     -10.483  13.528  64.562  1.00  0.00    -0.426 A  
ENDBRANCH   5   8
TORSDOF 1
ENDMDL
MODEL       16
REMARK 921   NORMALIZED FREE ENERGY PREDICTED BY IDOCK:   -4.22 KCAL/MOL
REMARK 922        TOTAL FREE ENERGY PREDICTED BY IDOCK:   -4.48 KCAL/MOL
REMARK 923 INTER-LIGAND FREE ENERGY PREDICTED BY IDOCK:   -4.48 KCAL/MOL
REMARK 924 INTRA-LIGAND FREE ENERGY PREDICTED BY IDOCK:    0.01 KCAL/MOL
REMARK 927      BINDING AFFINITY PREDICTED BY RF-SCORE:    0.00 PKD
ROOT
HETATM    1  C   UNL     1     -12.613  12.287  63.358  1.00  0.00    -0.427 C  
HETATM    2  N   UNL     1     -12.210  13.657  63.650  1.00  0.00    -0.857 NA 
HETATM    3  C   UNL     1     -11.402  13.858  64.878  1.00  0.00    -0.347 C  
HETATM    4  H   UNL     1     -12.470  14.436  63.043  1.00  0.00     0.000 HD 
HETATM    5  C   UNL     1     -11.047  15.392  64.924  1.00  0.00    -0.435 C  
HETATM    6  C   UNL     1     -10.118  13.002  64.812  1.00  0.00    -0.239 C  
HETATM    7  C   UNL     1     -12.212  13.467  66.131  1.00  0.00    -0.484 C  
ENDROOT
BRANCH   5   8
HETATM    8  C   UNL     1     -10.304  15.858  66.162  1.00  0.00    -0.341 A  
HETATM    9  C   UNL     1     -11.000  16.189  67.331  1.00  0.00    -0.210 A  
HETATM   10  C   UNL     1     -10.352  16.816  68.395  1.00  0.00    -0.319 A  
HETATM   11  C   UNL     1      -8.982  17.053  68.333  1.00  0.00    -0.247 A  
HETATM   12  C   UNL     1      -8.258  16.632  67.218  1.00  0.00    -0.197 A  
HETATM   13  C   UNL     1      -8.913  16.040  66.137  1.00  0.00    -0.381 A  
ENDBRANCH   5   8
TORSDOF 1
ENDMDL
MODEL       17
REMARK 921   NORMALIZED FREE ENERGY PREDICTED BY IDOCK:   -4.20 KCAL/MOL
REMARK 922        TOTAL FREE ENERGY PREDICTED BY IDOCK:   -4.46 KCAL/MOL
REMARK 923 INTER-LIGAND FREE ENERGY PREDICTED BY IDOCK:   -4.47 KCAL/MOL
REMARK 924 INTRA-LIGAND FREE ENERGY PREDICTED BY IDOCK:    0.01 KCAL/MOL
REMARK 927      BINDING AFFINITY PREDICTED BY RF-SCORE:    0.00 PKD
ROOT
HETATM    1  C   UNL     1     -11.252  12.335  69.186  1.00  0.00    -0.242 C  
HETATM    2  N   UNL     1     -10.312  13.390  68.830  1.00  0.00    -0.411 NA 
HETATM    3  C   UNL     1     -10.895  14.730  68.570  1.00  0.00    -0.252 C  
HETATM    4  H   UNL     1      -9.309  13.218  68.763  1.00  0.00     0.000 HD 
HETATM    5  C   UNL     1      -9.680  15.688  68.279  1.00  0.00    -0.201 C  
HETATM    6  C   UNL     1     -11.686  15.212  69.806  1.00  0.00    -0.347 C  
HETATM    7  C   UNL     1     -11.836  14.686  67.348  1.00  0.00    -0.374 C  
ENDROOT
BRANCH   5   8
HETATM    8  C   UNL     1     -10.042  17.106  67.877  1.00  0.00    -0.308 A  
HETATM    9  C   UNL     1     -10.372  17.411  66.551  1.00  0.00    -0.312 A  
HETATM   10  C   UNL     1     -10.497  18.736  66.132  1.00  0.00    -0.499 A  
HETATM   11  C   UNL     1     -10.366  19.772  67.054  1.00  0.00    -0.593 A  
HETATM   12  C   UNL     1     -10.143  19.476  68.398  1.00  0.00    -0.546 A  
HETATM   13  C   UNL     1      -9.979  18.152  68.809  1.00  0.00    -0.389 A  
ENDBRANCH   5   8
TORSDOF 1
ENDMDL
MODEL       18
REMARK 921   NORMALIZED FREE ENERGY PREDICTED BY IDOCK:   -4.15 KCAL/MOL
REMARK 922        TOTAL FREE ENERGY PREDICTED BY IDOCK:   -4.41 KCAL/MOL
REMARK 923 INTER-LIGAND FREE ENERGY PREDICTED BY IDOCK:   -4.37 KCAL/MOL
REMARK 924 INTRA-LIGAND FREE ENERGY PREDICTED BY IDOCK:   -0.04 KCAL/MOL
REMARK 927      BINDING AFFINITY PREDICTED BY RF-SCORE:    0.00 PKD
ROOT
HETATM    1  C   UNL     1      -9.918   7.094  69.764  1.00  0.00    -0.178 C  
HETATM    2  N   UNL     1     -11.080   7.971  69.690  1.00  0.00    -0.442 NA 
HETATM    3  C   UNL     1     -10.927   9.319  70.293  1.00  0.00    -0.247 C  
HETATM    4  H   UNL     1     -11.951   7.675  69.249  1.00  0.00     0.000 HD 
HETATM    5  C   UNL     1     -12.281  10.077  70.022  1.00  0.00    -0.039 C  
HETATM    6  C   UNL     1      -9.744  10.061  69.634  1.00  0.00    -0.255 C  
HETATM    7  C   UNL     1     -10.679   9.209  71.811  1.00  0.00    -0.405 C  
ENDROOT
BRANCH   5   8
HETATM    8  C   UNL     1     -12.398  11.455  70.646  1.00  0.00    -0.466 A  
HETATM    9  C   UNL     1     -13.126  11.645  71.827  1.00  0.00    -0.487 A  
HETATM   10  C   UNL     1     -13.417  12.929  72.288  1.00  0.00    -0.631 A  
HETATM   11  C   UNL     1     -12.919  14.040  71.613  1.00  0.00    -0.430 A  
HETATM   12  C   UNL     1     -12.104  13.861  70.495  1.00  0.00    -0.426 A  
HETATM   13  C   UNL     1     -11.846  12.577  70.012  1.00  0.00    -0.363 A  
ENDBRANCH   5   8
TORSDOF 1
ENDMDL
MODEL       19
REMARK 921   NORMALIZED FREE ENERGY PREDICTED BY IDOCK:   -4.12 KCAL/MOL
REMARK 922        TOTAL FREE ENERGY PREDICTED BY IDOCK:   -4.37 KCAL/MOL
REMARK 923 INTER-LIGAND FREE ENERGY PREDICTED BY IDOCK:   -4.40 KCAL/MOL
REMARK 924 INTRA-LIGAND FREE ENERGY PREDICTED BY IDOCK:    0.03 KCAL/MOL
REMARK 927      BINDING AFFINITY PREDICTED BY RF-SCORE:    0.00 PKD
ROOT
HETATM    1  C   UNL     1     -11.730  12.538  69.384  1.00  0.00    -0.322 C  
HETATM    2  N   UNL     1     -10.669  13.492  69.083  1.00  0.00    -0.425 NA 
HETATM    3  C   UNL     1     -11.102  14.829  68.605  1.00  0.00    -0.262 C  
HETATM    4  H   UNL     1      -9.683  13.254  69.196  1.00  0.00     0.000 HD 
HETATM    5  C   UNL     1      -9.786  15.676  68.422  1.00  0.00    -0.206 C  
HETATM    6  C   UNL     1     -12.035  15.486  69.645  1.00  0.00    -0.380 C  
HETATM    7  C   UNL     1     -11.843  14.709  67.257  1.00  0.00    -0.375 C  
ENDROOT
BRANCH   5   8
HETATM    8  C   UNL     1      -9.974  17.061  67.832  1.00  0.00    -0.281 A  
HETATM    9  C   UNL     1     -10.070  18.185  68.664  1.00  0.00    -0.406 A  
HETATM   10  C   UNL     1     -10.453  19.423  68.150  1.00  0.00    -0.476 A  
HETATM   11  C   UNL     1     -10.674  19.571  66.783  1.00  0.00    -0.569 A  
HETATM   12  C   UNL     1     -10.478  18.485  65.930  1.00  0.00    -0.379 A  
HETATM   13  C   UNL     1     -10.133  17.236  66.450  1.00  0.00    -0.321 A  
ENDBRANCH   5   8
TORSDOF 1
ENDMDL
MODEL       20
REMARK 921   NORMALIZED FREE ENERGY PREDICTED BY IDOCK:   -4.12 KCAL/MOL
REMARK 922        TOTAL FREE ENERGY PREDICTED BY IDOCK:   -4.37 KCAL/MOL
REMARK 923 INTER-LIGAND FREE ENERGY PREDICTED BY IDOCK:   -4.35 KCAL/MOL
REMARK 924 INTRA-LIGAND FREE ENERGY PREDICTED BY IDOCK:   -0.02 KCAL/MOL
REMARK 927      BINDING AFFINITY PREDICTED BY RF-SCORE:    0.00 PKD
ROOT
HETATM    1  C   UNL     1     -12.652  12.643  63.324  1.00  0.00    -0.159 C  
HETATM    2  N   UNL     1     -12.192  13.995  63.618  1.00  0.00    -1.021 NA 
HETATM    3  C   UNL     1     -11.404  14.165  64.864  1.00  0.00    -0.365 C  
HETATM    4  H   UNL     1     -12.401  14.781  63.001  1.00  0.00     0.000 HD 
HETATM    5  C   UNL     1     -10.978  15.681  64.909  1.00  0.00    -0.447 C  
HETATM    6  C   UNL     1     -10.161  13.250  64.833  1.00  0.00    -0.313 C  
HETATM    7  C   UNL     1     -12.261  13.822  66.100  1.00  0.00    -0.499 C  
ENDROOT
BRANCH   5   8
HETATM    8  C   UNL     1     -10.243  16.120  66.162  1.00  0.00    -0.351 A  
HETATM    9  C   UNL     1      -8.857  15.955  66.272  1.00  0.00    -0.386 A  
HETATM   10  C   UNL     1      -8.208  16.155  67.490  1.00  0.00    -0.167 A  
HETATM   11  C   UNL     1      -8.927  16.595  68.598  1.00  0.00    -0.246 A  
HETATM   12  C   UNL     1     -10.290  16.865  68.473  1.00  0.00    -0.336 A  
HETATM   13  C   UNL     1     -10.946  16.627  67.265  1.00  0.00    -0.064 A  
ENDBRANCH   5   8
TORSDOF 1
ENDMDL
MODEL       21
REMARK 921   NORMALIZED FREE ENERGY PREDICTED BY IDOCK:   -4.09 KCAL/MOL
REMARK 922        TOTAL FREE ENERGY PREDICTED BY IDOCK:   -4.34 KCAL/MOL
REMARK 923 INTER-LIGAND FREE ENERGY PREDICTED BY IDOCK:   -4.33 KCAL/MOL
REMARK 924 INTRA-LIGAND FREE ENERGY PREDICTED BY IDOCK:   -0.01 KCAL/MOL
REMARK 927      BINDING AFFINITY PREDICTED BY RF-SCORE:    0.00 PKD
ROOT
HETATM    1  C   UNL     1     -10.247  10.215  69.930  1.00  0.00    -0.237 C  
HETATM    2  N   UNL     1     -11.047  11.398  69.636  1.00  0.00    -0.421 NA 
HETATM    3  C   UNL     1     -10.825  12.029  68.311  1.00  0.00    -0.229 C  
HETATM    4  H   UNL     1     -11.721  11.772  70.304  1.00  0.00     0.000 HD 
HETATM    5  C   UNL     1     -11.845  13.226  68.219  1.00  0.00    -0.389 C  
HETATM    6  C   UNL     1     -11.085  11.003  67.186  1.00  0.00    -0.333 C  
HETATM    7  C   UNL     1      -9.381  12.557  68.196  1.00  0.00    -0.210 C  
ENDROOT
BRANCH   5   8
HETATM    8  C   UNL     1     -11.730  14.093  66.980  1.00  0.00    -0.430 A  
HETATM    9  C   UNL     1     -12.399  13.746  65.799  1.00  0.00    -0.523 A  
HETATM   10  C   UNL     1     -12.131  14.412  64.604  1.00  0.00    -0.485 A  
HETATM   11  C   UNL     1     -11.245  15.486  64.589  1.00  0.00    -0.381 A  
HETATM   12  C   UNL     1     -10.653  15.909  65.779  1.00  0.00    -0.368 A  
HETATM   13  C   UNL     1     -10.891  15.217  66.968  1.00  0.00    -0.321 A  
ENDBRANCH   5   8
TORSDOF 1
ENDMDL
MODEL       22
REMARK 921   NORMALIZED FREE ENERGY PREDICTED BY IDOCK:   -4.08 KCAL/MOL
REMARK 922        TOTAL FREE ENERGY PREDICTED BY IDOCK:   -4.33 KCAL/MOL
REMARK 923 INTER-LIGAND FREE ENERGY PREDICTED BY IDOCK:   -4.32 KCAL/MOL
REMARK 924 INTRA-LIGAND FREE ENERGY PREDICTED BY IDOCK:   -0.02 KCAL/MOL
REMARK 927      BINDING AFFINITY PREDICTED BY RF-SCORE:    0.00 PKD
ROOT
HETATM    1  C   UNL     1      -9.567  12.610  66.862  1.00  0.00    -0.232 C  
HETATM    2  N   UNL     1      -9.230  13.890  66.251  1.00  0.00    -0.489 NA 
HETATM    3  C   UNL     1      -9.500  15.100  67.065  1.00  0.00    -0.226 C  
HETATM    4  H   UNL     1      -8.830  13.950  65.313  1.00  0.00     0.000 HD 
HETATM    5  C   UNL     1      -8.991  16.324  66.214  1.00  0.00    -0.366 C  
HETATM    6  C   UNL     1      -8.741  15.015  68.408  1.00  0.00    -0.175 C  
HETATM    7  C   UNL     1     -11.011  15.243  67.341  1.00  0.00    -0.321 C  
ENDROOT
BRANCH   5   8
HETATM    8  C   UNL     1      -9.262  17.694  66.808  1.00  0.00    -0.281 A  
HETATM    9  C   UNL     1      -8.411  18.232  67.782  1.00  0.00    -0.256 A  
HETATM   10  C   UNL     1      -8.766  19.385  68.482  1.00  0.00    -0.407 A  
HETATM   11  C   UNL     1      -9.942  20.058  68.163  1.00  0.00    -0.533 A  
HETATM   12  C   UNL     1     -10.744  19.592  67.122  1.00  0.00    -0.599 A  
HETATM   13  C   UNL     1     -10.409  18.416  66.449  1.00  0.00    -0.430 A  
ENDBRANCH   5   8
TORSDOF 1
ENDMDL
MODEL       23
REMARK 921   NORMALIZED FREE ENERGY PREDICTED BY IDOCK:   -4.05 KCAL/MOL
REMARK 922        TOTAL FREE ENERGY PREDICTED BY IDOCK:   -4.30 KCAL/MOL
REMARK 923 INTER-LIGAND FREE ENERGY PREDICTED BY IDOCK:   -4.32 KCAL/MOL
REMARK 924 INTRA-LIGAND FREE ENERGY PREDICTED BY IDOCK:    0.01 KCAL/MOL
REMARK 927      BINDING AFFINITY PREDICTED BY RF-SCORE:    0.00 PKD
ROOT
HETATM    1  C   UNL     1     -11.353   4.728  73.136  1.00  0.00    -0.295 C  
HETATM    2  N   UNL     1     -11.036   6.147  73.243  1.00  0.00    -0.448 NA 
HETATM    3  C   UNL     1     -11.303   6.973  72.039  1.00  0.00    -0.264 C  
HETATM    4  H   UNL     1     -10.652   6.551  74.097  1.00  0.00     0.000 HD 
HETATM    5  C   UNL     1     -10.945   8.455  72.435  1.00  0.00    -0.425 C  
HETATM    6  C   UNL     1     -12.791   6.859  71.638  1.00  0.00    -0.383 C  
HETATM    7  C   UNL     1     -10.421   6.515  70.859  1.00  0.00    -0.263 C  
ENDROOT
BRANCH   5   8
HETATM    8  C   UNL     1     -11.041   9.475  71.316  1.00  0.00    -0.449 A  
HETATM    9  C   UNL     1     -12.215  10.214  71.121  1.00  0.00    -0.490 A  
HETATM   10  C   UNL     1     -12.387  10.991  69.976  1.00  0.00    -0.377 A  
HETATM   11  C   UNL     1     -11.356  11.100  69.047  1.00  0.00    -0.343 A  
HETATM   12  C   UNL     1     -10.143  10.454  69.284  1.00  0.00    -0.248 A  
HETATM   13  C   UNL     1      -9.985   9.644  70.409  1.00  0.00    -0.330 A  
ENDBRANCH   5   8
TORSDOF 1
ENDMDL
MODEL       24
REMARK 921   NORMALIZED FREE ENERGY PREDICTED BY IDOCK:   -4.04 KCAL/MOL
REMARK 922        TOTAL FREE ENERGY PREDICTED BY IDOCK:   -4.29 KCAL/MOL
REMARK 923 INTER-LIGAND FREE ENERGY PREDICTED BY IDOCK:   -4.47 KCAL/MOL
REMARK 924 INTRA-LIGAND FREE ENERGY PREDICTED BY IDOCK:    0.18 KCAL/MOL
REMARK 927      BINDING AFFINITY PREDICTED BY RF-SCORE:    0.00 PKD
ROOT
HETATM    1  C   UNL     1     -11.058   4.305  73.384  1.00  0.00    -0.280 C  
HETATM    2  N   UNL     1     -12.010   5.293  72.892  1.00  0.00    -0.448 NA 
HETATM    3  C   UNL     1     -11.441   6.587  72.440  1.00  0.00    -0.271 C  
HETATM    4  H   UNL     1     -13.013   5.106  72.861  1.00  0.00     0.000 HD 
HETATM    5  C   UNL     1     -12.655   7.435  71.901  1.00  0.00    -0.322 C  
HETATM    6  C   UNL     1     -10.404   6.347  71.321  1.00  0.00    -0.244 C  
HETATM    7  C   UNL     1     -10.764   7.323  73.614  1.00  0.00    -0.282 C  
ENDROOT
BRANCH   5   8
HETATM    8  C   UNL     1     -12.327   8.855  71.477  1.00  0.00    -0.381 A  
HETATM    9  C   UNL     1     -13.053   9.939  71.986  1.00  0.00    -0.545 A  
HETATM   10  C   UNL     1     -12.904  11.215  71.445  1.00  0.00    -0.544 A  
HETATM   11  C   UNL     1     -11.970  11.439  70.437  1.00  0.00    -0.465 A  
HETATM   12  C   UNL     1     -11.165  10.389  69.996  1.00  0.00    -0.385 A  
HETATM   13  C   UNL     1     -11.343   9.103  70.509  1.00  0.00    -0.300 A  
ENDBRANCH   5   8
TORSDOF 1
ENDMDL
MODEL       25
REMARK 921   NORMALIZED FREE ENERGY PREDICTED BY IDOCK:   -4.03 KCAL/MOL
REMARK 922        TOTAL FREE ENERGY PREDICTED BY IDOCK:   -4.28 KCAL/MOL
REMARK 923 INTER-LIGAND FREE ENERGY PREDICTED BY IDOCK:   -4.29 KCAL/MOL
REMARK 924 INTRA-LIGAND FREE ENERGY PREDICTED BY IDOCK:    0.01 KCAL/MOL
REMARK 927      BINDING AFFINITY PREDICTED BY RF-SCORE:    0.00 PKD
ROOT
HETATM    1  C   UNL     1      -9.112  11.810  67.656  1.00  0.00    -0.177 C  
HETATM    2  N   UNL     1      -9.221  11.160  68.957  1.00  0.00    -0.379 NA 
HETATM    3  C   UNL     1     -10.475  10.409  69.214  1.00  0.00    -0.234 C  
HETATM    4  H   UNL     1      -8.477  11.219  69.652  1.00  0.00     0.000 HD 
HETATM    5  C   UNL     1     -10.311   9.757  70.639  1.00  0.00    -0.330 C  
HETATM    6  C   UNL     1     -10.670   9.321  68.135  1.00  0.00    -0.205 C  
HETATM    7  C   UNL     1     -11.689  11.360  69.206  1.00  0.00    -0.404 C  
ENDROOT
BRANCH   5   8
HETATM    8  C   UNL     1     -11.527   9.017  71.166  1.00  0.00    -0.376 A  
HETATM    9  C   UNL     1     -11.668   7.639  70.962  1.00  0.00    -0.306 A  
HETATM   10  C   UNL     1     -12.870   6.994  71.252  1.00  0.00    -0.376 A  
HETATM   11  C   UNL     1     -13.923   7.706  71.820  1.00  0.00    -0.471 A  
HETATM   12  C   UNL     1     -13.756   9.057  72.127  1.00  0.00    -0.536 A  
HETATM   13  C   UNL     1     -12.568   9.711  71.800  1.00  0.00    -0.497 A  
ENDBRANCH   5   8
TORSDOF 1
ENDMDL
MODEL       26
REMARK 921   NORMALIZED FREE ENERGY PREDICTED BY IDOCK:   -4.02 KCAL/MOL
REMARK 922        TOTAL FREE ENERGY PREDICTED BY IDOCK:   -4.27 KCAL/MOL
REMARK 923 INTER-LIGAND FREE ENERGY PREDICTED BY IDOCK:   -4.24 KCAL/MOL
REMARK 924 INTRA-LIGAND FREE ENERGY PREDICTED BY IDOCK:   -0.03 KCAL/MOL
REMARK 927      BINDING AFFINITY PREDICTED BY RF-SCORE:    0.00 PKD
ROOT
HETATM    1  C   UNL     1     -11.145  14.813  66.176  1.00  0.00    -0.339 C  
HETATM    2  N   UNL     1     -11.469  13.430  66.504  1.00  0.00    -0.327 NA 
HETATM    3  C   UNL     1     -11.268  13.025  67.918  1.00  0.00    -0.271 C  
HETATM    4  H   UNL     1     -11.815  12.776  65.801  1.00  0.00     0.000 HD 
HETATM    5  C   UNL     1     -11.750  11.528  68.017  1.00  0.00    -0.343 C  
HETATM    6  C   UNL     1     -12.102  13.930  68.851  1.00  0.00    -0.355 C  
HETATM    7  C   UNL     1      -9.779  13.126  68.305  1.00  0.00    -0.223 C  
ENDROOT
BRANCH   5   8
HETATM    8  C   UNL     1     -11.538  10.859  69.363  1.00  0.00    -0.387 A  
HETATM    9  C   UNL     1     -10.360  10.151  69.632  1.00  0.00    -0.278 A  
HETATM   10  C   UNL     1     -10.248   9.359  70.774  1.00  0.00    -0.368 A  
HETATM   11  C   UNL     1     -11.286   9.324  71.701  1.00  0.00    -0.449 A  
HETATM   12  C   UNL     1     -12.421  10.109  71.497  1.00  0.00    -0.526 A  
HETATM   13  C   UNL     1     -12.550  10.870  70.334  1.00  0.00    -0.376 A  
ENDBRANCH   5   8
TORSDOF 1
ENDMDL
MODEL       27
REMARK 921   NORMALIZED FREE ENERGY PREDICTED BY IDOCK:   -4.00 KCAL/MOL
REMARK 922        TOTAL FREE ENERGY PREDICTED BY IDOCK:   -4.25 KCAL/MOL
REMARK 923 INTER-LIGAND FREE ENERGY PREDICTED BY IDOCK:   -4.22 KCAL/MOL
REMARK 924 INTRA-LIGAND FREE ENERGY PREDICTED BY IDOCK:   -0.03 KCAL/MOL
REMARK 927      BINDING AFFINITY PREDICTED BY RF-SCORE:    0.00 PKD
ROOT
HETATM    1  C   UNL     1     -10.367  17.756  68.486  1.00  0.00    -0.364 C  
HETATM    2  N   UNL     1     -11.202  16.578  68.286  1.00  0.00    -0.328 NA 
HETATM    3  C   UNL     1     -11.077  15.503  69.301  1.00  0.00    -0.285 C  
HETATM    4  H   UNL     1     -11.837  16.496  67.491  1.00  0.00     0.000 HD 
HETATM    5  C   UNL     1     -12.118  14.393  68.895  1.00  0.00    -0.288 C  
HETATM    6  C   UNL     1     -11.394  16.062  70.705  1.00  0.00    -0.427 C  
HETATM    7  C   UNL     1      -9.650  14.915  69.296  1.00  0.00    -0.131 C  
ENDROOT
BRANCH   5   8
HETATM    8  C   UNL     1     -12.096  13.132  69.739  1.00  0.00    -0.336 A  
HETATM    9  C   UNL     1     -11.509  11.957  69.254  1.00  0.00    -0.366 A  
HETATM   10  C   UNL     1     -11.672  10.746  69.927  1.00  0.00    -0.412 A  
HETATM   11  C   UNL     1     -12.362  10.710  71.135  1.00  0.00    -0.505 A  
HETATM   12  C   UNL     1     -12.860  11.892  71.683  1.00  0.00    -0.417 A  
HETATM   13  C   UNL     1     -12.731  13.096  70.989  1.00  0.00    -0.361 A  
ENDBRANCH   5   8
TORSDOF 1
ENDMDL
MODEL       28
REMARK 921   NORMALIZED FREE ENERGY PREDICTED BY IDOCK:   -3.99 KCAL/MOL
REMARK 922        TOTAL FREE ENERGY PREDICTED BY IDOCK:   -4.23 KCAL/MOL
REMARK 923 INTER-LIGAND FREE ENERGY PREDICTED BY IDOCK:   -4.30 KCAL/MOL
REMARK 924 INTRA-LIGAND FREE ENERGY PREDICTED BY IDOCK:    0.07 KCAL/MOL
REMARK 927      BINDING AFFINITY PREDICTED BY RF-SCORE:    0.00 PKD
ROOT
HETATM    1  C   UNL     1     -12.766  12.065  63.544  1.00  0.00    -0.443 C  
HETATM    2  N   UNL     1     -12.843  12.487  64.937  1.00  0.00    -0.800 NA 
HETATM    3  C   UNL     1     -11.747  13.362  65.422  1.00  0.00    -0.331 C  
HETATM    4  H   UNL     1     -13.608  12.196  65.547  1.00  0.00     0.000 HD 
HETATM    5  C   UNL     1     -12.100  13.722  66.914  1.00  0.00    -0.454 C  
HETATM    6  C   UNL     1     -11.667  14.638  64.556  1.00  0.00    -0.410 C  
HETATM    7  C   UNL     1     -10.395  12.621  65.365  1.00  0.00    -0.311 C  
ENDROOT
BRANCH   5   8
HETATM    8  C   UNL     1     -11.056  14.534  67.658  1.00  0.00    -0.314 A  
HETATM    9  C   UNL     1     -11.217  15.913  67.838  1.00  0.00    -0.297 A  
HETATM   10  C   UNL     1     -10.172  16.697  68.328  1.00  0.00    -0.281 A  
HETATM   11  C   UNL     1      -8.977  16.098  68.715  1.00  0.00    -0.236 A  
HETATM   12  C   UNL     1      -8.843  14.712  68.642  1.00  0.00    -0.183 A  
HETATM   13  C   UNL     1      -9.874  13.933  68.114  1.00  0.00    -0.240 A  
ENDBRANCH   5   8
TORSDOF 1
ENDMDL
MODEL       29
REMARK 921   NORMALIZED FREE ENERGY PREDICTED BY IDOCK:   -3.98 KCAL/MOL
REMARK 922        TOTAL FREE ENERGY PREDICTED BY IDOCK:   -4.23 KCAL/MOL
REMARK 923 INTER-LIGAND FREE ENERGY PREDICTED BY IDOCK:   -4.19 KCAL/MOL
REMARK 924 INTRA-LIGAND FREE ENERGY PREDICTED BY IDOCK:   -0.04 KCAL/MOL
REMARK 927      BINDING AFFINITY PREDICTED BY RF-SCORE:    0.00 PKD
ROOT
HETATM    1  C   UNL     1     -11.750  15.761  72.305  1.00  0.00    -0.478 C  
HETATM    2  N   UNL     1     -12.106  16.024  70.916  1.00  0.00    -0.521 NA 
HETATM    3  C   UNL     1     -11.572  15.073  69.909  1.00  0.00    -0.293 C  
HETATM    4  H   UNL     1     -12.690  16.817  70.651  1.00  0.00     0.000 HD 
HETATM    5  C   UNL     1     -12.151  15.536  68.519  1.00  0.00    -0.048 C  
HETATM    6  C   UNL     1     -12.032  13.637  70.242  1.00  0.00    -0.397 C  
HETATM    7  C   UNL     1     -10.031  15.122  69.880  1.00  0.00    -0.107 C  
ENDROOT
BRANCH   5   8
HETATM    8  C   UNL     1     -11.652  14.766  67.311  1.00  0.00    -0.385 A  
HETATM    9  C   UNL     1     -10.621  15.279  66.513  1.00  0.00    -0.304 A  
HETATM   10  C   UNL     1     -10.303  14.689  65.290  1.00  0.00    -0.425 A  
HETATM   11  C   UNL     1     -10.964  13.533  64.883  1.00  0.00    -0.359 A  
HETATM   12  C   UNL     1     -11.918  12.953  65.718  1.00  0.00    -0.496 A  
HETATM   13  C   UNL     1     -12.263  13.565  66.924  1.00  0.00    -0.377 A  
ENDBRANCH   5   8
TORSDOF 1
ENDMDL
MODEL       30
REMARK 921   NORMALIZED FREE ENERGY PREDICTED BY IDOCK:   -3.98 KCAL/MOL
REMARK 922        TOTAL FREE ENERGY PREDICTED BY IDOCK:   -4.22 KCAL/MOL
REMARK 923 INTER-LIGAND FREE ENERGY PREDICTED BY IDOCK:   -4.20 KCAL/MOL
REMARK 924 INTRA-LIGAND FREE ENERGY PREDICTED BY IDOCK:   -0.02 KCAL/MOL
REMARK 927      BINDING AFFINITY PREDICTED BY RF-SCORE:    0.00 PKD
ROOT
HETATM    1  C   UNL     1     -10.270  12.690  68.288  1.00  0.00    -0.239 C  
HETATM    2  N   UNL     1     -10.106  13.983  68.939  1.00  0.00    -0.383 NA 
HETATM    3  C   UNL     1     -10.022  15.165  68.045  1.00  0.00    -0.221 C  
HETATM    4  H   UNL     1     -10.052  14.072  69.954  1.00  0.00     0.000 HD 
HETATM    5  C   UNL     1      -9.918  16.422  68.987  1.00  0.00    -0.267 C  
HETATM    6  C   UNL     1     -11.284  15.248  67.159  1.00  0.00    -0.291 C  
HETATM    7  C   UNL     1      -8.772  15.076  67.145  1.00  0.00    -0.242 C  
ENDROOT
BRANCH   5   8
HETATM    8  C   UNL     1      -9.713  17.753  68.287  1.00  0.00    -0.320 A  
HETATM    9  C   UNL     1      -8.467  18.392  68.317  1.00  0.00    -0.321 A  
HETATM   10  C   UNL     1      -8.326  19.703  67.864  1.00  0.00    -0.349 A  
HETATM   11  C   UNL     1      -9.415  20.367  67.306  1.00  0.00    -0.568 A  
HETATM   12  C   UNL     1     -10.635  19.704  67.174  1.00  0.00    -0.611 A  
HETATM   13  C   UNL     1     -10.786  18.406  67.663  1.00  0.00    -0.390 A  
ENDBRANCH   5   8
TORSDOF 1
ENDMDL
MODEL       31
REMARK 921   NORMALIZED FREE ENERGY PREDICTED BY IDOCK:   -3.98 KCAL/MOL
REMARK 922        TOTAL FREE ENERGY PREDICTED BY IDOCK:   -4.22 KCAL/MOL
REMARK 923 INTER-LIGAND FREE ENERGY PREDICTED BY IDOCK:   -4.31 KCAL/MOL
REMARK 924 INTRA-LIGAND FREE ENERGY PREDICTED BY IDOCK:    0.09 KCAL/MOL
REMARK 927      BINDING AFFINITY PREDICTED BY RF-SCORE:    0.00 PKD
ROOT
HETATM    1  C   UNL     1      -9.565   4.055  71.026  1.00  0.00    -0.179 C  
HETATM    2  N   UNL     1      -9.374   5.481  71.256  1.00  0.00    -0.146 NA 
HETATM    3  C   UNL     1     -10.587   6.332  71.156  1.00  0.00    -0.239 C  
HETATM    4  H   UNL     1      -8.458   5.874  71.473  1.00  0.00     0.000 HD 
HETATM    5  C   UNL     1     -10.125   7.796  71.509  1.00  0.00    -0.212 C  
HETATM    6  C   UNL     1     -11.660   5.842  72.153  1.00  0.00    -0.314 C  
HETATM    7  C   UNL     1     -11.162   6.292  69.726  1.00  0.00    -0.499 C  
ENDROOT
BRANCH   5   8
HETATM    8  C   UNL     1     -11.187   8.871  71.370  1.00  0.00    -0.382 A  
HETATM    9  C   UNL     1     -10.995   9.957  70.506  1.00  0.00    -0.391 A  
HETATM   10  C   UNL     1     -11.861  11.050  70.531  1.00  0.00    -0.464 A  
HETATM   11  C   UNL     1     -12.974  11.038  71.367  1.00  0.00    -0.517 A  
HETATM   12  C   UNL     1     -13.234   9.916  72.153  1.00  0.00    -0.511 A  
HETATM   13  C   UNL     1     -12.346   8.839  72.158  1.00  0.00    -0.458 A  
ENDBRANCH   5   8
TORSDOF 1
ENDMDL
MODEL       32
REMARK 921   NORMALIZED FREE ENERGY PREDICTED BY IDOCK:   -3.95 KCAL/MOL
REMARK 922        TOTAL FREE ENERGY PREDICTED BY IDOCK:   -4.19 KCAL/MOL
REMARK 923 INTER-LIGAND FREE ENERGY PREDICTED BY IDOCK:   -4.21 KCAL/MOL
REMARK 924 INTRA-LIGAND FREE ENERGY PREDICTED BY IDOCK:    0.01 KCAL/MOL
REMARK 927      BINDING AFFINITY PREDICTED BY RF-SCORE:    0.00 PKD
ROOT
HETATM    1  C   UNL     1      -9.588  19.012  68.645  1.00  0.00    -0.403 C  
HETATM    2  N   UNL     1     -10.633  18.020  68.865  1.00  0.00    -0.354 NA 
HETATM    3  C   UNL     1     -10.419  16.690  68.243  1.00  0.00    -0.321 C  
HETATM    4  H   UNL     1     -11.467  18.229  69.416  1.00  0.00     0.000 HD 
HETATM    5  C   UNL     1     -11.641  15.798  68.684  1.00  0.00    -0.392 C  
HETATM    6  C   UNL     1      -9.090  16.081  68.742  1.00  0.00    -0.222 C  
HETATM    7  C   UNL     1     -10.381  16.809  66.706  1.00  0.00    -0.293 C  
ENDROOT
BRANCH   5   8
HETATM    8  C   UNL     1     -11.693  14.409  68.076  1.00  0.00    -0.374 A  
HETATM    9  C   UNL     1     -11.130  13.314  68.745  1.00  0.00    -0.303 A  
HETATM   10  C   UNL     1     -10.984  12.084  68.104  1.00  0.00    -0.273 A  
HETATM   11  C   UNL     1     -11.468  11.912  66.810  1.00  0.00    -0.384 A  
HETATM   12  C   UNL     1     -12.126  12.964  66.173  1.00  0.00    -0.458 A  
HETATM   13  C   UNL     1     -12.236  14.206  66.799  1.00  0.00    -0.429 A  
ENDBRANCH   5   8
TORSDOF 1
ENDMDL
MODEL       33
REMARK 921   NORMALIZED FREE ENERGY PREDICTED BY IDOCK:   -3.93 KCAL/MOL
REMARK 922        TOTAL FREE ENERGY PREDICTED BY IDOCK:   -4.17 KCAL/MOL
REMARK 923 INTER-LIGAND FREE ENERGY PREDICTED BY IDOCK:   -4.14 KCAL/MOL
REMARK 924 INTRA-LIGAND FREE ENERGY PREDICTED BY IDOCK:   -0.03 KCAL/MOL
REMARK 927      BINDING AFFINITY PREDICTED BY RF-SCORE:    0.00 PKD
ROOT
HETATM    1  C   UNL     1     -10.223  11.831  63.563  1.00  0.00    -0.450 C  
HETATM    2  N   UNL     1      -9.758  12.019  64.931  1.00  0.00    -0.423 NA 
HETATM    3  C   UNL     1     -10.513  12.997  65.754  1.00  0.00    -0.280 C  
HETATM    4  H   UNL     1      -8.958  11.507  65.304  1.00  0.00     0.000 HD 
HETATM    5  C   UNL     1      -9.860  12.960  67.187  1.00  0.00    -0.225 C  
HETATM    6  C   UNL     1     -12.002  12.594  65.822  1.00  0.00    -0.503 C  
HETATM    7  C   UNL     1     -10.394  14.415  65.157  1.00  0.00    -0.447 C  
ENDROOT
BRANCH   5   8
HETATM    8  C   UNL     1     -10.405  13.967  68.183  1.00  0.00    -0.241 A  
HETATM    9  C   UNL     1      -9.789  15.214  68.350  1.00  0.00    -0.223 A  
HETATM   10  C   UNL     1     -10.149  16.053  69.403  1.00  0.00    -0.271 A  
HETATM   11  C   UNL     1     -11.183  15.689  70.261  1.00  0.00    -0.357 A  
HETATM   12  C   UNL     1     -11.876  14.499  70.041  1.00  0.00    -0.372 A  
HETATM   13  C   UNL     1     -11.489  13.640  69.011  1.00  0.00    -0.346 A  
ENDBRANCH   5   8
TORSDOF 1
ENDMDL
MODEL       34
REMARK 921   NORMALIZED FREE ENERGY PREDICTED BY IDOCK:   -3.93 KCAL/MOL
REMARK 922        TOTAL FREE ENERGY PREDICTED BY IDOCK:   -4.17 KCAL/MOL
REMARK 923 INTER-LIGAND FREE ENERGY PREDICTED BY IDOCK:   -4.16 KCAL/MOL
REMARK 924 INTRA-LIGAND FREE ENERGY PREDICTED BY IDOCK:   -0.01 KCAL/MOL
REMARK 927      BINDING AFFINITY PREDICTED BY RF-SCORE:    0.00 PKD
ROOT
HETATM    1  C   UNL     1     -11.534  15.390  67.940  1.00  0.00    -0.299 C  
HETATM    2  N   UNL     1     -11.960  14.291  67.082  1.00  0.00    -0.451 NA 
HETATM    3  C   UNL     1     -10.881  13.515  66.422  1.00  0.00    -0.290 C  
HETATM    4  H   UNL     1     -12.946  14.069  66.941  1.00  0.00     0.000 HD 
HETATM    5  C   UNL     1     -11.597  12.363  65.620  1.00  0.00    -0.441 C  
HETATM    6  C   UNL     1      -9.926  12.928  67.485  1.00  0.00    -0.215 C  
HETATM    7  C   UNL     1     -10.080  14.411  65.456  1.00  0.00    -0.382 C  
ENDROOT
BRANCH   5   8
HETATM    8  C   UNL     1     -10.689  11.493  64.770  1.00  0.00    -0.366 A  
HETATM    9  C   UNL     1     -10.080  10.354  65.312  1.00  0.00    -0.370 A  
HETATM   10  C   UNL     1      -9.085   9.674  64.609  1.00  0.00    -0.286 A  
HETATM   11  C   UNL     1      -8.740  10.081  63.323  1.00  0.00    -0.223 A  
HETATM   12  C   UNL     1      -9.415  11.148  62.732  1.00  0.00    -0.357 A  
HETATM   13  C   UNL     1     -10.382  11.853  63.450  1.00  0.00    -0.481 A  
ENDBRANCH   5   8
TORSDOF 1
ENDMDL
MODEL       35
REMARK 921   NORMALIZED FREE ENERGY PREDICTED BY IDOCK:   -3.91 KCAL/MOL
REMARK 922        TOTAL FREE ENERGY PREDICTED BY IDOCK:   -4.15 KCAL/MOL
REMARK 923 INTER-LIGAND FREE ENERGY PREDICTED BY IDOCK:   -4.13 KCAL/MOL
REMARK 924 INTRA-LIGAND FREE ENERGY PREDICTED BY IDOCK:   -0.02 KCAL/MOL
REMARK 927      BINDING AFFINITY PREDICTED BY RF-SCORE:    0.00 PKD
ROOT
HETATM    1  C   UNL     1     -10.363  18.234  66.894  1.00  0.00    -0.385 C  
HETATM    2  N   UNL     1     -10.984  16.930  67.086  1.00  0.00    -0.070 NA 
HETATM    3  C   UNL     1     -10.557  15.854  66.157  1.00  0.00    -0.305 C  
HETATM    4  H   UNL     1     -11.676  16.766  67.818  1.00  0.00     0.000 HD 
HETATM    5  C   UNL     1     -11.315  14.552  66.616  1.00  0.00    -0.359 C  
HETATM    6  C   UNL     1      -9.028  15.656  66.246  1.00  0.00    -0.377 C  
HETATM    7  C   UNL     1     -10.943  16.204  64.706  1.00  0.00    -0.330 C  
ENDROOT
BRANCH   5   8
HETATM    8  C   UNL     1     -11.113  13.331  65.739  1.00  0.00    -0.296 A  
HETATM    9  C   UNL     1      -9.985  12.516  65.897  1.00  0.00    -0.269 A  
HETATM   10  C   UNL     1      -9.684  11.524  64.964  1.00  0.00    -0.268 A  
HETATM   11  C   UNL     1     -10.549  11.284  63.900  1.00  0.00    -0.455 A  
HETATM   12  C   UNL     1     -11.730  12.018  63.791  1.00  0.00    -0.575 A  
HETATM   13  C   UNL     1     -12.011  13.037  64.703  1.00  0.00    -0.445 A  
ENDBRANCH   5   8
TORSDOF 1
ENDMDL
MODEL       36
REMARK 921   NORMALIZED FREE ENERGY PREDICTED BY IDOCK:   -3.87 KCAL/MOL
REMARK 922        TOTAL FREE ENERGY PREDICTED BY IDOCK:   -4.11 KCAL/MOL
REMARK 923 INTER-LIGAND FREE ENERGY PREDICTED BY IDOCK:   -4.13 KCAL/MOL
REMARK 924 INTRA-LIGAND FREE ENERGY PREDICTED BY IDOCK:    0.02 KCAL/MOL
REMARK 927      BINDING AFFINITY PREDICTED BY RF-SCORE:    0.00 PKD
ROOT
HETATM    1  C   UNL     1      -8.302  19.193  67.351  1.00  0.00    -0.281 C  
HETATM    2  N   UNL     1      -9.199  18.440  66.484  1.00  0.00    -0.298 NA 
HETATM    3  C   UNL     1      -9.389  17.007  66.819  1.00  0.00    -0.252 C  
HETATM    4  H   UNL     1      -9.671  18.874  65.689  1.00  0.00     0.000 HD 
HETATM    5  C   UNL     1     -10.441  16.450  65.787  1.00  0.00    -0.369 C  
HETATM    6  C   UNL     1      -9.916  16.867  68.264  1.00  0.00    -0.282 C  
HETATM    7  C   UNL     1      -8.060  16.237  66.684  1.00  0.00    -0.323 C  
ENDROOT
BRANCH   5   8
HETATM    8  C   UNL     1     -10.718  14.961  65.870  1.00  0.00    -0.329 A  
HETATM    9  C   UNL     1     -10.342  14.105  64.827  1.00  0.00    -0.387 A  
HETATM   10  C   UNL     1     -10.779  12.781  64.797  1.00  0.00    -0.340 A  
HETATM   11  C   UNL     1     -11.536  12.274  65.849  1.00  0.00    -0.450 A  
HETATM   12  C   UNL     1     -11.827  13.087  66.945  1.00  0.00    -0.442 A  
HETATM   13  C   UNL     1     -11.423  14.423  66.956  1.00  0.00    -0.376 A  
ENDBRANCH   5   8
TORSDOF 1
ENDMDL
MODEL       37
REMARK 921   NORMALIZED FREE ENERGY PREDICTED BY IDOCK:   -3.86 KCAL/MOL
REMARK 922        TOTAL FREE ENERGY PREDICTED BY IDOCK:   -4.09 KCAL/MOL
REMARK 923 INTER-LIGAND FREE ENERGY PREDICTED BY IDOCK:   -4.31 KCAL/MOL
REMARK 924 INTRA-LIGAND FREE ENERGY PREDICTED BY IDOCK:    0.21 KCAL/MOL
REMARK 927      BINDING AFFINITY PREDICTED BY RF-SCORE:    0.00 PKD
ROOT
HETATM    1  C   UNL     1     -11.085   5.279  72.830  1.00  0.00    -0.305 C  
HETATM    2  N   UNL     1     -12.104   6.295  72.597  1.00  0.00    -0.520 NA 
HETATM    3  C   UNL     1     -11.650   7.542  71.931  1.00  0.00    -0.275 C  
HETATM    4  H   UNL     1     -13.075   6.157  72.876  1.00  0.00     0.000 HD 
HETATM    5  C   UNL     1     -12.937   8.429  71.739  1.00  0.00    -0.368 C  
HETATM    6  C   UNL     1     -11.007   7.209  70.567  1.00  0.00    -0.287 C  
HETATM    7  C   UNL     1     -10.624   8.285  72.811  1.00  0.00    -0.321 C  
ENDROOT
BRANCH   5   8
HETATM    8  C   UNL     1     -12.700   9.814  71.166  1.00  0.00    -0.433 A  
HETATM    9  C   UNL     1     -11.949   9.985  69.996  1.00  0.00    -0.146 A  
HETATM   10  C   UNL     1     -11.548  11.255  69.583  1.00  0.00    -0.401 A  
HETATM   11  C   UNL     1     -11.957  12.379  70.296  1.00  0.00    -0.371 A  
HETATM   12  C   UNL     1     -12.794  12.229  71.401  1.00  0.00    -0.373 A  
HETATM   13  C   UNL     1     -13.162  10.956  71.837  1.00  0.00    -0.508 A  
ENDBRANCH   5   8
TORSDOF 1
ENDMDL
MODEL       38
REMARK 921   NORMALIZED FREE ENERGY PREDICTED BY IDOCK:   -3.85 KCAL/MOL
REMARK 922        TOTAL FREE ENERGY PREDICTED BY IDOCK:   -4.09 KCAL/MOL
REMARK 923 INTER-LIGAND FREE ENERGY PREDICTED BY IDOCK:   -4.06 KCAL/MOL
REMARK 924 INTRA-LIGAND FREE ENERGY PREDICTED BY IDOCK:   -0.03 KCAL/MOL
REMARK 927      BINDING AFFINITY PREDICTED BY RF-SCORE:    0.00 PKD
ROOT
HETATM    1  C   UNL     1     -12.024  13.472  69.512  1.00  0.00    -0.334 C  
HETATM    2  N   UNL     1     -12.017  14.522  68.500  1.00  0.00    -0.514 NA 
HETATM    3  C   UNL     1     -10.891  15.487  68.562  1.00  0.00    -0.272 C  
HETATM    4  H   UNL     1     -12.746  14.589  67.789  1.00  0.00     0.000 HD 
HETATM    5  C   UNL     1     -11.081  16.460  67.338  1.00  0.00    -0.062 C  
HETATM    6  C   UNL     1      -9.545  14.738  68.461  1.00  0.00    -0.218 C  
HETATM    7  C   UNL     1     -10.933  16.286  69.881  1.00  0.00    -0.365 C  
ENDROOT
BRANCH   5   8
HETATM    8  C   UNL     1     -10.095  17.611  67.255  1.00  0.00    -0.331 A  
HETATM    9  C   UNL     1     -10.479  18.909  67.615  1.00  0.00    -0.514 A  
HETATM   10  C   UNL     1      -9.654  19.999  67.342  1.00  0.00    -0.524 A  
HETATM   11  C   UNL     1      -8.400  19.797  66.771  1.00  0.00    -0.354 A  
HETATM   12  C   UNL     1      -7.963  18.500  66.506  1.00  0.00    -0.295 A  
HETATM   13  C   UNL     1      -8.805  17.412  66.743  1.00  0.00    -0.272 A  
ENDBRANCH   5   8
TORSDOF 1
ENDMDL
MODEL       39
REMARK 921   NORMALIZED FREE ENERGY PREDICTED BY IDOCK:   -3.83 KCAL/MOL
REMARK 922        TOTAL FREE ENERGY PREDICTED BY IDOCK:   -4.07 KCAL/MOL
REMARK 923 INTER-LIGAND FREE ENERGY PREDICTED BY IDOCK:   -4.05 KCAL/MOL
REMARK 924 INTRA-LIGAND FREE ENERGY PREDICTED BY IDOCK:   -0.02 KCAL/MOL
REMARK 927      BINDING AFFINITY PREDICTED BY RF-SCORE:    0.00 PKD
ROOT
HETATM    1  C   UNL     1      -8.792  10.468  65.632  1.00  0.00    -0.182 C  
HETATM    2  N   UNL     1      -8.830  10.606  67.083  1.00  0.00    -0.137 NA 
HETATM    3  C   UNL     1     -10.120  10.280  67.742  1.00  0.00    -0.180 C  
HETATM    4  H   UNL     1      -8.016  10.910  67.617  1.00  0.00     0.000 HD 
HETATM    5  C   UNL     1      -9.876  10.442  69.289  1.00  0.00    -0.243 C  
HETATM    6  C   UNL     1     -10.536   8.832  67.403  1.00  0.00    -0.349 C  
HETATM    7  C   UNL     1     -11.227  11.250  67.278  1.00  0.00    -0.364 C  
ENDROOT
BRANCH   5   8
HETATM    8  C   UNL     1     -11.098  10.259  70.170  1.00  0.00    -0.385 A  
HETATM    9  C   UNL     1     -11.922  11.347  70.482  1.00  0.00    -0.451 A  
HETATM   10  C   UNL     1     -12.916  11.235  71.455  1.00  0.00    -0.482 A  
HETATM   11  C   UNL     1     -13.147  10.010  72.074  1.00  0.00    -0.541 A  
HETATM   12  C   UNL     1     -12.403   8.892  71.694  1.00  0.00    -0.405 A  
HETATM   13  C   UNL     1     -11.383   9.015  70.750  1.00  0.00    -0.329 A  
ENDBRANCH   5   8
TORSDOF 1
ENDMDL
MODEL       40
REMARK 921   NORMALIZED FREE ENERGY PREDICTED BY IDOCK:   -3.83 KCAL/MOL
REMARK 922        TOTAL FREE ENERGY PREDICTED BY IDOCK:   -4.07 KCAL/MOL
REMARK 923 INTER-LIGAND FREE ENERGY PREDICTED BY IDOCK:   -4.05 KCAL/MOL
REMARK 924 INTRA-LIGAND FREE ENERGY PREDICTED BY IDOCK:   -0.02 KCAL/MOL
REMARK 927      BINDING AFFINITY PREDICTED BY RF-SCORE:    0.00 PKD
ROOT
HETATM    1  C   UNL     1      -9.728  10.954  62.764  1.00  0.00    -0.271 C  
HETATM    2  N   UNL     1     -10.865  11.133  63.658  1.00  0.00    -0.566 NA 
HETATM    3  C   UNL     1     -10.637  11.989  64.849  1.00  0.00    -0.291 C  
HETATM    4  H   UNL     1     -11.768  10.695  63.476  1.00  0.00     0.000 HD 
HETATM    5  C   UNL     1     -12.019  12.073  65.599  1.00  0.00    -0.151 C  
HETATM    6  C   UNL     1     -10.167  13.393  64.410  1.00  0.00    -0.262 C  
HETATM    7  C   UNL     1      -9.573  11.361  65.774  1.00  0.00    -0.260 C  
ENDROOT
BRANCH   5   8
HETATM    8  C   UNL     1     -12.005  12.819  66.921  1.00  0.00    -0.380 A  
HETATM    9  C   UNL     1     -12.026  14.220  66.952  1.00  0.00    -0.467 A  
HETATM   10  C   UNL     1     -11.798  14.911  68.141  1.00  0.00    -0.307 A  
HETATM   11  C   UNL     1     -11.622  14.210  69.330  1.00  0.00    -0.353 A  
HETATM   12  C   UNL     1     -11.706  12.818  69.331  1.00  0.00    -0.380 A  
HETATM   13  C   UNL     1     -11.893  12.125  68.134  1.00  0.00    -0.362 A  
ENDBRANCH   5   8
TORSDOF 1
ENDMDL
MODEL       41
REMARK 921   NORMALIZED FREE ENERGY PREDICTED BY IDOCK:   -3.82 KCAL/MOL
REMARK 922        TOTAL FREE ENERGY PREDICTED BY IDOCK:   -4.06 KCAL/MOL
REMARK 923 INTER-LIGAND FREE ENERGY PREDICTED BY IDOCK:   -4.04 KCAL/MOL
REMARK 924 INTRA-LIGAND FREE ENERGY PREDICTED BY IDOCK:   -0.02 KCAL/MOL
REMARK 927      BINDING AFFINITY PREDICTED BY RF-SCORE:    0.00 PKD
ROOT
HETATM    1  C   UNL     1      -8.273   6.687  67.706  1.00  0.00    -0.119 C  
HETATM    2  N   UNL     1      -8.664   6.861  69.099  1.00  0.00    -0.135 NA 
HETATM    3  C   UNL     1     -10.071   7.269  69.342  1.00  0.00    -0.183 C  
HETATM    4  H   UNL     1      -8.008   6.712  69.866  1.00  0.00     0.000 HD 
HETATM    5  C   UNL     1     -10.249   7.320  70.906  1.00  0.00    -0.203 C  
HETATM    6  C   UNL     1     -11.035   6.238  68.715  1.00  0.00    -0.424 C  
HETATM    7  C   UNL     1     -10.346   8.660  68.735  1.00  0.00    -0.228 C  
ENDROOT
BRANCH   5   8
HETATM    8  C   UNL     1     -11.595   7.820  71.398  1.00  0.00    -0.305 A  
HETATM    9  C   UNL     1     -12.712   6.976  71.406  1.00  0.00    -0.421 A  
HETATM   10  C   UNL     1     -13.988   7.482  71.651  1.00  0.00    -0.523 A  
HETATM   11  C   UNL     1     -14.154   8.828  71.965  1.00  0.00    -0.508 A  
HETATM   12  C   UNL     1     -13.037   9.657  72.065  1.00  0.00    -0.537 A  
HETATM   13  C   UNL     1     -11.764   9.159  71.780  1.00  0.00    -0.456 A  
ENDBRANCH   5   8
TORSDOF 1
ENDMDL
MODEL       42
REMARK 921   NORMALIZED FREE ENERGY PREDICTED BY IDOCK:   -3.82 KCAL/MOL
REMARK 922        TOTAL FREE ENERGY PREDICTED BY IDOCK:   -4.06 KCAL/MOL
REMARK 923 INTER-LIGAND FREE ENERGY PREDICTED BY IDOCK:   -4.11 KCAL/MOL
REMARK 924 INTRA-LIGAND FREE ENERGY PREDICTED BY IDOCK:    0.06 KCAL/MOL
REMARK 927      BINDING AFFINITY PREDICTED BY RF-SCORE:    0.00 PKD
ROOT
HETATM    1  C   UNL     1     -10.066  13.375  67.981  1.00  0.00    -0.241 C  
HETATM    2  N   UNL     1      -9.659  12.239  68.798  1.00  0.00    -0.406 NA 
HETATM    3  C   UNL     1     -10.698  11.211  69.060  1.00  0.00    -0.225 C  
HETATM    4  H   UNL     1      -8.713  12.154  69.171  1.00  0.00     0.000 HD 
HETATM    5  C   UNL     1      -9.992  10.077  69.894  1.00  0.00    -0.280 C  
HETATM    6  C   UNL     1     -11.237  10.652  67.725  1.00  0.00    -0.383 C  
HETATM    7  C   UNL     1     -11.865  11.813  69.870  1.00  0.00    -0.423 C  
ENDROOT
BRANCH   5   8
HETATM    8  C   UNL     1     -10.895   8.956  70.373  1.00  0.00    -0.269 A  
HETATM    9  C   UNL     1     -11.732   9.136  71.482  1.00  0.00    -0.433 A  
HETATM   10  C   UNL     1     -12.401   8.055  72.056  1.00  0.00    -0.366 A  
HETATM   11  C   UNL     1     -12.299   6.791  71.482  1.00  0.00    -0.407 A  
HETATM   12  C   UNL     1     -11.554   6.619  70.316  1.00  0.00    -0.454 A  
HETATM   13  C   UNL     1     -10.853   7.693  69.765  1.00  0.00    -0.222 A  
ENDBRANCH   5   8
TORSDOF 1
ENDMDL
MODEL       43
REMARK 921   NORMALIZED FREE ENERGY PREDICTED BY IDOCK:   -3.82 KCAL/MOL
REMARK 922        TOTAL FREE ENERGY PREDICTED BY IDOCK:   -4.05 KCAL/MOL
REMARK 923 INTER-LIGAND FREE ENERGY PREDICTED BY IDOCK:   -4.01 KCAL/MOL
REMARK 924 INTRA-LIGAND FREE ENERGY PREDICTED BY IDOCK:   -0.04 KCAL/MOL
REMARK 927      BINDING AFFINITY PREDICTED BY RF-SCORE:    0.00 PKD
ROOT
HETATM    1  C   UNL     1      -8.708   8.705  67.713  1.00  0.00    -0.137 C  
HETATM    2  N   UNL     1     -10.049   9.235  67.925  1.00  0.00    -0.188 NA 
HETATM    3  C   UNL     1     -10.188  10.277  68.973  1.00  0.00    -0.210 C  
HETATM    4  H   UNL     1     -10.849   8.908  67.382  1.00  0.00     0.000 HD 
HETATM    5  C   UNL     1     -11.699  10.721  68.952  1.00  0.00    -0.338 C  
HETATM    6  C   UNL     1      -9.262  11.472  68.657  1.00  0.00    -0.136 C  
HETATM    7  C   UNL     1      -9.826   9.704  70.359  1.00  0.00    -0.315 C  
ENDROOT
BRANCH   5   8
HETATM    8  C   UNL     1     -12.105  11.716  70.023  1.00  0.00    -0.395 A  
HETATM    9  C   UNL     1     -12.742  11.285  71.194  1.00  0.00    -0.492 A  
HETATM   10  C   UNL     1     -13.307  12.203  72.079  1.00  0.00    -0.470 A  
HETATM   11  C   UNL     1     -13.177  13.569  71.842  1.00  0.00    -0.510 A  
HETATM   12  C   UNL     1     -12.453  14.012  70.735  1.00  0.00    -0.442 A  
HETATM   13  C   UNL     1     -11.922  13.093  69.829  1.00  0.00    -0.382 A  
ENDBRANCH   5   8
TORSDOF 1
ENDMDL
MODEL       44
REMARK 921   NORMALIZED FREE ENERGY PREDICTED BY IDOCK:   -3.81 KCAL/MOL
REMARK 922        TOTAL FREE ENERGY PREDICTED BY IDOCK:   -4.04 KCAL/MOL
REMARK 923 INTER-LIGAND FREE ENERGY PREDICTED BY IDOCK:   -4.03 KCAL/MOL
REMARK 924 INTRA-LIGAND FREE ENERGY PREDICTED BY IDOCK:   -0.01 KCAL/MOL
REMARK 927      BINDING AFFINITY PREDICTED BY RF-SCORE:    0.00 PKD
ROOT
HETATM    1  C   UNL     1      -7.771   5.301  73.087  1.00  0.00    -0.097 C  
HETATM    2  N   UNL     1      -8.596   5.905  72.048  1.00  0.00    -0.136 NA 
HETATM    3  C   UNL     1      -9.864   6.534  72.495  1.00  0.00    -0.165 C  
HETATM    4  H   UNL     1      -8.318   5.895  71.066  1.00  0.00     0.000 HD 
HETATM    5  C   UNL     1     -10.521   7.160  71.208  1.00  0.00    -0.219 C  
HETATM    6  C   UNL     1      -9.569   7.627  73.545  1.00  0.00    -0.348 C  
HETATM    7  C   UNL     1     -10.807   5.478  73.108  1.00  0.00    -0.328 C  
ENDROOT
BRANCH   5   8
HETATM    8  C   UNL     1     -11.894   7.774  71.404  1.00  0.00    -0.324 A  
HETATM    9  C   UNL     1     -12.030   9.117  71.778  1.00  0.00    -0.449 A  
HETATM   10  C   UNL     1     -13.268   9.629  72.166  1.00  0.00    -0.535 A  
HETATM   11  C   UNL     1     -14.401   8.823  72.114  1.00  0.00    -0.481 A  
HETATM   12  C   UNL     1     -14.297   7.515  71.642  1.00  0.00    -0.621 A  
HETATM   13  C   UNL     1     -13.052   6.991  71.291  1.00  0.00    -0.329 A  
ENDBRANCH   5   8
TORSDOF 1
ENDMDL
MODEL       45
REMARK 921   NORMALIZED FREE ENERGY PREDICTED BY IDOCK:   -3.79 KCAL/MOL
REMARK 922        TOTAL FREE ENERGY PREDICTED BY IDOCK:   -4.03 KCAL/MOL
REMARK 923 INTER-LIGAND FREE ENERGY PREDICTED BY IDOCK:   -4.02 KCAL/MOL
REMARK 924 INTRA-LIGAND FREE ENERGY PREDICTED BY IDOCK:   -0.01 KCAL/MOL
REMARK 927      BINDING AFFINITY PREDICTED BY RF-SCORE:    0.00 PKD
ROOT
HETATM    1  C   UNL     1     -10.931  15.154  67.939  1.00  0.00    -0.302 C  
HETATM    2  N   UNL     1     -10.729  16.557  68.280  1.00  0.00    -0.330 NA 
HETATM    3  C   UNL     1      -9.400  17.130  67.950  1.00  0.00    -0.249 C  
HETATM    4  H   UNL     1     -11.461  17.114  68.721  1.00  0.00     0.000 HD 
HETATM    5  C   UNL     1      -9.467  18.651  68.351  1.00  0.00    -0.377 C  
HETATM    6  C   UNL     1      -9.117  16.975  66.440  1.00  0.00    -0.300 C  
HETATM    7  C   UNL     1      -8.289  16.422  68.753  1.00  0.00    -0.242 C  
ENDROOT
BRANCH   5   8
HETATM    8  C   UNL     1      -8.172  19.428  68.201  1.00  0.00    -0.359 A  
HETATM    9  C   UNL     1      -7.234  19.461  69.240  1.00  0.00    -0.336 A  
HETATM   10  C   UNL     1      -6.150  20.337  69.196  1.00  0.00    -0.370 A  
HETATM   11  C   UNL     1      -5.949  21.139  68.076  1.00  0.00    -0.393 A  
HETATM   12  C   UNL     1      -6.817  21.038  66.989  1.00  0.00    -0.397 A  
HETATM   13  C   UNL     1      -7.924  20.190  67.050  1.00  0.00    -0.362 A  
ENDBRANCH   5   8
TORSDOF 1
ENDMDL
MODEL       46
REMARK 921   NORMALIZED FREE ENERGY PREDICTED BY IDOCK:   -3.78 KCAL/MOL
REMARK 922        TOTAL FREE ENERGY PREDICTED BY IDOCK:   -4.01 KCAL/MOL
REMARK 923 INTER-LIGAND FREE ENERGY PREDICTED BY IDOCK:   -4.01 KCAL/MOL
REMARK 924 INTRA-LIGAND FREE ENERGY PREDICTED BY IDOCK:    0.00 KCAL/MOL
REMARK 927      BINDING AFFINITY PREDICTED BY RF-SCORE:    0.00 PKD
ROOT
HETATM    1  C   UNL     1     -11.243  13.265  68.601  1.00  0.00    -0.274 C  
HETATM    2  N   UNL     1     -11.384  14.675  68.940  1.00  0.00    -0.268 NA 
HETATM    3  C   UNL     1     -10.572  15.629  68.142  1.00  0.00    -0.274 C  
HETATM    4  H   UNL     1     -12.006  14.991  69.685  1.00  0.00     0.000 HD 
HETATM    5  C   UNL     1     -10.956  17.067  68.655  1.00  0.00    -0.217 C  
HETATM    6  C   UNL     1     -10.903  15.478  66.641  1.00  0.00    -0.285 C  
HETATM    7  C   UNL     1      -9.067  15.375  68.361  1.00  0.00    -0.191 C  
ENDROOT
BRANCH   5   8
HETATM    8  C   UNL     1     -10.165  18.213  68.050  1.00  0.00    -0.392 A  
HETATM    9  C   UNL     1     -10.620  18.864  66.897  1.00  0.00    -0.495 A  
HETATM   10  C   UNL     1      -9.802  19.766  66.217  1.00  0.00    -0.557 A  
HETATM   11  C   UNL     1      -8.545  20.085  66.724  1.00  0.00    -0.396 A  
HETATM   12  C   UNL     1      -8.125  19.523  67.930  1.00  0.00    -0.340 A  
HETATM   13  C   UNL     1      -8.927  18.591  68.589  1.00  0.00    -0.323 A  
ENDBRANCH   5   8
TORSDOF 1
ENDMDL
MODEL       47
REMARK 921   NORMALIZED FREE ENERGY PREDICTED BY IDOCK:   -3.77 KCAL/MOL
REMARK 922        TOTAL FREE ENERGY PREDICTED BY IDOCK:   -4.00 KCAL/MOL
REMARK 923 INTER-LIGAND FREE ENERGY PREDICTED BY IDOCK:   -3.99 KCAL/MOL
REMARK 924 INTRA-LIGAND FREE ENERGY PREDICTED BY IDOCK:   -0.01 KCAL/MOL
REMARK 927      BINDING AFFINITY PREDICTED BY RF-SCORE:    0.00 PKD
ROOT
HETATM    1  C   UNL     1      -7.919  19.521  66.339  1.00  0.00    -0.312 C  
HETATM    2  N   UNL     1      -7.954  18.093  66.047  1.00  0.00    -0.510 NA 
HETATM    3  C   UNL     1      -9.087  17.330  66.629  1.00  0.00    -0.265 C  
HETATM    4  H   UNL     1      -7.240  17.642  65.475  1.00  0.00     0.000 HD 
HETATM    5  C   UNL     1      -8.928  15.850  66.115  1.00  0.00    -0.376 C  
HETATM    6  C   UNL     1     -10.428  17.932  66.158  1.00  0.00    -0.321 C  
HETATM    7  C   UNL     1      -9.027  17.361  68.170  1.00  0.00    -0.260 C  
ENDROOT
BRANCH   5   8
HETATM    8  C   UNL     1      -9.925  14.851  66.671  1.00  0.00    -0.267 A  
HETATM    9  C   UNL     1     -11.164  14.654  66.048  1.00  0.00    -0.342 A  
HETATM   10  C   UNL     1     -12.164  13.903  66.667  1.00  0.00    -0.465 A  
HETATM   11  C   UNL     1     -11.911  13.277  67.884  1.00  0.00    -0.388 A  
HETATM   12  C   UNL     1     -10.646  13.378  68.463  1.00  0.00    -0.264 A  
HETATM   13  C   UNL     1      -9.659  14.161  67.863  1.00  0.00    -0.223 A  
ENDBRANCH   5   8
TORSDOF 1
ENDMDL
MODEL       48
REMARK 921   NORMALIZED FREE ENERGY PREDICTED BY IDOCK:   -3.77 KCAL/MOL
REMARK 922        TOTAL FREE ENERGY PREDICTED BY IDOCK:   -4.00 KCAL/MOL
REMARK 923 INTER-LIGAND FREE ENERGY PREDICTED BY IDOCK:   -3.98 KCAL/MOL
REMARK 924 INTRA-LIGAND FREE ENERGY PREDICTED BY IDOCK:   -0.02 KCAL/MOL
REMARK 927      BINDING AFFINITY PREDICTED BY RF-SCORE:    0.00 PKD
ROOT
HETATM    1  C   UNL     1      -8.918   3.602  70.940  1.00  0.00    -0.094 C  
HETATM    2  N   UNL     1     -10.021   4.392  70.407  1.00  0.00    -0.214 NA 
HETATM    3  C   UNL     1     -10.365   5.628  71.153  1.00  0.00    -0.232 C  
HETATM    4  H   UNL     1     -10.528   4.110  69.568  1.00  0.00     0.000 HD 
HETATM    5  C   UNL     1     -11.525   6.320  70.342  1.00  0.00    -0.414 C  
HETATM    6  C   UNL     1      -9.132   6.554  71.240  1.00  0.00    -0.148 C  
HETATM    7  C   UNL     1     -10.849   5.287  72.577  1.00  0.00    -0.301 C  
ENDROOT
BRANCH   5   8
HETATM    8  C   UNL     1     -12.120   7.563  70.977  1.00  0.00    -0.305 A  
HETATM    9  C   UNL     1     -13.384   7.524  71.578  1.00  0.00    -0.409 A  
HETATM   10  C   UNL     1     -14.025   8.698  71.971  1.00  0.00    -0.506 A  
HETATM   11  C   UNL     1     -13.377   9.923  71.836  1.00  0.00    -0.524 A  
HETATM   12  C   UNL     1     -12.075   9.964  71.338  1.00  0.00    -0.501 A  
HETATM   13  C   UNL     1     -11.449   8.793  70.908  1.00  0.00    -0.330 A  
ENDBRANCH   5   8
TORSDOF 1
ENDMDL
MODEL       49
REMARK 921   NORMALIZED FREE ENERGY PREDICTED BY IDOCK:   -3.76 KCAL/MOL
REMARK 922        TOTAL FREE ENERGY PREDICTED BY IDOCK:   -4.00 KCAL/MOL
REMARK 923 INTER-LIGAND FREE ENERGY PREDICTED BY IDOCK:   -3.97 KCAL/MOL
REMARK 924 INTRA-LIGAND FREE ENERGY PREDICTED BY IDOCK:   -0.03 KCAL/MOL
REMARK 927      BINDING AFFINITY PREDICTED BY RF-SCORE:    0.00 PKD
ROOT
HETATM    1  C   UNL     1     -12.913  10.569  71.548  1.00  0.00    -0.460 C  
HETATM    2  N   UNL     1     -13.040   9.161  71.193  1.00  0.00    -0.521 NA 
HETATM    3  C   UNL     1     -11.776   8.387  71.108  1.00  0.00    -0.280 C  
HETATM    4  H   UNL     1     -13.947   8.730  71.013  1.00  0.00     0.000 HD 
HETATM    5  C   UNL     1     -12.191   6.903  70.782  1.00  0.00    -0.364 C  
HETATM    6  C   UNL     1     -11.020   8.459  72.453  1.00  0.00    -0.425 C  
HETATM    7  C   UNL     1     -10.874   8.941  69.986  1.00  0.00    -0.239 C  
ENDROOT
BRANCH   5   8
HETATM    8  C   UNL     1     -11.045   5.938  70.542  1.00  0.00    -0.347 A  
HETATM    9  C   UNL     1     -10.555   5.718  69.249  1.00  0.00    -0.376 A  
HETATM   10  C   UNL     1      -9.655   4.683  68.992  1.00  0.00    -0.242 A  
HETATM   11  C   UNL     1      -9.176   3.903  70.040  1.00  0.00    -0.220 A  
HETATM   12  C   UNL     1      -9.574   4.181  71.348  1.00  0.00    -0.238 A  
HETATM   13  C   UNL     1     -10.506   5.190  71.599  1.00  0.00    -0.255 A  
ENDBRANCH   5   8
TORSDOF 1
ENDMDL
MODEL       50
REMARK 921   NORMALIZED FREE ENERGY PREDICTED BY IDOCK:   -3.75 KCAL/MOL
REMARK 922        TOTAL FREE ENERGY PREDICTED BY IDOCK:   -3.98 KCAL/MOL
REMARK 923 INTER-LIGAND FREE ENERGY PREDICTED BY IDOCK:   -3.97 KCAL/MOL
REMARK 924 INTRA-LIGAND FREE ENERGY PREDICTED BY IDOCK:   -0.01 KCAL/MOL
REMARK 927      BINDING AFFINITY PREDICTED BY RF-SCORE:    0.00 PKD
ROOT
HETATM    1  C   UNL     1      -9.789  10.684  65.847  1.00  0.00    -0.243 C  
HETATM    2  N   UNL     1     -10.871  11.555  66.290  1.00  0.00    -0.281 NA 
HETATM    3  C   UNL     1     -10.582  12.419  67.462  1.00  0.00    -0.219 C  
HETATM    4  H   UNL     1     -11.777  11.571  65.820  1.00  0.00     0.000 HD 
HETATM    5  C   UNL     1     -11.871  13.296  67.688  1.00  0.00    -0.400 C  
HETATM    6  C   UNL     1      -9.357  13.313  67.171  1.00  0.00    -0.240 C  
HETATM    7  C   UNL     1     -10.302  11.561  68.713  1.00  0.00    -0.213 C  
ENDROOT
BRANCH   5   8
HETATM    8  C   UNL     1     -11.848  14.193  68.912  1.00  0.00    -0.382 A  
HETATM    9  C   UNL     1     -11.319  15.488  68.840  1.00  0.00    -0.329 A  
HETATM   10  C   UNL     1     -11.099  16.235  69.997  1.00  0.00    -0.351 A  
HETATM   11  C   UNL     1     -11.476  15.725  71.236  1.00  0.00    -0.481 A  
HETATM   12  C   UNL     1     -12.101  14.481  71.310  1.00  0.00    -0.419 A  
HETATM   13  C   UNL     1     -12.285  13.717  70.157  1.00  0.00    -0.413 A  
ENDBRANCH   5   8
TORSDOF 1
ENDMDL
MODEL       51
REMARK 921   NORMALIZED FREE ENERGY PREDICTED BY IDOCK:   -3.75 KCAL/MOL
REMARK 922        TOTAL FREE ENERGY PREDICTED BY IDOCK:   -3.98 KCAL/MOL
REMARK 923 INTER-LIGAND FREE ENERGY PREDICTED BY IDOCK:   -4.00 KCAL/MOL
REMARK 924 INTRA-LIGAND FREE ENERGY PREDICTED BY IDOCK:    0.03 KCAL/MOL
REMARK 927      BINDING AFFINITY PREDICTED BY RF-SCORE:    0.00 PKD
ROOT
HETATM    1  C   UNL     1      -8.095  10.259  69.818  1.00  0.00    -0.110 C  
HETATM    2  N   UNL     1      -9.403  10.483  69.216  1.00  0.00    -0.313 NA 
HETATM    3  C   UNL     1      -9.411  11.146  67.888  1.00  0.00    -0.175 C  
HETATM    4  H   UNL     1     -10.266  10.201  69.682  1.00  0.00     0.000 HD 
HETATM    5  C   UNL     1     -10.919  11.206  67.438  1.00  0.00    -0.347 C  
HETATM    6  C   UNL     1      -8.573  10.326  66.883  1.00  0.00    -0.127 C  
HETATM    7  C   UNL     1      -8.834  12.573  67.990  1.00  0.00    -0.187 C  
ENDROOT
BRANCH   5   8
HETATM    8  C   UNL     1     -11.188  11.945  66.140  1.00  0.00    -0.387 A  
HETATM    9  C   UNL     1     -11.931  13.132  66.134  1.00  0.00    -0.478 A  
HETATM   10  C   UNL     1     -12.362  13.699  64.935  1.00  0.00    -0.442 A  
HETATM   11  C   UNL     1     -11.991  13.126  63.722  1.00  0.00    -0.572 A  
HETATM   12  C   UNL     1     -11.162  12.005  63.712  1.00  0.00    -0.516 A  
HETATM   13  C   UNL     1     -10.764  11.415  64.913  1.00  0.00    -0.350 A  
ENDBRANCH   5   8
TORSDOF 1
ENDMDL
MODEL       52
REMARK 921   NORMALIZED FREE ENERGY PREDICTED BY IDOCK:   -3.74 KCAL/MOL
REMARK 922        TOTAL FREE ENERGY PREDICTED BY IDOCK:   -3.97 KCAL/MOL
REMARK 923 INTER-LIGAND FREE ENERGY PREDICTED BY IDOCK:   -3.96 KCAL/MOL
REMARK 924 INTRA-LIGAND FREE ENERGY PREDICTED BY IDOCK:   -0.01 KCAL/MOL
REMARK 927      BINDING AFFINITY PREDICTED BY RF-SCORE:    0.00 PKD
ROOT
HETATM    1  C   UNL     1     -10.895  10.109  67.134  1.00  0.00    -0.189 C  
HETATM    2  N   UNL     1     -11.582  11.384  67.290  1.00  0.00    -0.560 NA 
HETATM    3  C   UNL     1     -10.764  12.604  67.075  1.00  0.00    -0.245 C  
HETATM    4  H   UNL     1     -12.572  11.436  67.534  1.00  0.00     0.000 HD 
HETATM    5  C   UNL     1     -11.747  13.825  67.234  1.00  0.00    -0.416 C  
HETATM    6  C   UNL     1     -10.144  12.582  65.661  1.00  0.00    -0.285 C  
HETATM    7  C   UNL     1      -9.638  12.694  68.125  1.00  0.00    -0.219 C  
ENDROOT
BRANCH   5   8
HETATM    8  C   UNL     1     -11.106  15.198  67.159  1.00  0.00    -0.335 A  
HETATM    9  C   UNL     1     -10.977  15.990  68.307  1.00  0.00    -0.335 A  
HETATM   10  C   UNL     1     -10.588  17.326  68.213  1.00  0.00    -0.383 A  
HETATM   11  C   UNL     1     -10.252  17.867  66.976  1.00  0.00    -0.359 A  
HETATM   12  C   UNL     1     -10.274  17.059  65.839  1.00  0.00    -0.311 A  
HETATM   13  C   UNL     1     -10.701  15.733  65.928  1.00  0.00    -0.320 A  
ENDBRANCH   5   8
TORSDOF 1
ENDMDL
MODEL       53
REMARK 921   NORMALIZED FREE ENERGY PREDICTED BY IDOCK:   -3.73 KCAL/MOL
REMARK 922        TOTAL FREE ENERGY PREDICTED BY IDOCK:   -3.96 KCAL/MOL
REMARK 923 INTER-LIGAND FREE ENERGY PREDICTED BY IDOCK:   -3.93 KCAL/MOL
REMARK 924 INTRA-LIGAND FREE ENERGY PREDICTED BY IDOCK:   -0.03 KCAL/MOL
REMARK 927      BINDING AFFINITY PREDICTED BY RF-SCORE:    0.00 PKD
ROOT
HETATM    1  C   UNL     1     -10.766   6.505  66.775  1.00  0.00    -0.273 C  
HETATM    2  N   UNL     1     -11.484   6.505  68.043  1.00  0.00    -0.611 NA 
HETATM    3  C   UNL     1     -10.652   6.466  69.271  1.00  0.00    -0.259 C  
HETATM    4  H   UNL     1     -12.504   6.529  68.085  1.00  0.00     0.000 HD 
HETATM    5  C   UNL     1     -11.654   6.542  70.483  1.00  0.00    -0.455 C  
HETATM    6  C   UNL     1      -9.680   7.667  69.289  1.00  0.00    -0.164 C  
HETATM    7  C   UNL     1      -9.843   5.154  69.337  1.00  0.00    -0.269 C  
ENDROOT
BRANCH   5   8
HETATM    8  C   UNL     1     -11.030   6.411  71.861  1.00  0.00    -0.295 A  
HETATM    9  C   UNL     1     -11.146   5.219  72.587  1.00  0.00    -0.319 A  
HETATM   10  C   UNL     1     -10.766   5.160  73.928  1.00  0.00    -0.342 A  
HETATM   11  C   UNL     1     -10.194   6.273  74.538  1.00  0.00    -0.320 A  
HETATM   12  C   UNL     1      -9.975   7.432  73.794  1.00  0.00    -0.333 A  
HETATM   13  C   UNL     1     -10.393   7.504  72.465  1.00  0.00    -0.291 A  
ENDBRANCH   5   8
TORSDOF 1
ENDMDL
MODEL       54
REMARK 921   NORMALIZED FREE ENERGY PREDICTED BY IDOCK:   -3.73 KCAL/MOL
REMARK 922        TOTAL FREE ENERGY PREDICTED BY IDOCK:   -3.96 KCAL/MOL
REMARK 923 INTER-LIGAND FREE ENERGY PREDICTED BY IDOCK:   -4.11 KCAL/MOL
REMARK 924 INTRA-LIGAND FREE ENERGY PREDICTED BY IDOCK:    0.15 KCAL/MOL
REMARK 927      BINDING AFFINITY PREDICTED BY RF-SCORE:    0.00 PKD
ROOT
HETATM    1  C   UNL     1     -11.731  15.936  64.140  1.00  0.00    -0.027 C  
HETATM    2  N   UNL     1     -10.762  14.999  64.695  1.00  0.00    -0.608 NA 
HETATM    3  C   UNL     1     -11.282  13.660  65.070  1.00  0.00    -0.321 C  
HETATM    4  H   UNL     1      -9.781  15.249  64.819  1.00  0.00     0.000 HD 
HETATM    5  C   UNL     1     -10.039  12.832  65.570  1.00  0.00    -0.278 C  
HETATM    6  C   UNL     1     -11.932  12.983  63.843  1.00  0.00    -0.551 C  
HETATM    7  C   UNL     1     -12.326  13.779  66.199  1.00  0.00    -0.496 C  
ENDROOT
BRANCH   5   8
HETATM    8  C   UNL     1     -10.347  11.448  66.111  1.00  0.00    -0.294 A  
HETATM    9  C   UNL     1     -11.038  11.290  67.319  1.00  0.00    -0.367 A  
HETATM   10  C   UNL     1     -11.137  10.039  67.927  1.00  0.00    -0.260 A  
HETATM   11  C   UNL     1     -10.611   8.915  67.296  1.00  0.00    -0.304 A  
HETATM   12  C   UNL     1     -10.015   9.043  66.042  1.00  0.00    -0.246 A  
HETATM   13  C   UNL     1      -9.880  10.301  65.453  1.00  0.00    -0.362 A  
ENDBRANCH   5   8
TORSDOF 1
ENDMDL
MODEL       55
REMARK 921   NORMALIZED FREE ENERGY PREDICTED BY IDOCK:   -3.73 KCAL/MOL
REMARK 922        TOTAL FREE ENERGY PREDICTED BY IDOCK:   -3.96 KCAL/MOL
REMARK 923 INTER-LIGAND FREE ENERGY PREDICTED BY IDOCK:   -3.93 KCAL/MOL
REMARK 924 INTRA-LIGAND FREE ENERGY PREDICTED BY IDOCK:   -0.03 KCAL/MOL
REMARK 927      BINDING AFFINITY PREDICTED BY RF-SCORE:    0.00 PKD
ROOT
HETATM    1  C   UNL     1      -8.052  15.545  68.872  1.00  0.00    -0.194 C  
HETATM    2  N   UNL     1      -8.619  15.603  67.530  1.00  0.00    -0.166 NA 
HETATM    3  C   UNL     1      -9.490  14.468  67.134  1.00  0.00    -0.231 C  
HETATM    4  H   UNL     1      -8.428  16.380  66.897  1.00  0.00     0.000 HD 
HETATM    5  C   UNL     1     -10.019  14.805  65.689  1.00  0.00    -0.390 C  
HETATM    6  C   UNL     1     -10.664  14.331  68.128  1.00  0.00    -0.249 C  
HETATM    7  C   UNL     1      -8.687  13.151  67.108  1.00  0.00    -0.214 C  
ENDROOT
BRANCH   5   8
HETATM    8  C   UNL     1     -10.856  13.725  65.028  1.00  0.00    -0.377 A  
HETATM    9  C   UNL     1     -10.310  12.910  64.028  1.00  0.00    -0.346 A  
HETATM   10  C   UNL     1     -11.123  12.067  63.271  1.00  0.00    -0.400 A  
HETATM   11  C   UNL     1     -12.483  11.973  63.555  1.00  0.00    -0.654 A  
HETATM   12  C   UNL     1     -13.018  12.700  64.618  1.00  0.00    -0.225 A  
HETATM   13  C   UNL     1     -12.212  13.573  65.350  1.00  0.00    -0.482 A  
ENDBRANCH   5   8
TORSDOF 1
ENDMDL
MODEL       56
REMARK 921   NORMALIZED FREE ENERGY PREDICTED BY IDOCK:   -3.68 KCAL/MOL
REMARK 922        TOTAL FREE ENERGY PREDICTED BY IDOCK:   -3.90 KCAL/MOL
REMARK 923 INTER-LIGAND FREE ENERGY PREDICTED BY IDOCK:   -3.86 KCAL/MOL
REMARK 924 INTRA-LIGAND FREE ENERGY PREDICTED BY IDOCK:   -0.04 KCAL/MOL
REMARK 927      BINDING AFFINITY PREDICTED BY RF-SCORE:    0.00 PKD
ROOT
HETATM    1  C   UNL     1      -9.920  10.414  64.852  1.00  0.00    -0.339 C  
HETATM    2  N   UNL     1      -9.257  11.555  65.472  1.00  0.00    -0.345 NA 
HETATM    3  C   UNL     1     -10.103  12.745  65.736  1.00  0.00    -0.286 C  
HETATM    4  H   UNL     1      -8.265  11.536  65.711  1.00  0.00     0.000 HD 
HETATM    5  C   UNL     1      -9.175  13.791  66.460  1.00  0.00    -0.210 C  
HETATM    6  C   UNL     1     -11.296  12.356  66.637  1.00  0.00    -0.394 C  
HETATM    7  C   UNL     1     -10.634  13.337  64.414  1.00  0.00    -0.438 C  
ENDROOT
BRANCH   5   8
HETATM    8  C   UNL     1      -9.803  15.145  66.738  1.00  0.00    -0.251 A  
HETATM    9  C   UNL     1      -9.590  16.223  65.871  1.00  0.00    -0.336 A  
HETATM   10  C   UNL     1      -9.982  17.514  66.226  1.00  0.00    -0.316 A  
HETATM   11  C   UNL     1     -10.660  17.730  67.422  1.00  0.00    -0.341 A  
HETATM   12  C   UNL     1     -10.973  16.648  68.244  1.00  0.00    -0.341 A  
HETATM   13  C   UNL     1     -10.546  15.363  67.908  1.00  0.00    -0.267 A  
ENDBRANCH   5   8
TORSDOF 1
ENDMDL
MODEL       57
REMARK 921   NORMALIZED FREE ENERGY PREDICTED BY IDOCK:   -3.64 KCAL/MOL
REMARK 922        TOTAL FREE ENERGY PREDICTED BY IDOCK:   -3.87 KCAL/MOL
REMARK 923 INTER-LIGAND FREE ENERGY PREDICTED BY IDOCK:   -3.83 KCAL/MOL
REMARK 924 INTRA-LIGAND FREE ENERGY PREDICTED BY IDOCK:   -0.04 KCAL/MOL
REMARK 927      BINDING AFFINITY PREDICTED BY RF-SCORE:    0.00 PKD
ROOT
HETATM    1  C   UNL     1      -8.581   7.687  66.080  1.00  0.00    -0.148 C  
HETATM    2  N   UNL     1      -9.257   8.635  65.204  1.00  0.00    -0.431 NA 
HETATM    3  C   UNL     1      -9.594   9.954  65.795  1.00  0.00    -0.250 C  
HETATM    4  H   UNL     1      -9.487   8.405  64.236  1.00  0.00     0.000 HD 
HETATM    5  C   UNL     1     -10.246  10.800  64.638  1.00  0.00    -0.419 C  
HETATM    6  C   UNL     1      -8.314  10.640  66.321  1.00  0.00    -0.155 C  
HETATM    7  C   UNL     1     -10.597   9.788  66.955  1.00  0.00    -0.269 C  
ENDROOT
BRANCH   5   8
HETATM    8  C   UNL     1     -10.773  12.165  65.039  1.00  0.00    -0.338 A  
HETATM    9  C   UNL     1     -12.131  12.351  65.327  1.00  0.00    -0.451 A  
HETATM   10  C   UNL     1     -12.658  13.632  65.486  1.00  0.00    -0.541 A  
HETATM   11  C   UNL     1     -11.819  14.741  65.433  1.00  0.00    -0.249 A  
HETATM   12  C   UNL     1     -10.448  14.562  65.254  1.00  0.00    -0.411 A  
HETATM   13  C   UNL     1      -9.926  13.283  65.054  1.00  0.00    -0.168 A  
ENDBRANCH   5   8
TORSDOF 1
ENDMDL
MODEL       58
REMARK 921   NORMALIZED FREE ENERGY PREDICTED BY IDOCK:   -3.64 KCAL/MOL
REMARK 922        TOTAL FREE ENERGY PREDICTED BY IDOCK:   -3.87 KCAL/MOL
REMARK 923 INTER-LIGAND FREE ENERGY PREDICTED BY IDOCK:   -3.83 KCAL/MOL
REMARK 924 INTRA-LIGAND FREE ENERGY PREDICTED BY IDOCK:   -0.04 KCAL/MOL
REMARK 927      BINDING AFFINITY PREDICTED BY RF-SCORE:    0.00 PKD
ROOT
HETATM    1  C   UNL     1     -10.948  10.440  68.049  1.00  0.00    -0.291 C  
HETATM    2  N   UNL     1     -11.590   9.875  69.230  1.00  0.00    -0.460 NA 
HETATM    3  C   UNL     1     -10.802   8.874  69.992  1.00  0.00    -0.227 C  
HETATM    4  H   UNL     1     -12.530  10.152  69.517  1.00  0.00     0.000 HD 
HETATM    5  C   UNL     1     -11.682   8.479  71.237  1.00  0.00    -0.331 C  
HETATM    6  C   UNL     1      -9.461   9.491  70.445  1.00  0.00    -0.317 C  
HETATM    7  C   UNL     1     -10.525   7.628  69.126  1.00  0.00    -0.220 C  
ENDROOT
BRANCH   5   8
HETATM    8  C   UNL     1     -11.120   7.378  72.116  1.00  0.00    -0.291 A  
HETATM    9  C   UNL     1     -11.506   6.045  71.927  1.00  0.00    -0.328 A  
HETATM   10  C   UNL     1     -11.164   5.063  72.857  1.00  0.00    -0.344 A  
HETATM   11  C   UNL     1     -10.367   5.389  73.950  1.00  0.00    -0.287 A  
HETATM   12  C   UNL     1      -9.887   6.691  74.092  1.00  0.00    -0.335 A  
HETATM   13  C   UNL     1     -10.262   7.681  73.183  1.00  0.00    -0.401 A  
ENDBRANCH   5   8
TORSDOF 1
ENDMDL
MODEL       59
REMARK 921   NORMALIZED FREE ENERGY PREDICTED BY IDOCK:   -3.62 KCAL/MOL
REMARK 922        TOTAL FREE ENERGY PREDICTED BY IDOCK:   -3.84 KCAL/MOL
REMARK 923 INTER-LIGAND FREE ENERGY PREDICTED BY IDOCK:   -3.81 KCAL/MOL
REMARK 924 INTRA-LIGAND FREE ENERGY PREDICTED BY IDOCK:   -0.03 KCAL/MOL
REMARK 927      BINDING AFFINITY PREDICTED BY RF-SCORE:    0.00 PKD
ROOT
HETATM    1  C   UNL     1      -8.744  16.871  68.671  1.00  0.00    -0.267 C  
HETATM    2  N   UNL     1      -9.716  15.848  68.304  1.00  0.00    -0.207 NA 
HETATM    3  C   UNL     1      -9.407  15.050  67.092  1.00  0.00    -0.215 C  
HETATM    4  H   UNL     1     -10.564  15.691  68.850  1.00  0.00     0.000 HD 
HETATM    5  C   UNL     1     -10.563  13.988  66.959  1.00  0.00    -0.279 C  
HETATM    6  C   UNL     1      -8.039  14.351  67.254  1.00  0.00    -0.209 C  
HETATM    7  C   UNL     1      -9.373  15.952  65.841  1.00  0.00    -0.353 C  
ENDROOT
BRANCH   5   8
HETATM    8  C   UNL     1     -10.514  13.117  65.718  1.00  0.00    -0.291 A  
HETATM    9  C   UNL     1     -11.202  13.489  64.556  1.00  0.00    -0.392 A  
HETATM   10  C   UNL     1     -11.339  12.600  63.491  1.00  0.00    -0.527 A  
HETATM   11  C   UNL     1     -10.725  11.351  63.544  1.00  0.00    -0.453 A  
HETATM   12  C   UNL     1      -9.949  11.010  64.651  1.00  0.00    -0.357 A  
HETATM   13  C   UNL     1      -9.845  11.885  65.734  1.00  0.00    -0.262 A  
ENDBRANCH   5   8
TORSDOF 1
ENDMDL
MODEL       60
REMARK 921   NORMALIZED FREE ENERGY PREDICTED BY IDOCK:   -3.58 KCAL/MOL
REMARK 922        TOTAL FREE ENERGY PREDICTED BY IDOCK:   -3.80 KCAL/MOL
REMARK 923 INTER-LIGAND FREE ENERGY PREDICTED BY IDOCK:   -3.93 KCAL/MOL
REMARK 924 INTRA-LIGAND FREE ENERGY PREDICTED BY IDOCK:    0.13 KCAL/MOL
REMARK 927      BINDING AFFINITY PREDICTED BY RF-SCORE:    0.00 PKD
ROOT
HETATM    1  C   UNL     1     -10.322  12.395  63.819  1.00  0.00    -0.425 C  
HETATM    2  N   UNL     1     -10.542  11.270  64.719  1.00  0.00    -0.315 NA 
HETATM    3  C   UNL     1     -10.676  11.597  66.161  1.00  0.00    -0.278 C  
HETATM    4  H   UNL     1     -10.601  10.310  64.378  1.00  0.00     0.000 HD 
HETATM    5  C   UNL     1     -10.971  10.235  66.894  1.00  0.00    -0.140 C  
HETATM    6  C   UNL     1     -11.837  12.594  66.371  1.00  0.00    -0.466 C  
HETATM    7  C   UNL     1      -9.370  12.215  66.701  1.00  0.00    -0.226 C  
ENDROOT
BRANCH   5   8
HETATM    8  C   UNL     1     -11.043  10.307  68.408  1.00  0.00    -0.302 A  
HETATM    9  C   UNL     1     -10.222   9.495  69.202  1.00  0.00    -0.209 A  
HETATM   10  C   UNL     1     -10.429   9.398  70.578  1.00  0.00    -0.335 A  
HETATM   11  C   UNL     1     -11.413  10.171  71.189  1.00  0.00    -0.387 A  
HETATM   12  C   UNL     1     -12.166  11.062  70.425  1.00  0.00    -0.461 A  
HETATM   13  C   UNL     1     -11.985  11.129  69.042  1.00  0.00    -0.389 A  
ENDBRANCH   5   8
TORSDOF 1
ENDMDL
MODEL       61
REMARK 921   NORMALIZED FREE ENERGY PREDICTED BY IDOCK:   -3.58 KCAL/MOL
REMARK 922        TOTAL FREE ENERGY PREDICTED BY IDOCK:   -3.80 KCAL/MOL
REMARK 923 INTER-LIGAND FREE ENERGY PREDICTED BY IDOCK:   -3.80 KCAL/MOL
REMARK 924 INTRA-LIGAND FREE ENERGY PREDICTED BY IDOCK:   -0.00 KCAL/MOL
REMARK 927      BINDING AFFINITY PREDICTED BY RF-SCORE:    0.00 PKD
ROOT
HETATM    1  C   UNL     1     -11.536  15.244  72.363  1.00  0.00    -0.417 C  
HETATM    2  N   UNL     1     -11.554  14.282  71.267  1.00  0.00    -0.447 NA 
HETATM    3  C   UNL     1     -11.330  14.830  69.906  1.00  0.00    -0.271 C  
HETATM    4  H   UNL     1     -11.712  13.287  71.427  1.00  0.00     0.000 HD 
HETATM    5  C   UNL     1     -11.329  13.594  68.930  1.00  0.00    -0.332 C  
HETATM    6  C   UNL     1      -9.975  15.570  69.851  1.00  0.00    -0.243 C  
HETATM    7  C   UNL     1     -12.460  15.806  69.521  1.00  0.00     0.046 C  
ENDROOT
BRANCH   5   8
HETATM    8  C   UNL     1     -11.220  13.924  67.453  1.00  0.00    -0.330 A  
HETATM    9  C   UNL     1     -12.310  13.731  66.595  1.00  0.00    -0.403 A  
HETATM   10  C   UNL     1     -12.157  13.826  65.212  1.00  0.00    -0.425 A  
HETATM   11  C   UNL     1     -10.926  14.190  64.673  1.00  0.00    -0.393 A  
HETATM   12  C   UNL     1      -9.861  14.489  65.522  1.00  0.00    -0.320 A  
HETATM   13  C   UNL     1     -10.004  14.355  66.904  1.00  0.00    -0.261 A  
ENDBRANCH   5   8
TORSDOF 1
ENDMDL
MODEL       62
REMARK 921   NORMALIZED FREE ENERGY PREDICTED BY IDOCK:   -3.55 KCAL/MOL
REMARK 922        TOTAL FREE ENERGY PREDICTED BY IDOCK:   -3.77 KCAL/MOL
REMARK 923 INTER-LIGAND FREE ENERGY PREDICTED BY IDOCK:   -3.84 KCAL/MOL
REMARK 924 INTRA-LIGAND FREE ENERGY PREDICTED BY IDOCK:    0.07 KCAL/MOL
REMARK 927      BINDING AFFINITY PREDICTED BY RF-SCORE:    0.00 PKD
ROOT
HETATM    1  C   UNL     1     -11.712  15.732  68.234  1.00  0.00    -0.222 C  
HETATM    2  N   UNL     1     -12.088  14.415  67.734  1.00  0.00    -0.596 NA 
HETATM    3  C   UNL     1     -10.981  13.558  67.240  1.00  0.00    -0.280 C  
HETATM    4  H   UNL     1     -13.058  14.099  67.724  1.00  0.00     0.000 HD 
HETATM    5  C   UNL     1     -11.639  12.187  66.828  1.00  0.00    -0.412 C  
HETATM    6  C   UNL     1      -9.936  13.348  68.357  1.00  0.00    -0.231 C  
HETATM    7  C   UNL     1     -10.299  14.204  66.017  1.00  0.00    -0.316 C  
ENDROOT
BRANCH   5   8
HETATM    8  C   UNL     1     -10.705  11.177  66.188  1.00  0.00    -0.285 A  
HETATM    9  C   UNL     1     -10.298  11.323  64.856  1.00  0.00    -0.362 A  
HETATM   10  C   UNL     1      -9.619  10.297  64.199  1.00  0.00    -0.376 A  
HETATM   11  C   UNL     1      -9.272   9.140  64.890  1.00  0.00    -0.135 A  
HETATM   12  C   UNL     1      -9.578   9.027  66.246  1.00  0.00    -0.327 A  
HETATM   13  C   UNL     1     -10.292  10.037  66.893  1.00  0.00    -0.297 A  
ENDBRANCH   5   8
TORSDOF 1
ENDMDL
MODEL       63
REMARK 921   NORMALIZED FREE ENERGY PREDICTED BY IDOCK:   -3.55 KCAL/MOL
REMARK 922        TOTAL FREE ENERGY PREDICTED BY IDOCK:   -3.76 KCAL/MOL
REMARK 923 INTER-LIGAND FREE ENERGY PREDICTED BY IDOCK:   -3.76 KCAL/MOL
REMARK 924 INTRA-LIGAND FREE ENERGY PREDICTED BY IDOCK:   -0.00 KCAL/MOL
REMARK 927      BINDING AFFINITY PREDICTED BY RF-SCORE:    0.00 PKD
ROOT
HETATM    1  C   UNL     1      -9.425   8.670  68.315  1.00  0.00    -0.141 C  
HETATM    2  N   UNL     1     -10.524   9.626  68.259  1.00  0.00    -0.209 NA 
HETATM    3  C   UNL     1     -10.412  10.698  67.239  1.00  0.00    -0.246 C  
HETATM    4  H   UNL     1     -11.326   9.562  68.886  1.00  0.00     0.000 HD 
HETATM    5  C   UNL     1     -11.738  11.541  67.341  1.00  0.00    -0.231 C  
HETATM    6  C   UNL     1     -10.266  10.077  65.832  1.00  0.00    -0.275 C  
HETATM    7  C   UNL     1      -9.193  11.598  67.528  1.00  0.00    -0.172 C  
ENDROOT
BRANCH   5   8
HETATM    8  C   UNL     1     -11.806  12.770  66.454  1.00  0.00    -0.472 A  
HETATM    9  C   UNL     1     -12.337  12.690  65.160  1.00  0.00    -0.547 A  
HETATM   10  C   UNL     1     -12.208  13.755  64.268  1.00  0.00    -0.444 A  
HETATM   11  C   UNL     1     -11.611  14.942  64.683  1.00  0.00    -0.395 A  
HETATM   12  C   UNL     1     -11.174  15.071  66.002  1.00  0.00    -0.310 A  
HETATM   13  C   UNL     1     -11.267  13.992  66.882  1.00  0.00    -0.323 A  
ENDBRANCH   5   8
TORSDOF 1
ENDMDL
MODEL       64
REMARK 921   NORMALIZED FREE ENERGY PREDICTED BY IDOCK:   -3.53 KCAL/MOL
REMARK 922        TOTAL FREE ENERGY PREDICTED BY IDOCK:   -3.75 KCAL/MOL
REMARK 923 INTER-LIGAND FREE ENERGY PREDICTED BY IDOCK:   -3.87 KCAL/MOL
REMARK 924 INTRA-LIGAND FREE ENERGY PREDICTED BY IDOCK:    0.12 KCAL/MOL
REMARK 927      BINDING AFFINITY PREDICTED BY RF-SCORE:    0.00 PKD
ROOT
HETATM    1  C   UNL     1     -12.113  15.215  64.428  1.00  0.00    -0.300 C  
HETATM    2  N   UNL     1     -10.997  14.346  64.779  1.00  0.00    -0.472 NA 
HETATM    3  C   UNL     1     -11.343  13.074  65.461  1.00  0.00    -0.300 C  
HETATM    4  H   UNL     1     -10.031  14.598  64.568  1.00  0.00     0.000 HD 
HETATM    5  C   UNL     1      -9.985  12.302  65.665  1.00  0.00    -0.271 C  
HETATM    6  C   UNL     1     -12.313  12.251  64.586  1.00  0.00    -0.449 C  
HETATM    7  C   UNL     1     -12.001  13.352  66.829  1.00  0.00    -0.447 C  
ENDROOT
BRANCH   5   8
HETATM    8  C   UNL     1     -10.077  11.005  66.446  1.00  0.00    -0.275 A  
HETATM    9  C   UNL     1      -9.967   9.769  65.796  1.00  0.00    -0.349 A  
HETATM   10  C   UNL     1     -10.261   8.581  66.465  1.00  0.00    -0.286 A  
HETATM   11  C   UNL     1     -10.598   8.608  67.815  1.00  0.00    -0.249 A  
HETATM   12  C   UNL     1     -10.607   9.823  68.500  1.00  0.00    -0.252 A  
HETATM   13  C   UNL     1     -10.352  11.015  67.822  1.00  0.00    -0.218 A  
ENDBRANCH   5   8
TORSDOF 1
ENDMDL
MODEL       65
REMARK 921   NORMALIZED FREE ENERGY PREDICTED BY IDOCK:   -3.53 KCAL/MOL
REMARK 922        TOTAL FREE ENERGY PREDICTED BY IDOCK:   -3.75 KCAL/MOL
REMARK 923 INTER-LIGAND FREE ENERGY PREDICTED BY IDOCK:   -3.71 KCAL/MOL
REMARK 924 INTRA-LIGAND FREE ENERGY PREDICTED BY IDOCK:   -0.04 KCAL/MOL
REMARK 927      BINDING AFFINITY PREDICTED BY RF-SCORE:    0.00 PKD
ROOT
HETATM    1  C   UNL     1      -8.606   7.205  65.801  1.00  0.00    -0.133 C  
HETATM    2  N   UNL     1      -8.637   7.305  67.254  1.00  0.00    -0.121 NA 
HETATM    3  C   UNL     1      -9.963   7.568  67.868  1.00  0.00    -0.165 C  
HETATM    4  H   UNL     1      -7.794   7.201  67.820  1.00  0.00     0.000 HD 
HETATM    5  C   UNL     1      -9.734   7.562  69.426  1.00  0.00    -0.164 C  
HETATM    6  C   UNL     1     -10.963   6.465  67.458  1.00  0.00    -0.454 C  
HETATM    7  C   UNL     1     -10.505   8.941  67.420  1.00  0.00    -0.347 C  
ENDROOT
BRANCH   5   8
HETATM    8  C   UNL     1     -10.944   7.917  70.269  1.00  0.00    -0.249 A  
HETATM    9  C   UNL     1     -11.124   9.221  70.749  1.00  0.00    -0.349 A  
HETATM   10  C   UNL     1     -12.110   9.506  71.693  1.00  0.00    -0.474 A  
HETATM   11  C   UNL     1     -12.979   8.503  72.114  1.00  0.00    -0.403 A  
HETATM   12  C   UNL     1     -12.878   7.225  71.564  1.00  0.00    -0.430 A  
HETATM   13  C   UNL     1     -11.866   6.931  70.649  1.00  0.00    -0.418 A  
ENDBRANCH   5   8
TORSDOF 1
ENDMDL
MODEL       66
REMARK 921   NORMALIZED FREE ENERGY PREDICTED BY IDOCK:   -3.49 KCAL/MOL
REMARK 922        TOTAL FREE ENERGY PREDICTED BY IDOCK:   -3.71 KCAL/MOL
REMARK 923 INTER-LIGAND FREE ENERGY PREDICTED BY IDOCK:   -3.88 KCAL/MOL
REMARK 924 INTRA-LIGAND FREE ENERGY PREDICTED BY IDOCK:    0.17 KCAL/MOL
REMARK 927      BINDING AFFINITY PREDICTED BY RF-SCORE:    0.00 PKD
ROOT
HETATM    1  C   UNL     1     -10.633  14.653  64.921  1.00  0.00    -0.422 C  
HETATM    2  N   UNL     1     -10.069  13.946  66.064  1.00  0.00    -0.304 NA 
HETATM    3  C   UNL     1     -11.041  13.377  67.031  1.00  0.00    -0.292 C  
HETATM    4  H   UNL     1      -9.062  13.848  66.193  1.00  0.00     0.000 HD 
HETATM    5  C   UNL     1     -10.187  12.619  68.116  1.00  0.00    -0.240 C  
HETATM    6  C   UNL     1     -11.996  12.402  66.309  1.00  0.00    -0.369 C  
HETATM    7  C   UNL     1     -11.864  14.498  67.698  1.00  0.00    -0.395 C  
ENDROOT
BRANCH   5   8
HETATM    8  C   UNL     1     -10.969  12.038  69.280  1.00  0.00    -0.189 A  
HETATM    9  C   UNL     1     -11.094  10.652  69.436  1.00  0.00    -0.315 A  
HETATM   10  C   UNL     1     -11.980  10.115  70.369  1.00  0.00    -0.353 A  
HETATM   11  C   UNL     1     -12.699  10.959  71.211  1.00  0.00    -0.542 A  
HETATM   12  C   UNL     1     -12.503  12.338  71.138  1.00  0.00    -0.328 A  
HETATM   13  C   UNL     1     -11.646  12.876  70.177  1.00  0.00    -0.131 A  
ENDBRANCH   5   8
TORSDOF 1
ENDMDL
MODEL       67
REMARK 921   NORMALIZED FREE ENERGY PREDICTED BY IDOCK:   -3.46 KCAL/MOL
REMARK 922        TOTAL FREE ENERGY PREDICTED BY IDOCK:   -3.68 KCAL/MOL
REMARK 923 INTER-LIGAND FREE ENERGY PREDICTED BY IDOCK:   -3.88 KCAL/MOL
REMARK 924 INTRA-LIGAND FREE ENERGY PREDICTED BY IDOCK:    0.21 KCAL/MOL
REMARK 927      BINDING AFFINITY PREDICTED BY RF-SCORE:    0.00 PKD
ROOT
HETATM    1  C   UNL     1     -12.556  15.276  64.325  1.00  0.00     0.186 C  
HETATM    2  N   UNL     1     -12.190  13.999  63.724  1.00  0.00    -0.939 NA 
HETATM    3  C   UNL     1     -11.366  13.091  64.561  1.00  0.00    -0.339 C  
HETATM    4  H   UNL     1     -12.483  13.743  62.781  1.00  0.00     0.000 HD 
HETATM    5  C   UNL     1     -11.171  11.775  63.718  1.00  0.00    -0.518 C  
HETATM    6  C   UNL     1     -12.095  12.787  65.888  1.00  0.00    -0.485 C  
HETATM    7  C   UNL     1      -9.995  13.729  64.866  1.00  0.00    -0.178 C  
ENDROOT
BRANCH   5   8
HETATM    8  C   UNL     1     -10.262  10.728  64.335  1.00  0.00    -0.432 A  
HETATM    9  C   UNL     1      -9.219  10.160  63.592  1.00  0.00    -0.320 A  
HETATM   10  C   UNL     1      -8.519   9.054  64.074  1.00  0.00    -0.175 A  
HETATM   11  C   UNL     1      -8.804   8.548  65.339  1.00  0.00    -0.173 A  
HETATM   12  C   UNL     1      -9.768   9.171  66.132  1.00  0.00    -0.357 A  
HETATM   13  C   UNL     1     -10.495  10.253  65.634  1.00  0.00    -0.152 A  
ENDBRANCH   5   8
TORSDOF 1
ENDMDL
MODEL       68
REMARK 921   NORMALIZED FREE ENERGY PREDICTED BY IDOCK:   -3.45 KCAL/MOL
REMARK 922        TOTAL FREE ENERGY PREDICTED BY IDOCK:   -3.67 KCAL/MOL
REMARK 923 INTER-LIGAND FREE ENERGY PREDICTED BY IDOCK:   -3.94 KCAL/MOL
REMARK 924 INTRA-LIGAND FREE ENERGY PREDICTED BY IDOCK:    0.27 KCAL/MOL
REMARK 927      BINDING AFFINITY PREDICTED BY RF-SCORE:    0.00 PKD
ROOT
HETATM    1  C   UNL     1      -9.491  12.517  66.774  1.00  0.00    -0.231 C  
HETATM    2  N   UNL     1     -10.305  12.517  67.983  1.00  0.00    -0.216 NA 
HETATM    3  C   UNL     1     -10.436  11.217  68.688  1.00  0.00    -0.197 C  
HETATM    4  H   UNL     1     -10.761  13.363  68.326  1.00  0.00     0.000 HD 
HETATM    5  C   UNL     1     -11.295  11.502  69.977  1.00  0.00    -0.222 C  
HETATM    6  C   UNL     1      -9.039  10.680  69.070  1.00  0.00    -0.174 C  
HETATM    7  C   UNL     1     -11.153  10.184  67.794  1.00  0.00    -0.293 C  
ENDROOT
BRANCH   5   8
HETATM    8  C   UNL     1     -11.652  10.285  70.810  1.00  0.00    -0.446 A  
HETATM    9  C   UNL     1     -12.960  10.094  71.273  1.00  0.00    -0.510 A  
HETATM   10  C   UNL     1     -13.249   9.102  72.209  1.00  0.00    -0.528 A  
HETATM   11  C   UNL     1     -12.245   8.238  72.639  1.00  0.00    -0.293 A  
HETATM   12  C   UNL     1     -10.962   8.350  72.105  1.00  0.00    -0.411 A  
HETATM   13  C   UNL     1     -10.664   9.368  71.198  1.00  0.00    -0.417 A  
ENDBRANCH   5   8
TORSDOF 1
ENDMDL
MODEL       69
REMARK 921   NORMALIZED FREE ENERGY PREDICTED BY IDOCK:   -3.45 KCAL/MOL
REMARK 922        TOTAL FREE ENERGY PREDICTED BY IDOCK:   -3.67 KCAL/MOL
REMARK 923 INTER-LIGAND FREE ENERGY PREDICTED BY IDOCK:   -3.71 KCAL/MOL
REMARK 924 INTRA-LIGAND FREE ENERGY PREDICTED BY IDOCK:    0.04 KCAL/MOL
REMARK 927      BINDING AFFINITY PREDICTED BY RF-SCORE:    0.00 PKD
ROOT
HETATM    1  C   UNL     1      -8.969   9.796  64.949  1.00  0.00    -0.216 C  
HETATM    2  N   UNL     1     -10.179  10.489  65.372  1.00  0.00    -0.286 NA 
HETATM    3  C   UNL     1     -10.100  11.227  66.658  1.00  0.00    -0.214 C  
HETATM    4  H   UNL     1     -11.034  10.468  64.815  1.00  0.00     0.000 HD 
HETATM    5  C   UNL     1     -11.496  11.931  66.846  1.00  0.00    -0.390 C  
HETATM    6  C   UNL     1      -8.965  12.272  66.599  1.00  0.00    -0.189 C  
HETATM    7  C   UNL     1      -9.839  10.254  67.826  1.00  0.00    -0.195 C  
ENDROOT
BRANCH   5   8
HETATM    8  C   UNL     1     -11.689  12.667  68.158  1.00  0.00    -0.396 A  
HETATM    9  C   UNL     1     -12.003  11.968  69.331  1.00  0.00    -0.334 A  
HETATM   10  C   UNL     1     -12.389  12.647  70.486  1.00  0.00    -0.350 A  
HETATM   11  C   UNL     1     -12.394  14.039  70.505  1.00  0.00    -0.437 A  
HETATM   12  C   UNL     1     -11.981  14.747  69.377  1.00  0.00    -0.339 A  
HETATM   13  C   UNL     1     -11.633  14.067  68.209  1.00  0.00    -0.364 A  
ENDBRANCH   5   8
TORSDOF 1
ENDMDL
MODEL       70
REMARK 921   NORMALIZED FREE ENERGY PREDICTED BY IDOCK:   -3.44 KCAL/MOL
REMARK 922        TOTAL FREE ENERGY PREDICTED BY IDOCK:   -3.65 KCAL/MOL
REMARK 923 INTER-LIGAND FREE ENERGY PREDICTED BY IDOCK:   -3.61 KCAL/MOL
REMARK 924 INTRA-LIGAND FREE ENERGY PREDICTED BY IDOCK:   -0.04 KCAL/MOL
REMARK 927      BINDING AFFINITY PREDICTED BY RF-SCORE:    0.00 PKD
ROOT
HETATM    1  C   UNL     1     -10.280   9.384  67.072  1.00  0.00    -0.255 C  
HETATM    2  N   UNL     1     -10.847   8.141  67.582  1.00  0.00    -0.507 NA 
HETATM    3  C   UNL     1     -10.419   7.734  68.944  1.00  0.00    -0.194 C  
HETATM    4  H   UNL     1     -11.501   7.582  67.034  1.00  0.00     0.000 HD 
HETATM    5  C   UNL     1     -11.216   6.417  69.278  1.00  0.00    -0.440 C  
HETATM    6  C   UNL     1     -10.755   8.848  69.959  1.00  0.00    -0.241 C  
HETATM    7  C   UNL     1      -8.902   7.455  68.976  1.00  0.00    -0.132 C  
ENDROOT
BRANCH   5   8
HETATM    8  C   UNL     1     -10.860   5.750  70.594  1.00  0.00    -0.337 A  
HETATM    9  C   UNL     1      -9.981   4.661  70.629  1.00  0.00    -0.293 A  
HETATM   10  C   UNL     1      -9.816   3.912  71.794  1.00  0.00    -0.249 A  
HETATM   11  C   UNL     1     -10.473   4.291  72.962  1.00  0.00    -0.250 A  
HETATM   12  C   UNL     1     -11.268   5.437  72.967  1.00  0.00    -0.370 A  
HETATM   13  C   UNL     1     -11.464   6.162  71.791  1.00  0.00    -0.342 A  
ENDBRANCH   5   8
TORSDOF 1
ENDMDL
MODEL       71
REMARK 921   NORMALIZED FREE ENERGY PREDICTED BY IDOCK:   -3.41 KCAL/MOL
REMARK 922        TOTAL FREE ENERGY PREDICTED BY IDOCK:   -3.62 KCAL/MOL
REMARK 923 INTER-LIGAND FREE ENERGY PREDICTED BY IDOCK:   -3.64 KCAL/MOL
REMARK 924 INTRA-LIGAND FREE ENERGY PREDICTED BY IDOCK:    0.02 KCAL/MOL
REMARK 927      BINDING AFFINITY PREDICTED BY RF-SCORE:    0.00 PKD
ROOT
HETATM    1  C   UNL     1     -12.880  10.149  71.084  1.00  0.00    -0.399 C  
HETATM    2  N   UNL     1     -12.083   9.397  72.045  1.00  0.00    -0.345 NA 
HETATM    3  C   UNL     1     -11.740   8.003  71.668  1.00  0.00    -0.283 C  
HETATM    4  H   UNL     1     -11.777   9.807  72.928  1.00  0.00     0.000 HD 
HETATM    5  C   UNL     1     -10.832   7.446  72.828  1.00  0.00    -0.374 C  
HETATM    6  C   UNL     1     -10.980   7.990  70.324  1.00  0.00    -0.242 C  
HETATM    7  C   UNL     1     -13.016   7.146  71.541  1.00  0.00    -0.431 C  
ENDROOT
BRANCH   5   8
HETATM    8  C   UNL     1     -10.440   5.985  72.712  1.00  0.00    -0.243 A  
HETATM    9  C   UNL     1      -9.567   5.557  71.703  1.00  0.00    -0.187 A  
HETATM   10  C   UNL     1      -9.372   4.198  71.457  1.00  0.00    -0.207 A  
HETATM   11  C   UNL     1      -9.990   3.249  72.267  1.00  0.00    -0.235 A  
HETATM   12  C   UNL     1     -10.776   3.664  73.341  1.00  0.00    -0.302 A  
HETATM   13  C   UNL     1     -11.004   5.023  73.562  1.00  0.00    -0.393 A  
ENDBRANCH   5   8
TORSDOF 1
ENDMDL
MODEL       72
REMARK 921   NORMALIZED FREE ENERGY PREDICTED BY IDOCK:   -3.39 KCAL/MOL
REMARK 922        TOTAL FREE ENERGY PREDICTED BY IDOCK:   -3.60 KCAL/MOL
REMARK 923 INTER-LIGAND FREE ENERGY PREDICTED BY IDOCK:   -3.58 KCAL/MOL
REMARK 924 INTRA-LIGAND FREE ENERGY PREDICTED BY IDOCK:   -0.02 KCAL/MOL
REMARK 927      BINDING AFFINITY PREDICTED BY RF-SCORE:    0.00 PKD
ROOT
HETATM    1  C   UNL     1     -12.547  12.612  64.977  1.00  0.00    -0.430 C  
HETATM    2  N   UNL     1     -12.379  13.534  66.093  1.00  0.00    -0.424 NA 
HETATM    3  C   UNL     1     -11.324  14.567  65.939  1.00  0.00    -0.341 C  
HETATM    4  H   UNL     1     -12.954  13.474  66.933  1.00  0.00     0.000 HD 
HETATM    5  C   UNL     1     -11.395  15.462  67.234  1.00  0.00    -0.220 C  
HETATM    6  C   UNL     1     -11.592  15.413  64.676  1.00  0.00    -0.311 C  
HETATM    7  C   UNL     1      -9.933  13.910  65.828  1.00  0.00    -0.304 C  
ENDROOT
BRANCH   5   8
HETATM    8  C   UNL     1     -10.328  16.534  67.351  1.00  0.00    -0.290 A  
HETATM    9  C   UNL     1     -10.465  17.756  66.681  1.00  0.00    -0.300 A  
HETATM   10  C   UNL     1      -9.402  18.655  66.609  1.00  0.00    -0.318 A  
HETATM   11  C   UNL     1      -8.209  18.376  67.270  1.00  0.00    -0.246 A  
HETATM   12  C   UNL     1      -8.097  17.212  68.030  1.00  0.00    -0.210 A  
HETATM   13  C   UNL     1      -9.147  16.294  68.069  1.00  0.00    -0.188 A  
ENDBRANCH   5   8
TORSDOF 1
ENDMDL
MODEL       73
REMARK 921   NORMALIZED FREE ENERGY PREDICTED BY IDOCK:   -3.39 KCAL/MOL
REMARK 922        TOTAL FREE ENERGY PREDICTED BY IDOCK:   -3.60 KCAL/MOL
REMARK 923 INTER-LIGAND FREE ENERGY PREDICTED BY IDOCK:   -3.60 KCAL/MOL
REMARK 924 INTRA-LIGAND FREE ENERGY PREDICTED BY IDOCK:    0.00 KCAL/MOL
REMARK 927      BINDING AFFINITY PREDICTED BY RF-SCORE:    0.00 PKD
ROOT
HETATM    1  C   UNL     1     -11.428   8.098  71.386  1.00  0.00    -0.263 C  
HETATM    2  N   UNL     1     -11.592   8.574  70.018  1.00  0.00    -0.451 NA 
HETATM    3  C   UNL     1     -11.030   9.913  69.714  1.00  0.00    -0.268 C  
HETATM    4  H   UNL     1     -12.068   8.017  69.307  1.00  0.00     0.000 HD 
HETATM    5  C   UNL     1     -11.277  10.155  68.177  1.00  0.00    -0.245 C  
HETATM    6  C   UNL     1      -9.519   9.937  70.034  1.00  0.00    -0.246 C  
HETATM    7  C   UNL     1     -11.744  11.002  70.540  1.00  0.00    -0.416 C  
ENDROOT
BRANCH   5   8
HETATM    8  C   UNL     1     -10.875  11.521  67.654  1.00  0.00    -0.277 A  
HETATM    9  C   UNL     1      -9.592  11.738  67.136  1.00  0.00    -0.189 A  
HETATM   10  C   UNL     1      -9.145  13.029  66.853  1.00  0.00    -0.227 A  
HETATM   11  C   UNL     1     -10.002  14.113  67.015  1.00  0.00    -0.260 A  
HETATM   12  C   UNL     1     -11.317  13.898  67.429  1.00  0.00    -0.349 A  
HETATM   13  C   UNL     1     -11.752  12.611  67.750  1.00  0.00    -0.412 A  
ENDBRANCH   5   8
TORSDOF 1
ENDMDL
MODEL       74
REMARK 921   NORMALIZED FREE ENERGY PREDICTED BY IDOCK:   -3.38 KCAL/MOL
REMARK 922        TOTAL FREE ENERGY PREDICTED BY IDOCK:   -3.59 KCAL/MOL
REMARK 923 INTER-LIGAND FREE ENERGY PREDICTED BY IDOCK:   -3.59 KCAL/MOL
REMARK 924 INTRA-LIGAND FREE ENERGY PREDICTED BY IDOCK:   -0.01 KCAL/MOL
REMARK 927      BINDING AFFINITY PREDICTED BY RF-SCORE:    0.00 PKD
ROOT
HETATM    1  C   UNL     1      -6.408  20.475  65.045  1.00  0.00    -0.287 C  
HETATM    2  N   UNL     1      -6.808  19.080  65.189  1.00  0.00    -0.484 NA 
HETATM    3  C   UNL     1      -7.719  18.770  66.319  1.00  0.00    -0.272 C  
HETATM    4  H   UNL     1      -6.481  18.357  64.548  1.00  0.00     0.000 HD 
HETATM    5  C   UNL     1      -8.046  17.233  66.210  1.00  0.00    -0.315 C  
HETATM    6  C   UNL     1      -9.008  19.613  66.207  1.00  0.00    -0.420 C  
HETATM    7  C   UNL     1      -7.031  19.068  67.667  1.00  0.00    -0.230 C  
ENDROOT
BRANCH   5   8
HETATM    8  C   UNL     1      -8.887  16.659  67.335  1.00  0.00    -0.198 A  
HETATM    9  C   UNL     1     -10.259  16.927  67.410  1.00  0.00    -0.298 A  
HETATM   10  C   UNL     1     -10.993  16.585  68.546  1.00  0.00    -0.350 A  
HETATM   11  C   UNL     1     -10.377  15.903  69.592  1.00  0.00    -0.299 A  
HETATM   12  C   UNL     1      -9.036  15.536  69.482  1.00  0.00    -0.260 A  
HETATM   13  C   UNL     1      -8.293  15.913  68.363  1.00  0.00    -0.174 A  
ENDBRANCH   5   8
TORSDOF 1
ENDMDL
MODEL       75
REMARK 921   NORMALIZED FREE ENERGY PREDICTED BY IDOCK:   -3.37 KCAL/MOL
REMARK 922        TOTAL FREE ENERGY PREDICTED BY IDOCK:   -3.58 KCAL/MOL
REMARK 923 INTER-LIGAND FREE ENERGY PREDICTED BY IDOCK:   -4.35 KCAL/MOL
REMARK 924 INTRA-LIGAND FREE ENERGY PREDICTED BY IDOCK:    0.77 KCAL/MOL
REMARK 927      BINDING AFFINITY PREDICTED BY RF-SCORE:    0.00 PKD
ROOT
HETATM    1  C   UNL     1     -12.611  15.676  74.021  1.00  0.00    -0.628 C  
HETATM    2  N   UNL     1     -12.373  14.500  73.192  1.00  0.00    -0.223 NA 
HETATM    3  C   UNL     1     -12.297  14.732  71.728  1.00  0.00    -0.346 C  
HETATM    4  H   UNL     1     -12.266  13.569  73.596  1.00  0.00     0.000 HD 
HETATM    5  C   UNL     1     -11.971  13.334  71.079  1.00  0.00     0.030 C  
HETATM    6  C   UNL     1     -11.184  15.754  71.411  1.00  0.00    -0.354 C  
HETATM    7  C   UNL     1     -13.643  15.260  71.191  1.00  0.00    -0.540 C  
ENDROOT
BRANCH   5   8
HETATM    8  C   UNL     1     -11.948  13.303  69.562  1.00  0.00    -0.366 A  
HETATM    9  C   UNL     1     -11.784  12.094  68.874  1.00  0.00    -0.381 A  
HETATM   10  C   UNL     1     -11.549  12.081  67.500  1.00  0.00    -0.401 A  
HETATM   11  C   UNL     1     -11.549  13.274  66.782  1.00  0.00    -0.408 A  
HETATM   12  C   UNL     1     -11.818  14.474  67.439  1.00  0.00    -0.416 A  
HETATM   13  C   UNL     1     -12.013  14.492  68.821  1.00  0.00    -0.315 A  
ENDBRANCH   5   8
TORSDOF 1
ENDMDL
MODEL       76
REMARK 921   NORMALIZED FREE ENERGY PREDICTED BY IDOCK:   -3.37 KCAL/MOL
REMARK 922        TOTAL FREE ENERGY PREDICTED BY IDOCK:   -3.58 KCAL/MOL
REMARK 923 INTER-LIGAND FREE ENERGY PREDICTED BY IDOCK:   -3.76 KCAL/MOL
REMARK 924 INTRA-LIGAND FREE ENERGY PREDICTED BY IDOCK:    0.19 KCAL/MOL
REMARK 927      BINDING AFFINITY PREDICTED BY RF-SCORE:    0.00 PKD
ROOT
HETATM    1  C   UNL     1     -12.616  12.032  63.462  1.00  0.00    -0.507 C  
HETATM    2  N   UNL     1     -12.633  12.343  64.886  1.00  0.00    -0.600 NA 
HETATM    3  C   UNL     1     -11.418  12.999  65.432  1.00  0.00    -0.312 C  
HETATM    4  H   UNL     1     -13.435  12.121  65.477  1.00  0.00     0.000 HD 
HETATM    5  C   UNL     1     -11.718  13.282  66.952  1.00  0.00    -0.437 C  
HETATM    6  C   UNL     1     -11.143  14.316  64.674  1.00  0.00    -0.371 C  
HETATM    7  C   UNL     1     -10.194  12.069  65.300  1.00  0.00    -0.304 C  
ENDROOT
BRANCH   5   8
HETATM    8  C   UNL     1     -10.565  13.861  67.751  1.00  0.00    -0.248 A  
HETATM    9  C   UNL     1     -10.625  15.170  68.246  1.00  0.00    -0.243 A  
HETATM   10  C   UNL     1      -9.495  15.779  68.792  1.00  0.00    -0.219 A  
HETATM   11  C   UNL     1      -8.310  15.060  68.919  1.00  0.00    -0.183 A  
HETATM   12  C   UNL     1      -8.268  13.722  68.528  1.00  0.00    -0.124 A  
HETATM   13  C   UNL     1      -9.387  13.125  67.945  1.00  0.00    -0.215 A  
ENDBRANCH   5   8
TORSDOF 1
ENDMDL
MODEL       77
REMARK 921   NORMALIZED FREE ENERGY PREDICTED BY IDOCK:   -3.36 KCAL/MOL
REMARK 922        TOTAL FREE ENERGY PREDICTED BY IDOCK:   -3.57 KCAL/MOL
REMARK 923 INTER-LIGAND FREE ENERGY PREDICTED BY IDOCK:   -3.57 KCAL/MOL
REMARK 924 INTRA-LIGAND FREE ENERGY PREDICTED BY IDOCK:   -0.00 KCAL/MOL
REMARK 927      BINDING AFFINITY PREDICTED BY RF-SCORE:    0.00 PKD
ROOT
HETATM    1  C   UNL     1      -8.395  10.407  65.233  1.00  0.00    -0.166 C  
HETATM    2  N   UNL     1      -9.744  10.801  65.618  1.00  0.00    -0.223 NA 
HETATM    3  C   UNL     1      -9.861  11.659  66.823  1.00  0.00    -0.200 C  
HETATM    4  H   UNL     1     -10.564  10.502  65.088  1.00  0.00     0.000 HD 
HETATM    5  C   UNL     1     -11.393  11.991  66.977  1.00  0.00    -0.396 C  
HETATM    6  C   UNL     1      -9.038  12.952  66.633  1.00  0.00    -0.181 C  
HETATM    7  C   UNL     1      -9.356  10.911  68.073  1.00  0.00    -0.160 C  
ENDROOT
BRANCH   5   8
HETATM    8  C   UNL     1     -11.772  12.781  68.217  1.00  0.00    -0.388 A  
HETATM    9  C   UNL     1     -11.800  14.181  68.191  1.00  0.00    -0.387 A  
HETATM   10  C   UNL     1     -11.937  14.914  69.370  1.00  0.00    -0.336 A  
HETATM   11  C   UNL     1     -12.122  14.254  70.582  1.00  0.00    -0.417 A  
HETATM   12  C   UNL     1     -12.203  12.862  70.605  1.00  0.00    -0.386 A  
HETATM   13  C   UNL     1     -12.026  12.128  69.431  1.00  0.00    -0.329 A  
ENDBRANCH   5   8
TORSDOF 1
ENDMDL
MODEL       78
REMARK 921   NORMALIZED FREE ENERGY PREDICTED BY IDOCK:   -3.36 KCAL/MOL
REMARK 922        TOTAL FREE ENERGY PREDICTED BY IDOCK:   -3.57 KCAL/MOL
REMARK 923 INTER-LIGAND FREE ENERGY PREDICTED BY IDOCK:   -3.57 KCAL/MOL
REMARK 924 INTRA-LIGAND FREE ENERGY PREDICTED BY IDOCK:    0.01 KCAL/MOL
REMARK 927      BINDING AFFINITY PREDICTED BY RF-SCORE:    0.00 PKD
ROOT
HETATM    1  C   UNL     1     -11.568  10.406  70.202  1.00  0.00    -0.312 C  
HETATM    2  N   UNL     1     -10.592  11.306  69.598  1.00  0.00    -0.454 NA 
HETATM    3  C   UNL     1     -11.140  12.456  68.837  1.00  0.00    -0.258 C  
HETATM    4  H   UNL     1      -9.587  11.153  69.694  1.00  0.00     0.000 HD 
HETATM    5  C   UNL     1      -9.897  13.294  68.355  1.00  0.00    -0.218 C  
HETATM    6  C   UNL     1     -12.053  13.306  69.747  1.00  0.00    -0.355 C  
HETATM    7  C   UNL     1     -11.949  11.965  67.619  1.00  0.00    -0.127 C  
ENDROOT
BRANCH   5   8
HETATM    8  C   UNL     1     -10.210  14.476  67.456  1.00  0.00    -0.232 A  
HETATM    9  C   UNL     1     -10.378  14.301  66.077  1.00  0.00    -0.318 A  
HETATM   10  C   UNL     1     -10.453  15.400  65.221  1.00  0.00    -0.440 A  
HETATM   11  C   UNL     1     -10.436  16.690  65.743  1.00  0.00    -0.324 A  
HETATM   12  C   UNL     1     -10.377  16.876  67.124  1.00  0.00    -0.304 A  
HETATM   13  C   UNL     1     -10.262  15.778  67.977  1.00  0.00    -0.229 A  
ENDBRANCH   5   8
TORSDOF 1
ENDMDL
MODEL       79
REMARK 921   NORMALIZED FREE ENERGY PREDICTED BY IDOCK:   -3.34 KCAL/MOL
REMARK 922        TOTAL FREE ENERGY PREDICTED BY IDOCK:   -3.55 KCAL/MOL
REMARK 923 INTER-LIGAND FREE ENERGY PREDICTED BY IDOCK:   -3.51 KCAL/MOL
REMARK 924 INTRA-LIGAND FREE ENERGY PREDICTED BY IDOCK:   -0.04 KCAL/MOL
REMARK 927      BINDING AFFINITY PREDICTED BY RF-SCORE:    0.00 PKD
ROOT
HETATM    1  C   UNL     1     -14.341   7.537  71.735  1.00  0.00    -0.445 C  
HETATM    2  N   UNL     1     -13.183   7.451  70.854  1.00  0.00    -0.603 NA 
HETATM    3  C   UNL     1     -12.003   8.267  71.237  1.00  0.00    -0.287 C  
HETATM    4  H   UNL     1     -13.182   6.863  70.020  1.00  0.00     0.000 HD 
HETATM    5  C   UNL     1     -10.885   7.945  70.175  1.00  0.00    -0.243 C  
HETATM    6  C   UNL     1     -11.534   7.885  72.657  1.00  0.00    -0.454 C  
HETATM    7  C   UNL     1     -12.347   9.770  71.200  1.00  0.00    -0.451 C  
ENDROOT
BRANCH   5   8
HETATM    8  C   UNL     1      -9.606   8.752  70.303  1.00  0.00    -0.198 A  
HETATM    9  C   UNL     1      -9.384   9.874  69.494  1.00  0.00    -0.236 A  
HETATM   10  C   UNL     1      -8.134  10.490  69.454  1.00  0.00    -0.136 A  
HETATM   11  C   UNL     1      -7.109  10.037  70.279  1.00  0.00    -0.156 A  
HETATM   12  C   UNL     1      -7.349   8.989  71.167  1.00  0.00    -0.115 A  
HETATM   13  C   UNL     1      -8.588   8.347  71.179  1.00  0.00    -0.187 A  
ENDBRANCH   5   8
TORSDOF 1
ENDMDL
MODEL       80
REMARK 921   NORMALIZED FREE ENERGY PREDICTED BY IDOCK:   -3.33 KCAL/MOL
REMARK 922        TOTAL FREE ENERGY PREDICTED BY IDOCK:   -3.54 KCAL/MOL
REMARK 923 INTER-LIGAND FREE ENERGY PREDICTED BY IDOCK:   -3.50 KCAL/MOL
REMARK 924 INTRA-LIGAND FREE ENERGY PREDICTED BY IDOCK:   -0.04 KCAL/MOL
REMARK 927      BINDING AFFINITY PREDICTED BY RF-SCORE:    0.00 PKD
ROOT
HETATM    1  C   UNL     1     -10.375   3.652  64.214  1.00  0.00    -0.227 C  
HETATM    2  N   UNL     1     -11.074   4.572  65.102  1.00  0.00    -0.934 NA 
HETATM    3  C   UNL     1     -10.291   5.107  66.244  1.00  0.00    -0.268 C  
HETATM    4  H   UNL     1     -12.049   4.834  64.948  1.00  0.00     0.000 HD 
HETATM    5  C   UNL     1     -11.243   6.113  66.995  1.00  0.00    -0.192 C  
HETATM    6  C   UNL     1      -9.029   5.832  65.727  1.00  0.00    -0.144 C  
HETATM    7  C   UNL     1      -9.872   3.968  67.196  1.00  0.00    -0.144 C  
ENDROOT
BRANCH   5   8
HETATM    8  C   UNL     1     -10.687   6.713  68.274  1.00  0.00    -0.317 A  
HETATM    9  C   UNL     1     -11.034   6.180  69.522  1.00  0.00    -0.463 A  
HETATM   10  C   UNL     1     -10.704   6.849  70.700  1.00  0.00    -0.267 A  
HETATM   11  C   UNL     1      -9.956   8.023  70.648  1.00  0.00    -0.198 A  
HETATM   12  C   UNL     1      -9.514   8.505  69.417  1.00  0.00    -0.161 A  
HETATM   13  C   UNL     1      -9.878   7.857  68.235  1.00  0.00    -0.187 A  
ENDBRANCH   5   8
TORSDOF 1
ENDMDL
MODEL       81
REMARK 921   NORMALIZED FREE ENERGY PREDICTED BY IDOCK:   -3.31 KCAL/MOL
REMARK 922        TOTAL FREE ENERGY PREDICTED BY IDOCK:   -3.52 KCAL/MOL
REMARK 923 INTER-LIGAND FREE ENERGY PREDICTED BY IDOCK:   -3.74 KCAL/MOL
REMARK 924 INTRA-LIGAND FREE ENERGY PREDICTED BY IDOCK:    0.22 KCAL/MOL
REMARK 927      BINDING AFFINITY PREDICTED BY RF-SCORE:    0.00 PKD
ROOT
HETATM    1  C   UNL     1     -11.489   6.533  72.272  1.00  0.00    -0.289 C  
HETATM    2  N   UNL     1     -12.257   7.754  72.060  1.00  0.00    -0.303 NA 
HETATM    3  C   UNL     1     -11.652   8.763  71.155  1.00  0.00    -0.289 C  
HETATM    4  H   UNL     1     -13.160   7.907  72.510  1.00  0.00     0.000 HD 
HETATM    5  C   UNL     1     -12.697   9.936  71.046  1.00  0.00    -0.425 C  
HETATM    6  C   UNL     1     -11.385   8.138  69.769  1.00  0.00     0.127 C  
HETATM    7  C   UNL     1     -10.326   9.291  71.740  1.00  0.00    -0.204 C  
ENDROOT
BRANCH   5   8
HETATM    8  C   UNL     1     -12.247  11.144  70.246  1.00  0.00    -0.436 A  
HETATM    9  C   UNL     1     -12.377  12.437  70.769  1.00  0.00    -0.377 A  
HETATM   10  C   UNL     1     -12.167  13.557  69.966  1.00  0.00    -0.381 A  
HETATM   11  C   UNL     1     -11.751  13.399  68.647  1.00  0.00    -0.384 A  
HETATM   12  C   UNL     1     -11.515  12.119  68.146  1.00  0.00    -0.375 A  
HETATM   13  C   UNL     1     -11.764  10.997  68.938  1.00  0.00    -0.400 A  
ENDBRANCH   5   8
TORSDOF 1
ENDMDL
MODEL       82
REMARK 921   NORMALIZED FREE ENERGY PREDICTED BY IDOCK:   -3.31 KCAL/MOL
REMARK 922        TOTAL FREE ENERGY PREDICTED BY IDOCK:   -3.51 KCAL/MOL
REMARK 923 INTER-LIGAND FREE ENERGY PREDICTED BY IDOCK:   -3.47 KCAL/MOL
REMARK 924 INTRA-LIGAND FREE ENERGY PREDICTED BY IDOCK:   -0.04 KCAL/MOL
REMARK 927      BINDING AFFINITY PREDICTED BY RF-SCORE:    0.00 PKD
ROOT
HETATM    1  C   UNL     1     -13.983   9.145  72.136  1.00  0.00    -0.400 C  
HETATM    2  N   UNL     1     -12.960   8.471  72.926  1.00  0.00    -0.694 NA 
HETATM    3  C   UNL     1     -11.728   8.069  72.202  1.00  0.00    -0.344 C  
HETATM    4  H   UNL     1     -13.083   8.286  73.922  1.00  0.00     0.000 HD 
HETATM    5  C   UNL     1     -10.773   7.434  73.282  1.00  0.00    -0.441 C  
HETATM    6  C   UNL     1     -11.070   9.305  71.550  1.00  0.00    -0.443 C  
HETATM    7  C   UNL     1     -12.054   7.029  71.111  1.00  0.00    -0.412 C  
ENDROOT
BRANCH   5   8
HETATM    8  C   UNL     1      -9.478   6.848  72.750  1.00  0.00    -0.161 A  
HETATM    9  C   UNL     1      -9.370   5.477  72.485  1.00  0.00    -0.153 A  
HETATM   10  C   UNL     1      -8.133   4.899  72.203  1.00  0.00    -0.111 A  
HETATM   11  C   UNL     1      -6.997   5.699  72.108  1.00  0.00    -0.081 A  
HETATM   12  C   UNL     1      -7.110   7.080  72.265  1.00  0.00    -0.072 A  
HETATM   13  C   UNL     1      -8.341   7.653  72.587  1.00  0.00    -0.158 A  
ENDBRANCH   5   8
TORSDOF 1
ENDMDL
MODEL       83
REMARK 921   NORMALIZED FREE ENERGY PREDICTED BY IDOCK:   -3.30 KCAL/MOL
REMARK 922        TOTAL FREE ENERGY PREDICTED BY IDOCK:   -3.50 KCAL/MOL
REMARK 923 INTER-LIGAND FREE ENERGY PREDICTED BY IDOCK:   -3.57 KCAL/MOL
REMARK 924 INTRA-LIGAND FREE ENERGY PREDICTED BY IDOCK:    0.07 KCAL/MOL
REMARK 927      BINDING AFFINITY PREDICTED BY RF-SCORE:    0.00 PKD
ROOT
HETATM    1  C   UNL     1     -10.315  17.373  68.019  1.00  0.00    -0.362 C  
HETATM    2  N   UNL     1     -11.294  16.318  68.249  1.00  0.00    -0.331 NA 
HETATM    3  C   UNL     1     -10.776  14.927  68.250  1.00  0.00    -0.249 C  
HETATM    4  H   UNL     1     -12.282  16.524  68.400  1.00  0.00     0.000 HD 
HETATM    5  C   UNL     1     -12.005  14.001  68.583  1.00  0.00    -0.389 C  
HETATM    6  C   UNL     1      -9.672  14.775  69.319  1.00  0.00    -0.098 C  
HETATM    7  C   UNL     1     -10.200  14.561  66.867  1.00  0.00    -0.264 C  
ENDROOT
BRANCH   5   8
HETATM    8  C   UNL     1     -11.735  12.508  68.535  1.00  0.00    -0.369 A  
HETATM    9  C   UNL     1     -11.539  11.779  69.715  1.00  0.00    -0.372 A  
HETATM   10  C   UNL     1     -11.082  10.462  69.673  1.00  0.00    -0.328 A  
HETATM   11  C   UNL     1     -10.887   9.832  68.447  1.00  0.00    -0.244 A  
HETATM   12  C   UNL     1     -11.182  10.513  67.266  1.00  0.00    -0.202 A  
HETATM   13  C   UNL     1     -11.601  11.844  67.308  1.00  0.00    -0.364 A  
ENDBRANCH   5   8
TORSDOF 1
ENDMDL
MODEL       84
REMARK 921   NORMALIZED FREE ENERGY PREDICTED BY IDOCK:   -3.29 KCAL/MOL
REMARK 922        TOTAL FREE ENERGY PREDICTED BY IDOCK:   -3.49 KCAL/MOL
REMARK 923 INTER-LIGAND FREE ENERGY PREDICTED BY IDOCK:   -3.47 KCAL/MOL
REMARK 924 INTRA-LIGAND FREE ENERGY PREDICTED BY IDOCK:   -0.02 KCAL/MOL
REMARK 927      BINDING AFFINITY PREDICTED BY RF-SCORE:    0.00 PKD
ROOT
HETATM    1  C   UNL     1     -10.344  18.635  66.573  1.00  0.00    -0.421 C  
HETATM    2  N   UNL     1     -10.783  17.417  67.242  1.00  0.00    -0.276 NA 
HETATM    3  C   UNL     1     -10.301  16.138  66.663  1.00  0.00    -0.296 C  
HETATM    4  H   UNL     1     -11.389  17.441  68.062  1.00  0.00     0.000 HD 
HETATM    5  C   UNL     1     -10.854  14.997  67.597  1.00  0.00    -0.291 C  
HETATM    6  C   UNL     1      -8.757  16.119  66.634  1.00  0.00    -0.300 C  
HETATM    7  C   UNL     1     -10.840  15.953  65.229  1.00  0.00    -0.401 C  
ENDROOT
BRANCH   5   8
HETATM    8  C   UNL     1     -10.573  13.578  67.139  1.00  0.00    -0.264 A  
HETATM    9  C   UNL     1     -11.461  12.914  66.283  1.00  0.00    -0.395 A  
HETATM   10  C   UNL     1     -11.323  11.550  66.029  1.00  0.00    -0.184 A  
HETATM   11  C   UNL     1     -10.250  10.847  66.571  1.00  0.00    -0.282 A  
HETATM   12  C   UNL     1      -9.300  11.520  67.338  1.00  0.00    -0.168 A  
HETATM   13  C   UNL     1      -9.460  12.876  67.624  1.00  0.00    -0.197 A  
ENDBRANCH   5   8
TORSDOF 1
ENDMDL
MODEL       85
REMARK 921   NORMALIZED FREE ENERGY PREDICTED BY IDOCK:   -3.26 KCAL/MOL
REMARK 922        TOTAL FREE ENERGY PREDICTED BY IDOCK:   -3.47 KCAL/MOL
REMARK 923 INTER-LIGAND FREE ENERGY PREDICTED BY IDOCK:   -3.52 KCAL/MOL
REMARK 924 INTRA-LIGAND FREE ENERGY PREDICTED BY IDOCK:    0.05 KCAL/MOL
REMARK 927      BINDING AFFINITY PREDICTED BY RF-SCORE:    0.00 PKD
ROOT
HETATM    1  C   UNL     1      -8.309   8.070  67.501  1.00  0.00    -0.123 C  
HETATM    2  N   UNL     1      -8.264   9.524  67.414  1.00  0.00    -0.113 NA 
HETATM    3  C   UNL     1      -9.433  10.182  66.778  1.00  0.00    -0.168 C  
HETATM    4  H   UNL     1      -7.473  10.061  67.771  1.00  0.00     0.000 HD 
HETATM    5  C   UNL     1      -9.168  11.732  66.871  1.00  0.00    -0.189 C  
HETATM    6  C   UNL     1     -10.727   9.802  67.530  1.00  0.00    -0.327 C  
HETATM    7  C   UNL     1      -9.557   9.757  65.300  1.00  0.00    -0.368 C  
ENDROOT
BRANCH   5   8
HETATM    8  C   UNL     1     -10.193  12.615  66.184  1.00  0.00    -0.272 A  
HETATM    9  C   UNL     1     -11.207  13.240  66.920  1.00  0.00    -0.332 A  
HETATM   10  C   UNL     1     -12.269  13.874  66.277  1.00  0.00    -0.498 A  
HETATM   11  C   UNL     1     -12.292  13.957  64.888  1.00  0.00    -0.445 A  
HETATM   12  C   UNL     1     -11.233  13.431  64.147  1.00  0.00    -0.379 A  
HETATM   13  C   UNL     1     -10.190  12.762  64.789  1.00  0.00    -0.304 A  
ENDBRANCH   5   8
TORSDOF 1
ENDMDL
MODEL       86
REMARK 921   NORMALIZED FREE ENERGY PREDICTED BY IDOCK:   -3.26 KCAL/MOL
REMARK 922        TOTAL FREE ENERGY PREDICTED BY IDOCK:   -3.46 KCAL/MOL
REMARK 923 INTER-LIGAND FREE ENERGY PREDICTED BY IDOCK:   -3.45 KCAL/MOL
REMARK 924 INTRA-LIGAND FREE ENERGY PREDICTED BY IDOCK:   -0.01 KCAL/MOL
REMARK 927      BINDING AFFINITY PREDICTED BY RF-SCORE:    0.00 PKD
ROOT
HETATM    1  C   UNL     1     -11.214  11.470  67.180  1.00  0.00    -0.301 C  
HETATM    2  N   UNL     1     -11.824  10.902  68.376  1.00  0.00    -0.705 NA 
HETATM    3  C   UNL     1     -11.019   9.893  69.110  1.00  0.00    -0.200 C  
HETATM    4  H   UNL     1     -12.753  11.182  68.692  1.00  0.00     0.000 HD 
HETATM    5  C   UNL     1     -11.865   9.496  70.378  1.00  0.00    -0.181 C  
HETATM    6  C   UNL     1      -9.662  10.500  69.526  1.00  0.00    -0.147 C  
HETATM    7  C   UNL     1     -10.774   8.650  68.230  1.00  0.00    -0.107 C  
ENDROOT
BRANCH   5   8
HETATM    8  C   UNL     1     -11.282   8.387  71.235  1.00  0.00    -0.309 A  
HETATM    9  C   UNL     1     -10.202   8.637  72.090  1.00  0.00    -0.394 A  
HETATM   10  C   UNL     1      -9.528   7.588  72.715  1.00  0.00    -0.223 A  
HETATM   11  C   UNL     1      -9.974   6.279  72.551  1.00  0.00    -0.184 A  
HETATM   12  C   UNL     1     -11.114   6.028  71.788  1.00  0.00    -0.332 A  
HETATM   13  C   UNL     1     -11.764   7.074  71.130  1.00  0.00    -0.366 A  
ENDBRANCH   5   8
TORSDOF 1
ENDMDL
MODEL       87
REMARK 921   NORMALIZED FREE ENERGY PREDICTED BY IDOCK:   -3.24 KCAL/MOL
REMARK 922        TOTAL FREE ENERGY PREDICTED BY IDOCK:   -3.44 KCAL/MOL
REMARK 923 INTER-LIGAND FREE ENERGY PREDICTED BY IDOCK:   -3.50 KCAL/MOL
REMARK 924 INTRA-LIGAND FREE ENERGY PREDICTED BY IDOCK:    0.07 KCAL/MOL
REMARK 927      BINDING AFFINITY PREDICTED BY RF-SCORE:    0.00 PKD
ROOT
HETATM    1  C   UNL     1      -8.704   7.681  68.419  1.00  0.00    -0.127 C  
HETATM    2  N   UNL     1      -9.859   8.476  68.816  1.00  0.00    -0.168 NA 
HETATM    3  C   UNL     1      -9.958   9.834  68.223  1.00  0.00    -0.153 C  
HETATM    4  H   UNL     1     -10.560   8.120  69.466  1.00  0.00     0.000 HD 
HETATM    5  C   UNL     1     -11.309  10.445  68.753  1.00  0.00    -0.275 C  
HETATM    6  C   UNL     1      -9.969   9.738  66.682  1.00  0.00    -0.292 C  
HETATM    7  C   UNL     1      -8.771  10.710  68.672  1.00  0.00    -0.148 C  
ENDROOT
BRANCH   5   8
HETATM    8  C   UNL     1     -11.578  11.886  68.358  1.00  0.00    -0.376 A  
HETATM    9  C   UNL     1     -11.716  12.244  67.011  1.00  0.00    -0.399 A  
HETATM   10  C   UNL     1     -11.748  13.585  66.628  1.00  0.00    -0.425 A  
HETATM   11  C   UNL     1     -11.718  14.585  67.596  1.00  0.00    -0.410 A  
HETATM   12  C   UNL     1     -11.688  14.239  68.947  1.00  0.00    -0.363 A  
HETATM   13  C   UNL     1     -11.615  12.899  69.328  1.00  0.00    -0.368 A  
ENDBRANCH   5   8
TORSDOF 1
ENDMDL
MODEL       88
REMARK 921   NORMALIZED FREE ENERGY PREDICTED BY IDOCK:   -3.21 KCAL/MOL
REMARK 922        TOTAL FREE ENERGY PREDICTED BY IDOCK:   -3.41 KCAL/MOL
REMARK 923 INTER-LIGAND FREE ENERGY PREDICTED BY IDOCK:   -3.38 KCAL/MOL
REMARK 924 INTRA-LIGAND FREE ENERGY PREDICTED BY IDOCK:   -0.03 KCAL/MOL
REMARK 927      BINDING AFFINITY PREDICTED BY RF-SCORE:    0.00 PKD
ROOT
HETATM    1  C   UNL     1     -10.468   8.250  72.551  1.00  0.00    -0.336 C  
HETATM    2  N   UNL     1      -9.790   9.019  71.514  1.00  0.00    -0.315 NA 
HETATM    3  C   UNL     1     -10.528   9.199  70.239  1.00  0.00    -0.218 C  
HETATM    4  H   UNL     1      -8.859   9.411  71.657  1.00  0.00     0.000 HD 
HETATM    5  C   UNL     1      -9.618  10.108  69.331  1.00  0.00    -0.249 C  
HETATM    6  C   UNL     1     -11.887   9.881  70.507  1.00  0.00    -0.350 C  
HETATM    7  C   UNL     1     -10.766   7.838  69.553  1.00  0.00    -0.200 C  
ENDROOT
BRANCH   5   8
HETATM    8  C   UNL     1     -10.125  10.344  67.920  1.00  0.00    -0.200 A  
HETATM    9  C   UNL     1      -9.721   9.515  66.867  1.00  0.00    -0.237 A  
HETATM   10  C   UNL     1     -10.009   9.849  65.544  1.00  0.00    -0.363 A  
HETATM   11  C   UNL     1     -10.770  10.980  65.262  1.00  0.00    -0.234 A  
HETATM   12  C   UNL     1     -11.269  11.755  66.308  1.00  0.00    -0.370 A  
HETATM   13  C   UNL     1     -10.947  11.443  67.630  1.00  0.00    -0.303 A  
ENDBRANCH   5   8
TORSDOF 1
ENDMDL
MODEL       89
REMARK 921   NORMALIZED FREE ENERGY PREDICTED BY IDOCK:   -3.21 KCAL/MOL
REMARK 922        TOTAL FREE ENERGY PREDICTED BY IDOCK:   -3.41 KCAL/MOL
REMARK 923 INTER-LIGAND FREE ENERGY PREDICTED BY IDOCK:   -3.52 KCAL/MOL
REMARK 924 INTRA-LIGAND FREE ENERGY PREDICTED BY IDOCK:    0.12 KCAL/MOL
REMARK 927      BINDING AFFINITY PREDICTED BY RF-SCORE:    0.00 PKD
ROOT
HETATM    1  C   UNL     1      -7.050  20.535  67.630  1.00  0.00    -0.321 C  
HETATM    2  N   UNL     1      -8.388  20.032  67.915  1.00  0.00    -0.288 NA 
HETATM    3  C   UNL     1      -8.580  18.565  67.794  1.00  0.00    -0.271 C  
HETATM    4  H   UNL     1      -9.152  20.654  68.183  1.00  0.00     0.000 HD 
HETATM    5  C   UNL     1     -10.071  18.282  68.215  1.00  0.00    -0.406 C  
HETATM    6  C   UNL     1      -7.598  17.825  68.728  1.00  0.00    -0.260 C  
HETATM    7  C   UNL     1      -8.347  18.106  66.340  1.00  0.00    -0.272 C  
ENDROOT
BRANCH   5   8
HETATM    8  C   UNL     1     -10.533  16.844  68.068  1.00  0.00    -0.347 A  
HETATM    9  C   UNL     1     -10.712  16.031  69.194  1.00  0.00    -0.272 A  
HETATM   10  C   UNL     1     -10.926  14.660  69.059  1.00  0.00    -0.269 A  
HETATM   11  C   UNL     1     -11.040  14.095  67.792  1.00  0.00    -0.292 A  
HETATM   12  C   UNL     1     -10.970  14.912  66.663  1.00  0.00    -0.325 A  
HETATM   13  C   UNL     1     -10.715  16.277  66.798  1.00  0.00    -0.204 A  
ENDBRANCH   5   8
TORSDOF 1
ENDMDL
MODEL       90
REMARK 921   NORMALIZED FREE ENERGY PREDICTED BY IDOCK:   -3.17 KCAL/MOL
REMARK 922        TOTAL FREE ENERGY PREDICTED BY IDOCK:   -3.37 KCAL/MOL
REMARK 923 INTER-LIGAND FREE ENERGY PREDICTED BY IDOCK:   -3.39 KCAL/MOL
REMARK 924 INTRA-LIGAND FREE ENERGY PREDICTED BY IDOCK:    0.02 KCAL/MOL
REMARK 927      BINDING AFFINITY PREDICTED BY RF-SCORE:    0.00 PKD
ROOT
HETATM    1  C   UNL     1     -11.306  10.152  70.788  1.00  0.00    -0.354 C  
HETATM    2  N   UNL     1     -11.730   8.799  70.450  1.00  0.00    -0.467 NA 
HETATM    3  C   UNL     1     -10.704   7.922  69.832  1.00  0.00    -0.244 C  
HETATM    4  H   UNL     1     -12.680   8.472  70.628  1.00  0.00     0.000 HD 
HETATM    5  C   UNL     1     -11.390   6.519  69.632  1.00  0.00    -0.443 C  
HETATM    6  C   UNL     1      -9.479   7.804  70.764  1.00  0.00    -0.163 C  
HETATM    7  C   UNL     1     -10.256   8.489  68.469  1.00  0.00    -0.225 C  
ENDROOT
BRANCH   5   8
HETATM    8  C   UNL     1     -10.555   5.477  68.910  1.00  0.00    -0.258 A  
HETATM    9  C   UNL     1     -10.493   5.455  67.511  1.00  0.00    -0.235 A  
HETATM   10  C   UNL     1      -9.908   4.382  66.839  1.00  0.00    -0.235 A  
HETATM   11  C   UNL     1      -9.310   3.352  67.559  1.00  0.00    -0.248 A  
HETATM   12  C   UNL     1      -9.272   3.416  68.952  1.00  0.00    -0.229 A  
HETATM   13  C   UNL     1      -9.892   4.469  69.625  1.00  0.00    -0.288 A  
ENDBRANCH   5   8
TORSDOF 1
ENDMDL
MODEL       91
REMARK 921   NORMALIZED FREE ENERGY PREDICTED BY IDOCK:   -3.17 KCAL/MOL
REMARK 922        TOTAL FREE ENERGY PREDICTED BY IDOCK:   -3.37 KCAL/MOL
REMARK 923 INTER-LIGAND FREE ENERGY PREDICTED BY IDOCK:   -3.38 KCAL/MOL
REMARK 924 INTRA-LIGAND FREE ENERGY PREDICTED BY IDOCK:    0.01 KCAL/MOL
REMARK 927      BINDING AFFINITY PREDICTED BY RF-SCORE:    0.00 PKD
ROOT
HETATM    1  C   UNL     1     -10.462  11.843  68.170  1.00  0.00    -0.207 C  
HETATM    2  N   UNL     1      -9.731  11.044  69.145  1.00  0.00    -0.387 NA 
HETATM    3  C   UNL     1     -10.412   9.818  69.634  1.00  0.00    -0.242 C  
HETATM    4  H   UNL     1      -8.803  11.311  69.474  1.00  0.00     0.000 HD 
HETATM    5  C   UNL     1      -9.396   9.113  70.609  1.00  0.00    -0.312 C  
HETATM    6  C   UNL     1     -10.759   8.896  68.445  1.00  0.00    -0.126 C  
HETATM    7  C   UNL     1     -11.705  10.182  70.392  1.00  0.00    -0.390 C  
ENDROOT
BRANCH   5   8
HETATM    8  C   UNL     1      -9.919   7.879  71.321  1.00  0.00    -0.206 A  
HETATM    9  C   UNL     1     -10.168   6.696  70.613  1.00  0.00    -0.215 A  
HETATM   10  C   UNL     1     -10.844   5.633  71.212  1.00  0.00    -0.289 A  
HETATM   11  C   UNL     1     -11.215   5.711  72.551  1.00  0.00    -0.346 A  
HETATM   12  C   UNL     1     -10.878   6.841  73.296  1.00  0.00    -0.302 A  
HETATM   13  C   UNL     1     -10.237   7.920  72.687  1.00  0.00    -0.361 A  
ENDBRANCH   5   8
TORSDOF 1
ENDMDL
MODEL       92
REMARK 921   NORMALIZED FREE ENERGY PREDICTED BY IDOCK:   -3.16 KCAL/MOL
REMARK 922        TOTAL FREE ENERGY PREDICTED BY IDOCK:   -3.36 KCAL/MOL
REMARK 923 INTER-LIGAND FREE ENERGY PREDICTED BY IDOCK:   -3.41 KCAL/MOL
REMARK 924 INTRA-LIGAND FREE ENERGY PREDICTED BY IDOCK:    0.06 KCAL/MOL
REMARK 927      BINDING AFFINITY PREDICTED BY RF-SCORE:    0.00 PKD
ROOT
HETATM    1  C   UNL     1      -8.949   4.584  66.449  1.00  0.00    -0.115 C  
HETATM    2  N   UNL     1      -9.386   4.512  67.838  1.00  0.00    -0.132 NA 
HETATM    3  C   UNL     1      -9.861   5.780  68.446  1.00  0.00    -0.140 C  
HETATM    4  H   UNL     1      -9.366   3.638  68.364  1.00  0.00     0.000 HD 
HETATM    5  C   UNL     1     -10.331   5.419  69.905  1.00  0.00    -0.377 C  
HETATM    6  C   UNL     1     -11.033   6.355  67.621  1.00  0.00    -0.441 C  
HETATM    7  C   UNL     1      -8.720   6.817  68.501  1.00  0.00    -0.124 C  
ENDROOT
BRANCH   5   8
HETATM    8  C   UNL     1     -10.765   6.591  70.765  1.00  0.00    -0.290 A  
HETATM    9  C   UNL     1     -12.123   6.889  70.935  1.00  0.00    -0.424 A  
HETATM   10  C   UNL     1     -12.522   8.079  71.541  1.00  0.00    -0.334 A  
HETATM   11  C   UNL     1     -11.568   8.954  72.053  1.00  0.00    -0.435 A  
HETATM   12  C   UNL     1     -10.216   8.618  71.985  1.00  0.00    -0.407 A  
HETATM   13  C   UNL     1      -9.815   7.446  71.343  1.00  0.00    -0.194 A  
ENDBRANCH   5   8
TORSDOF 1
ENDMDL
MODEL       93
REMARK 921   NORMALIZED FREE ENERGY PREDICTED BY IDOCK:   -3.09 KCAL/MOL
REMARK 922        TOTAL FREE ENERGY PREDICTED BY IDOCK:   -3.28 KCAL/MOL
REMARK 923 INTER-LIGAND FREE ENERGY PREDICTED BY IDOCK:   -3.36 KCAL/MOL
REMARK 924 INTRA-LIGAND FREE ENERGY PREDICTED BY IDOCK:    0.07 KCAL/MOL
REMARK 927      BINDING AFFINITY PREDICTED BY RF-SCORE:    0.00 PKD
ROOT
HETATM    1  C   UNL     1      -9.783  15.785  66.041  1.00  0.00    -0.345 C  
HETATM    2  N   UNL     1      -9.121  14.493  66.165  1.00  0.00    -0.507 NA 
HETATM    3  C   UNL     1      -9.909  13.408  66.801  1.00  0.00    -0.265 C  
HETATM    4  H   UNL     1      -8.168  14.342  65.832  1.00  0.00     0.000 HD 
HETATM    5  C   UNL     1      -9.003  12.120  66.750  1.00  0.00    -0.203 C  
HETATM    6  C   UNL     1     -11.223  13.182  66.022  1.00  0.00    -0.316 C  
HETATM    7  C   UNL     1     -10.238  13.763  68.265  1.00  0.00    -0.245 C  
ENDROOT
BRANCH   5   8
HETATM    8  C   UNL     1      -9.565  10.894  67.445  1.00  0.00    -0.181 A  
HETATM    9  C   UNL     1      -9.550  10.794  68.842  1.00  0.00    -0.204 A  
HETATM   10  C   UNL     1      -9.864   9.593  69.476  1.00  0.00    -0.219 A  
HETATM   11  C   UNL     1     -10.270   8.495  68.723  1.00  0.00    -0.217 A  
HETATM   12  C   UNL     1     -10.392   8.613  67.338  1.00  0.00    -0.353 A  
HETATM   13  C   UNL     1     -10.039   9.804  66.701  1.00  0.00    -0.303 A  
ENDBRANCH   5   8
TORSDOF 1
ENDMDL
MODEL       94
REMARK 921   NORMALIZED FREE ENERGY PREDICTED BY IDOCK:   -3.08 KCAL/MOL
REMARK 922        TOTAL FREE ENERGY PREDICTED BY IDOCK:   -3.27 KCAL/MOL
REMARK 923 INTER-LIGAND FREE ENERGY PREDICTED BY IDOCK:   -3.23 KCAL/MOL
REMARK 924 INTRA-LIGAND FREE ENERGY PREDICTED BY IDOCK:   -0.04 KCAL/MOL
REMARK 927      BINDING AFFINITY PREDICTED BY RF-SCORE:    0.00 PKD
ROOT
HETATM    1  C   UNL     1     -14.142   7.899  71.842  1.00  0.00    -0.378 C  
HETATM    2  N   UNL     1     -13.396   7.249  70.771  1.00  0.00    -0.528 NA 
HETATM    3  C   UNL     1     -11.948   7.034  71.014  1.00  0.00    -0.361 C  
HETATM    4  H   UNL     1     -13.845   6.957  69.902  1.00  0.00     0.000 HD 
HETATM    5  C   UNL     1     -11.401   6.266  69.753  1.00  0.00    -0.506 C  
HETATM    6  C   UNL     1     -11.745   6.196  72.295  1.00  0.00    -0.352 C  
HETATM    7  C   UNL     1     -11.217   8.384  71.166  1.00  0.00    -0.307 C  
ENDROOT
BRANCH   5   8
HETATM    8  C   UNL     1      -9.902   6.026  69.728  1.00  0.00    -0.208 A  
HETATM    9  C   UNL     1      -9.049   6.904  69.048  1.00  0.00    -0.138 A  
HETATM   10  C   UNL     1      -7.709   6.580  68.840  1.00  0.00    -0.109 A  
HETATM   11  C   UNL     1      -7.186   5.406  69.376  1.00  0.00    -0.065 A  
HETATM   12  C   UNL     1      -8.000   4.576  70.147  1.00  0.00    -0.063 A  
HETATM   13  C   UNL     1      -9.351   4.881  70.321  1.00  0.00    -0.216 A  
ENDBRANCH   5   8
TORSDOF 1
ENDMDL
MODEL       95
REMARK 921   NORMALIZED FREE ENERGY PREDICTED BY IDOCK:   -3.07 KCAL/MOL
REMARK 922        TOTAL FREE ENERGY PREDICTED BY IDOCK:   -3.26 KCAL/MOL
REMARK 923 INTER-LIGAND FREE ENERGY PREDICTED BY IDOCK:   -3.46 KCAL/MOL
REMARK 924 INTRA-LIGAND FREE ENERGY PREDICTED BY IDOCK:    0.20 KCAL/MOL
REMARK 927      BINDING AFFINITY PREDICTED BY RF-SCORE:    0.00 PKD
ROOT
HETATM    1  C   UNL     1      -9.853  11.681  65.920  1.00  0.00    -0.233 C  
HETATM    2  N   UNL     1     -10.480  11.762  67.234  1.00  0.00    -0.209 NA 
HETATM    3  C   UNL     1     -10.173  10.658  68.178  1.00  0.00    -0.168 C  
HETATM    4  H   UNL     1     -11.095  12.534  67.491  1.00  0.00     0.000 HD 
HETATM    5  C   UNL     1     -10.908  11.016  69.524  1.00  0.00    -0.267 C  
HETATM    6  C   UNL     1      -8.648  10.558  68.397  1.00  0.00    -0.132 C  
HETATM    7  C   UNL     1     -10.700   9.315  67.632  1.00  0.00    -0.276 C  
ENDROOT
BRANCH   5   8
HETATM    8  C   UNL     1     -10.823   9.967  70.617  1.00  0.00    -0.400 A  
HETATM    9  C   UNL     1      -9.586   9.438  71.007  1.00  0.00    -0.272 A  
HETATM   10  C   UNL     1      -9.517   8.330  71.851  1.00  0.00    -0.287 A  
HETATM   11  C   UNL     1     -10.684   7.782  72.377  1.00  0.00    -0.347 A  
HETATM   12  C   UNL     1     -11.915   8.366  72.082  1.00  0.00    -0.438 A  
HETATM   13  C   UNL     1     -11.987   9.450  71.205  1.00  0.00    -0.430 A  
ENDBRANCH   5   8
TORSDOF 1
ENDMDL
MODEL       96
REMARK 921   NORMALIZED FREE ENERGY PREDICTED BY IDOCK:   -3.06 KCAL/MOL
REMARK 922        TOTAL FREE ENERGY PREDICTED BY IDOCK:   -3.25 KCAL/MOL
REMARK 923 INTER-LIGAND FREE ENERGY PREDICTED BY IDOCK:   -3.21 KCAL/MOL
REMARK 924 INTRA-LIGAND FREE ENERGY PREDICTED BY IDOCK:   -0.04 KCAL/MOL
REMARK 927      BINDING AFFINITY PREDICTED BY RF-SCORE:    0.00 PKD
ROOT
HETATM    1  C   UNL     1     -11.513   6.486  70.437  1.00  0.00    -0.404 C  
HETATM    2  N   UNL     1     -11.493   6.702  68.996  1.00  0.00    -0.615 NA 
HETATM    3  C   UNL     1     -10.405   7.566  68.475  1.00  0.00    -0.199 C  
HETATM    4  H   UNL     1     -12.189   6.282  68.379  1.00  0.00     0.000 HD 
HETATM    5  C   UNL     1     -10.569   7.581  66.908  1.00  0.00    -0.367 C  
HETATM    6  C   UNL     1      -9.031   6.985  68.875  1.00  0.00    -0.129 C  
HETATM    7  C   UNL     1     -10.535   8.998  69.032  1.00  0.00    -0.235 C  
ENDROOT
BRANCH   5   8
HETATM    8  C   UNL     1      -9.619   8.495  66.157  1.00  0.00    -0.276 A  
HETATM    9  C   UNL     1     -10.002   9.798  65.815  1.00  0.00    -0.349 A  
HETATM   10  C   UNL     1      -9.226  10.566  64.946  1.00  0.00    -0.254 A  
HETATM   11  C   UNL     1      -8.018  10.067  64.468  1.00  0.00    -0.148 A  
HETATM   12  C   UNL     1      -7.574   8.813  64.886  1.00  0.00    -0.099 A  
HETATM   13  C   UNL     1      -8.369   8.029  65.724  1.00  0.00    -0.142 A  
ENDBRANCH   5   8
TORSDOF 1
ENDMDL
MODEL       97
REMARK 921   NORMALIZED FREE ENERGY PREDICTED BY IDOCK:   -3.05 KCAL/MOL
REMARK 922        TOTAL FREE ENERGY PREDICTED BY IDOCK:   -3.24 KCAL/MOL
REMARK 923 INTER-LIGAND FREE ENERGY PREDICTED BY IDOCK:   -3.70 KCAL/MOL
REMARK 924 INTRA-LIGAND FREE ENERGY PREDICTED BY IDOCK:    0.46 KCAL/MOL
REMARK 927      BINDING AFFINITY PREDICTED BY RF-SCORE:    0.00 PKD
ROOT
HETATM    1  C   UNL     1     -12.826  16.203  73.439  1.00  0.00    -0.517 C  
HETATM    2  N   UNL     1     -13.039  16.093  72.001  1.00  0.00    -0.340 NA 
HETATM    3  C   UNL     1     -12.361  14.961  71.320  1.00  0.00    -0.322 C  
HETATM    4  H   UNL     1     -13.622  16.757  71.490  1.00  0.00     0.000 HD 
HETATM    5  C   UNL     1     -12.804  15.029  69.810  1.00  0.00     0.050 C  
HETATM    6  C   UNL     1     -12.797  13.624  71.957  1.00  0.00    -0.367 C  
HETATM    7  C   UNL     1     -10.829  15.103  71.427  1.00  0.00     0.023 C  
ENDROOT
BRANCH   5   8
HETATM    8  C   UNL     1     -12.145  14.021  68.887  1.00  0.00    -0.351 A  
HETATM    9  C   UNL     1     -11.863  14.349  67.554  1.00  0.00    -0.418 A  
HETATM   10  C   UNL     1     -11.459  13.370  66.648  1.00  0.00    -0.376 A  
HETATM   11  C   UNL     1     -11.258  12.062  67.080  1.00  0.00    -0.374 A  
HETATM   12  C   UNL     1     -11.432  11.746  68.427  1.00  0.00    -0.354 A  
HETATM   13  C   UNL     1     -11.876  12.717  69.326  1.00  0.00    -0.358 A  
ENDBRANCH   5   8
TORSDOF 1
ENDMDL
MODEL       98
REMARK 921   NORMALIZED FREE ENERGY PREDICTED BY IDOCK:   -3.04 KCAL/MOL
REMARK 922        TOTAL FREE ENERGY PREDICTED BY IDOCK:   -3.23 KCAL/MOL
REMARK 923 INTER-LIGAND FREE ENERGY PREDICTED BY IDOCK:   -3.20 KCAL/MOL
REMARK 924 INTRA-LIGAND FREE ENERGY PREDICTED BY IDOCK:   -0.04 KCAL/MOL
REMARK 927      BINDING AFFINITY PREDICTED BY RF-SCORE:    0.00 PKD
ROOT
HETATM    1  C   UNL     1     -11.383   9.323  70.891  1.00  0.00    -0.308 C  
HETATM    2  N   UNL     1     -10.640   8.374  71.711  1.00  0.00    -0.259 NA 
HETATM    3  C   UNL     1     -10.994   6.942  71.545  1.00  0.00    -0.238 C  
HETATM    4  H   UNL     1      -9.917   8.678  72.364  1.00  0.00     0.000 HD 
HETATM    5  C   UNL     1     -10.014   6.138  72.480  1.00  0.00    -0.188 C  
HETATM    6  C   UNL     1     -10.812   6.520  70.071  1.00  0.00    -0.342 C  
HETATM    7  C   UNL     1     -12.455   6.691  71.972  1.00  0.00    -0.288 C  
ENDROOT
BRANCH   5   8
HETATM    8  C   UNL     1     -10.259   4.642  72.557  1.00  0.00    -0.243 A  
HETATM    9  C   UNL     1     -11.028   4.096  73.593  1.00  0.00    -0.351 A  
HETATM   10  C   UNL     1     -11.081   2.717  73.792  1.00  0.00    -0.306 A  
HETATM   11  C   UNL     1     -10.425   1.861  72.911  1.00  0.00    -0.227 A  
HETATM   12  C   UNL     1      -9.745   2.388  71.814  1.00  0.00    -0.220 A  
HETATM   13  C   UNL     1      -9.659   3.770  71.637  1.00  0.00    -0.227 A  
ENDBRANCH   5   8
TORSDOF 1
ENDMDL
MODEL       99
REMARK 921   NORMALIZED FREE ENERGY PREDICTED BY IDOCK:   -3.01 KCAL/MOL
REMARK 922        TOTAL FREE ENERGY PREDICTED BY IDOCK:   -3.20 KCAL/MOL
REMARK 923 INTER-LIGAND FREE ENERGY PREDICTED BY IDOCK:   -3.16 KCAL/MOL
REMARK 924 INTRA-LIGAND FREE ENERGY PREDICTED BY IDOCK:   -0.04 KCAL/MOL
REMARK 927      BINDING AFFINITY PREDICTED BY RF-SCORE:    0.00 PKD
ROOT
HETATM    1  C   UNL     1     -12.396  11.106  70.527  1.00  0.00    -0.364 C  
HETATM    2  N   UNL     1     -12.296  10.422  69.244  1.00  0.00    -0.682 NA 
HETATM    3  C   UNL     1     -11.038  10.630  68.483  1.00  0.00    -0.263 C  
HETATM    4  H   UNL     1     -13.049   9.833  68.887  1.00  0.00     0.000 HD 
HETATM    5  C   UNL     1     -11.157   9.741  67.189  1.00  0.00     0.048 C  
HETATM    6  C   UNL     1      -9.827  10.194  69.336  1.00  0.00    -0.247 C  
HETATM    7  C   UNL     1     -10.879  12.113  68.091  1.00  0.00    -0.256 C  
ENDROOT
BRANCH   5   8
HETATM    8  C   UNL     1     -10.018   9.873  66.194  1.00  0.00    -0.331 A  
HETATM    9  C   UNL     1     -10.168  10.645  65.035  1.00  0.00    -0.380 A  
HETATM   10  C   UNL     1      -9.214  10.600  64.019  1.00  0.00    -0.269 A  
HETATM   11  C   UNL     1      -8.059   9.840  64.183  1.00  0.00    -0.153 A  
HETATM   12  C   UNL     1      -7.848   9.152  65.377  1.00  0.00    -0.100 A  
HETATM   13  C   UNL     1      -8.822   9.165  66.377  1.00  0.00    -0.165 A  
ENDBRANCH   5   8
TORSDOF 1
ENDMDL
MODEL      100
REMARK 921   NORMALIZED FREE ENERGY PREDICTED BY IDOCK:   -2.99 KCAL/MOL
REMARK 922        TOTAL FREE ENERGY PREDICTED BY IDOCK:   -3.18 KCAL/MOL
REMARK 923 INTER-LIGAND FREE ENERGY PREDICTED BY IDOCK:   -3.14 KCAL/MOL
REMARK 924 INTRA-LIGAND FREE ENERGY PREDICTED BY IDOCK:   -0.04 KCAL/MOL
REMARK 927      BINDING AFFINITY PREDICTED BY RF-SCORE:    0.00 PKD
ROOT
HETATM    1  C   UNL     1      -8.788  13.120  67.820  1.00  0.00    -0.191 C  
HETATM    2  N   UNL     1      -8.071  14.184  67.129  1.00  0.00    -0.339 NA 
HETATM    3  C   UNL     1      -8.224  15.551  67.685  1.00  0.00    -0.154 C  
HETATM    4  H   UNL     1      -7.495  13.999  66.307  1.00  0.00     0.000 HD 
HETATM    5  C   UNL     1      -7.308  16.486  66.810  1.00  0.00    -0.274 C  
HETATM    6  C   UNL     1      -7.776  15.574  69.163  1.00  0.00    -0.210 C  
HETATM    7  C   UNL     1      -9.693  16.014  67.591  1.00  0.00    -0.224 C  
ENDROOT
BRANCH   5   8
HETATM    8  C   UNL     1      -7.385  17.967  67.130  1.00  0.00    -0.214 A  
HETATM    9  C   UNL     1      -8.140  18.834  66.330  1.00  0.00    -0.296 A  
HETATM   10  C   UNL     1      -8.046  20.216  66.488  1.00  0.00    -0.315 A  
HETATM   11  C   UNL     1      -7.250  20.748  67.499  1.00  0.00    -0.377 A  
HETATM   12  C   UNL     1      -6.576  19.893  68.370  1.00  0.00    -0.321 A  
HETATM   13  C   UNL     1      -6.639  18.511  68.187  1.00  0.00    -0.227 A  
ENDBRANCH   5   8
TORSDOF 1
ENDMDL
MODEL      101
REMARK 921   NORMALIZED FREE ENERGY PREDICTED BY IDOCK:   -2.93 KCAL/MOL
REMARK 922        TOTAL FREE ENERGY PREDICTED BY IDOCK:   -3.12 KCAL/MOL
REMARK 923 INTER-LIGAND FREE ENERGY PREDICTED BY IDOCK:   -3.10 KCAL/MOL
REMARK 924 INTRA-LIGAND FREE ENERGY PREDICTED BY IDOCK:   -0.02 KCAL/MOL
REMARK 927      BINDING AFFINITY PREDICTED BY RF-SCORE:    0.00 PKD
ROOT
HETATM    1  C   UNL     1      -9.327  10.777  63.315  1.00  0.00    -0.304 C  
HETATM    2  N   UNL     1      -9.932   9.850  64.264  1.00  0.00    -0.444 NA 
HETATM    3  C   UNL     1      -9.680  10.120  65.701  1.00  0.00    -0.259 C  
HETATM    4  H   UNL     1     -10.498   9.058  63.957  1.00  0.00     0.000 HD 
HETATM    5  C   UNL     1     -10.489   9.031  66.501  1.00  0.00    -0.192 C  
HETATM    6  C   UNL     1     -10.167  11.540  66.066  1.00  0.00    -0.283 C  
HETATM    7  C   UNL     1      -8.175   9.999  66.020  1.00  0.00    -0.126 C  
ENDROOT
BRANCH   5   8
HETATM    8  C   UNL     1     -10.297   9.044  68.006  1.00  0.00    -0.275 A  
HETATM    9  C   UNL     1     -11.007   9.945  68.810  1.00  0.00    -0.217 A  
HETATM   10  C   UNL     1     -10.683  10.110  70.156  1.00  0.00    -0.355 A  
HETATM   11  C   UNL     1      -9.693   9.320  70.735  1.00  0.00    -0.348 A  
HETATM   12  C   UNL     1      -9.052   8.345  69.971  1.00  0.00    -0.150 A  
HETATM   13  C   UNL     1      -9.349   8.208  68.614  1.00  0.00    -0.143 A  
ENDBRANCH   5   8
TORSDOF 1
ENDMDL
MODEL      102
REMARK 921   NORMALIZED FREE ENERGY PREDICTED BY IDOCK:   -2.90 KCAL/MOL
REMARK 922        TOTAL FREE ENERGY PREDICTED BY IDOCK:   -3.08 KCAL/MOL
REMARK 923 INTER-LIGAND FREE ENERGY PREDICTED BY IDOCK:   -3.07 KCAL/MOL
REMARK 924 INTRA-LIGAND FREE ENERGY PREDICTED BY IDOCK:   -0.02 KCAL/MOL
REMARK 927      BINDING AFFINITY PREDICTED BY RF-SCORE:    0.00 PKD
ROOT
HETATM    1  C   UNL     1     -10.058   5.414  71.158  1.00  0.00    -0.212 C  
HETATM    2  N   UNL     1      -9.436   6.668  70.752  1.00  0.00    -0.168 NA 
HETATM    3  C   UNL     1     -10.305   7.630  70.030  1.00  0.00    -0.223 C  
HETATM    4  H   UNL     1      -8.457   6.873  70.953  1.00  0.00     0.000 HD 
HETATM    5  C   UNL     1      -9.422   8.909  69.770  1.00  0.00    -0.174 C  
HETATM    6  C   UNL     1     -11.536   7.982  70.893  1.00  0.00    -0.291 C  
HETATM    7  C   UNL     1     -10.776   7.034  68.687  1.00  0.00    -0.225 C  
ENDROOT
BRANCH   5   8
HETATM    8  C   UNL     1     -10.075  10.000  68.943  1.00  0.00    -0.200 A  
HETATM    9  C   UNL     1     -11.016  10.865  69.515  1.00  0.00    -0.306 A  
HETATM   10  C   UNL     1     -11.772  11.725  68.720  1.00  0.00    -0.389 A  
HETATM   11  C   UNL     1     -11.545  11.785  67.348  1.00  0.00    -0.352 A  
HETATM   12  C   UNL     1     -10.536  11.005  66.781  1.00  0.00    -0.317 A  
HETATM   13  C   UNL     1      -9.807  10.116  67.571  1.00  0.00    -0.211 A  
ENDBRANCH   5   8
TORSDOF 1
ENDMDL
MODEL      103
REMARK 921   NORMALIZED FREE ENERGY PREDICTED BY IDOCK:   -2.89 KCAL/MOL
REMARK 922        TOTAL FREE ENERGY PREDICTED BY IDOCK:   -3.08 KCAL/MOL
REMARK 923 INTER-LIGAND FREE ENERGY PREDICTED BY IDOCK:   -3.06 KCAL/MOL
REMARK 924 INTRA-LIGAND FREE ENERGY PREDICTED BY IDOCK:   -0.02 KCAL/MOL
REMARK 927      BINDING AFFINITY PREDICTED BY RF-SCORE:    0.00 PKD
ROOT
HETATM    1  C   UNL     1      -8.638   9.676  64.286  1.00  0.00    -0.191 C  
HETATM    2  N   UNL     1      -9.137  11.043  64.382  1.00  0.00    -0.334 NA 
HETATM    3  C   UNL     1      -9.399  11.553  65.751  1.00  0.00    -0.221 C  
HETATM    4  H   UNL     1      -9.297  11.617  63.554  1.00  0.00     0.000 HD 
HETATM    5  C   UNL     1      -9.856  13.050  65.581  1.00  0.00    -0.181 C  
HETATM    6  C   UNL     1      -8.113  11.467  66.602  1.00  0.00    -0.139 C  
HETATM    7  C   UNL     1     -10.516  10.734  66.431  1.00  0.00    -0.293 C  
ENDROOT
BRANCH   5   8
HETATM    8  C   UNL     1     -10.285  13.755  66.855  1.00  0.00    -0.261 A  
HETATM    9  C   UNL     1      -9.338  14.369  67.685  1.00  0.00    -0.200 A  
HETATM   10  C   UNL     1      -9.692  14.828  68.953  1.00  0.00    -0.215 A  
HETATM   11  C   UNL     1     -11.015  14.747  69.379  1.00  0.00    -0.282 A  
HETATM   12  C   UNL     1     -11.987  14.235  68.519  1.00  0.00    -0.352 A  
HETATM   13  C   UNL     1     -11.626  13.738  67.266  1.00  0.00    -0.391 A  
ENDBRANCH   5   8
TORSDOF 1
ENDMDL
MODEL      104
REMARK 921   NORMALIZED FREE ENERGY PREDICTED BY IDOCK:   -2.89 KCAL/MOL
REMARK 922        TOTAL FREE ENERGY PREDICTED BY IDOCK:   -3.07 KCAL/MOL
REMARK 923 INTER-LIGAND FREE ENERGY PREDICTED BY IDOCK:   -3.05 KCAL/MOL
REMARK 924 INTRA-LIGAND FREE ENERGY PREDICTED BY IDOCK:   -0.02 KCAL/MOL
REMARK 927      BINDING AFFINITY PREDICTED BY RF-SCORE:    0.00 PKD
ROOT
HETATM    1  C   UNL     1     -12.222   9.392  71.727  1.00  0.00    -0.390 C  
HETATM    2  N   UNL     1     -11.851   8.658  70.523  1.00  0.00    -0.474 NA 
HETATM    3  C   UNL     1     -10.842   9.302  69.645  1.00  0.00    -0.212 C  
HETATM    4  H   UNL     1     -12.262   7.752  70.296  1.00  0.00     0.000 HD 
HETATM    5  C   UNL     1     -10.573   8.287  68.470  1.00  0.00    -0.143 C  
HETATM    6  C   UNL     1      -9.546   9.574  70.439  1.00  0.00    -0.326 C  
HETATM    7  C   UNL     1     -11.383  10.631  69.080  1.00  0.00    -0.340 C  
ENDROOT
BRANCH   5   8
HETATM    8  C   UNL     1      -9.641   8.780  67.378  1.00  0.00    -0.206 A  
HETATM    9  C   UNL     1      -8.252   8.717  67.542  1.00  0.00    -0.110 A  
HETATM   10  C   UNL     1      -7.397   9.357  66.645  1.00  0.00    -0.090 A  
HETATM   11  C   UNL     1      -7.920  10.006  65.529  1.00  0.00    -0.139 A  
HETATM   12  C   UNL     1      -9.295   9.983  65.298  1.00  0.00    -0.294 A  
HETATM   13  C   UNL     1     -10.153   9.377  66.217  1.00  0.00    -0.328 A  
ENDBRANCH   5   8
TORSDOF 1
ENDMDL
MODEL      105
REMARK 921   NORMALIZED FREE ENERGY PREDICTED BY IDOCK:   -2.88 KCAL/MOL
REMARK 922        TOTAL FREE ENERGY PREDICTED BY IDOCK:   -3.06 KCAL/MOL
REMARK 923 INTER-LIGAND FREE ENERGY PREDICTED BY IDOCK:   -3.06 KCAL/MOL
REMARK 924 INTRA-LIGAND FREE ENERGY PREDICTED BY IDOCK:   -0.00 KCAL/MOL
REMARK 927      BINDING AFFINITY PREDICTED BY RF-SCORE:    0.00 PKD
ROOT
HETATM    1  C   UNL     1     -12.274  13.622  70.324  1.00  0.00    -0.353 C  
HETATM    2  N   UNL     1     -11.598  12.417  69.861  1.00  0.00    -0.499 NA 
HETATM    3  C   UNL     1     -10.878  12.521  68.568  1.00  0.00    -0.243 C  
HETATM    4  H   UNL     1     -11.619  11.548  70.397  1.00  0.00     0.000 HD 
HETATM    5  C   UNL     1     -10.189  11.124  68.336  1.00  0.00    -0.200 C  
HETATM    6  C   UNL     1      -9.822  13.645  68.640  1.00  0.00    -0.140 C  
HETATM    7  C   UNL     1     -11.864  12.819  67.420  1.00  0.00    -0.404 C  
ENDROOT
BRANCH   5   8
HETATM    8  C   UNL     1      -9.472  10.957  67.009  1.00  0.00    -0.184 A  
HETATM    9  C   UNL     1     -10.170  10.546  65.866  1.00  0.00    -0.311 A  
HETATM   10  C   UNL     1      -9.489  10.186  64.704  1.00  0.00    -0.357 A  
HETATM   11  C   UNL     1      -8.103  10.304  64.645  1.00  0.00    -0.154 A  
HETATM   12  C   UNL     1      -7.406  10.814  65.740  1.00  0.00    -0.061 A  
HETATM   13  C   UNL     1      -8.084  11.136  66.917  1.00  0.00    -0.150 A  
ENDBRANCH   5   8
TORSDOF 1
ENDMDL
MODEL      106
REMARK 921   NORMALIZED FREE ENERGY PREDICTED BY IDOCK:   -2.84 KCAL/MOL
REMARK 922        TOTAL FREE ENERGY PREDICTED BY IDOCK:   -3.02 KCAL/MOL
REMARK 923 INTER-LIGAND FREE ENERGY PREDICTED BY IDOCK:   -3.18 KCAL/MOL
REMARK 924 INTRA-LIGAND FREE ENERGY PREDICTED BY IDOCK:    0.16 KCAL/MOL
REMARK 927      BINDING AFFINITY PREDICTED BY RF-SCORE:    0.00 PKD
ROOT
HETATM    1  C   UNL     1      -8.201  13.370  68.380  1.00  0.00    -0.139 C  
HETATM    2  N   UNL     1      -9.347  12.494  68.592  1.00  0.00    -0.404 NA 
HETATM    3  C   UNL     1      -9.111  11.042  68.394  1.00  0.00    -0.161 C  
HETATM    4  H   UNL     1     -10.261  12.859  68.860  1.00  0.00     0.000 HD 
HETATM    5  C   UNL     1     -10.469  10.326  68.746  1.00  0.00    -0.222 C  
HETATM    6  C   UNL     1      -7.980  10.558  69.328  1.00  0.00    -0.156 C  
HETATM    7  C   UNL     1      -8.725  10.749  66.930  1.00  0.00    -0.141 C  
ENDROOT
BRANCH   5   8
HETATM    8  C   UNL     1     -10.500   8.827  68.514  1.00  0.00    -0.212 A  
HETATM    9  C   UNL     1     -10.466   8.304  67.215  1.00  0.00    -0.373 A  
HETATM   10  C   UNL     1     -10.709   6.950  66.983  1.00  0.00    -0.432 A  
HETATM   11  C   UNL     1     -10.914   6.087  68.056  1.00  0.00    -0.340 A  
HETATM   12  C   UNL     1     -10.844   6.577  69.360  1.00  0.00    -0.363 A  
HETATM   13  C   UNL     1     -10.642   7.938  69.590  1.00  0.00    -0.234 A  
ENDBRANCH   5   8
TORSDOF 1
ENDMDL
MODEL      107
REMARK 921   NORMALIZED FREE ENERGY PREDICTED BY IDOCK:   -2.81 KCAL/MOL
REMARK 922        TOTAL FREE ENERGY PREDICTED BY IDOCK:   -2.99 KCAL/MOL
REMARK 923 INTER-LIGAND FREE ENERGY PREDICTED BY IDOCK:   -2.98 KCAL/MOL
REMARK 924 INTRA-LIGAND FREE ENERGY PREDICTED BY IDOCK:   -0.01 KCAL/MOL
REMARK 927      BINDING AFFINITY PREDICTED BY RF-SCORE:    0.00 PKD
ROOT
HETATM    1  C   UNL     1      -7.287   5.581  67.530  1.00  0.00    -0.076 C  
HETATM    2  N   UNL     1      -7.345   6.573  68.597  1.00  0.00    -0.085 NA 
HETATM    3  C   UNL     1      -8.691   6.866  69.150  1.00  0.00    -0.135 C  
HETATM    4  H   UNL     1      -6.507   7.040  68.944  1.00  0.00     0.000 HD 
HETATM    5  C   UNL     1      -8.470   7.902  70.315  1.00  0.00    -0.128 C  
HETATM    6  C   UNL     1      -9.336   5.570  69.686  1.00  0.00    -0.172 C  
HETATM    7  C   UNL     1      -9.602   7.478  68.066  1.00  0.00    -0.156 C  
ENDROOT
BRANCH   5   8
HETATM    8  C   UNL     1      -9.732   8.435  70.968  1.00  0.00    -0.218 A  
HETATM    9  C   UNL     1     -10.329   7.751  72.034  1.00  0.00    -0.267 A  
HETATM   10  C   UNL     1     -11.594   8.113  72.496  1.00  0.00    -0.468 A  
HETATM   11  C   UNL     1     -12.247   9.213  71.947  1.00  0.00    -0.449 A  
HETATM   12  C   UNL     1     -11.617   9.967  70.958  1.00  0.00    -0.470 A  
HETATM   13  C   UNL     1     -10.368   9.581  70.468  1.00  0.00    -0.350 A  
ENDBRANCH   5   8
TORSDOF 1
ENDMDL
MODEL      108
REMARK 921   NORMALIZED FREE ENERGY PREDICTED BY IDOCK:   -2.77 KCAL/MOL
REMARK 922        TOTAL FREE ENERGY PREDICTED BY IDOCK:   -2.94 KCAL/MOL
REMARK 923 INTER-LIGAND FREE ENERGY PREDICTED BY IDOCK:   -2.90 KCAL/MOL
REMARK 924 INTRA-LIGAND FREE ENERGY PREDICTED BY IDOCK:   -0.04 KCAL/MOL
REMARK 927      BINDING AFFINITY PREDICTED BY RF-SCORE:    0.00 PKD
ROOT
HETATM    1  C   UNL     1     -13.021   8.748  71.804  1.00  0.00    -0.361 C  
HETATM    2  N   UNL     1     -12.557   7.479  72.351  1.00  0.00    -0.520 NA 
HETATM    3  C   UNL     1     -11.302   6.934  71.775  1.00  0.00    -0.261 C  
HETATM    4  H   UNL     1     -13.067   6.992  73.088  1.00  0.00     0.000 HD 
HETATM    5  C   UNL     1     -10.991   5.613  72.575  1.00  0.00    -0.313 C  
HETATM    6  C   UNL     1     -10.157   7.956  71.941  1.00  0.00    -0.250 C  
HETATM    7  C   UNL     1     -11.486   6.612  70.278  1.00  0.00    -0.449 C  
ENDROOT
BRANCH   5   8
HETATM    8  C   UNL     1      -9.795   4.816  72.087  1.00  0.00    -0.228 A  
HETATM    9  C   UNL     1      -9.969   3.711  71.244  1.00  0.00    -0.144 A  
HETATM   10  C   UNL     1      -8.907   2.851  70.965  1.00  0.00    -0.141 A  
HETATM   11  C   UNL     1      -7.638   3.128  71.467  1.00  0.00    -0.048 A  
HETATM   12  C   UNL     1      -7.430   4.283  72.219  1.00  0.00    -0.068 A  
HETATM   13  C   UNL     1      -8.501   5.122  72.531  1.00  0.00    -0.121 A  
ENDBRANCH   5   8
TORSDOF 1
ENDMDL
MODEL      109
REMARK 921   NORMALIZED FREE ENERGY PREDICTED BY IDOCK:   -2.77 KCAL/MOL
REMARK 922        TOTAL FREE ENERGY PREDICTED BY IDOCK:   -2.94 KCAL/MOL
REMARK 923 INTER-LIGAND FREE ENERGY PREDICTED BY IDOCK:   -2.91 KCAL/MOL
REMARK 924 INTRA-LIGAND FREE ENERGY PREDICTED BY IDOCK:   -0.03 KCAL/MOL
REMARK 927      BINDING AFFINITY PREDICTED BY RF-SCORE:    0.00 PKD
ROOT
HETATM    1  C   UNL     1      -8.117   6.866  64.964  1.00  0.00    -0.117 C  
HETATM    2  N   UNL     1      -9.153   7.460  65.799  1.00  0.00    -0.380 NA 
HETATM    3  C   UNL     1      -9.042   7.218  67.259  1.00  0.00    -0.123 C  
HETATM    4  H   UNL     1      -9.914   8.013  65.402  1.00  0.00     0.000 HD 
HETATM    5  C   UNL     1     -10.226   8.013  67.927  1.00  0.00    -0.267 C  
HETATM    6  C   UNL     1      -7.680   7.729  67.777  1.00  0.00    -0.122 C  
HETATM    7  C   UNL     1      -9.175   5.714  67.571  1.00  0.00    -0.109 C  
ENDROOT
BRANCH   5   8
HETATM    8  C   UNL     1     -10.379   7.828  69.425  1.00  0.00    -0.219 A  
HETATM    9  C   UNL     1     -11.220   6.834  69.940  1.00  0.00    -0.379 A  
HETATM   10  C   UNL     1     -11.531   6.795  71.299  1.00  0.00    -0.347 A  
HETATM   11  C   UNL     1     -10.943   7.705  72.174  1.00  0.00    -0.304 A  
HETATM   12  C   UNL     1     -10.021   8.632  71.689  1.00  0.00    -0.353 A  
HETATM   13  C   UNL     1      -9.741   8.697  70.323  1.00  0.00    -0.191 A  
ENDBRANCH   5   8
TORSDOF 1
ENDMDL
MODEL      110
REMARK 921   NORMALIZED FREE ENERGY PREDICTED BY IDOCK:   -2.76 KCAL/MOL
REMARK 922        TOTAL FREE ENERGY PREDICTED BY IDOCK:   -2.94 KCAL/MOL
REMARK 923 INTER-LIGAND FREE ENERGY PREDICTED BY IDOCK:   -3.69 KCAL/MOL
REMARK 924 INTRA-LIGAND FREE ENERGY PREDICTED BY IDOCK:    0.75 KCAL/MOL
REMARK 927      BINDING AFFINITY PREDICTED BY RF-SCORE:    0.00 PKD
ROOT
HETATM    1  C   UNL     1      -7.652   8.389  66.840  1.00  0.00    -0.091 C  
HETATM    2  N   UNL     1      -8.338   8.148  68.104  1.00  0.00    -0.128 NA 
HETATM    3  C   UNL     1      -9.469   9.054  68.422  1.00  0.00    -0.146 C  
HETATM    4  H   UNL     1      -8.056   7.397  68.735  1.00  0.00     0.000 HD 
HETATM    5  C   UNL     1     -10.070   8.544  69.786  1.00  0.00    -0.197 C  
HETATM    6  C   UNL     1     -10.529   8.992  67.301  1.00  0.00    -0.343 C  
HETATM    7  C   UNL     1      -8.974  10.507  68.575  1.00  0.00    -0.147 C  
ENDROOT
BRANCH   5   8
HETATM    8  C   UNL     1     -11.185   9.391  70.370  1.00  0.00    -0.309 A  
HETATM    9  C   UNL     1     -11.327  10.736  70.006  1.00  0.00    -0.397 A  
HETATM   10  C   UNL     1     -12.207  11.572  70.692  1.00  0.00    -0.473 A  
HETATM   11  C   UNL     1     -13.013  11.056  71.703  1.00  0.00    -0.561 A  
HETATM   12  C   UNL     1     -12.958   9.694  72.002  1.00  0.00    -0.518 A  
HETATM   13  C   UNL     1     -12.048   8.866  71.343  1.00  0.00    -0.381 A  
ENDBRANCH   5   8
TORSDOF 1
ENDMDL
MODEL      111
REMARK 921   NORMALIZED FREE ENERGY PREDICTED BY IDOCK:   -2.72 KCAL/MOL
REMARK 922        TOTAL FREE ENERGY PREDICTED BY IDOCK:   -2.89 KCAL/MOL
REMARK 923 INTER-LIGAND FREE ENERGY PREDICTED BY IDOCK:   -2.85 KCAL/MOL
REMARK 924 INTRA-LIGAND FREE ENERGY PREDICTED BY IDOCK:   -0.03 KCAL/MOL
REMARK 927      BINDING AFFINITY PREDICTED BY RF-SCORE:    0.00 PKD
ROOT
HETATM    1  C   UNL     1     -13.193   9.506  72.255  1.00  0.00    -0.421 C  
HETATM    2  N   UNL     1     -12.754   8.477  71.321  1.00  0.00    -0.455 NA 
HETATM    3  C   UNL     1     -11.419   8.675  70.702  1.00  0.00    -0.228 C  
HETATM    4  H   UNL     1     -13.332   7.665  71.103  1.00  0.00     0.000 HD 
HETATM    5  C   UNL     1     -11.160   7.409  69.802  1.00  0.00    -0.169 C  
HETATM    6  C   UNL     1     -10.340   8.795  71.800  1.00  0.00    -0.413 C  
HETATM    7  C   UNL     1     -11.407   9.951  69.834  1.00  0.00    -0.273 C  
ENDROOT
BRANCH   5   8
HETATM    8  C   UNL     1      -9.886   7.439  68.978  1.00  0.00    -0.168 A  
HETATM    9  C   UNL     1      -9.927   7.736  67.610  1.00  0.00    -0.230 A  
HETATM   10  C   UNL     1      -8.801   7.557  66.806  1.00  0.00    -0.153 A  
HETATM   11  C   UNL     1      -7.598   7.149  67.376  1.00  0.00    -0.109 A  
HETATM   12  C   UNL     1      -7.518   6.953  68.754  1.00  0.00    -0.099 A  
HETATM   13  C   UNL     1      -8.654   7.093  69.552  1.00  0.00    -0.134 A  
ENDBRANCH   5   8
TORSDOF 1
ENDMDL
MODEL      112
REMARK 921   NORMALIZED FREE ENERGY PREDICTED BY IDOCK:   -2.72 KCAL/MOL
REMARK 922        TOTAL FREE ENERGY PREDICTED BY IDOCK:   -2.89 KCAL/MOL
REMARK 923 INTER-LIGAND FREE ENERGY PREDICTED BY IDOCK:   -2.91 KCAL/MOL
REMARK 924 INTRA-LIGAND FREE ENERGY PREDICTED BY IDOCK:    0.02 KCAL/MOL
REMARK 927      BINDING AFFINITY PREDICTED BY RF-SCORE:    0.00 PKD
ROOT
HETATM    1  C   UNL     1      -6.247  16.935  67.523  1.00  0.00    -0.156 C  
HETATM    2  N   UNL     1      -6.518  15.526  67.267  1.00  0.00    -0.307 NA 
HETATM    3  C   UNL     1      -7.905  15.064  67.525  1.00  0.00    -0.182 C  
HETATM    4  H   UNL     1      -5.794  14.891  66.929  1.00  0.00     0.000 HD 
HETATM    5  C   UNL     1      -7.946  13.545  67.110  1.00  0.00    -0.058 C  
HETATM    6  C   UNL     1      -8.902  15.888  66.681  1.00  0.00    -0.316 C  
HETATM    7  C   UNL     1      -8.257  15.212  69.019  1.00  0.00    -0.193 C  
ENDROOT
BRANCH   5   8
HETATM    8  C   UNL     1      -9.252  12.824  67.387  1.00  0.00    -0.193 A  
HETATM    9  C   UNL     1     -10.414  13.152  66.679  1.00  0.00    -0.280 A  
HETATM   10  C   UNL     1     -11.655  12.651  67.070  1.00  0.00    -0.431 A  
HETATM   11  C   UNL     1     -11.739  11.754  68.132  1.00  0.00    -0.377 A  
HETATM   12  C   UNL     1     -10.576  11.337  68.777  1.00  0.00    -0.234 A  
HETATM   13  C   UNL     1      -9.339  11.869  68.411  1.00  0.00    -0.184 A  
ENDBRANCH   5   8
TORSDOF 1
ENDMDL
MODEL      113
REMARK 921   NORMALIZED FREE ENERGY PREDICTED BY IDOCK:   -2.71 KCAL/MOL
REMARK 922        TOTAL FREE ENERGY PREDICTED BY IDOCK:   -2.88 KCAL/MOL
REMARK 923 INTER-LIGAND FREE ENERGY PREDICTED BY IDOCK:   -2.84 KCAL/MOL
REMARK 924 INTRA-LIGAND FREE ENERGY PREDICTED BY IDOCK:   -0.04 KCAL/MOL
REMARK 927      BINDING AFFINITY PREDICTED BY RF-SCORE:    0.00 PKD
ROOT
HETATM    1  C   UNL     1      -9.064   4.364  66.043  1.00  0.00    -0.131 C  
HETATM    2  N   UNL     1      -8.701   5.511  66.866  1.00  0.00    -0.113 NA 
HETATM    3  C   UNL     1      -9.718   5.964  67.848  1.00  0.00    -0.119 C  
HETATM    4  H   UNL     1      -7.799   5.978  66.772  1.00  0.00     0.000 HD 
HETATM    5  C   UNL     1      -9.060   7.154  68.643  1.00  0.00    -0.133 C  
HETATM    6  C   UNL     1     -10.084   4.806  68.802  1.00  0.00    -0.128 C  
HETATM    7  C   UNL     1     -10.991   6.452  67.126  1.00  0.00    -0.476 C  
ENDROOT
BRANCH   5   8
HETATM    8  C   UNL     1      -9.962   7.854  69.643  1.00  0.00    -0.191 A  
HETATM    9  C   UNL     1     -10.572   9.073  69.323  1.00  0.00    -0.226 A  
HETATM   10  C   UNL     1     -11.224   9.824  70.302  1.00  0.00    -0.347 A  
HETATM   11  C   UNL     1     -11.338   9.328  71.598  1.00  0.00    -0.467 A  
HETATM   12  C   UNL     1     -10.827   8.066  71.902  1.00  0.00    -0.316 A  
HETATM   13  C   UNL     1     -10.140   7.333  70.933  1.00  0.00    -0.192 A  
ENDBRANCH   5   8
TORSDOF 1
ENDMDL
MODEL      114
REMARK 921   NORMALIZED FREE ENERGY PREDICTED BY IDOCK:   -2.70 KCAL/MOL
REMARK 922        TOTAL FREE ENERGY PREDICTED BY IDOCK:   -2.87 KCAL/MOL
REMARK 923 INTER-LIGAND FREE ENERGY PREDICTED BY IDOCK:   -2.84 KCAL/MOL
REMARK 924 INTRA-LIGAND FREE ENERGY PREDICTED BY IDOCK:   -0.03 KCAL/MOL
REMARK 927      BINDING AFFINITY PREDICTED BY RF-SCORE:    0.00 PKD
ROOT
HETATM    1  C   UNL     1      -8.676   9.960  64.140  1.00  0.00    -0.206 C  
HETATM    2  N   UNL     1      -8.971   8.623  64.638  1.00  0.00    -0.416 NA 
HETATM    3  C   UNL     1      -9.200   8.500  66.100  1.00  0.00    -0.211 C  
HETATM    4  H   UNL     1      -9.018   7.814  64.017  1.00  0.00     0.000 HD 
HETATM    5  C   UNL     1      -9.561   6.990  66.362  1.00  0.00    -0.159 C  
HETATM    6  C   UNL     1     -10.361   9.422  66.532  1.00  0.00    -0.268 C  
HETATM    7  C   UNL     1      -7.927   8.882  66.882  1.00  0.00    -0.101 C  
ENDROOT
BRANCH   5   8
HETATM    8  C   UNL     1      -9.736   6.600  67.818  1.00  0.00    -0.136 A  
HETATM    9  C   UNL     1      -8.658   6.097  68.558  1.00  0.00    -0.113 A  
HETATM   10  C   UNL     1      -8.857   5.540  69.821  1.00  0.00    -0.129 A  
HETATM   11  C   UNL     1     -10.127   5.547  70.392  1.00  0.00    -0.297 A  
HETATM   12  C   UNL     1     -11.188   6.141  69.710  1.00  0.00    -0.494 A  
HETATM   13  C   UNL     1     -10.997   6.663  68.429  1.00  0.00    -0.313 A  
ENDBRANCH   5   8
TORSDOF 1
ENDMDL
MODEL      115
REMARK 921   NORMALIZED FREE ENERGY PREDICTED BY IDOCK:   -2.69 KCAL/MOL
REMARK 922        TOTAL FREE ENERGY PREDICTED BY IDOCK:   -2.86 KCAL/MOL
REMARK 923 INTER-LIGAND FREE ENERGY PREDICTED BY IDOCK:   -2.86 KCAL/MOL
REMARK 924 INTRA-LIGAND FREE ENERGY PREDICTED BY IDOCK:    0.00 KCAL/MOL
REMARK 927      BINDING AFFINITY PREDICTED BY RF-SCORE:    0.00 PKD
ROOT
HETATM    1  C   UNL     1      -8.550   4.232  67.166  1.00  0.00    -0.104 C  
HETATM    2  N   UNL     1      -9.684   4.624  67.993  1.00  0.00    -0.153 NA 
HETATM    3  C   UNL     1      -9.368   5.087  69.367  1.00  0.00    -0.124 C  
HETATM    4  H   UNL     1     -10.643   4.583  67.647  1.00  0.00     0.000 HD 
HETATM    5  C   UNL     1     -10.741   5.509  70.015  1.00  0.00    -0.356 C  
HETATM    6  C   UNL     1      -8.399   6.288  69.311  1.00  0.00    -0.117 C  
HETATM    7  C   UNL     1      -8.725   3.951  70.188  1.00  0.00    -0.120 C  
ENDROOT
BRANCH   5   8
HETATM    8  C   UNL     1     -10.679   5.922  71.473  1.00  0.00    -0.313 A  
HETATM    9  C   UNL     1     -10.484   7.263  71.829  1.00  0.00    -0.218 A  
HETATM   10  C   UNL     1     -10.214   7.619  73.150  1.00  0.00    -0.401 A  
HETATM   11  C   UNL     1     -10.210   6.647  74.146  1.00  0.00    -0.390 A  
HETATM   12  C   UNL     1     -10.510   5.324  73.821  1.00  0.00    -0.304 A  
HETATM   13  C   UNL     1     -10.740   4.961  72.493  1.00  0.00    -0.258 A  
ENDBRANCH   5   8
TORSDOF 1
ENDMDL
MODEL      116
REMARK 921   NORMALIZED FREE ENERGY PREDICTED BY IDOCK:   -2.69 KCAL/MOL
REMARK 922        TOTAL FREE ENERGY PREDICTED BY IDOCK:   -2.86 KCAL/MOL
REMARK 923 INTER-LIGAND FREE ENERGY PREDICTED BY IDOCK:   -3.19 KCAL/MOL
REMARK 924 INTRA-LIGAND FREE ENERGY PREDICTED BY IDOCK:    0.33 KCAL/MOL
REMARK 927      BINDING AFFINITY PREDICTED BY RF-SCORE:    0.00 PKD
ROOT
HETATM    1  C   UNL     1     -10.015   7.803  71.594  1.00  0.00    -0.174 C  
HETATM    2  N   UNL     1     -10.890   8.731  70.887  1.00  0.00    -0.226 NA 
HETATM    3  C   UNL     1     -10.364   9.294  69.619  1.00  0.00    -0.217 C  
HETATM    4  H   UNL     1     -11.813   8.980  71.245  1.00  0.00     0.000 HD 
HETATM    5  C   UNL     1     -11.513  10.197  69.031  1.00  0.00    -0.138 C  
HETATM    6  C   UNL     1     -10.011   8.153  68.640  1.00  0.00    -0.201 C  
HETATM    7  C   UNL     1      -9.107  10.147  69.884  1.00  0.00    -0.110 C  
ENDROOT
BRANCH   5   8
HETATM    8  C   UNL     1     -11.162  10.971  67.773  1.00  0.00    -0.374 A  
HETATM    9  C   UNL     1     -11.562  12.304  67.619  1.00  0.00    -0.421 A  
HETATM   10  C   UNL     1     -11.433  12.951  66.390  1.00  0.00    -0.389 A  
HETATM   11  C   UNL     1     -10.832  12.295  65.319  1.00  0.00    -0.332 A  
HETATM   12  C   UNL     1     -10.332  11.005  65.491  1.00  0.00    -0.321 A  
HETATM   13  C   UNL     1     -10.498  10.343  66.709  1.00  0.00    -0.287 A  
ENDBRANCH   5   8
TORSDOF 1
ENDMDL
MODEL      117
REMARK 921   NORMALIZED FREE ENERGY PREDICTED BY IDOCK:   -2.67 KCAL/MOL
REMARK 922        TOTAL FREE ENERGY PREDICTED BY IDOCK:   -2.84 KCAL/MOL
REMARK 923 INTER-LIGAND FREE ENERGY PREDICTED BY IDOCK:   -2.82 KCAL/MOL
REMARK 924 INTRA-LIGAND FREE ENERGY PREDICTED BY IDOCK:   -0.02 KCAL/MOL
REMARK 927      BINDING AFFINITY PREDICTED BY RF-SCORE:    0.00 PKD
ROOT
HETATM    1  C   UNL     1      -6.960   3.265  71.873  1.00  0.00    -0.030 C  
HETATM    2  N   UNL     1      -7.607   4.250  71.016  1.00  0.00    -0.058 NA 
HETATM    3  C   UNL     1      -8.696   5.046  71.635  1.00  0.00    -0.132 C  
HETATM    4  H   UNL     1      -7.327   4.386  70.044  1.00  0.00     0.000 HD 
HETATM    5  C   UNL     1      -9.172   6.068  70.534  1.00  0.00    -0.168 C  
HETATM    6  C   UNL     1      -8.165   5.791  72.879  1.00  0.00    -0.119 C  
HETATM    7  C   UNL     1      -9.868   4.133  72.048  1.00  0.00    -0.242 C  
ENDROOT
BRANCH   5   8
HETATM    8  C   UNL     1     -10.365   6.928  70.909  1.00  0.00    -0.218 A  
HETATM    9  C   UNL     1     -10.191   8.118  71.625  1.00  0.00    -0.266 A  
HETATM   10  C   UNL     1     -11.287   8.800  72.155  1.00  0.00    -0.411 A  
HETATM   11  C   UNL     1     -12.577   8.338  71.911  1.00  0.00    -0.379 A  
HETATM   12  C   UNL     1     -12.768   7.213  71.109  1.00  0.00    -0.363 A  
HETATM   13  C   UNL     1     -11.671   6.509  70.613  1.00  0.00    -0.436 A  
ENDBRANCH   5   8
TORSDOF 1
ENDMDL
MODEL      118
REMARK 921   NORMALIZED FREE ENERGY PREDICTED BY IDOCK:   -2.66 KCAL/MOL
REMARK 922        TOTAL FREE ENERGY PREDICTED BY IDOCK:   -2.83 KCAL/MOL
REMARK 923 INTER-LIGAND FREE ENERGY PREDICTED BY IDOCK:   -2.81 KCAL/MOL
REMARK 924 INTRA-LIGAND FREE ENERGY PREDICTED BY IDOCK:   -0.01 KCAL/MOL
REMARK 927      BINDING AFFINITY PREDICTED BY RF-SCORE:    0.00 PKD
ROOT
HETATM    1  C   UNL     1      -5.681   6.586  74.014  1.00  0.00    -0.055 C  
HETATM    2  N   UNL     1      -6.892   6.328  73.245  1.00  0.00    -0.074 NA 
HETATM    3  C   UNL     1      -7.755   7.502  72.961  1.00  0.00    -0.096 C  
HETATM    4  H   UNL     1      -7.134   5.392  72.919  1.00  0.00     0.000 HD 
HETATM    5  C   UNL     1      -8.941   6.970  72.072  1.00  0.00    -0.138 C  
HETATM    6  C   UNL     1      -6.948   8.581  72.207  1.00  0.00    -0.094 C  
HETATM    7  C   UNL     1      -8.306   8.100  74.272  1.00  0.00    -0.252 C  
ENDROOT
BRANCH   5   8
HETATM    8  C   UNL     1     -10.020   7.984  71.741  1.00  0.00    -0.245 A  
HETATM    9  C   UNL     1      -9.808   8.959  70.757  1.00  0.00    -0.278 A  
HETATM   10  C   UNL     1     -10.701  10.018  70.597  1.00  0.00    -0.325 A  
HETATM   11  C   UNL     1     -11.858  10.075  71.369  1.00  0.00    -0.447 A  
HETATM   12  C   UNL     1     -12.133   9.054  72.278  1.00  0.00    -0.358 A  
HETATM   13  C   UNL     1     -11.220   8.015  72.466  1.00  0.00    -0.452 A  
ENDBRANCH   5   8
TORSDOF 1
ENDMDL
MODEL      119
REMARK 921   NORMALIZED FREE ENERGY PREDICTED BY IDOCK:   -2.66 KCAL/MOL
REMARK 922        TOTAL FREE ENERGY PREDICTED BY IDOCK:   -2.82 KCAL/MOL
REMARK 923 INTER-LIGAND FREE ENERGY PREDICTED BY IDOCK:   -2.84 KCAL/MOL
REMARK 924 INTRA-LIGAND FREE ENERGY PREDICTED BY IDOCK:    0.02 KCAL/MOL
REMARK 927      BINDING AFFINITY PREDICTED BY RF-SCORE:    0.00 PKD
ROOT
HETATM    1  C   UNL     1      -6.032   8.889  68.554  1.00  0.00    -0.045 C  
HETATM    2  N   UNL     1      -7.448   9.144  68.319  1.00  0.00    -0.082 NA 
HETATM    3  C   UNL     1      -7.787   9.875  67.072  1.00  0.00    -0.102 C  
HETATM    4  H   UNL     1      -8.167   8.838  68.975  1.00  0.00     0.000 HD 
HETATM    5  C   UNL     1      -9.359   9.959  67.026  1.00  0.00    -0.175 C  
HETATM    6  C   UNL     1      -7.244   9.108  65.846  1.00  0.00    -0.093 C  
HETATM    7  C   UNL     1      -7.184  11.295  67.094  1.00  0.00    -0.126 C  
ENDROOT
BRANCH   5   8
HETATM    8  C   UNL     1      -9.940  10.764  65.879  1.00  0.00    -0.304 A  
HETATM    9  C   UNL     1      -9.849  10.299  64.561  1.00  0.00    -0.384 A  
HETATM   10  C   UNL     1     -10.186  11.123  63.488  1.00  0.00    -0.446 A  
HETATM   11  C   UNL     1     -10.691  12.400  63.723  1.00  0.00    -0.492 A  
HETATM   12  C   UNL     1     -10.887  12.834  65.033  1.00  0.00    -0.319 A  
HETATM   13  C   UNL     1     -10.512  12.024  66.106  1.00  0.00    -0.271 A  
ENDBRANCH   5   8
TORSDOF 1
ENDMDL
MODEL      120
REMARK 921   NORMALIZED FREE ENERGY PREDICTED BY IDOCK:   -2.64 KCAL/MOL
REMARK 922        TOTAL FREE ENERGY PREDICTED BY IDOCK:   -2.81 KCAL/MOL
REMARK 923 INTER-LIGAND FREE ENERGY PREDICTED BY IDOCK:   -3.15 KCAL/MOL
REMARK 924 INTRA-LIGAND FREE ENERGY PREDICTED BY IDOCK:    0.34 KCAL/MOL
REMARK 927      BINDING AFFINITY PREDICTED BY RF-SCORE:    0.00 PKD
ROOT
HETATM    1  C   UNL     1      -9.809   7.621  70.093  1.00  0.00    -0.184 C  
HETATM    2  N   UNL     1     -10.593   8.501  69.236  1.00  0.00    -0.295 NA 
HETATM    3  C   UNL     1      -9.939   8.951  67.981  1.00  0.00    -0.178 C  
HETATM    4  H   UNL     1     -11.539   8.793  69.484  1.00  0.00     0.000 HD 
HETATM    5  C   UNL     1     -11.007   9.821  67.218  1.00  0.00    -0.142 C  
HETATM    6  C   UNL     1      -9.523   7.729  67.134  1.00  0.00    -0.198 C  
HETATM    7  C   UNL     1      -8.692   9.803  68.295  1.00  0.00    -0.119 C  
ENDROOT
BRANCH   5   8
HETATM    8  C   UNL     1     -10.523  10.483  65.941  1.00  0.00    -0.224 A  
HETATM    9  C   UNL     1     -10.885  11.802  65.638  1.00  0.00    -0.342 A  
HETATM   10  C   UNL     1     -10.626  12.343  64.379  1.00  0.00    -0.366 A  
HETATM   11  C   UNL     1      -9.933  11.596  63.431  1.00  0.00    -0.447 A  
HETATM   12  C   UNL     1      -9.474  10.320  63.757  1.00  0.00    -0.352 A  
HETATM   13  C   UNL     1      -9.768   9.764  65.003  1.00  0.00    -0.303 A  
ENDBRANCH   5   8
TORSDOF 1
ENDMDL
MODEL      121
REMARK 921   NORMALIZED FREE ENERGY PREDICTED BY IDOCK:   -2.63 KCAL/MOL
REMARK 922        TOTAL FREE ENERGY PREDICTED BY IDOCK:   -2.79 KCAL/MOL
REMARK 923 INTER-LIGAND FREE ENERGY PREDICTED BY IDOCK:   -2.80 KCAL/MOL
REMARK 924 INTRA-LIGAND FREE ENERGY PREDICTED BY IDOCK:    0.01 KCAL/MOL
REMARK 927      BINDING AFFINITY PREDICTED BY RF-SCORE:    0.00 PKD
ROOT
HETATM    1  C   UNL     1     -11.360   5.568  72.607  1.00  0.00    -0.291 C  
HETATM    2  N   UNL     1     -11.272   6.140  71.269  1.00  0.00    -0.292 NA 
HETATM    3  C   UNL     1     -10.685   7.500  71.172  1.00  0.00    -0.227 C  
HETATM    4  H   UNL     1     -11.596   5.634  70.445  1.00  0.00     0.000 HD 
HETATM    5  C   UNL     1     -10.643   7.851  69.637  1.00  0.00    -0.234 C  
HETATM    6  C   UNL     1      -9.262   7.506  71.773  1.00  0.00    -0.162 C  
HETATM    7  C   UNL     1     -11.560   8.524  71.923  1.00  0.00    -0.410 C  
ENDROOT
BRANCH   5   8
HETATM    8  C   UNL     1     -10.172   9.253  69.297  1.00  0.00    -0.211 A  
HETATM    9  C   UNL     1     -11.061  10.196  68.766  1.00  0.00    -0.250 A  
HETATM   10  C   UNL     1     -10.595  11.407  68.254  1.00  0.00    -0.224 A  
HETATM   11  C   UNL     1      -9.242  11.722  68.335  1.00  0.00    -0.175 A  
HETATM   12  C   UNL     1      -8.362  10.837  68.958  1.00  0.00    -0.138 A  
HETATM   13  C   UNL     1      -8.822   9.608  69.434  1.00  0.00    -0.183 A  
ENDBRANCH   5   8
TORSDOF 1
ENDMDL
MODEL      122
REMARK 921   NORMALIZED FREE ENERGY PREDICTED BY IDOCK:   -2.62 KCAL/MOL
REMARK 922        TOTAL FREE ENERGY PREDICTED BY IDOCK:   -2.79 KCAL/MOL
REMARK 923 INTER-LIGAND FREE ENERGY PREDICTED BY IDOCK:   -3.59 KCAL/MOL
REMARK 924 INTRA-LIGAND FREE ENERGY PREDICTED BY IDOCK:    0.80 KCAL/MOL
REMARK 927      BINDING AFFINITY PREDICTED BY RF-SCORE:    0.00 PKD
ROOT
HETATM    1  C   UNL     1      -9.530  19.759  66.211  1.00  0.00    -0.406 C  
HETATM    2  N   UNL     1      -9.927  18.425  65.779  1.00  0.00    -0.500 NA 
HETATM    3  C   UNL     1      -9.312  17.287  66.507  1.00  0.00    -0.264 C  
HETATM    4  H   UNL     1     -10.591  18.280  65.017  1.00  0.00     0.000 HD 
HETATM    5  C   UNL     1      -9.951  15.981  65.900  1.00  0.00    -0.380 C  
HETATM    6  C   UNL     1      -9.620  17.396  68.016  1.00  0.00    -0.276 C  
HETATM    7  C   UNL     1      -7.783  17.272  66.298  1.00  0.00    -0.353 C  
ENDROOT
BRANCH   5   8
HETATM    8  C   UNL     1      -9.390  14.672  66.423  1.00  0.00    -0.313 A  
HETATM    9  C   UNL     1      -8.200  14.648  67.162  1.00  0.00    -0.227 A  
HETATM   10  C   UNL     1      -7.569  13.440  67.460  1.00  0.00    -0.176 A  
HETATM   11  C   UNL     1      -8.160  12.236  67.088  1.00  0.00    -0.173 A  
HETATM   12  C   UNL     1      -9.398  12.243  66.446  1.00  0.00    -0.219 A  
HETATM   13  C   UNL     1     -10.010  13.453  66.112  1.00  0.00    -0.299 A  
ENDBRANCH   5   8
TORSDOF 1
ENDMDL
MODEL      123
REMARK 921   NORMALIZED FREE ENERGY PREDICTED BY IDOCK:   -2.60 KCAL/MOL
REMARK 922        TOTAL FREE ENERGY PREDICTED BY IDOCK:   -2.76 KCAL/MOL
REMARK 923 INTER-LIGAND FREE ENERGY PREDICTED BY IDOCK:   -3.51 KCAL/MOL
REMARK 924 INTRA-LIGAND FREE ENERGY PREDICTED BY IDOCK:    0.75 KCAL/MOL
REMARK 927      BINDING AFFINITY PREDICTED BY RF-SCORE:    0.00 PKD
ROOT
HETATM    1  C   UNL     1      -7.721   6.990  64.447  1.00  0.00    -0.113 C  
HETATM    2  N   UNL     1      -8.582   8.137  64.184  1.00  0.00    -0.389 NA 
HETATM    3  C   UNL     1      -8.974   8.949  65.363  1.00  0.00    -0.182 C  
HETATM    4  H   UNL     1      -8.898   8.368  63.242  1.00  0.00     0.000 HD 
HETATM    5  C   UNL     1      -9.833  10.145  64.805  1.00  0.00    -0.382 C  
HETATM    6  C   UNL     1      -7.715   9.472  66.088  1.00  0.00    -0.101 C  
HETATM    7  C   UNL     1      -9.817   8.109  66.345  1.00  0.00    -0.261 C  
ENDROOT
BRANCH   5   8
HETATM    8  C   UNL     1     -10.439  11.063  65.850  1.00  0.00    -0.300 A  
HETATM    9  C   UNL     1     -10.652  10.612  67.159  1.00  0.00    -0.312 A  
HETATM   10  C   UNL     1     -11.399  11.369  68.062  1.00  0.00    -0.372 A  
HETATM   11  C   UNL     1     -11.879  12.621  67.690  1.00  0.00    -0.390 A  
HETATM   12  C   UNL     1     -11.582  13.127  66.425  1.00  0.00    -0.394 A  
HETATM   13  C   UNL     1     -10.870  12.353  65.508  1.00  0.00    -0.316 A  
ENDBRANCH   5   8
TORSDOF 1
ENDMDL
MODEL      124
REMARK 921   NORMALIZED FREE ENERGY PREDICTED BY IDOCK:   -2.58 KCAL/MOL
REMARK 922        TOTAL FREE ENERGY PREDICTED BY IDOCK:   -2.74 KCAL/MOL
REMARK 923 INTER-LIGAND FREE ENERGY PREDICTED BY IDOCK:   -2.79 KCAL/MOL
REMARK 924 INTRA-LIGAND FREE ENERGY PREDICTED BY IDOCK:    0.04 KCAL/MOL
REMARK 927      BINDING AFFINITY PREDICTED BY RF-SCORE:    0.00 PKD
ROOT
HETATM    1  C   UNL     1     -12.910  12.211  64.232  1.00  0.00    -0.188 C  
HETATM    2  N   UNL     1     -12.217  12.452  65.492  1.00  0.00    -0.604 NA 
HETATM    3  C   UNL     1     -10.734  12.422  65.444  1.00  0.00    -0.282 C  
HETATM    4  H   UNL     1     -12.723  12.631  66.360  1.00  0.00     0.000 HD 
HETATM    5  C   UNL     1     -10.240  12.773  66.897  1.00  0.00    -0.241 C  
HETATM    6  C   UNL     1     -10.217  13.460  64.424  1.00  0.00    -0.262 C  
HETATM    7  C   UNL     1     -10.232  11.019  65.042  1.00  0.00    -0.360 C  
ENDROOT
BRANCH   5   8
HETATM    8  C   UNL     1      -8.741  12.699  67.118  1.00  0.00    -0.201 A  
HETATM    9  C   UNL     1      -8.107  11.465  67.314  1.00  0.00    -0.148 A  
HETATM   10  C   UNL     1      -6.777  11.403  67.727  1.00  0.00    -0.070 A  
HETATM   11  C   UNL     1      -6.040  12.574  67.877  1.00  0.00    -0.101 A  
HETATM   12  C   UNL     1      -6.628  13.804  67.580  1.00  0.00    -0.181 A  
HETATM   13  C   UNL     1      -7.971  13.868  67.206  1.00  0.00    -0.147 A  
ENDBRANCH   5   8
TORSDOF 1
ENDMDL
MODEL      125
REMARK 921   NORMALIZED FREE ENERGY PREDICTED BY IDOCK:   -2.54 KCAL/MOL
REMARK 922        TOTAL FREE ENERGY PREDICTED BY IDOCK:   -2.70 KCAL/MOL
REMARK 923 INTER-LIGAND FREE ENERGY PREDICTED BY IDOCK:   -2.66 KCAL/MOL
REMARK 924 INTRA-LIGAND FREE ENERGY PREDICTED BY IDOCK:   -0.04 KCAL/MOL
REMARK 927      BINDING AFFINITY PREDICTED BY RF-SCORE:    0.00 PKD
ROOT
HETATM    1  C   UNL     1      -8.419   5.688  66.494  1.00  0.00    -0.114 C  
HETATM    2  N   UNL     1      -8.337   6.925  67.260  1.00  0.00    -0.121 NA 
HETATM    3  C   UNL     1      -9.343   7.968  66.937  1.00  0.00    -0.164 C  
HETATM    4  H   UNL     1      -7.627   7.067  67.979  1.00  0.00     0.000 HD 
HETATM    5  C   UNL     1      -9.080   9.156  67.938  1.00  0.00    -0.134 C  
HETATM    6  C   UNL     1     -10.768   7.403  67.122  1.00  0.00    -0.400 C  
HETATM    7  C   UNL     1      -9.171   8.455  65.484  1.00  0.00    -0.057 C  
ENDROOT
BRANCH   5   8
HETATM    8  C   UNL     1      -9.931  10.394  67.725  1.00  0.00    -0.203 A  
HETATM    9  C   UNL     1      -9.435  11.486  67.000  1.00  0.00    -0.193 A  
HETATM   10  C   UNL     1     -10.120  12.700  66.981  1.00  0.00    -0.228 A  
HETATM   11  C   UNL     1     -11.348  12.816  67.625  1.00  0.00    -0.359 A  
HETATM   12  C   UNL     1     -11.903  11.705  68.260  1.00  0.00    -0.335 A  
HETATM   13  C   UNL     1     -11.199  10.501  68.313  1.00  0.00    -0.354 A  
ENDBRANCH   5   8
TORSDOF 1
ENDMDL
MODEL      126
REMARK 921   NORMALIZED FREE ENERGY PREDICTED BY IDOCK:   -2.50 KCAL/MOL
REMARK 922        TOTAL FREE ENERGY PREDICTED BY IDOCK:   -2.66 KCAL/MOL
REMARK 923 INTER-LIGAND FREE ENERGY PREDICTED BY IDOCK:   -2.65 KCAL/MOL
REMARK 924 INTRA-LIGAND FREE ENERGY PREDICTED BY IDOCK:   -0.01 KCAL/MOL
REMARK 927      BINDING AFFINITY PREDICTED BY RF-SCORE:    0.00 PKD
ROOT
HETATM    1  C   UNL     1      -7.591   5.312  68.103  1.00  0.00    -0.080 C  
HETATM    2  N   UNL     1      -7.650   6.637  68.709  1.00  0.00    -0.102 NA 
HETATM    3  C   UNL     1      -8.983   7.288  68.740  1.00  0.00    -0.129 C  
HETATM    4  H   UNL     1      -6.820   7.092  69.090  1.00  0.00     0.000 HD 
HETATM    5  C   UNL     1      -8.785   8.656  69.495  1.00  0.00    -0.139 C  
HETATM    6  C   UNL     1      -9.992   6.391  69.490  1.00  0.00    -0.190 C  
HETATM    7  C   UNL     1      -9.495   7.546  67.308  1.00  0.00    -0.186 C  
ENDROOT
BRANCH   5   8
HETATM    8  C   UNL     1     -10.006   9.555  69.557  1.00  0.00    -0.205 A  
HETATM    9  C   UNL     1     -10.069  10.730  68.798  1.00  0.00    -0.202 A  
HETATM   10  C   UNL     1     -11.084  11.663  69.008  1.00  0.00    -0.297 A  
HETATM   11  C   UNL     1     -12.093  11.397  69.930  1.00  0.00    -0.404 A  
HETATM   12  C   UNL     1     -12.101  10.182  70.614  1.00  0.00    -0.411 A  
HETATM   13  C   UNL     1     -11.063   9.267  70.433  1.00  0.00    -0.300 A  
ENDBRANCH   5   8
TORSDOF 1
ENDMDL
MODEL      127
REMARK 921   NORMALIZED FREE ENERGY PREDICTED BY IDOCK:   -2.49 KCAL/MOL
REMARK 922        TOTAL FREE ENERGY PREDICTED BY IDOCK:   -2.65 KCAL/MOL
REMARK 923 INTER-LIGAND FREE ENERGY PREDICTED BY IDOCK:   -2.72 KCAL/MOL
REMARK 924 INTRA-LIGAND FREE ENERGY PREDICTED BY IDOCK:    0.07 KCAL/MOL
REMARK 927      BINDING AFFINITY PREDICTED BY RF-SCORE:    0.00 PKD
ROOT
HETATM    1  C   UNL     1     -10.553  10.535  68.953  1.00  0.00    -0.216 C  
HETATM    2  N   UNL     1      -9.622   9.806  69.804  1.00  0.00    -0.218 NA 
HETATM    3  C   UNL     1     -10.186   8.671  70.577  1.00  0.00    -0.197 C  
HETATM    4  H   UNL     1      -8.636  10.062  69.866  1.00  0.00     0.000 HD 
HETATM    5  C   UNL     1      -8.976   8.022  71.348  1.00  0.00    -0.173 C  
HETATM    6  C   UNL     1     -10.834   7.649  69.617  1.00  0.00    -0.195 C  
HETATM    7  C   UNL     1     -11.244   9.171  71.581  1.00  0.00    -0.447 C  
ENDROOT
BRANCH   5   8
HETATM    8  C   UNL     1      -9.332   6.894  72.298  1.00  0.00    -0.148 A  
HETATM    9  C   UNL     1      -9.913   7.164  73.544  1.00  0.00    -0.344 A  
HETATM   10  C   UNL     1     -10.046   6.161  74.503  1.00  0.00    -0.345 A  
HETATM   11  C   UNL     1      -9.668   4.855  74.201  1.00  0.00    -0.156 A  
HETATM   12  C   UNL     1      -9.188   4.552  72.927  1.00  0.00    -0.138 A  
HETATM   13  C   UNL     1      -9.017   5.564  71.981  1.00  0.00    -0.140 A  
ENDBRANCH   5   8
TORSDOF 1
ENDMDL
MODEL      128
REMARK 921   NORMALIZED FREE ENERGY PREDICTED BY IDOCK:   -2.48 KCAL/MOL
REMARK 922        TOTAL FREE ENERGY PREDICTED BY IDOCK:   -2.64 KCAL/MOL
REMARK 923 INTER-LIGAND FREE ENERGY PREDICTED BY IDOCK:   -2.64 KCAL/MOL
REMARK 924 INTRA-LIGAND FREE ENERGY PREDICTED BY IDOCK:    0.00 KCAL/MOL
REMARK 927      BINDING AFFINITY PREDICTED BY RF-SCORE:    0.00 PKD
ROOT
HETATM    1  C   UNL     1     -12.801  13.381  64.511  1.00  0.00    -0.009 C  
HETATM    2  N   UNL     1     -12.345  12.444  65.530  1.00  0.00    -0.624 NA 
HETATM    3  C   UNL     1     -10.888  12.162  65.560  1.00  0.00    -0.283 C  
HETATM    4  H   UNL     1     -12.991  12.005  66.186  1.00  0.00     0.000 HD 
HETATM    5  C   UNL     1     -10.655  11.189  66.776  1.00  0.00    -0.311 C  
HETATM    6  C   UNL     1     -10.099  13.476  65.752  1.00  0.00    -0.298 C  
HETATM    7  C   UNL     1     -10.439  11.484  64.249  1.00  0.00    -0.393 C  
ENDROOT
BRANCH   5   8
HETATM    8  C   UNL     1      -9.237  10.674  66.943  1.00  0.00    -0.172 A  
HETATM    9  C   UNL     1      -8.218  11.519  67.400  1.00  0.00    -0.149 A  
HETATM   10  C   UNL     1      -6.883  11.120  67.353  1.00  0.00    -0.089 A  
HETATM   11  C   UNL     1      -6.556   9.838  66.917  1.00  0.00    -0.067 A  
HETATM   12  C   UNL     1      -7.570   8.950  66.560  1.00  0.00    -0.092 A  
HETATM   13  C   UNL     1      -8.903   9.364  66.570  1.00  0.00    -0.155 A  
ENDBRANCH   5   8
TORSDOF 1
ENDMDL
MODEL      129
REMARK 921   NORMALIZED FREE ENERGY PREDICTED BY IDOCK:   -2.47 KCAL/MOL
REMARK 922        TOTAL FREE ENERGY PREDICTED BY IDOCK:   -2.62 KCAL/MOL
REMARK 923 INTER-LIGAND FREE ENERGY PREDICTED BY IDOCK:   -2.64 KCAL/MOL
REMARK 924 INTRA-LIGAND FREE ENERGY PREDICTED BY IDOCK:    0.02 KCAL/MOL
REMARK 927      BINDING AFFINITY PREDICTED BY RF-SCORE:    0.00 PKD
ROOT
HETATM    1  C   UNL     1     -11.126  10.587  68.013  1.00  0.00    -0.300 C  
HETATM    2  N   UNL     1     -11.257   9.486  68.960  1.00  0.00    -0.446 NA 
HETATM    3  C   UNL     1     -10.309   8.357  68.791  1.00  0.00    -0.206 C  
HETATM    4  H   UNL     1     -11.962   9.491  69.697  1.00  0.00     0.000 HD 
HETATM    5  C   UNL     1     -10.614   7.350  69.963  1.00  0.00    -0.241 C  
HETATM    6  C   UNL     1      -8.855   8.870  68.876  1.00  0.00    -0.137 C  
HETATM    7  C   UNL     1     -10.527   7.663  67.430  1.00  0.00    -0.367 C  
ENDROOT
BRANCH   5   8
HETATM    8  C   UNL     1      -9.829   6.052  69.935  1.00  0.00    -0.213 A  
HETATM    9  C   UNL     1      -8.634   5.923  70.653  1.00  0.00    -0.133 A  
HETATM   10  C   UNL     1      -7.802   4.820  70.465  1.00  0.00    -0.062 A  
HETATM   11  C   UNL     1      -8.192   3.793  69.610  1.00  0.00    -0.068 A  
HETATM   12  C   UNL     1      -9.429   3.859  68.970  1.00  0.00    -0.240 A  
HETATM   13  C   UNL     1     -10.243   4.982  69.128  1.00  0.00    -0.227 A  
ENDBRANCH   5   8
TORSDOF 1
ENDMDL
MODEL      130
REMARK 921   NORMALIZED FREE ENERGY PREDICTED BY IDOCK:   -2.45 KCAL/MOL
REMARK 922        TOTAL FREE ENERGY PREDICTED BY IDOCK:   -2.60 KCAL/MOL
REMARK 923 INTER-LIGAND FREE ENERGY PREDICTED BY IDOCK:   -2.59 KCAL/MOL
REMARK 924 INTRA-LIGAND FREE ENERGY PREDICTED BY IDOCK:   -0.01 KCAL/MOL
REMARK 927      BINDING AFFINITY PREDICTED BY RF-SCORE:    0.00 PKD
ROOT
HETATM    1  C   UNL     1     -10.793  11.910  68.846  1.00  0.00    -0.221 C  
HETATM    2  N   UNL     1      -9.769  10.947  69.232  1.00  0.00    -0.401 NA 
HETATM    3  C   UNL     1     -10.161   9.516  69.189  1.00  0.00    -0.201 C  
HETATM    4  H   UNL     1      -8.833  11.240  69.516  1.00  0.00     0.000 HD 
HETATM    5  C   UNL     1      -8.874   8.697  69.579  1.00  0.00    -0.144 C  
HETATM    6  C   UNL     1     -10.639   9.141  67.770  1.00  0.00    -0.289 C  
HETATM    7  C   UNL     1     -11.292   9.233  70.200  1.00  0.00    -0.193 C  
ENDROOT
BRANCH   5   8
HETATM    8  C   UNL     1      -9.064   7.197  69.706  1.00  0.00    -0.141 A  
HETATM    9  C   UNL     1      -9.180   6.392  68.565  1.00  0.00    -0.124 A  
HETATM   10  C   UNL     1      -9.565   5.056  68.671  1.00  0.00    -0.204 A  
HETATM   11  C   UNL     1      -9.767   4.487  69.925  1.00  0.00    -0.288 A  
HETATM   12  C   UNL     1      -9.551   5.249  71.072  1.00  0.00    -0.227 A  
HETATM   13  C   UNL     1      -9.204   6.597  70.966  1.00  0.00    -0.160 A  
ENDBRANCH   5   8
TORSDOF 1
ENDMDL
MODEL      131
REMARK 921   NORMALIZED FREE ENERGY PREDICTED BY IDOCK:   -2.42 KCAL/MOL
REMARK 922        TOTAL FREE ENERGY PREDICTED BY IDOCK:   -2.57 KCAL/MOL
REMARK 923 INTER-LIGAND FREE ENERGY PREDICTED BY IDOCK:   -2.65 KCAL/MOL
REMARK 924 INTRA-LIGAND FREE ENERGY PREDICTED BY IDOCK:    0.08 KCAL/MOL
REMARK 927      BINDING AFFINITY PREDICTED BY RF-SCORE:    0.00 PKD
ROOT
HETATM    1  C   UNL     1     -10.960   8.201  72.086  1.00  0.00    -0.306 C  
HETATM    2  N   UNL     1      -9.933   7.492  71.332  1.00  0.00    -0.185 NA 
HETATM    3  C   UNL     1     -10.333   6.193  70.736  1.00  0.00    -0.213 C  
HETATM    4  H   UNL     1      -8.991   7.868  71.221  1.00  0.00     0.000 HD 
HETATM    5  C   UNL     1      -9.081   5.676  69.932  1.00  0.00    -0.155 C  
HETATM    6  C   UNL     1     -11.542   6.392  69.797  1.00  0.00    -0.397 C  
HETATM    7  C   UNL     1     -10.705   5.181  71.839  1.00  0.00    -0.219 C  
ENDROOT
BRANCH   5   8
HETATM    8  C   UNL     1      -9.221   4.297  69.315  1.00  0.00    -0.210 A  
HETATM    9  C   UNL     1      -9.134   3.147  70.110  1.00  0.00    -0.192 A  
HETATM   10  C   UNL     1      -9.047   1.882  69.528  1.00  0.00    -0.161 A  
HETATM   11  C   UNL     1      -9.122   1.746  68.145  1.00  0.00    -0.199 A  
HETATM   12  C   UNL     1      -9.316   2.875  67.349  1.00  0.00    -0.201 A  
HETATM   13  C   UNL     1      -9.362   4.144  67.928  1.00  0.00    -0.210 A  
ENDBRANCH   5   8
TORSDOF 1
ENDMDL
MODEL      132
REMARK 921   NORMALIZED FREE ENERGY PREDICTED BY IDOCK:   -2.42 KCAL/MOL
REMARK 922        TOTAL FREE ENERGY PREDICTED BY IDOCK:   -2.57 KCAL/MOL
REMARK 923 INTER-LIGAND FREE ENERGY PREDICTED BY IDOCK:   -2.58 KCAL/MOL
REMARK 924 INTRA-LIGAND FREE ENERGY PREDICTED BY IDOCK:    0.01 KCAL/MOL
REMARK 927      BINDING AFFINITY PREDICTED BY RF-SCORE:    0.00 PKD
ROOT
HETATM    1  C   UNL     1     -11.074   7.799  72.904  1.00  0.00    -0.398 C  
HETATM    2  N   UNL     1     -10.212   6.826  72.244  1.00  0.00    -0.189 NA 
HETATM    3  C   UNL     1     -10.222   6.839  70.759  1.00  0.00    -0.195 C  
HETATM    4  H   UNL     1      -9.635   6.171  72.772  1.00  0.00     0.000 HD 
HETATM    5  C   UNL     1      -9.173   5.756  70.304  1.00  0.00    -0.174 C  
HETATM    6  C   UNL     1      -9.823   8.238  70.241  1.00  0.00    -0.186 C  
HETATM    7  C   UNL     1     -11.621   6.475  70.222  1.00  0.00    -0.473 C  
ENDROOT
BRANCH   5   8
HETATM    8  C   UNL     1      -9.084   5.515  68.809  1.00  0.00    -0.131 A  
HETATM    9  C   UNL     1      -8.546   6.489  67.958  1.00  0.00    -0.118 A  
HETATM   10  C   UNL     1      -8.655   6.367  66.573  1.00  0.00    -0.125 A  
HETATM   11  C   UNL     1      -9.239   5.232  66.019  1.00  0.00    -0.163 A  
HETATM   12  C   UNL     1      -9.683   4.206  66.853  1.00  0.00    -0.232 A  
HETATM   13  C   UNL     1      -9.609   4.346  68.240  1.00  0.00    -0.199 A  
ENDBRANCH   5   8
TORSDOF 1
ENDMDL
MODEL      133
REMARK 921   NORMALIZED FREE ENERGY PREDICTED BY IDOCK:   -2.40 KCAL/MOL
REMARK 922        TOTAL FREE ENERGY PREDICTED BY IDOCK:   -2.56 KCAL/MOL
REMARK 923 INTER-LIGAND FREE ENERGY PREDICTED BY IDOCK:   -2.69 KCAL/MOL
REMARK 924 INTRA-LIGAND FREE ENERGY PREDICTED BY IDOCK:    0.13 KCAL/MOL
REMARK 927      BINDING AFFINITY PREDICTED BY RF-SCORE:    0.00 PKD
ROOT
HETATM    1  C   UNL     1     -12.193  13.427  67.106  1.00  0.00    -0.256 C  
HETATM    2  N   UNL     1     -11.650  14.412  68.033  1.00  0.00    -0.310 NA 
HETATM    3  C   UNL     1     -10.204  14.719  67.894  1.00  0.00    -0.229 C  
HETATM    4  H   UNL     1     -12.231  14.866  68.738  1.00  0.00     0.000 HD 
HETATM    5  C   UNL     1      -9.892  15.845  68.950  1.00  0.00    -0.226 C  
HETATM    6  C   UNL     1      -9.904  15.214  66.463  1.00  0.00    -0.278 C  
HETATM    7  C   UNL     1      -9.353  13.468  68.191  1.00  0.00    -0.213 C  
ENDROOT
BRANCH   5   8
HETATM    8  C   UNL     1      -8.435  16.251  69.066  1.00  0.00    -0.244 A  
HETATM    9  C   UNL     1      -7.996  17.489  68.578  1.00  0.00    -0.271 A  
HETATM   10  C   UNL     1      -6.635  17.779  68.487  1.00  0.00    -0.213 A  
HETATM   11  C   UNL     1      -5.696  16.864  68.952  1.00  0.00    -0.144 A  
HETATM   12  C   UNL     1      -6.124  15.673  69.539  1.00  0.00    -0.139 A  
HETATM   13  C   UNL     1      -7.484  15.365  69.594  1.00  0.00    -0.170 A  
ENDBRANCH   5   8
TORSDOF 1
ENDMDL
MODEL      134
REMARK 921   NORMALIZED FREE ENERGY PREDICTED BY IDOCK:   -2.38 KCAL/MOL
REMARK 922        TOTAL FREE ENERGY PREDICTED BY IDOCK:   -2.53 KCAL/MOL
REMARK 923 INTER-LIGAND FREE ENERGY PREDICTED BY IDOCK:   -2.54 KCAL/MOL
REMARK 924 INTRA-LIGAND FREE ENERGY PREDICTED BY IDOCK:    0.01 KCAL/MOL
REMARK 927      BINDING AFFINITY PREDICTED BY RF-SCORE:    0.00 PKD
ROOT
HETATM    1  C   UNL     1      -9.700   9.105  70.995  1.00  0.00    -0.289 C  
HETATM    2  N   UNL     1      -9.003   7.962  71.570  1.00  0.00    -0.132 NA 
HETATM    3  C   UNL     1      -9.802   6.723  71.743  1.00  0.00    -0.163 C  
HETATM    4  H   UNL     1      -8.020   8.010  71.840  1.00  0.00     0.000 HD 
HETATM    5  C   UNL     1      -8.811   5.637  72.310  1.00  0.00    -0.132 C  
HETATM    6  C   UNL     1     -10.384   6.275  70.384  1.00  0.00    -0.260 C  
HETATM    7  C   UNL     1     -10.956   6.955  72.741  1.00  0.00    -0.315 C  
ENDROOT
BRANCH   5   8
HETATM    8  C   UNL     1      -9.436   4.302  72.669  1.00  0.00    -0.165 A  
HETATM    9  C   UNL     1      -9.485   3.261  71.733  1.00  0.00    -0.215 A  
HETATM   10  C   UNL     1     -10.240   2.114  71.978  1.00  0.00    -0.168 A  
HETATM   11  C   UNL     1     -10.896   1.961  73.196  1.00  0.00    -0.253 A  
HETATM   12  C   UNL     1     -10.767   2.943  74.178  1.00  0.00    -0.248 A  
HETATM   13  C   UNL     1     -10.044   4.108  73.917  1.00  0.00    -0.197 A  
ENDBRANCH   5   8
TORSDOF 1
ENDMDL
MODEL      135
REMARK 921   NORMALIZED FREE ENERGY PREDICTED BY IDOCK:   -2.36 KCAL/MOL
REMARK 922        TOTAL FREE ENERGY PREDICTED BY IDOCK:   -2.51 KCAL/MOL
REMARK 923 INTER-LIGAND FREE ENERGY PREDICTED BY IDOCK:   -2.53 KCAL/MOL
REMARK 924 INTRA-LIGAND FREE ENERGY PREDICTED BY IDOCK:    0.02 KCAL/MOL
REMARK 927      BINDING AFFINITY PREDICTED BY RF-SCORE:    0.00 PKD
ROOT
HETATM    1  C   UNL     1      -5.505   7.378  73.880  1.00  0.00    -0.049 C  
HETATM    2  N   UNL     1      -6.552   6.403  73.607  1.00  0.00    -0.069 NA 
HETATM    3  C   UNL     1      -7.740   6.901  72.870  1.00  0.00    -0.092 C  
HETATM    4  H   UNL     1      -6.474   5.430  73.906  1.00  0.00     0.000 HD 
HETATM    5  C   UNL     1      -8.674   5.653  72.648  1.00  0.00    -0.123 C  
HETATM    6  C   UNL     1      -7.307   7.507  71.517  1.00  0.00    -0.075 C  
HETATM    7  C   UNL     1      -8.481   7.973  73.696  1.00  0.00    -0.317 C  
ENDROOT
BRANCH   5   8
HETATM    8  C   UNL     1     -10.015   5.943  71.999  1.00  0.00    -0.204 A  
HETATM    9  C   UNL     1     -10.177   5.830  70.612  1.00  0.00    -0.280 A  
HETATM   10  C   UNL     1     -11.333   6.297  69.988  1.00  0.00    -0.486 A  
HETATM   11  C   UNL     1     -12.376   6.814  70.752  1.00  0.00    -0.289 A  
HETATM   12  C   UNL     1     -12.270   6.833  72.142  1.00  0.00    -0.260 A  
HETATM   13  C   UNL     1     -11.096   6.403  72.764  1.00  0.00    -0.281 A  
ENDBRANCH   5   8
TORSDOF 1
ENDMDL
MODEL      136
REMARK 921   NORMALIZED FREE ENERGY PREDICTED BY IDOCK:   -2.34 KCAL/MOL
REMARK 922        TOTAL FREE ENERGY PREDICTED BY IDOCK:   -2.49 KCAL/MOL
REMARK 923 INTER-LIGAND FREE ENERGY PREDICTED BY IDOCK:   -2.48 KCAL/MOL
REMARK 924 INTRA-LIGAND FREE ENERGY PREDICTED BY IDOCK:   -0.02 KCAL/MOL
REMARK 927      BINDING AFFINITY PREDICTED BY RF-SCORE:    0.00 PKD
ROOT
HETATM    1  C   UNL     1     -10.598   7.911  67.146  1.00  0.00    -0.313 C  
HETATM    2  N   UNL     1     -10.712   7.118  68.363  1.00  0.00    -0.348 NA 
HETATM    3  C   UNL     1      -9.844   7.524  69.497  1.00  0.00    -0.169 C  
HETATM    4  H   UNL     1     -11.352   6.326  68.433  1.00  0.00     0.000 HD 
HETATM    5  C   UNL     1     -10.206   6.564  70.692  1.00  0.00    -0.220 C  
HETATM    6  C   UNL     1     -10.123   8.995  69.875  1.00  0.00    -0.213 C  
HETATM    7  C   UNL     1      -8.356   7.365  69.126  1.00  0.00    -0.132 C  
ENDROOT
BRANCH   5   8
HETATM    8  C   UNL     1      -9.361   6.725  71.942  1.00  0.00    -0.146 A  
HETATM    9  C   UNL     1      -9.603   7.773  72.839  1.00  0.00    -0.302 A  
HETATM   10  C   UNL     1      -8.706   8.054  73.869  1.00  0.00    -0.308 A  
HETATM   11  C   UNL     1      -7.592   7.242  74.061  1.00  0.00    -0.129 A  
HETATM   12  C   UNL     1      -7.397   6.130  73.241  1.00  0.00    -0.088 A  
HETATM   13  C   UNL     1      -8.274   5.873  72.186  1.00  0.00    -0.108 A  
ENDBRANCH   5   8
TORSDOF 1
ENDMDL
MODEL      137
REMARK 921   NORMALIZED FREE ENERGY PREDICTED BY IDOCK:   -2.34 KCAL/MOL
REMARK 922        TOTAL FREE ENERGY PREDICTED BY IDOCK:   -2.48 KCAL/MOL
REMARK 923 INTER-LIGAND FREE ENERGY PREDICTED BY IDOCK:   -2.48 KCAL/MOL
REMARK 924 INTRA-LIGAND FREE ENERGY PREDICTED BY IDOCK:   -0.01 KCAL/MOL
REMARK 927      BINDING AFFINITY PREDICTED BY RF-SCORE:    0.00 PKD
ROOT
HETATM    1  C   UNL     1      -8.689   4.920  62.781  1.00  0.00    -0.120 C  
HETATM    2  N   UNL     1      -9.606   4.574  63.859  1.00  0.00    -0.345 NA 
HETATM    3  C   UNL     1      -9.090   4.740  65.241  1.00  0.00    -0.155 C  
HETATM    4  H   UNL     1     -10.551   4.236  63.676  1.00  0.00     0.000 HD 
HETATM    5  C   UNL     1     -10.282   4.370  66.202  1.00  0.00    -0.232 C  
HETATM    6  C   UNL     1      -8.641   6.201  65.465  1.00  0.00    -0.133 C  
HETATM    7  C   UNL     1      -7.897   3.795  65.492  1.00  0.00    -0.093 C  
ENDROOT
BRANCH   5   8
HETATM    8  C   UNL     1      -9.954   4.366  67.684  1.00  0.00    -0.111 A  
HETATM    9  C   UNL     1      -9.419   3.224  68.294  1.00  0.00    -0.214 A  
HETATM   10  C   UNL     1      -9.315   3.139  69.682  1.00  0.00    -0.222 A  
HETATM   11  C   UNL     1      -9.676   4.225  70.475  1.00  0.00    -0.282 A  
HETATM   12  C   UNL     1     -10.109   5.406  69.873  1.00  0.00    -0.322 A  
HETATM   13  C   UNL     1     -10.250   5.477  68.486  1.00  0.00    -0.250 A  
ENDBRANCH   5   8
TORSDOF 1
ENDMDL
MODEL      138
REMARK 921   NORMALIZED FREE ENERGY PREDICTED BY IDOCK:   -2.33 KCAL/MOL
REMARK 922        TOTAL FREE ENERGY PREDICTED BY IDOCK:   -2.48 KCAL/MOL
REMARK 923 INTER-LIGAND FREE ENERGY PREDICTED BY IDOCK:   -2.47 KCAL/MOL
REMARK 924 INTRA-LIGAND FREE ENERGY PREDICTED BY IDOCK:   -0.01 KCAL/MOL
REMARK 927      BINDING AFFINITY PREDICTED BY RF-SCORE:    0.00 PKD
ROOT
HETATM    1  C   UNL     1     -13.073  14.483  72.187  1.00  0.00    -0.356 C  
HETATM    2  N   UNL     1     -11.956  14.081  71.342  1.00  0.00    -0.404 NA 
HETATM    3  C   UNL     1     -11.583  15.019  70.253  1.00  0.00    -0.288 C  
HETATM    4  H   UNL     1     -11.457  13.203  71.489  1.00  0.00     0.000 HD 
HETATM    5  C   UNL     1     -10.324  14.391  69.545  1.00  0.00     0.027 C  
HETATM    6  C   UNL     1     -11.243  16.405  70.843  1.00  0.00    -0.167 C  
HETATM    7  C   UNL     1     -12.739  15.165  69.242  1.00  0.00     0.259 C  
ENDROOT
BRANCH   5   8
HETATM    8  C   UNL     1      -9.823  15.131  68.319  1.00  0.00    -0.223 A  
HETATM    9  C   UNL     1      -8.897  16.175  68.443  1.00  0.00    -0.188 A  
HETATM   10  C   UNL     1      -8.596  16.995  67.356  1.00  0.00    -0.208 A  
HETATM   11  C   UNL     1      -9.161  16.735  66.110  1.00  0.00    -0.288 A  
HETATM   12  C   UNL     1     -10.001  15.634  65.950  1.00  0.00    -0.379 A  
HETATM   13  C   UNL     1     -10.334  14.837  67.046  1.00  0.00    -0.255 A  
ENDBRANCH   5   8
TORSDOF 1
ENDMDL
MODEL      139
REMARK 921   NORMALIZED FREE ENERGY PREDICTED BY IDOCK:   -2.33 KCAL/MOL
REMARK 922        TOTAL FREE ENERGY PREDICTED BY IDOCK:   -2.47 KCAL/MOL
REMARK 923 INTER-LIGAND FREE ENERGY PREDICTED BY IDOCK:   -2.50 KCAL/MOL
REMARK 924 INTRA-LIGAND FREE ENERGY PREDICTED BY IDOCK:    0.02 KCAL/MOL
REMARK 927      BINDING AFFINITY PREDICTED BY RF-SCORE:    0.00 PKD
ROOT
HETATM    1  C   UNL     1      -6.460  14.853  69.906  1.00  0.00    -0.171 C  
HETATM    2  N   UNL     1      -5.809  15.484  68.764  1.00  0.00    -0.094 NA 
HETATM    3  C   UNL     1      -6.251  16.862  68.434  1.00  0.00    -0.140 C  
HETATM    4  H   UNL     1      -5.089  15.006  68.222  1.00  0.00     0.000 HD 
HETATM    5  C   UNL     1      -5.358  17.331  67.225  1.00  0.00    -0.158 C  
HETATM    6  C   UNL     1      -6.050  17.788  69.653  1.00  0.00    -0.240 C  
HETATM    7  C   UNL     1      -7.739  16.872  68.026  1.00  0.00    -0.179 C  
ENDROOT
BRANCH   5   8
HETATM    8  C   UNL     1      -5.705  18.688  66.640  1.00  0.00    -0.171 A  
HETATM    9  C   UNL     1      -6.208  18.797  65.337  1.00  0.00    -0.317 A  
HETATM   10  C   UNL     1      -6.327  20.042  64.719  1.00  0.00    -0.318 A  
HETATM   11  C   UNL     1      -6.013  21.201  65.424  1.00  0.00    -0.227 A  
HETATM   12  C   UNL     1      -5.613  21.112  66.757  1.00  0.00    -0.304 A  
HETATM   13  C   UNL     1      -5.457  19.864  67.362  1.00  0.00    -0.177 A  
ENDBRANCH   5   8
TORSDOF 1
ENDMDL
MODEL      140
REMARK 921   NORMALIZED FREE ENERGY PREDICTED BY IDOCK:   -2.32 KCAL/MOL
REMARK 922        TOTAL FREE ENERGY PREDICTED BY IDOCK:   -2.46 KCAL/MOL
REMARK 923 INTER-LIGAND FREE ENERGY PREDICTED BY IDOCK:   -3.05 KCAL/MOL
REMARK 924 INTRA-LIGAND FREE ENERGY PREDICTED BY IDOCK:    0.58 KCAL/MOL
REMARK 927      BINDING AFFINITY PREDICTED BY RF-SCORE:    0.00 PKD
ROOT
HETATM    1  C   UNL     1      -8.539  11.392  66.429  1.00  0.00    -0.174 C  
HETATM    2  N   UNL     1      -9.102  10.104  66.814  1.00  0.00    -0.139 NA 
HETATM    3  C   UNL     1      -9.629  10.003  68.198  1.00  0.00    -0.139 C  
HETATM    4  H   UNL     1      -9.132   9.314  66.168  1.00  0.00     0.000 HD 
HETATM    5  C   UNL     1     -10.232   8.554  68.333  1.00  0.00    -0.236 C  
HETATM    6  C   UNL     1     -10.720  11.072  68.427  1.00  0.00    -0.240 C  
HETATM    7  C   UNL     1      -8.496  10.200  69.226  1.00  0.00    -0.167 C  
ENDROOT
BRANCH   5   8
HETATM    8  C   UNL     1     -10.742   8.181  69.712  1.00  0.00    -0.229 A  
HETATM    9  C   UNL     1     -10.807   6.840  70.112  1.00  0.00    -0.311 A  
HETATM   10  C   UNL     1     -11.467   6.475  71.284  1.00  0.00    -0.371 A  
HETATM   11  C   UNL     1     -12.007   7.456  72.112  1.00  0.00    -0.307 A  
HETATM   12  C   UNL     1     -11.855   8.801  71.779  1.00  0.00    -0.414 A  
HETATM   13  C   UNL     1     -11.229   9.164  70.586  1.00  0.00    -0.322 A  
ENDBRANCH   5   8
TORSDOF 1
ENDMDL
MODEL      141
REMARK 921   NORMALIZED FREE ENERGY PREDICTED BY IDOCK:   -2.31 KCAL/MOL
REMARK 922        TOTAL FREE ENERGY PREDICTED BY IDOCK:   -2.45 KCAL/MOL
REMARK 923 INTER-LIGAND FREE ENERGY PREDICTED BY IDOCK:   -2.52 KCAL/MOL
REMARK 924 INTRA-LIGAND FREE ENERGY PREDICTED BY IDOCK:    0.07 KCAL/MOL
REMARK 927      BINDING AFFINITY PREDICTED BY RF-SCORE:    0.00 PKD
ROOT
HETATM    1  C   UNL     1     -11.969   6.873  70.792  1.00  0.00    -0.373 C  
HETATM    2  N   UNL     1     -11.092   7.399  69.752  1.00  0.00    -0.406 NA 
HETATM    3  C   UNL     1     -10.228   8.542  70.137  1.00  0.00    -0.195 C  
HETATM    4  H   UNL     1     -11.074   7.003  68.812  1.00  0.00     0.000 HD 
HETATM    5  C   UNL     1      -9.345   8.868  68.874  1.00  0.00    -0.140 C  
HETATM    6  C   UNL     1      -9.340   8.153  71.339  1.00  0.00    -0.200 C  
HETATM    7  C   UNL     1     -11.085   9.769  70.511  1.00  0.00    -0.384 C  
ENDROOT
BRANCH   5   8
HETATM    8  C   UNL     1      -8.446  10.084  68.997  1.00  0.00    -0.147 A  
HETATM    9  C   UNL     1      -8.596  11.175  68.132  1.00  0.00    -0.140 A  
HETATM   10  C   UNL     1      -7.646  12.196  68.097  1.00  0.00    -0.125 A  
HETATM   11  C   UNL     1      -6.572  12.176  68.982  1.00  0.00    -0.100 A  
HETATM   12  C   UNL     1      -6.469  11.150  69.922  1.00  0.00    -0.142 A  
HETATM   13  C   UNL     1      -7.398  10.108  69.929  1.00  0.00    -0.169 A  
ENDBRANCH   5   8
TORSDOF 1
ENDMDL
MODEL      142
REMARK 921   NORMALIZED FREE ENERGY PREDICTED BY IDOCK:   -2.31 KCAL/MOL
REMARK 922        TOTAL FREE ENERGY PREDICTED BY IDOCK:   -2.45 KCAL/MOL
REMARK 923 INTER-LIGAND FREE ENERGY PREDICTED BY IDOCK:   -2.48 KCAL/MOL
REMARK 924 INTRA-LIGAND FREE ENERGY PREDICTED BY IDOCK:    0.02 KCAL/MOL
REMARK 927      BINDING AFFINITY PREDICTED BY RF-SCORE:    0.00 PKD
ROOT
HETATM    1  C   UNL     1      -8.499  19.719  65.875  1.00  0.00    -0.167 C  
HETATM    2  N   UNL     1      -8.734  18.297  66.095  1.00  0.00    -0.492 NA 
HETATM    3  C   UNL     1      -7.840  17.626  67.072  1.00  0.00    -0.215 C  
HETATM    4  H   UNL     1      -9.472  17.791  65.605  1.00  0.00     0.000 HD 
HETATM    5  C   UNL     1      -8.342  16.136  67.174  1.00  0.00    -0.225 C  
HETATM    6  C   UNL     1      -7.934  18.329  68.444  1.00  0.00    -0.320 C  
HETATM    7  C   UNL     1      -6.378  17.657  66.581  1.00  0.00    -0.235 C  
ENDROOT
BRANCH   5   8
HETATM    8  C   UNL     1      -7.505  15.219  68.046  1.00  0.00    -0.129 A  
HETATM    9  C   UNL     1      -7.453  15.403  69.433  1.00  0.00    -0.218 A  
HETATM   10  C   UNL     1      -6.529  14.708  70.212  1.00  0.00    -0.149 A  
HETATM   11  C   UNL     1      -5.693  13.763  69.622  1.00  0.00    -0.100 A  
HETATM   12  C   UNL     1      -5.809  13.495  68.258  1.00  0.00    -0.100 A  
HETATM   13  C   UNL     1      -6.706  14.219  67.472  1.00  0.00    -0.128 A  
ENDBRANCH   5   8
TORSDOF 1
ENDMDL
MODEL      143
REMARK 921   NORMALIZED FREE ENERGY PREDICTED BY IDOCK:   -2.29 KCAL/MOL
REMARK 922        TOTAL FREE ENERGY PREDICTED BY IDOCK:   -2.43 KCAL/MOL
REMARK 923 INTER-LIGAND FREE ENERGY PREDICTED BY IDOCK:   -2.50 KCAL/MOL
REMARK 924 INTRA-LIGAND FREE ENERGY PREDICTED BY IDOCK:    0.07 KCAL/MOL
REMARK 927      BINDING AFFINITY PREDICTED BY RF-SCORE:    0.00 PKD
ROOT
HETATM    1  C   UNL     1     -10.235  12.686  64.923  1.00  0.00    -0.272 C  
HETATM    2  N   UNL     1      -9.831  12.730  66.322  1.00  0.00    -0.264 NA 
HETATM    3  C   UNL     1      -9.830  11.435  67.048  1.00  0.00    -0.191 C  
HETATM    4  H   UNL     1      -9.562  13.602  66.779  1.00  0.00     0.000 HD 
HETATM    5  C   UNL     1      -9.297  11.744  68.497  1.00  0.00    -0.158 C  
HETATM    6  C   UNL     1      -8.907  10.426  66.330  1.00  0.00    -0.166 C  
HETATM    7  C   UNL     1     -11.258  10.855  67.124  1.00  0.00    -0.258 C  
ENDROOT
BRANCH   5   8
HETATM    8  C   UNL     1      -9.309  10.575  69.465  1.00  0.00    -0.089 A  
HETATM    9  C   UNL     1      -8.133   9.868  69.745  1.00  0.00    -0.185 A  
HETATM   10  C   UNL     1      -8.173   8.671  70.459  1.00  0.00    -0.127 A  
HETATM   11  C   UNL     1      -9.381   8.204  70.968  1.00  0.00    -0.180 A  
HETATM   12  C   UNL     1     -10.543   8.955  70.787  1.00  0.00    -0.281 A  
HETATM   13  C   UNL     1     -10.509  10.132  70.038  1.00  0.00    -0.325 A  
ENDBRANCH   5   8
TORSDOF 1
ENDMDL
MODEL      144
REMARK 921   NORMALIZED FREE ENERGY PREDICTED BY IDOCK:   -2.19 KCAL/MOL
REMARK 922        TOTAL FREE ENERGY PREDICTED BY IDOCK:   -2.33 KCAL/MOL
REMARK 923 INTER-LIGAND FREE ENERGY PREDICTED BY IDOCK:   -2.30 KCAL/MOL
REMARK 924 INTRA-LIGAND FREE ENERGY PREDICTED BY IDOCK:   -0.03 KCAL/MOL
REMARK 927      BINDING AFFINITY PREDICTED BY RF-SCORE:    0.00 PKD
ROOT
HETATM    1  C   UNL     1      -9.154  10.662  65.779  1.00  0.00    -0.186 C  
HETATM    2  N   UNL     1      -9.515  10.351  67.157  1.00  0.00    -0.157 NA 
HETATM    3  C   UNL     1      -9.327   8.942  67.585  1.00  0.00    -0.136 C  
HETATM    4  H   UNL     1      -9.877  11.062  67.792  1.00  0.00     0.000 HD 
HETATM    5  C   UNL     1      -9.719   8.891  69.109  1.00  0.00    -0.168 C  
HETATM    6  C   UNL     1      -7.855   8.521  67.385  1.00  0.00    -0.098 C  
HETATM    7  C   UNL     1     -10.242   8.002  66.773  1.00  0.00    -0.367 C  
ENDROOT
BRANCH   5   8
HETATM    8  C   UNL     1      -9.706   7.513  69.745  1.00  0.00    -0.171 A  
HETATM    9  C   UNL     1     -10.862   6.723  69.764  1.00  0.00    -0.316 A  
HETATM   10  C   UNL     1     -10.918   5.557  70.527  1.00  0.00    -0.196 A  
HETATM   11  C   UNL     1      -9.792   5.125  71.221  1.00  0.00    -0.239 A  
HETATM   12  C   UNL     1      -8.602   5.847  71.124  1.00  0.00    -0.129 A  
HETATM   13  C   UNL     1      -8.558   7.035  70.393  1.00  0.00    -0.142 A  
ENDBRANCH   5   8
TORSDOF 1
ENDMDL
MODEL      145
REMARK 921   NORMALIZED FREE ENERGY PREDICTED BY IDOCK:   -2.19 KCAL/MOL
REMARK 922        TOTAL FREE ENERGY PREDICTED BY IDOCK:   -2.33 KCAL/MOL
REMARK 923 INTER-LIGAND FREE ENERGY PREDICTED BY IDOCK:   -2.29 KCAL/MOL
REMARK 924 INTRA-LIGAND FREE ENERGY PREDICTED BY IDOCK:   -0.04 KCAL/MOL
REMARK 927      BINDING AFFINITY PREDICTED BY RF-SCORE:    0.00 PKD
ROOT
HETATM    1  C   UNL     1     -10.220   6.962  73.935  1.00  0.00    -0.367 C  
HETATM    2  N   UNL     1      -9.323   6.856  72.790  1.00  0.00    -0.135 NA 
HETATM    3  C   UNL     1      -9.934   7.067  71.454  1.00  0.00    -0.184 C  
HETATM    4  H   UNL     1      -8.331   6.648  72.901  1.00  0.00     0.000 HD 
HETATM    5  C   UNL     1      -8.756   6.967  70.413  1.00  0.00    -0.147 C  
HETATM    6  C   UNL     1     -10.602   8.458  71.392  1.00  0.00    -0.296 C  
HETATM    7  C   UNL     1     -10.989   5.980  71.162  1.00  0.00    -0.341 C  
ENDROOT
BRANCH   5   8
HETATM    8  C   UNL     1      -9.162   7.047  68.953  1.00  0.00    -0.136 A  
HETATM    9  C   UNL     1      -9.277   5.886  68.179  1.00  0.00    -0.116 A  
HETATM   10  C   UNL     1      -9.439   5.963  66.795  1.00  0.00    -0.154 A  
HETATM   11  C   UNL     1      -9.561   7.204  66.178  1.00  0.00    -0.013 A  
HETATM   12  C   UNL     1      -9.555   8.365  66.951  1.00  0.00    -0.264 A  
HETATM   13  C   UNL     1      -9.354   8.289  68.330  1.00  0.00    -0.136 A  
ENDBRANCH   5   8
TORSDOF 1
ENDMDL
MODEL      146
REMARK 921   NORMALIZED FREE ENERGY PREDICTED BY IDOCK:   -2.18 KCAL/MOL
REMARK 922        TOTAL FREE ENERGY PREDICTED BY IDOCK:   -2.32 KCAL/MOL
REMARK 923 INTER-LIGAND FREE ENERGY PREDICTED BY IDOCK:   -2.34 KCAL/MOL
REMARK 924 INTRA-LIGAND FREE ENERGY PREDICTED BY IDOCK:    0.01 KCAL/MOL
REMARK 927      BINDING AFFINITY PREDICTED BY RF-SCORE:    0.00 PKD
ROOT
HETATM    1  C   UNL     1     -11.156   9.429  70.102  1.00  0.00    -0.242 C  
HETATM    2  N   UNL     1     -10.910   8.685  71.332  1.00  0.00    -0.249 NA 
HETATM    3  C   UNL     1     -10.275   7.352  71.178  1.00  0.00    -0.193 C  
HETATM    4  H   UNL     1     -11.161   9.059  72.247  1.00  0.00     0.000 HD 
HETATM    5  C   UNL     1     -10.061   6.798  72.637  1.00  0.00    -0.193 C  
HETATM    6  C   UNL     1      -8.924   7.492  70.444  1.00  0.00    -0.152 C  
HETATM    7  C   UNL     1     -11.193   6.401  70.383  1.00  0.00    -0.435 C  
ENDROOT
BRANCH   5   8
HETATM    8  C   UNL     1      -9.514   5.386  72.730  1.00  0.00    -0.158 A  
HETATM    9  C   UNL     1      -8.137   5.158  72.843  1.00  0.00    -0.105 A  
HETATM   10  C   UNL     1      -7.612   3.873  72.714  1.00  0.00    -0.073 A  
HETATM   11  C   UNL     1      -8.466   2.786  72.545  1.00  0.00    -0.072 A  
HETATM   12  C   UNL     1      -9.846   2.988  72.537  1.00  0.00    -0.219 A  
HETATM   13  C   UNL     1     -10.369   4.279  72.626  1.00  0.00    -0.243 A  
ENDBRANCH   5   8
TORSDOF 1
ENDMDL
MODEL      147
REMARK 921   NORMALIZED FREE ENERGY PREDICTED BY IDOCK:   -2.12 KCAL/MOL
REMARK 922        TOTAL FREE ENERGY PREDICTED BY IDOCK:   -2.26 KCAL/MOL
REMARK 923 INTER-LIGAND FREE ENERGY PREDICTED BY IDOCK:   -2.24 KCAL/MOL
REMARK 924 INTRA-LIGAND FREE ENERGY PREDICTED BY IDOCK:   -0.02 KCAL/MOL
REMARK 927      BINDING AFFINITY PREDICTED BY RF-SCORE:    0.00 PKD
ROOT
HETATM    1  C   UNL     1     -12.081   8.056  72.658  1.00  0.00    -0.227 C  
HETATM    2  N   UNL     1     -11.296   6.828  72.623  1.00  0.00    -0.373 NA 
HETATM    3  C   UNL     1     -10.401   6.653  71.451  1.00  0.00    -0.200 C  
HETATM    4  H   UNL     1     -11.358   6.128  73.362  1.00  0.00     0.000 HD 
HETATM    5  C   UNL     1      -9.629   5.301  71.688  1.00  0.00    -0.197 C  
HETATM    6  C   UNL     1      -9.414   7.837  71.358  1.00  0.00    -0.173 C  
HETATM    7  C   UNL     1     -11.223   6.569  70.149  1.00  0.00    -0.437 C  
ENDROOT
BRANCH   5   8
HETATM    8  C   UNL     1      -8.722   4.855  70.556  1.00  0.00    -0.131 A  
HETATM    9  C   UNL     1      -7.447   5.413  70.400  1.00  0.00    -0.075 A  
HETATM   10  C   UNL     1      -6.697   5.170  69.249  1.00  0.00    -0.052 A  
HETATM   11  C   UNL     1      -7.182   4.304  68.273  1.00  0.00    -0.060 A  
HETATM   12  C   UNL     1      -8.403   3.659  68.467  1.00  0.00    -0.093 A  
HETATM   13  C   UNL     1      -9.171   3.934  69.599  1.00  0.00    -0.221 A  
ENDBRANCH   5   8
TORSDOF 1
ENDMDL
MODEL      148
REMARK 921   NORMALIZED FREE ENERGY PREDICTED BY IDOCK:   -2.08 KCAL/MOL
REMARK 922        TOTAL FREE ENERGY PREDICTED BY IDOCK:   -2.22 KCAL/MOL
REMARK 923 INTER-LIGAND FREE ENERGY PREDICTED BY IDOCK:   -2.20 KCAL/MOL
REMARK 924 INTRA-LIGAND FREE ENERGY PREDICTED BY IDOCK:   -0.02 KCAL/MOL
REMARK 927      BINDING AFFINITY PREDICTED BY RF-SCORE:    0.00 PKD
ROOT
HETATM    1  C   UNL     1      -5.859   6.859  74.384  1.00  0.00    -0.070 C  
HETATM    2  N   UNL     1      -6.780   6.004  73.645  1.00  0.00    -0.078 NA 
HETATM    3  C   UNL     1      -7.511   6.641  72.521  1.00  0.00    -0.089 C  
HETATM    4  H   UNL     1      -6.915   5.022  73.887  1.00  0.00     0.000 HD 
HETATM    5  C   UNL     1      -8.374   5.503  71.858  1.00  0.00    -0.119 C  
HETATM    6  C   UNL     1      -6.509   7.230  71.505  1.00  0.00    -0.040 C  
HETATM    7  C   UNL     1      -8.431   7.765  73.040  1.00  0.00    -0.207 C  
ENDROOT
BRANCH   5   8
HETATM    8  C   UNL     1      -9.297   5.946  70.739  1.00  0.00    -0.180 A  
HETATM    9  C   UNL     1     -10.602   6.375  71.016  1.00  0.00    -0.282 A  
HETATM   10  C   UNL     1     -11.520   6.578  69.987  1.00  0.00    -0.476 A  
HETATM   11  C   UNL     1     -11.124   6.428  68.661  1.00  0.00    -0.393 A  
HETATM   12  C   UNL     1      -9.799   6.106  68.368  1.00  0.00    -0.142 A  
HETATM   13  C   UNL     1      -8.890   5.863  69.399  1.00  0.00    -0.122 A  
ENDBRANCH   5   8
TORSDOF 1
ENDMDL
MODEL      149
REMARK 921   NORMALIZED FREE ENERGY PREDICTED BY IDOCK:   -2.08 KCAL/MOL
REMARK 922        TOTAL FREE ENERGY PREDICTED BY IDOCK:   -2.21 KCAL/MOL
REMARK 923 INTER-LIGAND FREE ENERGY PREDICTED BY IDOCK:   -2.18 KCAL/MOL
REMARK 924 INTRA-LIGAND FREE ENERGY PREDICTED BY IDOCK:   -0.03 KCAL/MOL
REMARK 927      BINDING AFFINITY PREDICTED BY RF-SCORE:    0.00 PKD
ROOT
HETATM    1  C   UNL     1      -8.624   9.199  66.505  1.00  0.00    -0.127 C  
HETATM    2  N   UNL     1      -9.534   8.107  66.830  1.00  0.00    -0.183 NA 
HETATM    3  C   UNL     1      -8.976   7.010  67.658  1.00  0.00    -0.117 C  
HETATM    4  H   UNL     1     -10.501   8.098  66.505  1.00  0.00     0.000 HD 
HETATM    5  C   UNL     1     -10.164   6.009  67.917  1.00  0.00    -0.217 C  
HETATM    6  C   UNL     1      -8.437   7.575  68.991  1.00  0.00    -0.133 C  
HETATM    7  C   UNL     1      -7.835   6.291  66.910  1.00  0.00    -0.104 C  
ENDROOT
BRANCH   5   8
HETATM    8  C   UNL     1      -9.801   4.739  68.664  1.00  0.00    -0.208 A  
HETATM    9  C   UNL     1      -9.450   3.575  67.968  1.00  0.00    -0.217 A  
HETATM   10  C   UNL     1      -9.325   2.355  68.633  1.00  0.00    -0.244 A  
HETATM   11  C   UNL     1      -9.476   2.298  70.015  1.00  0.00    -0.131 A  
HETATM   12  C   UNL     1      -9.720   3.469  70.733  1.00  0.00    -0.207 A  
HETATM   13  C   UNL     1      -9.885   4.682  70.063  1.00  0.00    -0.294 A  
ENDBRANCH   5   8
TORSDOF 1
ENDMDL
MODEL      150
REMARK 921   NORMALIZED FREE ENERGY PREDICTED BY IDOCK:   -2.08 KCAL/MOL
REMARK 922        TOTAL FREE ENERGY PREDICTED BY IDOCK:   -2.21 KCAL/MOL
REMARK 923 INTER-LIGAND FREE ENERGY PREDICTED BY IDOCK:   -2.30 KCAL/MOL
REMARK 924 INTRA-LIGAND FREE ENERGY PREDICTED BY IDOCK:    0.09 KCAL/MOL
REMARK 927      BINDING AFFINITY PREDICTED BY RF-SCORE:    0.00 PKD
ROOT
HETATM    1  C   UNL     1      -8.565   7.523  72.560  1.00  0.00    -0.116 C  
HETATM    2  N   UNL     1      -9.573   6.978  71.659  1.00  0.00    -0.157 NA 
HETATM    3  C   UNL     1      -9.067   6.224  70.485  1.00  0.00    -0.154 C  
HETATM    4  H   UNL     1     -10.571   7.109  71.825  1.00  0.00     0.000 HD 
HETATM    5  C   UNL     1     -10.339   5.694  69.723  1.00  0.00    -0.352 C  
HETATM    6  C   UNL     1      -8.181   5.049  70.953  1.00  0.00    -0.108 C  
HETATM    7  C   UNL     1      -8.246   7.146  69.560  1.00  0.00    -0.132 C  
ENDROOT
BRANCH   5   8
HETATM    8  C   UNL     1     -10.069   4.974  68.415  1.00  0.00    -0.176 A  
HETATM    9  C   UNL     1      -9.282   3.816  68.386  1.00  0.00    -0.213 A  
HETATM   10  C   UNL     1      -8.854   3.273  67.174  1.00  0.00    -0.154 A  
HETATM   11  C   UNL     1      -9.270   3.839  65.973  1.00  0.00    -0.161 A  
HETATM   12  C   UNL     1     -10.141   4.929  65.988  1.00  0.00    -0.264 A  
HETATM   13  C   UNL     1     -10.537   5.496  67.200  1.00  0.00    -0.313 A  
ENDBRANCH   5   8
TORSDOF 1
ENDMDL
MODEL      151
REMARK 921   NORMALIZED FREE ENERGY PREDICTED BY IDOCK:   -2.05 KCAL/MOL
REMARK 922        TOTAL FREE ENERGY PREDICTED BY IDOCK:   -2.18 KCAL/MOL
REMARK 923 INTER-LIGAND FREE ENERGY PREDICTED BY IDOCK:   -2.15 KCAL/MOL
REMARK 924 INTRA-LIGAND FREE ENERGY PREDICTED BY IDOCK:   -0.03 KCAL/MOL
REMARK 927      BINDING AFFINITY PREDICTED BY RF-SCORE:    0.00 PKD
ROOT
HETATM    1  C   UNL     1      -6.374   7.139  66.710  1.00  0.00    -0.050 C  
HETATM    2  N   UNL     1      -6.702   6.627  68.034  1.00  0.00    -0.068 NA 
HETATM    3  C   UNL     1      -8.012   7.042  68.595  1.00  0.00    -0.120 C  
HETATM    4  H   UNL     1      -6.066   6.016  68.548  1.00  0.00     0.000 HD 
HETATM    5  C   UNL     1      -8.148   6.308  69.982  1.00  0.00    -0.120 C  
HETATM    6  C   UNL     1      -9.152   6.625  67.641  1.00  0.00    -0.112 C  
HETATM    7  C   UNL     1      -8.054   8.571  68.802  1.00  0.00    -0.120 C  
ENDROOT
BRANCH   5   8
HETATM    8  C   UNL     1      -9.377   6.667  70.796  1.00  0.00    -0.159 A  
HETATM    9  C   UNL     1      -9.281   7.538  71.888  1.00  0.00    -0.159 A  
HETATM   10  C   UNL     1     -10.353   7.705  72.766  1.00  0.00    -0.351 A  
HETATM   11  C   UNL     1     -11.560   7.058  72.520  1.00  0.00    -0.245 A  
HETATM   12  C   UNL     1     -11.702   6.271  71.377  1.00  0.00    -0.316 A  
HETATM   13  C   UNL     1     -10.617   6.073  70.521  1.00  0.00    -0.329 A  
ENDBRANCH   5   8
TORSDOF 1
ENDMDL
MODEL      152
REMARK 921   NORMALIZED FREE ENERGY PREDICTED BY IDOCK:   -2.00 KCAL/MOL
REMARK 922        TOTAL FREE ENERGY PREDICTED BY IDOCK:   -2.13 KCAL/MOL
REMARK 923 INTER-LIGAND FREE ENERGY PREDICTED BY IDOCK:   -2.11 KCAL/MOL
REMARK 924 INTRA-LIGAND FREE ENERGY PREDICTED BY IDOCK:   -0.02 KCAL/MOL
REMARK 927      BINDING AFFINITY PREDICTED BY RF-SCORE:    0.00 PKD
ROOT
HETATM    1  C   UNL     1      -9.254   8.716  68.823  1.00  0.00    -0.142 C  
HETATM    2  N   UNL     1      -8.729   7.506  68.203  1.00  0.00    -0.123 NA 
HETATM    3  C   UNL     1      -9.301   7.141  66.883  1.00  0.00    -0.155 C  
HETATM    4  H   UNL     1      -8.008   6.940  68.652  1.00  0.00     0.000 HD 
HETATM    5  C   UNL     1      -8.526   5.854  66.409  1.00  0.00    -0.120 C  
HETATM    6  C   UNL     1      -9.099   8.299  65.881  1.00  0.00    -0.203 C  
HETATM    7  C   UNL     1     -10.807   6.833  67.010  1.00  0.00    -0.453 C  
ENDROOT
BRANCH   5   8
HETATM    8  C   UNL     1      -9.017   5.230  65.116  1.00  0.00    -0.106 A  
HETATM    9  C   UNL     1     -10.040   4.274  65.127  1.00  0.00    -0.221 A  
HETATM   10  C   UNL     1     -10.348   3.544  63.980  1.00  0.00    -0.242 A  
HETATM   11  C   UNL     1      -9.687   3.815  62.785  1.00  0.00    -0.133 A  
HETATM   12  C   UNL     1      -8.742   4.839  62.735  1.00  0.00    -0.127 A  
HETATM   13  C   UNL     1      -8.405   5.542  63.893  1.00  0.00    -0.086 A  
ENDBRANCH   5   8
TORSDOF 1
ENDMDL
MODEL      153
REMARK 921   NORMALIZED FREE ENERGY PREDICTED BY IDOCK:   -1.96 KCAL/MOL
REMARK 922        TOTAL FREE ENERGY PREDICTED BY IDOCK:   -2.08 KCAL/MOL
REMARK 923 INTER-LIGAND FREE ENERGY PREDICTED BY IDOCK:   -2.11 KCAL/MOL
REMARK 924 INTRA-LIGAND FREE ENERGY PREDICTED BY IDOCK:    0.03 KCAL/MOL
REMARK 927      BINDING AFFINITY PREDICTED BY RF-SCORE:    0.00 PKD
ROOT
HETATM    1  C   UNL     1      -7.612  12.628  67.285  1.00  0.00    -0.120 C  
HETATM    2  N   UNL     1      -7.704  11.302  66.685  1.00  0.00    -0.156 NA 
HETATM    3  C   UNL     1      -8.437  10.275  67.466  1.00  0.00    -0.118 C  
HETATM    4  H   UNL     1      -7.286  11.092  65.778  1.00  0.00     0.000 HD 
HETATM    5  C   UNL     1      -8.448   8.974  66.578  1.00  0.00    -0.124 C  
HETATM    6  C   UNL     1      -9.877  10.755  67.751  1.00  0.00    -0.186 C  
HETATM    7  C   UNL     1      -7.719   9.995  68.802  1.00  0.00    -0.085 C  
ENDROOT
BRANCH   5   8
HETATM    8  C   UNL     1      -9.059   7.744  67.223  1.00  0.00    -0.147 A  
HETATM    9  C   UNL     1      -8.271   6.624  67.515  1.00  0.00    -0.122 A  
HETATM   10  C   UNL     1      -8.857   5.421  67.907  1.00  0.00    -0.105 A  
HETATM   11  C   UNL     1     -10.236   5.344  68.083  1.00  0.00    -0.226 A  
HETATM   12  C   UNL     1     -11.021   6.482  67.899  1.00  0.00    -0.382 A  
HETATM   13  C   UNL     1     -10.438   7.675  67.469  1.00  0.00    -0.336 A  
ENDBRANCH   5   8
TORSDOF 1
ENDMDL
MODEL      154
REMARK 921   NORMALIZED FREE ENERGY PREDICTED BY IDOCK:   -1.91 KCAL/MOL
REMARK 922        TOTAL FREE ENERGY PREDICTED BY IDOCK:   -2.04 KCAL/MOL
REMARK 923 INTER-LIGAND FREE ENERGY PREDICTED BY IDOCK:   -2.00 KCAL/MOL
REMARK 924 INTRA-LIGAND FREE ENERGY PREDICTED BY IDOCK:   -0.04 KCAL/MOL
REMARK 927      BINDING AFFINITY PREDICTED BY RF-SCORE:    0.00 PKD
ROOT
HETATM    1  C   UNL     1      -9.184   5.681  65.229  1.00  0.00     0.108 C  
HETATM    2  N   UNL     1      -9.385   4.870  66.423  1.00  0.00    -0.136 NA 
HETATM    3  C   UNL     1      -9.395   5.596  67.718  1.00  0.00    -0.110 C  
HETATM    4  H   UNL     1      -9.512   3.859  66.373  1.00  0.00     0.000 HD 
HETATM    5  C   UNL     1      -9.694   4.515  68.824  1.00  0.00    -0.213 C  
HETATM    6  C   UNL     1     -10.492   6.683  67.706  1.00  0.00    -0.275 C  
HETATM    7  C   UNL     1      -8.026   6.256  67.981  1.00  0.00    -0.108 C  
ENDROOT
BRANCH   5   8
HETATM    8  C   UNL     1      -9.648   5.013  70.257  1.00  0.00    -0.255 A  
HETATM    9  C   UNL     1      -8.502   4.831  71.041  1.00  0.00    -0.118 A  
HETATM   10  C   UNL     1      -8.525   5.089  72.411  1.00  0.00    -0.121 A  
HETATM   11  C   UNL     1      -9.675   5.605  73.002  1.00  0.00    -0.166 A  
HETATM   12  C   UNL     1     -10.788   5.891  72.213  1.00  0.00    -0.292 A  
HETATM   13  C   UNL     1     -10.778   5.594  70.849  1.00  0.00    -0.313 A  
ENDBRANCH   5   8
TORSDOF 1
ENDMDL
MODEL      155
REMARK 921   NORMALIZED FREE ENERGY PREDICTED BY IDOCK:   -1.91 KCAL/MOL
REMARK 922        TOTAL FREE ENERGY PREDICTED BY IDOCK:   -2.04 KCAL/MOL
REMARK 923 INTER-LIGAND FREE ENERGY PREDICTED BY IDOCK:   -2.02 KCAL/MOL
REMARK 924 INTRA-LIGAND FREE ENERGY PREDICTED BY IDOCK:   -0.02 KCAL/MOL
REMARK 927      BINDING AFFINITY PREDICTED BY RF-SCORE:    0.00 PKD
ROOT
HETATM    1  C   UNL     1     -10.522   7.479  71.204  1.00  0.00    -0.205 C  
HETATM    2  N   UNL     1      -9.456   7.099  70.286  1.00  0.00    -0.162 NA 
HETATM    3  C   UNL     1      -9.736   5.946  69.393  1.00  0.00    -0.152 C  
HETATM    4  H   UNL     1      -8.566   7.597  70.258  1.00  0.00     0.000 HD 
HETATM    5  C   UNL     1      -8.470   5.789  68.470  1.00  0.00    -0.110 C  
HETATM    6  C   UNL     1     -10.997   6.227  68.548  1.00  0.00    -0.421 C  
HETATM    7  C   UNL     1      -9.950   4.660  70.218  1.00  0.00    -0.309 C  
ENDROOT
BRANCH   5   8
HETATM    8  C   UNL     1      -8.483   4.594  67.534  1.00  0.00    -0.104 A  
HETATM    9  C   UNL     1      -9.218   4.628  66.342  1.00  0.00    -0.133 A  
HETATM   10  C   UNL     1      -9.409   3.471  65.588  1.00  0.00    -0.158 A  
HETATM   11  C   UNL     1      -8.804   2.279  65.977  1.00  0.00    -0.124 A  
HETATM   12  C   UNL     1      -7.982   2.258  67.104  1.00  0.00    -0.070 A  
HETATM   13  C   UNL     1      -7.824   3.406  67.881  1.00  0.00    -0.072 A  
ENDBRANCH   5   8
TORSDOF 1
ENDMDL
MODEL      156
REMARK 921   NORMALIZED FREE ENERGY PREDICTED BY IDOCK:   -1.85 KCAL/MOL
REMARK 922        TOTAL FREE ENERGY PREDICTED BY IDOCK:   -1.97 KCAL/MOL
REMARK 923 INTER-LIGAND FREE ENERGY PREDICTED BY IDOCK:   -1.93 KCAL/MOL
REMARK 924 INTRA-LIGAND FREE ENERGY PREDICTED BY IDOCK:   -0.04 KCAL/MOL
REMARK 927      BINDING AFFINITY PREDICTED BY RF-SCORE:    0.00 PKD
ROOT
HETATM    1  C   UNL     1      -7.118   1.973  73.082  1.00  0.00    -0.028 C  
HETATM    2  N   UNL     1      -7.898   2.533  71.985  1.00  0.00    -0.052 NA 
HETATM    3  C   UNL     1      -8.246   3.972  72.093  1.00  0.00    -0.089 C  
HETATM    4  H   UNL     1      -8.189   1.967  71.188  1.00  0.00     0.000 HD 
HETATM    5  C   UNL     1      -9.018   4.336  70.769  1.00  0.00    -0.154 C  
HETATM    6  C   UNL     1      -6.962   4.818  72.227  1.00  0.00    -0.062 C  
HETATM    7  C   UNL     1      -9.152   4.221  73.316  1.00  0.00    -0.113 C  
ENDROOT
BRANCH   5   8
HETATM    8  C   UNL     1      -9.572   5.747  70.699  1.00  0.00    -0.214 A  
HETATM    9  C   UNL     1     -10.914   6.004  71.005  1.00  0.00    -0.350 A  
HETATM   10  C   UNL     1     -11.482   7.250  70.739  1.00  0.00    -0.328 A  
HETATM   11  C   UNL     1     -10.693   8.279  70.232  1.00  0.00    -0.237 A  
HETATM   12  C   UNL     1      -9.331   8.067  70.023  1.00  0.00    -0.156 A  
HETATM   13  C   UNL     1      -8.772   6.809  70.252  1.00  0.00    -0.144 A  
ENDBRANCH   5   8
TORSDOF 1
ENDMDL
MODEL      157
REMARK 921   NORMALIZED FREE ENERGY PREDICTED BY IDOCK:   -1.81 KCAL/MOL
REMARK 922        TOTAL FREE ENERGY PREDICTED BY IDOCK:   -1.92 KCAL/MOL
REMARK 923 INTER-LIGAND FREE ENERGY PREDICTED BY IDOCK:   -1.89 KCAL/MOL
REMARK 924 INTRA-LIGAND FREE ENERGY PREDICTED BY IDOCK:   -0.03 KCAL/MOL
REMARK 927      BINDING AFFINITY PREDICTED BY RF-SCORE:    0.00 PKD
ROOT
HETATM    1  C   UNL     1      -9.375   6.795  71.871  1.00  0.00    -0.145 C  
HETATM    2  N   UNL     1      -8.834   5.833  70.918  1.00  0.00    -0.139 NA 
HETATM    3  C   UNL     1      -9.202   6.039  69.495  1.00  0.00    -0.136 C  
HETATM    4  H   UNL     1      -8.236   5.061  71.213  1.00  0.00     0.000 HD 
HETATM    5  C   UNL     1      -8.445   4.923  68.681  1.00  0.00    -0.089 C  
HETATM    6  C   UNL     1      -8.762   7.446  69.033  1.00  0.00    -0.133 C  
HETATM    7  C   UNL     1     -10.725   5.891  69.301  1.00  0.00    -0.401 C  
ENDROOT
BRANCH   5   8
HETATM    8  C   UNL     1      -8.755   4.869  67.196  1.00  0.00    -0.103 A  
HETATM    9  C   UNL     1      -9.611   3.888  66.680  1.00  0.00    -0.215 A  
HETATM   10  C   UNL     1      -9.732   3.699  65.304  1.00  0.00    -0.144 A  
HETATM   11  C   UNL     1      -9.055   4.538  64.424  1.00  0.00    -0.143 A  
HETATM   12  C   UNL     1      -8.283   5.586  64.925  1.00  0.00    -0.136 A  
HETATM   13  C   UNL     1      -8.130   5.751  66.302  1.00  0.00    -0.107 A  
ENDBRANCH   5   8
TORSDOF 1
ENDMDL
MODEL      158
REMARK 921   NORMALIZED FREE ENERGY PREDICTED BY IDOCK:   -1.77 KCAL/MOL
REMARK 922        TOTAL FREE ENERGY PREDICTED BY IDOCK:   -1.88 KCAL/MOL
REMARK 923 INTER-LIGAND FREE ENERGY PREDICTED BY IDOCK:   -1.87 KCAL/MOL
REMARK 924 INTRA-LIGAND FREE ENERGY PREDICTED BY IDOCK:   -0.01 KCAL/MOL
REMARK 927      BINDING AFFINITY PREDICTED BY RF-SCORE:    0.00 PKD
ROOT
HETATM    1  C   UNL     1      -8.891   5.250  66.308  1.00  0.00    -0.130 C  
HETATM    2  N   UNL     1      -8.506   6.134  67.401  1.00  0.00    -0.108 NA 
HETATM    3  C   UNL     1      -8.802   7.577  67.215  1.00  0.00    -0.124 C  
HETATM    4  H   UNL     1      -8.057   5.781  68.246  1.00  0.00     0.000 HD 
HETATM    5  C   UNL     1      -8.356   8.290  68.547  1.00  0.00    -0.129 C  
HETATM    6  C   UNL     1     -10.312   7.779  66.966  1.00  0.00    -0.405 C  
HETATM    7  C   UNL     1      -8.007   8.145  66.022  1.00  0.00    -0.100 C  
ENDROOT
BRANCH   5   8
HETATM    8  C   UNL     1      -8.467   9.804  68.550  1.00  0.00    -0.115 A  
HETATM    9  C   UNL     1      -9.714  10.429  68.674  1.00  0.00    -0.178 A  
HETATM   10  C   UNL     1      -9.850  11.801  68.465  1.00  0.00    -0.192 A  
HETATM   11  C   UNL     1      -8.726  12.578  68.202  1.00  0.00    -0.190 A  
HETATM   12  C   UNL     1      -7.464  11.984  68.182  1.00  0.00    -0.112 A  
HETATM   13  C   UNL     1      -7.334  10.605  68.352  1.00  0.00    -0.091 A  
ENDBRANCH   5   8
TORSDOF 1
ENDMDL
MODEL      159
REMARK 921   NORMALIZED FREE ENERGY PREDICTED BY IDOCK:   -1.71 KCAL/MOL
REMARK 922        TOTAL FREE ENERGY PREDICTED BY IDOCK:   -1.82 KCAL/MOL
REMARK 923 INTER-LIGAND FREE ENERGY PREDICTED BY IDOCK:   -1.79 KCAL/MOL
REMARK 924 INTRA-LIGAND FREE ENERGY PREDICTED BY IDOCK:   -0.03 KCAL/MOL
REMARK 927      BINDING AFFINITY PREDICTED BY RF-SCORE:    0.00 PKD
ROOT
HETATM    1  C   UNL     1      -6.529   1.936  65.214  1.00  0.00    -0.023 C  
HETATM    2  N   UNL     1      -7.673   2.821  65.037  1.00  0.00    -0.079 NA 
HETATM    3  C   UNL     1      -7.840   3.893  66.049  1.00  0.00    -0.090 C  
HETATM    4  H   UNL     1      -8.325   2.709  64.259  1.00  0.00     0.000 HD 
HETATM    5  C   UNL     1      -9.090   4.735  65.594  1.00  0.00    -0.145 C  
HETATM    6  C   UNL     1      -6.574   4.777  66.096  1.00  0.00    -0.045 C  
HETATM    7  C   UNL     1      -8.091   3.288  67.445  1.00  0.00    -0.081 C  
ENDROOT
BRANCH   5   8
HETATM    8  C   UNL     1      -9.521   5.838  66.544  1.00  0.00    -0.168 A  
HETATM    9  C   UNL     1     -10.509   5.604  67.509  1.00  0.00    -0.294 A  
HETATM   10  C   UNL     1     -11.059   6.658  68.238  1.00  0.00    -0.283 A  
HETATM   11  C   UNL     1     -10.574   7.952  68.064  1.00  0.00    -0.194 A  
HETATM   12  C   UNL     1      -9.517   8.180  67.184  1.00  0.00    -0.207 A  
HETATM   13  C   UNL     1      -8.994   7.132  66.425  1.00  0.00    -0.178 A  
ENDBRANCH   5   8
TORSDOF 1
ENDMDL
MODEL      160
REMARK 921   NORMALIZED FREE ENERGY PREDICTED BY IDOCK:   -1.70 KCAL/MOL
REMARK 922        TOTAL FREE ENERGY PREDICTED BY IDOCK:   -1.81 KCAL/MOL
REMARK 923 INTER-LIGAND FREE ENERGY PREDICTED BY IDOCK:   -1.82 KCAL/MOL
REMARK 924 INTRA-LIGAND FREE ENERGY PREDICTED BY IDOCK:    0.02 KCAL/MOL
REMARK 927      BINDING AFFINITY PREDICTED BY RF-SCORE:    0.00 PKD
ROOT
HETATM    1  C   UNL     1      -7.019   7.292  67.717  1.00  0.00    -0.076 C  
HETATM    2  N   UNL     1      -6.913   6.476  68.920  1.00  0.00    -0.076 NA 
HETATM    3  C   UNL     1      -8.107   6.446  69.802  1.00  0.00    -0.121 C  
HETATM    4  H   UNL     1      -6.066   5.953  69.143  1.00  0.00     0.000 HD 
HETATM    5  C   UNL     1      -7.760   5.454  70.975  1.00  0.00    -0.098 C  
HETATM    6  C   UNL     1      -9.337   5.949  69.012  1.00  0.00    -0.138 C  
HETATM    7  C   UNL     1      -8.397   7.851  70.369  1.00  0.00    -0.121 C  
ENDROOT
BRANCH   5   8
HETATM    8  C   UNL     1      -8.803   5.342  72.071  1.00  0.00    -0.137 A  
HETATM    9  C   UNL     1      -9.782   4.340  72.027  1.00  0.00    -0.227 A  
HETATM   10  C   UNL     1     -10.864   4.360  72.906  1.00  0.00    -0.257 A  
HETATM   11  C   UNL     1     -10.942   5.340  73.891  1.00  0.00    -0.169 A  
HETATM   12  C   UNL     1      -9.919   6.280  74.013  1.00  0.00    -0.274 A  
HETATM   13  C   UNL     1      -8.856   6.284  73.108  1.00  0.00    -0.129 A  
ENDBRANCH   5   8
TORSDOF 1
ENDMDL
MODEL      161
REMARK 921   NORMALIZED FREE ENERGY PREDICTED BY IDOCK:   -1.68 KCAL/MOL
REMARK 922        TOTAL FREE ENERGY PREDICTED BY IDOCK:   -1.80 KCAL/MOL
REMARK 923 INTER-LIGAND FREE ENERGY PREDICTED BY IDOCK:   -2.46 KCAL/MOL
REMARK 924 INTRA-LIGAND FREE ENERGY PREDICTED BY IDOCK:    0.66 KCAL/MOL
REMARK 927      BINDING AFFINITY PREDICTED BY RF-SCORE:    0.00 PKD
ROOT
HETATM    1  C   UNL     1     -10.414  12.538  65.291  1.00  0.00    -0.287 C  
HETATM    2  N   UNL     1      -9.220  13.322  65.583  1.00  0.00    -0.320 NA 
HETATM    3  C   UNL     1      -9.444  14.710  66.058  1.00  0.00    -0.238 C  
HETATM    4  H   UNL     1      -8.282  12.938  65.467  1.00  0.00     0.000 HD 
HETATM    5  C   UNL     1      -8.017  15.305  66.361  1.00  0.00     0.374 C  
HETATM    6  C   UNL     1     -10.313  14.699  67.334  1.00  0.00    -0.241 C  
HETATM    7  C   UNL     1     -10.144  15.550  64.970  1.00  0.00    -0.163 C  
ENDROOT
BRANCH   5   8
HETATM    8  C   UNL     1      -7.988  16.767  66.765  1.00  0.00    -0.275 A  
HETATM    9  C   UNL     1      -9.144  17.402  67.238  1.00  0.00    -0.239 A  
HETATM   10  C   UNL     1      -9.180  18.786  67.407  1.00  0.00    -0.302 A  
HETATM   11  C   UNL     1      -8.037  19.545  67.177  1.00  0.00    -0.301 A  
HETATM   12  C   UNL     1      -6.849  18.912  66.809  1.00  0.00    -0.210 A  
HETATM   13  C   UNL     1      -6.824  17.532  66.601  1.00  0.00    -0.256 A  
ENDBRANCH   5   8
TORSDOF 1
ENDMDL
MODEL      162
REMARK 921   NORMALIZED FREE ENERGY PREDICTED BY IDOCK:   -1.66 KCAL/MOL
REMARK 922        TOTAL FREE ENERGY PREDICTED BY IDOCK:   -1.77 KCAL/MOL
REMARK 923 INTER-LIGAND FREE ENERGY PREDICTED BY IDOCK:   -1.77 KCAL/MOL
REMARK 924 INTRA-LIGAND FREE ENERGY PREDICTED BY IDOCK:    0.00 KCAL/MOL
REMARK 927      BINDING AFFINITY PREDICTED BY RF-SCORE:    0.00 PKD
ROOT
HETATM    1  C   UNL     1      -8.328   5.499  71.026  1.00  0.00    -0.121 C  
HETATM    2  N   UNL     1      -7.970   5.537  69.613  1.00  0.00    -0.092 NA 
HETATM    3  C   UNL     1      -8.873   4.809  68.686  1.00  0.00    -0.099 C  
HETATM    4  H   UNL     1      -7.145   6.036  69.280  1.00  0.00     0.000 HD 
HETATM    5  C   UNL     1      -8.309   5.062  67.238  1.00  0.00    -0.106 C  
HETATM    6  C   UNL     1     -10.313   5.353  68.815  1.00  0.00    -0.240 C  
HETATM    7  C   UNL     1      -8.868   3.299  68.998  1.00  0.00    -0.159 C  
ENDROOT
BRANCH   5   8
HETATM    8  C   UNL     1      -9.018   4.320  66.119  1.00  0.00    -0.123 A  
HETATM    9  C   UNL     1      -8.374   3.288  65.425  1.00  0.00    -0.099 A  
HETATM   10  C   UNL     1      -8.931   2.750  64.266  1.00  0.00    -0.109 A  
HETATM   11  C   UNL     1     -10.178   3.186  63.827  1.00  0.00    -0.200 A  
HETATM   12  C   UNL     1     -10.878   4.138  64.568  1.00  0.00    -0.128 A  
HETATM   13  C   UNL     1     -10.302   4.705  65.706  1.00  0.00    -0.295 A  
ENDBRANCH   5   8
TORSDOF 1
ENDMDL
MODEL      163
REMARK 921   NORMALIZED FREE ENERGY PREDICTED BY IDOCK:   -1.62 KCAL/MOL
REMARK 922        TOTAL FREE ENERGY PREDICTED BY IDOCK:   -1.73 KCAL/MOL
REMARK 923 INTER-LIGAND FREE ENERGY PREDICTED BY IDOCK:   -1.85 KCAL/MOL
REMARK 924 INTRA-LIGAND FREE ENERGY PREDICTED BY IDOCK:    0.13 KCAL/MOL
REMARK 927      BINDING AFFINITY PREDICTED BY RF-SCORE:    0.00 PKD
ROOT
HETATM    1  C   UNL     1      -6.767   2.131  64.849  1.00  0.00    -0.034 C  
HETATM    2  N   UNL     1      -8.023   2.471  65.505  1.00  0.00    -0.081 NA 
HETATM    3  C   UNL     1      -7.924   2.965  66.901  1.00  0.00    -0.076 C  
HETATM    4  H   UNL     1      -8.922   2.373  65.031  1.00  0.00     0.000 HD 
HETATM    5  C   UNL     1      -9.393   3.319  67.346  1.00  0.00    -0.242 C  
HETATM    6  C   UNL     1      -7.021   4.216  66.956  1.00  0.00    -0.063 C  
HETATM    7  C   UNL     1      -7.343   1.874  67.824  1.00  0.00    -0.054 C  
ENDROOT
BRANCH   5   8
HETATM    8  C   UNL     1      -9.556   3.751  68.791  1.00  0.00    -0.172 A  
HETATM    9  C   UNL     1      -9.813   5.090  69.113  1.00  0.00    -0.262 A  
HETATM   10  C   UNL     1      -9.752   5.532  70.434  1.00  0.00    -0.242 A  
HETATM   11  C   UNL     1      -9.505   4.624  71.460  1.00  0.00    -0.214 A  
HETATM   12  C   UNL     1      -9.353   3.270  71.163  1.00  0.00    -0.210 A  
HETATM   13  C   UNL     1      -9.375   2.835  69.837  1.00  0.00    -0.202 A  
ENDBRANCH   5   8
TORSDOF 1
ENDMDL
MODEL      164
REMARK 921   NORMALIZED FREE ENERGY PREDICTED BY IDOCK:   -1.59 KCAL/MOL
REMARK 922        TOTAL FREE ENERGY PREDICTED BY IDOCK:   -1.70 KCAL/MOL
REMARK 923 INTER-LIGAND FREE ENERGY PREDICTED BY IDOCK:   -1.68 KCAL/MOL
REMARK 924 INTRA-LIGAND FREE ENERGY PREDICTED BY IDOCK:   -0.01 KCAL/MOL
REMARK 927      BINDING AFFINITY PREDICTED BY RF-SCORE:    0.00 PKD
ROOT
HETATM    1  C   UNL     1     -10.869  10.231  67.908  1.00  0.00    -0.284 C  
HETATM    2  N   UNL     1     -10.562   8.924  68.476  1.00  0.00    -0.354 NA 
HETATM    3  C   UNL     1      -9.398   8.210  67.894  1.00  0.00    -0.134 C  
HETATM    4  H   UNL     1     -11.116   8.522  69.233  1.00  0.00     0.000 HD 
HETATM    5  C   UNL     1      -9.244   6.877  68.719  1.00  0.00    -0.131 C  
HETATM    6  C   UNL     1      -8.128   9.080  68.019  1.00  0.00    -0.105 C  
HETATM    7  C   UNL     1      -9.649   7.884  66.408  1.00  0.00    -0.251 C  
ENDROOT
BRANCH   5   8
HETATM    8  C   UNL     1      -8.169   5.923  68.230  1.00  0.00    -0.109 A  
HETATM    9  C   UNL     1      -8.454   4.972  67.243  1.00  0.00    -0.105 A  
HETATM   10  C   UNL     1      -7.543   3.959  66.943  1.00  0.00    -0.080 A  
HETATM   11  C   UNL     1      -6.303   3.930  67.575  1.00  0.00    -0.037 A  
HETATM   12  C   UNL     1      -5.966   4.934  68.482  1.00  0.00    -0.026 A  
HETATM   13  C   UNL     1      -6.893   5.924  68.811  1.00  0.00    -0.066 A  
ENDBRANCH   5   8
TORSDOF 1
ENDMDL
MODEL      165
REMARK 921   NORMALIZED FREE ENERGY PREDICTED BY IDOCK:   -1.55 KCAL/MOL
REMARK 922        TOTAL FREE ENERGY PREDICTED BY IDOCK:   -1.66 KCAL/MOL
REMARK 923 INTER-LIGAND FREE ENERGY PREDICTED BY IDOCK:   -1.73 KCAL/MOL
REMARK 924 INTRA-LIGAND FREE ENERGY PREDICTED BY IDOCK:    0.08 KCAL/MOL
REMARK 927      BINDING AFFINITY PREDICTED BY RF-SCORE:    0.00 PKD
ROOT
HETATM    1  C   UNL     1      -9.231  13.054  66.707  1.00  0.00    -0.228 C  
HETATM    2  N   UNL     1      -9.595  11.805  67.365  1.00  0.00    -0.168 NA 
HETATM    3  C   UNL     1      -8.791  10.611  67.003  1.00  0.00    -0.137 C  
HETATM    4  H   UNL     1     -10.360  11.754  68.038  1.00  0.00     0.000 HD 
HETATM    5  C   UNL     1      -9.335   9.430  67.891  1.00  0.00    -0.142 C  
HETATM    6  C   UNL     1      -7.297  10.871  67.295  1.00  0.00    -0.103 C  
HETATM    7  C   UNL     1      -8.967  10.272  65.508  1.00  0.00    -0.200 C  
ENDROOT
BRANCH   5   8
HETATM    8  C   UNL     1      -8.727   8.067  67.615  1.00  0.00    -0.126 A  
HETATM    9  C   UNL     1      -9.101   7.334  66.482  1.00  0.00    -0.186 A  
HETATM   10  C   UNL     1      -8.713   6.002  66.333  1.00  0.00    -0.133 A  
HETATM   11  C   UNL     1      -7.884   5.409  67.281  1.00  0.00    -0.101 A  
HETATM   12  C   UNL     1      -7.418   6.162  68.359  1.00  0.00    -0.087 A  
HETATM   13  C   UNL     1      -7.838   7.482  68.528  1.00  0.00    -0.122 A  
ENDBRANCH   5   8
TORSDOF 1
ENDMDL
MODEL      166
REMARK 921   NORMALIZED FREE ENERGY PREDICTED BY IDOCK:   -1.49 KCAL/MOL
REMARK 922        TOTAL FREE ENERGY PREDICTED BY IDOCK:   -1.59 KCAL/MOL
REMARK 923 INTER-LIGAND FREE ENERGY PREDICTED BY IDOCK:   -1.58 KCAL/MOL
REMARK 924 INTRA-LIGAND FREE ENERGY PREDICTED BY IDOCK:   -0.01 KCAL/MOL
REMARK 927      BINDING AFFINITY PREDICTED BY RF-SCORE:    0.00 PKD
ROOT
HETATM    1  C   UNL     1      -5.221   5.980  73.801  1.00  0.00    -0.032 C  
HETATM    2  N   UNL     1      -6.377   5.968  72.914  1.00  0.00    -0.061 NA 
HETATM    3  C   UNL     1      -6.684   7.241  72.215  1.00  0.00    -0.059 C  
HETATM    4  H   UNL     1      -6.945   5.131  72.780  1.00  0.00     0.000 HD 
HETATM    5  C   UNL     1      -7.917   6.944  71.282  1.00  0.00    -0.108 C  
HETATM    6  C   UNL     1      -5.465   7.694  71.382  1.00  0.00    -0.035 C  
HETATM    7  C   UNL     1      -7.046   8.344  73.231  1.00  0.00    -0.115 C  
ENDROOT
BRANCH   5   8
HETATM    8  C   UNL     1      -8.482   8.140  70.538  1.00  0.00    -0.125 A  
HETATM    9  C   UNL     1      -9.457   8.953  71.128  1.00  0.00    -0.335 A  
HETATM   10  C   UNL     1     -10.131   9.918  70.379  1.00  0.00    -0.258 A  
HETATM   11  C   UNL     1      -9.785  10.132  69.048  1.00  0.00    -0.212 A  
HETATM   12  C   UNL     1      -8.742   9.401  68.479  1.00  0.00    -0.128 A  
HETATM   13  C   UNL     1      -8.095   8.409  69.217  1.00  0.00    -0.115 A  
ENDBRANCH   5   8
TORSDOF 1
ENDMDL
MODEL      167
REMARK 921   NORMALIZED FREE ENERGY PREDICTED BY IDOCK:   -1.49 KCAL/MOL
REMARK 922        TOTAL FREE ENERGY PREDICTED BY IDOCK:   -1.59 KCAL/MOL
REMARK 923 INTER-LIGAND FREE ENERGY PREDICTED BY IDOCK:   -2.38 KCAL/MOL
REMARK 924 INTRA-LIGAND FREE ENERGY PREDICTED BY IDOCK:    0.79 KCAL/MOL
REMARK 927      BINDING AFFINITY PREDICTED BY RF-SCORE:    0.00 PKD
ROOT
HETATM    1  C   UNL     1      -8.988  17.692  68.720  1.00  0.00    -0.207 C  
HETATM    2  N   UNL     1      -9.730  16.438  68.752  1.00  0.00    -0.240 NA 
HETATM    3  C   UNL     1      -9.058  15.260  68.150  1.00  0.00    -0.174 C  
HETATM    4  H   UNL     1     -10.661  16.374  69.164  1.00  0.00     0.000 HD 
HETATM    5  C   UNL     1     -10.029  14.040  68.373  1.00  0.00    -0.236 C  
HETATM    6  C   UNL     1      -7.702  15.012  68.845  1.00  0.00    -0.152 C  
HETATM    7  C   UNL     1      -8.826  15.479  66.641  1.00  0.00    -0.325 C  
ENDROOT
BRANCH   5   8
HETATM    8  C   UNL     1      -9.595  12.731  67.740  1.00  0.00    -0.204 A  
HETATM    9  C   UNL     1     -10.383  11.579  67.867  1.00  0.00    -0.203 A  
HETATM   10  C   UNL     1      -9.894  10.333  67.477  1.00  0.00    -0.204 A  
HETATM   11  C   UNL     1      -8.638  10.232  66.886  1.00  0.00    -0.127 A  
HETATM   12  C   UNL     1      -7.888  11.385  66.657  1.00  0.00    -0.137 A  
HETATM   13  C   UNL     1      -8.360  12.628  67.083  1.00  0.00    -0.172 A  
ENDBRANCH   5   8
TORSDOF 1
ENDMDL
MODEL      168
REMARK 921   NORMALIZED FREE ENERGY PREDICTED BY IDOCK:   -1.48 KCAL/MOL
REMARK 922        TOTAL FREE ENERGY PREDICTED BY IDOCK:   -1.58 KCAL/MOL
REMARK 923 INTER-LIGAND FREE ENERGY PREDICTED BY IDOCK:   -2.31 KCAL/MOL
REMARK 924 INTRA-LIGAND FREE ENERGY PREDICTED BY IDOCK:    0.74 KCAL/MOL
REMARK 927      BINDING AFFINITY PREDICTED BY RF-SCORE:    0.00 PKD
ROOT
HETATM    1  C   UNL     1      -6.646   3.014  72.371  1.00  0.00    -0.015 C  
HETATM    2  N   UNL     1      -7.300   2.805  71.085  1.00  0.00    -0.033 NA 
HETATM    3  C   UNL     1      -8.144   3.919  70.586  1.00  0.00    -0.054 C  
HETATM    4  H   UNL     1      -7.184   1.940  70.556  1.00  0.00     0.000 HD 
HETATM    5  C   UNL     1      -8.670   3.472  69.171  1.00  0.00    -0.136 C  
HETATM    6  C   UNL     1      -7.303   5.210  70.474  1.00  0.00    -0.066 C  
HETATM    7  C   UNL     1      -9.334   4.166  71.537  1.00  0.00    -0.207 C  
ENDROOT
BRANCH   5   8
HETATM    8  C   UNL     1      -9.651   4.419  68.505  1.00  0.00    -0.208 A  
HETATM    9  C   UNL     1      -9.788   4.443  67.111  1.00  0.00    -0.217 A  
HETATM   10  C   UNL     1     -10.521   5.449  66.483  1.00  0.00    -0.352 A  
HETATM   11  C   UNL     1     -11.190   6.402  67.246  1.00  0.00    -0.295 A  
HETATM   12  C   UNL     1     -11.149   6.325  68.638  1.00  0.00    -0.409 A  
HETATM   13  C   UNL     1     -10.382   5.343  69.266  1.00  0.00    -0.322 A  
ENDBRANCH   5   8
TORSDOF 1
ENDMDL
MODEL      169
REMARK 921   NORMALIZED FREE ENERGY PREDICTED BY IDOCK:   -1.47 KCAL/MOL
REMARK 922        TOTAL FREE ENERGY PREDICTED BY IDOCK:   -1.57 KCAL/MOL
REMARK 923 INTER-LIGAND FREE ENERGY PREDICTED BY IDOCK:   -1.75 KCAL/MOL
REMARK 924 INTRA-LIGAND FREE ENERGY PREDICTED BY IDOCK:    0.18 KCAL/MOL
REMARK 927      BINDING AFFINITY PREDICTED BY RF-SCORE:    0.00 PKD
ROOT
HETATM    1  C   UNL     1      -9.632   9.167  69.865  1.00  0.00    -0.192 C  
HETATM    2  N   UNL     1      -9.605   8.127  70.886  1.00  0.00    -0.160 NA 
HETATM    3  C   UNL     1      -9.141   6.786  70.449  1.00  0.00    -0.153 C  
HETATM    4  H   UNL     1      -9.891   8.309  71.849  1.00  0.00     0.000 HD 
HETATM    5  C   UNL     1      -9.142   5.880  71.736  1.00  0.00    -0.148 C  
HETATM    6  C   UNL     1      -7.719   6.888  69.853  1.00  0.00    -0.109 C  
HETATM    7  C   UNL     1     -10.097   6.199  69.390  1.00  0.00    -0.230 C  
ENDROOT
BRANCH   5   8
HETATM    8  C   UNL     1      -8.799   4.419  71.511  1.00  0.00    -0.149 A  
HETATM    9  C   UNL     1      -9.661   3.585  70.787  1.00  0.00    -0.246 A  
HETATM   10  C   UNL     1      -9.462   2.205  70.757  1.00  0.00    -0.197 A  
HETATM   11  C   UNL     1      -8.355   1.648  71.391  1.00  0.00    -0.058 A  
HETATM   12  C   UNL     1      -7.432   2.479  72.026  1.00  0.00    -0.044 A  
HETATM   13  C   UNL     1      -7.652   3.856  72.089  1.00  0.00    -0.066 A  
ENDBRANCH   5   8
TORSDOF 1
ENDMDL
MODEL      170
REMARK 921   NORMALIZED FREE ENERGY PREDICTED BY IDOCK:   -1.46 KCAL/MOL
REMARK 922        TOTAL FREE ENERGY PREDICTED BY IDOCK:   -1.56 KCAL/MOL
REMARK 923 INTER-LIGAND FREE ENERGY PREDICTED BY IDOCK:   -1.99 KCAL/MOL
REMARK 924 INTRA-LIGAND FREE ENERGY PREDICTED BY IDOCK:    0.43 KCAL/MOL
REMARK 927      BINDING AFFINITY PREDICTED BY RF-SCORE:    0.00 PKD
ROOT
HETATM    1  C   UNL     1      -6.019   1.924  72.592  1.00  0.00    -0.008 C  
HETATM    2  N   UNL     1      -7.218   2.453  71.953  1.00  0.00    -0.038 NA 
HETATM    3  C   UNL     1      -7.655   3.803  72.390  1.00  0.00    -0.066 C  
HETATM    4  H   UNL     1      -7.729   1.925  71.245  1.00  0.00     0.000 HD 
HETATM    5  C   UNL     1      -8.912   4.162  71.512  1.00  0.00    -0.163 C  
HETATM    6  C   UNL     1      -6.521   4.825  72.165  1.00  0.00    -0.034 C  
HETATM    7  C   UNL     1      -8.042   3.791  73.884  1.00  0.00    -0.086 C  
ENDROOT
BRANCH   5   8
HETATM    8  C   UNL     1      -9.603   5.468  71.857  1.00  0.00    -0.185 A  
HETATM    9  C   UNL     1      -8.860   6.588  72.249  1.00  0.00    -0.134 A  
HETATM   10  C   UNL     1      -9.490   7.718  72.770  1.00  0.00    -0.274 A  
HETATM   11  C   UNL     1     -10.880   7.770  72.836  1.00  0.00    -0.453 A  
HETATM   12  C   UNL     1     -11.635   6.703  72.350  1.00  0.00    -0.281 A  
HETATM   13  C   UNL     1     -11.003   5.557  71.866  1.00  0.00    -0.264 A  
ENDBRANCH   5   8
TORSDOF 1
ENDMDL
MODEL      171
REMARK 921   NORMALIZED FREE ENERGY PREDICTED BY IDOCK:   -1.46 KCAL/MOL
REMARK 922        TOTAL FREE ENERGY PREDICTED BY IDOCK:   -1.56 KCAL/MOL
REMARK 923 INTER-LIGAND FREE ENERGY PREDICTED BY IDOCK:   -1.60 KCAL/MOL
REMARK 924 INTRA-LIGAND FREE ENERGY PREDICTED BY IDOCK:    0.04 KCAL/MOL
REMARK 927      BINDING AFFINITY PREDICTED BY RF-SCORE:    0.00 PKD
ROOT
HETATM    1  C   UNL     1      -9.931   8.278  69.467  1.00  0.00    -0.187 C  
HETATM    2  N   UNL     1      -8.970   7.371  68.851  1.00  0.00    -0.131 NA 
HETATM    3  C   UNL     1      -9.043   7.238  67.374  1.00  0.00    -0.121 C  
HETATM    4  H   UNL     1      -8.284   6.856  69.404  1.00  0.00     0.000 HD 
HETATM    5  C   UNL     1      -7.872   6.269  66.963  1.00  0.00    -0.104 C  
HETATM    6  C   UNL     1      -8.867   8.621  66.710  1.00  0.00    -0.152 C  
HETATM    7  C   UNL     1     -10.399   6.636  66.950  1.00  0.00    -0.324 C  
ENDROOT
BRANCH   5   8
HETATM    8  C   UNL     1      -7.813   5.897  65.493  1.00  0.00    -0.103 A  
HETATM    9  C   UNL     1      -6.944   6.564  64.621  1.00  0.00    -0.054 A  
HETATM   10  C   UNL     1      -7.034   6.380  63.241  1.00  0.00    -0.047 A  
HETATM   11  C   UNL     1      -7.948   5.467  62.720  1.00  0.00    -0.096 A  
HETATM   12  C   UNL     1      -8.745   4.718  63.585  1.00  0.00    -0.130 A  
HETATM   13  C   UNL     1      -8.682   4.932  64.963  1.00  0.00    -0.149 A  
ENDBRANCH   5   8
TORSDOF 1
ENDMDL
MODEL      172
REMARK 921   NORMALIZED FREE ENERGY PREDICTED BY IDOCK:   -1.45 KCAL/MOL
REMARK 922        TOTAL FREE ENERGY PREDICTED BY IDOCK:   -1.54 KCAL/MOL
REMARK 923 INTER-LIGAND FREE ENERGY PREDICTED BY IDOCK:   -1.53 KCAL/MOL
REMARK 924 INTRA-LIGAND FREE ENERGY PREDICTED BY IDOCK:   -0.01 KCAL/MOL
REMARK 927      BINDING AFFINITY PREDICTED BY RF-SCORE:    0.00 PKD
ROOT
HETATM    1  C   UNL     1      -7.374   6.999  72.922  1.00  0.00    -0.073 C  
HETATM    2  N   UNL     1      -6.975   6.293  71.711  1.00  0.00    -0.075 NA 
HETATM    3  C   UNL     1      -7.955   6.291  70.596  1.00  0.00    -0.112 C  
HETATM    4  H   UNL     1      -6.071   5.825  71.633  1.00  0.00     0.000 HD 
HETATM    5  C   UNL     1      -7.261   5.531  69.403  1.00  0.00    -0.065 C  
HETATM    6  C   UNL     1      -8.301   7.741  70.194  1.00  0.00    -0.128 C  
HETATM    7  C   UNL     1      -9.246   5.554  71.010  1.00  0.00    -0.174 C  
ENDROOT
BRANCH   5   8
HETATM    8  C   UNL     1      -8.124   5.311  68.175  1.00  0.00    -0.095 A  
HETATM    9  C   UNL     1      -8.207   6.288  67.175  1.00  0.00    -0.109 A  
HETATM   10  C   UNL     1      -9.154   6.189  66.156  1.00  0.00    -0.158 A  
HETATM   11  C   UNL     1      -9.981   5.072  66.081  1.00  0.00    -0.240 A  
HETATM   12  C   UNL     1      -9.835   4.041  67.010  1.00  0.00    -0.151 A  
HETATM   13  C   UNL     1      -8.915   4.159  68.052  1.00  0.00    -0.150 A  
ENDBRANCH   5   8
TORSDOF 1
ENDMDL
MODEL      173
REMARK 921   NORMALIZED FREE ENERGY PREDICTED BY IDOCK:   -1.37 KCAL/MOL
REMARK 922        TOTAL FREE ENERGY PREDICTED BY IDOCK:   -1.46 KCAL/MOL
REMARK 923 INTER-LIGAND FREE ENERGY PREDICTED BY IDOCK:   -1.44 KCAL/MOL
REMARK 924 INTRA-LIGAND FREE ENERGY PREDICTED BY IDOCK:   -0.02 KCAL/MOL
REMARK 927      BINDING AFFINITY PREDICTED BY RF-SCORE:    0.00 PKD
ROOT
HETATM    1  C   UNL     1      -8.389   8.060  71.894  1.00  0.00    -0.131 C  
HETATM    2  N   UNL     1      -9.130   7.758  70.675  1.00  0.00    -0.153 NA 
HETATM    3  C   UNL     1      -8.399   6.994  69.633  1.00  0.00    -0.133 C  
HETATM    4  H   UNL     1     -10.097   8.056  70.545  1.00  0.00     0.000 HD 
HETATM    5  C   UNL     1      -9.429   6.745  68.468  1.00  0.00    -0.131 C  
HETATM    6  C   UNL     1      -7.897   5.654  70.215  1.00  0.00    -0.098 C  
HETATM    7  C   UNL     1      -7.196   7.805  69.109  1.00  0.00    -0.082 C  
ENDROOT
BRANCH   5   8
HETATM    8  C   UNL     1      -8.871   6.064  67.232  1.00  0.00    -0.107 A  
HETATM    9  C   UNL     1      -8.339   6.819  66.180  1.00  0.00    -0.130 A  
HETATM   10  C   UNL     1      -8.023   6.220  64.960  1.00  0.00    -0.120 A  
HETATM   11  C   UNL     1      -8.166   4.845  64.803  1.00  0.00    -0.126 A  
HETATM   12  C   UNL     1      -8.594   4.067  65.879  1.00  0.00    -0.110 A  
HETATM   13  C   UNL     1      -8.948   4.672  67.086  1.00  0.00    -0.118 A  
ENDBRANCH   5   8
TORSDOF 1
ENDMDL
MODEL      174
REMARK 921   NORMALIZED FREE ENERGY PREDICTED BY IDOCK:   -1.34 KCAL/MOL
REMARK 922        TOTAL FREE ENERGY PREDICTED BY IDOCK:   -1.43 KCAL/MOL
REMARK 923 INTER-LIGAND FREE ENERGY PREDICTED BY IDOCK:   -1.41 KCAL/MOL
REMARK 924 INTRA-LIGAND FREE ENERGY PREDICTED BY IDOCK:   -0.01 KCAL/MOL
REMARK 927      BINDING AFFINITY PREDICTED BY RF-SCORE:    0.00 PKD
ROOT
HETATM    1  C   UNL     1      -8.368  11.009  68.931  1.00  0.00    -0.123 C  
HETATM    2  N   UNL     1      -9.154   9.783  68.977  1.00  0.00    -0.149 NA 
HETATM    3  C   UNL     1      -8.540   8.583  68.354  1.00  0.00    -0.139 C  
HETATM    4  H   UNL     1     -10.077   9.750  69.412  1.00  0.00     0.000 HD 
HETATM    5  C   UNL     1      -9.549   7.399  68.596  1.00  0.00    -0.146 C  
HETATM    6  C   UNL     1      -7.177   8.284  69.016  1.00  0.00    -0.073 C  
HETATM    7  C   UNL     1      -8.336   8.801  66.841  1.00  0.00    -0.108 C  
ENDROOT
BRANCH   5   8
HETATM    8  C   UNL     1      -9.178   6.077  67.949  1.00  0.00    -0.111 A  
HETATM    9  C   UNL     1      -8.330   5.174  68.603  1.00  0.00    -0.088 A  
HETATM   10  C   UNL     1      -7.815   4.065  67.933  1.00  0.00    -0.078 A  
HETATM   11  C   UNL     1      -8.203   3.802  66.622  1.00  0.00    -0.096 A  
HETATM   12  C   UNL     1      -9.130   4.635  65.996  1.00  0.00    -0.131 A  
HETATM   13  C   UNL     1      -9.614   5.768  66.653  1.00  0.00    -0.168 A  
ENDBRANCH   5   8
TORSDOF 1
ENDMDL
MODEL      175
REMARK 921   NORMALIZED FREE ENERGY PREDICTED BY IDOCK:   -1.28 KCAL/MOL
REMARK 922        TOTAL FREE ENERGY PREDICTED BY IDOCK:   -1.37 KCAL/MOL
REMARK 923 INTER-LIGAND FREE ENERGY PREDICTED BY IDOCK:   -1.36 KCAL/MOL
REMARK 924 INTRA-LIGAND FREE ENERGY PREDICTED BY IDOCK:   -0.01 KCAL/MOL
REMARK 927      BINDING AFFINITY PREDICTED BY RF-SCORE:    0.00 PKD
ROOT
HETATM    1  C   UNL     1      -7.971  14.161  66.812  1.00  0.00     0.374 C  
HETATM    2  N   UNL     1      -8.332  13.225  67.869  1.00  0.00    -0.150 NA 
HETATM    3  C   UNL     1      -8.319  11.786  67.507  1.00  0.00    -0.154 C  
HETATM    4  H   UNL     1      -8.582  13.541  68.807  1.00  0.00     0.000 HD 
HETATM    5  C   UNL     1      -8.674  10.999  68.824  1.00  0.00    -0.146 C  
HETATM    6  C   UNL     1      -6.920  11.384  66.990  1.00  0.00    -0.135 C  
HETATM    7  C   UNL     1      -9.369  11.490  66.416  1.00  0.00    -0.222 C  
ENDROOT
BRANCH   5   8
HETATM    8  C   UNL     1      -8.824   9.496  68.671  1.00  0.00    -0.132 A  
HETATM    9  C   UNL     1      -7.709   8.653  68.769  1.00  0.00    -0.097 A  
HETATM   10  C   UNL     1      -7.800   7.306  68.420  1.00  0.00    -0.122 A  
HETATM   11  C   UNL     1      -9.026   6.767  68.041  1.00  0.00    -0.117 A  
HETATM   12  C   UNL     1     -10.165   7.572  68.043  1.00  0.00    -0.239 A  
HETATM   13  C   UNL     1     -10.066   8.929  68.353  1.00  0.00    -0.215 A  
ENDBRANCH   5   8
TORSDOF 1
ENDMDL
MODEL      176
REMARK 921   NORMALIZED FREE ENERGY PREDICTED BY IDOCK:   -1.25 KCAL/MOL
REMARK 922        TOTAL FREE ENERGY PREDICTED BY IDOCK:   -1.33 KCAL/MOL
REMARK 923 INTER-LIGAND FREE ENERGY PREDICTED BY IDOCK:   -1.82 KCAL/MOL
REMARK 924 INTRA-LIGAND FREE ENERGY PREDICTED BY IDOCK:    0.49 KCAL/MOL
REMARK 927      BINDING AFFINITY PREDICTED BY RF-SCORE:    0.00 PKD
ROOT
HETATM    1  C   UNL     1      -9.885  11.649  68.764  1.00  0.00    -0.116 C  
HETATM    2  N   UNL     1     -10.022  10.578  69.744  1.00  0.00    -0.429 NA 
HETATM    3  C   UNL     1      -8.999   9.503  69.691  1.00  0.00    -0.188 C  
HETATM    4  H   UNL     1     -10.778  10.568  70.429  1.00  0.00     0.000 HD 
HETATM    5  C   UNL     1      -9.331   8.525  70.880  1.00  0.00    -0.214 C  
HETATM    6  C   UNL     1      -7.588  10.107  69.858  1.00  0.00    -0.174 C  
HETATM    7  C   UNL     1      -9.076   8.747  68.349  1.00  0.00    -0.141 C  
ENDROOT
BRANCH   5   8
HETATM    8  C   UNL     1      -8.471   7.277  70.962  1.00  0.00    -0.127 A  
HETATM    9  C   UNL     1      -8.194   6.523  69.815  1.00  0.00    -0.126 A  
HETATM   10  C   UNL     1      -7.590   5.269  69.913  1.00  0.00    -0.065 A  
HETATM   11  C   UNL     1      -7.188   4.786  71.154  1.00  0.00    -0.052 A  
HETATM   12  C   UNL     1      -7.362   5.574  72.292  1.00  0.00    -0.094 A  
HETATM   13  C   UNL     1      -8.002   6.811  72.199  1.00  0.00    -0.096 A  
ENDBRANCH   5   8
TORSDOF 1
ENDMDL
MODEL      177
REMARK 921   NORMALIZED FREE ENERGY PREDICTED BY IDOCK:   -1.18 KCAL/MOL
REMARK 922        TOTAL FREE ENERGY PREDICTED BY IDOCK:   -1.26 KCAL/MOL
REMARK 923 INTER-LIGAND FREE ENERGY PREDICTED BY IDOCK:   -1.57 KCAL/MOL
REMARK 924 INTRA-LIGAND FREE ENERGY PREDICTED BY IDOCK:    0.31 KCAL/MOL
REMARK 927      BINDING AFFINITY PREDICTED BY RF-SCORE:    0.00 PKD
ROOT
HETATM    1  C   UNL     1      -6.490  15.568  67.306  1.00  0.00    -0.014 C  
HETATM    2  N   UNL     1      -6.378  14.123  67.150  1.00  0.00    -0.319 NA 
HETATM    3  C   UNL     1      -7.340  13.300  67.924  1.00  0.00    -0.134 C  
HETATM    4  H   UNL     1      -5.676  13.700  66.541  1.00  0.00     0.000 HD 
HETATM    5  C   UNL     1      -7.054  11.803  67.529  1.00  0.00    -0.113 C  
HETATM    6  C   UNL     1      -8.788  13.695  67.558  1.00  0.00    -0.205 C  
HETATM    7  C   UNL     1      -7.125  13.496  69.439  1.00  0.00     0.112 C  
ENDROOT
BRANCH   5   8
HETATM    8  C   UNL     1      -7.856  10.759  68.285  1.00  0.00    -0.115 A  
HETATM    9  C   UNL     1      -9.232  10.926  68.489  1.00  0.00    -0.181 A  
HETATM   10  C   UNL     1      -9.932  10.088  69.357  1.00  0.00    -0.239 A  
HETATM   11  C   UNL     1      -9.278   9.026  69.976  1.00  0.00    -0.193 A  
HETATM   12  C   UNL     1      -7.933   8.786  69.697  1.00  0.00    -0.096 A  
HETATM   13  C   UNL     1      -7.224   9.648  68.860  1.00  0.00    -0.072 A  
ENDBRANCH   5   8
TORSDOF 1
ENDMDL
MODEL      178
REMARK 921   NORMALIZED FREE ENERGY PREDICTED BY IDOCK:   -1.16 KCAL/MOL
REMARK 922        TOTAL FREE ENERGY PREDICTED BY IDOCK:   -1.24 KCAL/MOL
REMARK 923 INTER-LIGAND FREE ENERGY PREDICTED BY IDOCK:   -1.20 KCAL/MOL
REMARK 924 INTRA-LIGAND FREE ENERGY PREDICTED BY IDOCK:   -0.04 KCAL/MOL
REMARK 927      BINDING AFFINITY PREDICTED BY RF-SCORE:    0.00 PKD
ROOT
HETATM    1  C   UNL     1      -9.381   6.739  73.114  1.00  0.00    -0.133 C  
HETATM    2  N   UNL     1      -9.758   5.988  71.923  1.00  0.00    -0.154 NA 
HETATM    3  C   UNL     1      -8.689   5.176  71.290  1.00  0.00    -0.128 C  
HETATM    4  H   UNL     1     -10.705   6.019  71.544  1.00  0.00     0.000 HD 
HETATM    5  C   UNL     1      -9.366   4.423  70.084  1.00  0.00    -0.225 C  
HETATM    6  C   UNL     1      -8.116   4.168  72.311  1.00  0.00    -0.091 C  
HETATM    7  C   UNL     1      -7.552   6.082  70.775  1.00  0.00    -0.093 C  
ENDROOT
BRANCH   5   8
HETATM    8  C   UNL     1      -8.431   3.603  69.214  1.00  0.00    -0.096 A  
HETATM    9  C   UNL     1      -7.927   4.125  68.016  1.00  0.00    -0.085 A  
HETATM   10  C   UNL     1      -7.246   3.310  67.112  1.00  0.00    -0.059 A  
HETATM   11  C   UNL     1      -6.996   1.977  67.429  1.00  0.00    -0.039 A  
HETATM   12  C   UNL     1      -7.399   1.474  68.666  1.00  0.00    -0.043 A  
HETATM   13  C   UNL     1      -8.115   2.279  69.553  1.00  0.00    -0.061 A  
ENDBRANCH   5   8
TORSDOF 1
ENDMDL
MODEL      179
REMARK 921   NORMALIZED FREE ENERGY PREDICTED BY IDOCK:   -1.12 KCAL/MOL
REMARK 922        TOTAL FREE ENERGY PREDICTED BY IDOCK:   -1.20 KCAL/MOL
REMARK 923 INTER-LIGAND FREE ENERGY PREDICTED BY IDOCK:   -1.16 KCAL/MOL
REMARK 924 INTRA-LIGAND FREE ENERGY PREDICTED BY IDOCK:   -0.04 KCAL/MOL
REMARK 927      BINDING AFFINITY PREDICTED BY RF-SCORE:    0.00 PKD
ROOT
HETATM    1  C   UNL     1      -7.540   2.202  71.495  1.00  0.00    -0.040 C  
HETATM    2  N   UNL     1      -7.467   1.919  70.067  1.00  0.00    -0.039 NA 
HETATM    3  C   UNL     1      -7.846   3.027  69.156  1.00  0.00    -0.046 C  
HETATM    4  H   UNL     1      -7.173   1.008  69.713  1.00  0.00     0.000 HD 
HETATM    5  C   UNL     1      -7.619   2.489  67.693  1.00  0.00    -0.060 C  
HETATM    6  C   UNL     1      -6.960   4.262  69.428  1.00  0.00    -0.046 C  
HETATM    7  C   UNL     1      -9.328   3.409  69.352  1.00  0.00    -0.237 C  
ENDROOT
BRANCH   5   8
HETATM    8  C   UNL     1      -8.044   3.424  66.576  1.00  0.00    -0.091 A  
HETATM    9  C   UNL     1      -9.259   3.231  65.906  1.00  0.00    -0.148 A  
HETATM   10  C   UNL     1      -9.557   3.948  64.747  1.00  0.00    -0.177 A  
HETATM   11  C   UNL     1      -8.675   4.921  64.285  1.00  0.00    -0.130 A  
HETATM   12  C   UNL     1      -7.512   5.197  65.004  1.00  0.00    -0.073 A  
HETATM   13  C   UNL     1      -7.195   4.452  66.141  1.00  0.00    -0.076 A  
ENDBRANCH   5   8
TORSDOF 1
ENDMDL
MODEL      180
REMARK 921   NORMALIZED FREE ENERGY PREDICTED BY IDOCK:   -1.12 KCAL/MOL
REMARK 922        TOTAL FREE ENERGY PREDICTED BY IDOCK:   -1.20 KCAL/MOL
REMARK 923 INTER-LIGAND FREE ENERGY PREDICTED BY IDOCK:   -1.25 KCAL/MOL
REMARK 924 INTRA-LIGAND FREE ENERGY PREDICTED BY IDOCK:    0.05 KCAL/MOL
REMARK 927      BINDING AFFINITY PREDICTED BY RF-SCORE:    0.00 PKD
ROOT
HETATM    1  C   UNL     1      -6.055   8.495  67.421  1.00  0.00    -0.052 C  
HETATM    2  N   UNL     1      -6.582   9.522  68.311  1.00  0.00    -0.057 NA 
HETATM    3  C   UNL     1      -6.659  10.897  67.756  1.00  0.00    -0.064 C  
HETATM    4  H   UNL     1      -6.882   9.309  69.263  1.00  0.00     0.000 HD 
HETATM    5  C   UNL     1      -7.316  11.786  68.878  1.00  0.00    -0.093 C  
HETATM    6  C   UNL     1      -7.524  10.903  66.477  1.00  0.00    -0.142 C  
HETATM    7  C   UNL     1      -5.249  11.427  67.422  1.00  0.00    -0.054 C  
ENDROOT
BRANCH   5   8
HETATM    8  C   UNL     1      -7.402  13.270  68.573  1.00  0.00    -0.115 A  
HETATM    9  C   UNL     1      -6.279  14.095  68.715  1.00  0.00    -0.086 A  
HETATM   10  C   UNL     1      -6.398  15.483  68.645  1.00  0.00    -0.099 A  
HETATM   11  C   UNL     1      -7.632  16.061  68.358  1.00  0.00    -0.145 A  
HETATM   12  C   UNL     1      -8.735  15.246  68.108  1.00  0.00    -0.162 A  
HETATM   13  C   UNL     1      -8.624  13.859  68.218  1.00  0.00    -0.177 A  
ENDBRANCH   5   8
TORSDOF 1
ENDMDL
MODEL      181
REMARK 921   NORMALIZED FREE ENERGY PREDICTED BY IDOCK:   -1.11 KCAL/MOL
REMARK 922        TOTAL FREE ENERGY PREDICTED BY IDOCK:   -1.19 KCAL/MOL
REMARK 923 INTER-LIGAND FREE ENERGY PREDICTED BY IDOCK:   -1.81 KCAL/MOL
REMARK 924 INTRA-LIGAND FREE ENERGY PREDICTED BY IDOCK:    0.62 KCAL/MOL
REMARK 927      BINDING AFFINITY PREDICTED BY RF-SCORE:    0.00 PKD
ROOT
HETATM    1  C   UNL     1      -9.527   7.042  70.113  1.00  0.00    -0.162 C  
HETATM    2  N   UNL     1     -10.226   6.637  68.900  1.00  0.00    -0.168 NA 
HETATM    3  C   UNL     1      -9.421   5.905  67.890  1.00  0.00    -0.110 C  
HETATM    4  H   UNL     1     -11.214   6.846  68.752  1.00  0.00     0.000 HD 
HETATM    5  C   UNL     1     -10.414   5.530  66.727  1.00  0.00    -0.355 C  
HETATM    6  C   UNL     1      -8.812   4.634  68.520  1.00  0.00    -0.123 C  
HETATM    7  C   UNL     1      -8.287   6.799  67.348  1.00  0.00    -0.122 C  
ENDROOT
BRANCH   5   8
HETATM    8  C   UNL     1      -9.786   4.859  65.518  1.00  0.00    -0.129 A  
HETATM    9  C   UNL     1     -10.466   3.848  64.828  1.00  0.00    -0.164 A  
HETATM   10  C   UNL     1      -9.817   3.085  63.858  1.00  0.00    -0.154 A  
HETATM   11  C   UNL     1      -8.500   3.373  63.512  1.00  0.00    -0.090 A  
HETATM   12  C   UNL     1      -7.846   4.447  64.117  1.00  0.00    -0.085 A  
HETATM   13  C   UNL     1      -8.482   5.185  65.116  1.00  0.00    -0.147 A  
ENDBRANCH   5   8
TORSDOF 1
ENDMDL
MODEL      182
REMARK 921   NORMALIZED FREE ENERGY PREDICTED BY IDOCK:   -0.47 KCAL/MOL
REMARK 922        TOTAL FREE ENERGY PREDICTED BY IDOCK:   -0.51 KCAL/MOL
REMARK 923 INTER-LIGAND FREE ENERGY PREDICTED BY IDOCK:   -0.62 KCAL/MOL
REMARK 924 INTRA-LIGAND FREE ENERGY PREDICTED BY IDOCK:    0.11 KCAL/MOL
REMARK 927      BINDING AFFINITY PREDICTED BY RF-SCORE:    0.00 PKD
ROOT
HETATM    1  C   UNL     1      -8.773  12.361  68.755  1.00  0.00     0.154 C  
HETATM    2  N   UNL     1      -8.856  10.928  68.503  1.00  0.00    -0.147 NA 
HETATM    3  C   UNL     1      -7.709  10.319  67.783  1.00  0.00    -0.090 C  
HETATM    4  H   UNL     1      -9.658  10.374  68.804  1.00  0.00     0.000 HD 
HETATM    5  C   UNL     1      -8.013   8.776  67.701  1.00  0.00    -0.106 C  
HETATM    6  C   UNL     1      -6.400  10.578  68.559  1.00  0.00    -0.050 C  
HETATM    7  C   UNL     1      -7.586  10.908  66.363  1.00  0.00    -0.146 C  
ENDROOT
BRANCH   5   8
HETATM    8  C   UNL     1      -7.017   7.952  66.905  1.00  0.00    -0.073 A  
HETATM    9  C   UNL     1      -6.973   8.037  65.508  1.00  0.00    -0.059 A  
HETATM   10  C   UNL     1      -6.217   7.135  64.761  1.00  0.00    -0.037 A  
HETATM   11  C   UNL     1      -5.434   6.182  65.406  1.00  0.00    -0.017 A  
HETATM   12  C   UNL     1      -5.385   6.157  66.800  1.00  0.00    -0.009 A  
HETATM   13  C   UNL     1      -6.174   7.034  67.547  1.00  0.00    -0.041 A  
ENDBRANCH   5   8
TORSDOF 1
ENDMDL
MODEL      183
REMARK 921   NORMALIZED FREE ENERGY PREDICTED BY IDOCK:    0.54 KCAL/MOL
REMARK 922        TOTAL FREE ENERGY PREDICTED BY IDOCK:    0.56 KCAL/MOL
REMARK 923 INTER-LIGAND FREE ENERGY PREDICTED BY IDOCK:    0.53 KCAL/MOL
REMARK 924 INTRA-LIGAND FREE ENERGY PREDICTED BY IDOCK:    0.03 KCAL/MOL
REMARK 927      BINDING AFFINITY PREDICTED BY RF-SCORE:    0.00 PKD
ROOT
HETATM    1  C   UNL     1     -12.340   6.270  69.360  1.00  0.00     2.272 C  
HETATM    2  N   UNL     1     -10.936   5.909  69.511  1.00  0.00    -0.372 NA 
HETATM    3  C   UNL     1     -10.303   6.258  70.808  1.00  0.00    -0.206 C  
HETATM    4  H   UNL     1     -10.416   5.443  68.767  1.00  0.00     0.000 HD 
HETATM    5  C   UNL     1      -8.829   5.707  70.739  1.00  0.00    -0.146 C  
HETATM    6  C   UNL     1     -11.079   5.598  71.969  1.00  0.00    -0.291 C  
HETATM    7  C   UNL     1     -10.285   7.787  71.010  1.00  0.00    -0.210 C  
ENDROOT
BRANCH   5   8
HETATM    8  C   UNL     1      -7.946   6.041  71.927  1.00  0.00    -0.107 A  
HETATM    9  C   UNL     1      -7.774   5.123  72.970  1.00  0.00    -0.097 A  
HETATM   10  C   UNL     1      -7.144   5.500  74.156  1.00  0.00    -0.082 A  
HETATM   11  C   UNL     1      -6.611   6.780  74.284  1.00  0.00    -0.079 A  
HETATM   12  C   UNL     1      -6.682   7.668  73.212  1.00  0.00    -0.076 A  
HETATM   13  C   UNL     1      -7.348   7.305  72.040  1.00  0.00    -0.079 A  
ENDBRANCH   5   8
TORSDOF 1
ENDMDL
MODEL      184
REMARK 921   NORMALIZED FREE ENERGY PREDICTED BY IDOCK:    4.00 KCAL/MOL
REMARK 922        TOTAL FREE ENERGY PREDICTED BY IDOCK:    4.22 KCAL/MOL
REMARK 923 INTER-LIGAND FREE ENERGY PREDICTED BY IDOCK:    4.20 KCAL/MOL
REMARK 924 INTRA-LIGAND FREE ENERGY PREDICTED BY IDOCK:    0.02 KCAL/MOL
REMARK 927      BINDING AFFINITY PREDICTED BY RF-SCORE:    0.00 PKD
ROOT
HETATM    1  C   UNL     1      -8.058  17.438  64.910  1.00  0.00     4.277 C  
HETATM    2  N   UNL     1      -8.325  17.317  66.338  1.00  0.00    -0.314 NA 
HETATM    3  C   UNL     1      -7.162  16.988  67.200  1.00  0.00    -0.172 C  
HETATM    4  H   UNL     1      -9.260  17.450  66.725  1.00  0.00     0.000 HD 
HETATM    5  C   UNL     1      -7.700  16.983  68.680  1.00  0.00    -0.251 C  
HETATM    6  C   UNL     1      -6.057  18.052  67.024  1.00  0.00    -0.170 C  
HETATM    7  C   UNL     1      -6.595  15.599  66.840  1.00  0.00     0.311 C  
ENDROOT
BRANCH   5   8
HETATM    8  C   UNL     1      -6.700  16.564  69.741  1.00  0.00    -0.024 A  
HETATM    9  C   UNL     1      -6.451  15.209  69.993  1.00  0.00    -0.156 A  
HETATM   10  C   UNL     1      -5.701  14.815  71.101  1.00  0.00    -0.058 A  
HETATM   11  C   UNL     1      -5.128  15.775  71.930  1.00  0.00     0.063 A  
HETATM   12  C   UNL     1      -5.280  17.128  71.628  1.00  0.00     0.292 A  
HETATM   13  C   UNL     1      -6.063  17.522  70.543  1.00  0.00     0.403 A  
ENDBRANCH   5   8
TORSDOF 1
ENDMDL
MODEL      185
REMARK 921   NORMALIZED FREE ENERGY PREDICTED BY IDOCK:   30.58 KCAL/MOL
REMARK 922        TOTAL FREE ENERGY PREDICTED BY IDOCK:   32.35 KCAL/MOL
REMARK 923 INTER-LIGAND FREE ENERGY PREDICTED BY IDOCK:   31.73 KCAL/MOL
REMARK 924 INTRA-LIGAND FREE ENERGY PREDICTED BY IDOCK:    0.62 KCAL/MOL
REMARK 927      BINDING AFFINITY PREDICTED BY RF-SCORE:    0.00 PKD
ROOT
HETATM    1  C   UNL     1      -7.956  16.527  65.252  1.00  0.00     2.952 C  
HETATM    2  N   UNL     1      -8.465  17.873  65.483  1.00  0.00     0.069 NA 
HETATM    3  C   UNL     1      -9.648  17.986  66.372  1.00  0.00    -0.295 C  
HETATM    4  H   UNL     1      -8.033  18.693  65.057  1.00  0.00     0.000 HD 
HETATM    5  C   UNL     1      -9.949  19.526  66.508  1.00  0.00    -0.518 C  
HETATM    6  C   UNL     1      -9.334  17.367  67.751  1.00  0.00    -0.255 C  
HETATM    7  C   UNL     1     -10.863  17.265  65.753  1.00  0.00    -0.023 C  
ENDROOT
BRANCH   5   8
HETATM    8  C   UNL     1     -11.195  19.885  67.296  1.00  0.00     0.133 A  
HETATM    9  C   UNL     1     -11.218  21.016  68.122  1.00  0.00     2.439 A  
HETATM   10  C   UNL     1     -12.274  21.233  69.007  1.00  0.00     5.058 A  
HETATM   11  C   UNL     1     -13.358  20.360  69.024  1.00  0.00     9.291 A  
HETATM   12  C   UNL     1     -13.396  19.289  68.132  1.00  0.00     8.993 A  
HETATM   13  C   UNL     1     -12.322  19.049  67.274  1.00  0.00     3.887 A  
ENDBRANCH   5   8
TORSDOF 1
ENDMDL
MODEL      186
REMARK 921   NORMALIZED FREE ENERGY PREDICTED BY IDOCK:   31.72 KCAL/MOL
REMARK 922        TOTAL FREE ENERGY PREDICTED BY IDOCK:   33.56 KCAL/MOL
REMARK 923 INTER-LIGAND FREE ENERGY PREDICTED BY IDOCK:   33.17 KCAL/MOL
REMARK 924 INTRA-LIGAND FREE ENERGY PREDICTED BY IDOCK:    0.39 KCAL/MOL
REMARK 927      BINDING AFFINITY PREDICTED BY RF-SCORE:    0.00 PKD
ROOT
HETATM    1  C   UNL     1      -7.502  14.670  72.969  1.00  0.00     5.618 C  
HETATM    2  N   UNL     1      -7.809  13.246  72.935  1.00  0.00     9.567 NA 
HETATM    3  C   UNL     1      -6.990  12.417  72.016  1.00  0.00     7.156 C  
HETATM    4  H   UNL     1      -8.548  12.840  73.511  1.00  0.00     0.000 HD 
HETATM    5  C   UNL     1      -7.470  10.931  72.219  1.00  0.00     7.628 C  
HETATM    6  C   UNL     1      -5.493  12.560  72.369  1.00  0.00     0.665 C  
HETATM    7  C   UNL     1      -7.213  12.848  70.552  1.00  0.00     2.474 C  
ENDROOT
BRANCH   5   8
HETATM    8  C   UNL     1      -6.839   9.905  71.296  1.00  0.00     0.354 A  
HETATM    9  C   UNL     1      -6.227   8.757  71.816  1.00  0.00    -0.073 A  
HETATM   10  C   UNL     1      -5.464   7.923  71.000  1.00  0.00    -0.030 A  
HETATM   11  C   UNL     1      -5.363   8.186  69.636  1.00  0.00    -0.026 A  
HETATM   12  C   UNL     1      -6.056   9.266  69.088  1.00  0.00    -0.042 A  
HETATM   13  C   UNL     1      -6.787  10.123  69.912  1.00  0.00    -0.124 A  
ENDBRANCH   5   8
TORSDOF 1
ENDMDL
