MODEL        1
REMARK 921   NORMALIZED FREE ENERGY PREDICTED BY IDOCK:   -7.98 KCAL/MOL
REMARK 922        TOTAL FREE ENERGY PREDICTED BY IDOCK:   -9.16 KCAL/MOL
REMARK 923 INTER-LIGAND FREE ENERGY PREDICTED BY IDOCK:   -8.91 KCAL/MOL
REMARK 924 INTRA-LIGAND FREE ENERGY PREDICTED BY IDOCK:   -0.25 KCAL/MOL
REMARK 927      BINDING AFFINITY PREDICTED BY RF-SCORE:    0.00 PKD
ROOT
HETATM    1  C   UNL     1      -9.992  14.298  65.922  1.00  0.00    -0.340 C  
HETATM    2  C   UNL     1     -10.072  15.845  66.093  1.00  0.00    -0.334 C  
HETATM    3  C   UNL     1      -9.101  13.873  67.175  1.00  0.00    -0.245 C  
HETATM    4  C   UNL     1     -10.197  13.389  68.144  1.00  0.00    -0.246 C  
HETATM    5  C   UNL     1     -10.781  14.004  69.518  1.00  0.00    -0.009 C  
HETATM    6  C   UNL     1     -11.579  15.361  69.255  1.00  0.00    -0.354 C  
HETATM    7  C   UNL     1     -12.407  15.899  70.382  1.00  0.00    -0.253 C  
HETATM    8  C   UNL     1     -13.322  14.800  70.974  1.00  0.00    -0.427 C  
HETATM    9  C   UNL     1     -14.406  15.174  71.693  1.00  0.00    -0.685 C  
HETATM   10  C   UNL     1     -13.828  15.818  72.902  1.00  0.00    -0.488 C  
HETATM   11  O   UNL     1     -14.409  16.753  73.451  1.00  0.00     0.364 OA 
HETATM   12  C   UNL     1     -12.475  15.304  73.375  1.00  0.00    -0.635 C  
HETATM   13  C   UNL     1     -11.823  14.284  72.716  1.00  0.00     0.486 C  
HETATM   14  C   UNL     1     -12.502  13.598  71.504  1.00  0.00    -0.330 C  
HETATM   15  C   UNL     1     -11.854  13.105  70.159  1.00  0.00    -0.328 C  
HETATM   16  C   UNL     1     -13.275  12.418  72.137  1.00  0.00    -0.491 C  
HETATM   17  C   UNL     1     -11.683  11.691  69.649  1.00  0.00    -0.350 C  
HETATM   18  O   UNL     1     -11.262  10.755  70.340  1.00  0.00    -0.292 OA 
HETATM   19  C   UNL     1     -12.012  11.564  68.145  1.00  0.00    -0.206 C  
HETATM   20  C   UNL     1     -10.960  12.313  67.279  1.00  0.00    -0.301 C  
HETATM   21  C   UNL     1     -10.064  11.164  66.725  1.00  0.00    -0.255 C  
HETATM   22  C   UNL     1     -11.359  13.367  66.096  1.00  0.00    -0.303 C  
HETATM   23  H   UNL     1     -13.218  13.712  66.660  1.00  0.00     0.000 HD 
HETATM   24  O   UNL     1     -12.438  14.244  66.560  1.00  0.00    -0.428 OA 
ENDROOT
BRANCH  22  25
HETATM   25  C   UNL     1     -12.141  12.895  64.862  1.00  0.00    -0.432 C  
HETATM   26  O   UNL     1     -13.326  12.577  64.936  1.00  0.00    -0.702 OA 
BRANCH  25  27
HETATM   27  C   UNL     1     -11.277  12.569  63.604  1.00  0.00    -0.483 C  
HETATM   28  O   UNL     1     -11.453  11.312  63.001  1.00  0.00    -0.852 OA 
HETATM   29  H   UNL     1     -10.926  11.113  62.235  1.00  0.00     0.000 HD 
ENDBRANCH  25  27
ENDBRANCH  22  25
TORSDOF 2
ENDMDL
MODEL        2
REMARK 921   NORMALIZED FREE ENERGY PREDICTED BY IDOCK:   -7.68 KCAL/MOL
REMARK 922        TOTAL FREE ENERGY PREDICTED BY IDOCK:   -8.83 KCAL/MOL
REMARK 923 INTER-LIGAND FREE ENERGY PREDICTED BY IDOCK:   -8.35 KCAL/MOL
REMARK 924 INTRA-LIGAND FREE ENERGY PREDICTED BY IDOCK:   -0.48 KCAL/MOL
REMARK 927      BINDING AFFINITY PREDICTED BY RF-SCORE:    0.00 PKD
ROOT
HETATM    1  C   UNL     1      -8.617  19.821  67.446  1.00  0.00    -0.374 C  
HETATM    2  C   UNL     1      -9.812  20.216  66.526  1.00  0.00    -0.574 C  
HETATM    3  C   UNL     1      -9.346  18.981  68.591  1.00  0.00    -0.428 C  
HETATM    4  C   UNL     1      -9.040  17.546  68.118  1.00  0.00    -0.277 C  
HETATM    5  C   UNL     1      -9.974  16.387  67.493  1.00  0.00    -0.250 C  
HETATM    6  C   UNL     1     -10.496  16.781  66.037  1.00  0.00    -0.300 C  
HETATM    7  C   UNL     1     -11.140  15.700  65.223  1.00  0.00    -0.310 C  
HETATM    8  C   UNL     1     -10.259  14.427  65.193  1.00  0.00    -0.420 C  
HETATM    9  C   UNL     1     -10.458  13.523  64.206  1.00  0.00    -0.258 C  
HETATM   10  C   UNL     1     -11.817  12.986  64.482  1.00  0.00    -0.377 C  
HETATM   11  O   UNL     1     -12.550  12.635  63.559  1.00  0.00    -0.696 OA 
HETATM   12  C   UNL     1     -12.261  12.953  65.937  1.00  0.00    -0.469 C  
HETATM   13  C   UNL     1     -11.438  13.393  66.951  1.00  0.00    -0.376 C  
HETATM   14  C   UNL     1     -10.003  13.876  66.617  1.00  0.00    -0.279 C  
HETATM   15  C   UNL     1      -9.201  15.083  67.228  1.00  0.00    -0.210 C  
HETATM   16  C   UNL     1      -9.145  12.598  66.753  1.00  0.00    -0.214 C  
HETATM   17  C   UNL     1      -7.963  15.057  68.098  1.00  0.00    -0.131 C  
HETATM   18  O   UNL     1      -7.819  14.307  69.071  1.00  0.00    -0.121 OA 
HETATM   19  C   UNL     1      -6.934  16.133  67.687  1.00  0.00    -0.175 C  
HETATM   20  C   UNL     1      -7.469  17.561  67.988  1.00  0.00    -0.214 C  
HETATM   21  C   UNL     1      -6.709  17.966  69.287  1.00  0.00    -0.213 C  
HETATM   22  C   UNL     1      -7.448  18.775  66.894  1.00  0.00    -0.221 C  
HETATM   23  H   UNL     1      -7.215  17.673  65.274  1.00  0.00     0.000 HD 
HETATM   24  O   UNL     1      -7.883  18.271  65.590  1.00  0.00    -0.515 OA 
ENDROOT
BRANCH  22  25
HETATM   25  C   UNL     1      -6.116  19.313  66.352  1.00  0.00    -0.165 C  
HETATM   26  O   UNL     1      -5.656  20.388  66.730  1.00  0.00    -0.168 OA 
BRANCH  25  27
HETATM   27  C   UNL     1      -5.549  18.568  65.103  1.00  0.00    -0.208 C  
HETATM   28  O   UNL     1      -5.790  19.137  63.841  1.00  0.00    -0.406 OA 
HETATM   29  H   UNL     1      -5.446  18.683  63.080  1.00  0.00     0.000 HD 
ENDBRANCH  25  27
ENDBRANCH  22  25
TORSDOF 2
ENDMDL
MODEL        3
REMARK 921   NORMALIZED FREE ENERGY PREDICTED BY IDOCK:   -7.37 KCAL/MOL
REMARK 922        TOTAL FREE ENERGY PREDICTED BY IDOCK:   -8.49 KCAL/MOL
REMARK 923 INTER-LIGAND FREE ENERGY PREDICTED BY IDOCK:   -8.06 KCAL/MOL
REMARK 924 INTRA-LIGAND FREE ENERGY PREDICTED BY IDOCK:   -0.42 KCAL/MOL
REMARK 927      BINDING AFFINITY PREDICTED BY RF-SCORE:    0.00 PKD
ROOT
HETATM    1  C   UNL     1     -11.818  12.767  65.786  1.00  0.00    -0.484 C  
HETATM    2  C   UNL     1     -12.857  13.804  65.261  1.00  0.00    -0.430 C  
HETATM    3  C   UNL     1     -10.546  13.086  64.876  1.00  0.00    -0.355 C  
HETATM    4  C   UNL     1      -9.712  13.938  65.853  1.00  0.00    -0.237 C  
HETATM    5  C   UNL     1      -9.346  15.510  65.883  1.00  0.00    -0.355 C  
HETATM    6  C   UNL     1     -10.637  16.403  66.168  1.00  0.00    -0.259 C  
HETATM    7  C   UNL     1     -10.413  17.848  66.497  1.00  0.00    -0.315 C  
HETATM    8  C   UNL     1      -9.348  18.006  67.609  1.00  0.00    -0.259 C  
HETATM    9  C   UNL     1      -9.310  19.161  68.313  1.00  0.00    -0.397 C  
HETATM   10  C   UNL     1      -8.901  20.179  67.309  1.00  0.00    -0.353 C  
HETATM   11  O   UNL     1      -9.314  21.334  67.386  1.00  0.00    -0.170 OA 
HETATM   12  C   UNL     1      -8.011  19.702  66.170  1.00  0.00    -0.352 C  
HETATM   13  C   UNL     1      -7.597  18.390  66.081  1.00  0.00    -0.270 C  
HETATM   14  C   UNL     1      -7.991  17.386  67.193  1.00  0.00    -0.226 C  
HETATM   15  C   UNL     1      -8.419  15.879  67.055  1.00  0.00    -0.248 C  
HETATM   16  C   UNL     1      -6.819  17.472  68.197  1.00  0.00    -0.197 C  
HETATM   17  C   UNL     1      -7.689  14.638  67.517  1.00  0.00    -0.195 C  
HETATM   18  O   UNL     1      -6.481  14.440  67.335  1.00  0.00    -0.307 OA 
HETATM   19  C   UNL     1      -8.635  13.605  68.166  1.00  0.00    -0.176 C  
HETATM   20  C   UNL     1      -9.603  12.996  67.113  1.00  0.00    -0.230 C  
HETATM   21  C   UNL     1      -8.989  11.591  66.828  1.00  0.00    -0.181 C  
HETATM   22  C   UNL     1     -11.219  12.895  67.332  1.00  0.00    -0.291 C  
HETATM   23  H   UNL     1     -11.376  14.223  68.783  1.00  0.00     0.000 HD 
HETATM   24  O   UNL     1     -11.718  14.150  67.900  1.00  0.00    -0.326 OA 
ENDROOT
BRANCH  22  25
HETATM   25  C   UNL     1     -11.801  12.037  68.465  1.00  0.00    -0.311 C  
HETATM   26  O   UNL     1     -12.097  10.857  68.289  1.00  0.00    -0.562 OA 
BRANCH  25  27
HETATM   27  C   UNL     1     -12.258  12.821  69.735  1.00  0.00    -0.147 C  
HETATM   28  O   UNL     1     -11.278  13.530  70.450  1.00  0.00    -0.431 OA 
HETATM   29  H   UNL     1     -11.556  14.006  71.223  1.00  0.00     0.000 HD 
ENDBRANCH  25  27
ENDBRANCH  22  25
TORSDOF 2
ENDMDL
MODEL        4
REMARK 921   NORMALIZED FREE ENERGY PREDICTED BY IDOCK:   -7.08 KCAL/MOL
REMARK 922        TOTAL FREE ENERGY PREDICTED BY IDOCK:   -8.16 KCAL/MOL
REMARK 923 INTER-LIGAND FREE ENERGY PREDICTED BY IDOCK:   -7.72 KCAL/MOL
REMARK 924 INTRA-LIGAND FREE ENERGY PREDICTED BY IDOCK:   -0.44 KCAL/MOL
REMARK 927      BINDING AFFINITY PREDICTED BY RF-SCORE:    0.00 PKD
ROOT
HETATM    1  C   UNL     1      -9.774  12.208  66.925  1.00  0.00    -0.213 C  
HETATM    2  C   UNL     1      -8.430  12.070  66.148  1.00  0.00     0.172 C  
HETATM    3  C   UNL     1      -9.271  12.604  68.387  1.00  0.00    -0.135 C  
HETATM    4  C   UNL     1      -9.501  14.127  68.357  1.00  0.00    -0.214 C  
HETATM    5  C   UNL     1      -8.482  15.379  68.311  1.00  0.00    -0.159 C  
HETATM    6  C   UNL     1      -7.704  15.444  66.919  1.00  0.00    -0.159 C  
HETATM    7  C   UNL     1      -6.936  16.696  66.620  1.00  0.00    -0.243 C  
HETATM    8  C   UNL     1      -7.810  17.953  66.851  1.00  0.00    -0.245 C  
HETATM    9  C   UNL     1      -7.446  19.115  66.258  1.00  0.00    -0.286 C  
HETATM   10  C   UNL     1      -6.164  19.469  66.923  1.00  0.00    -0.183 C  
HETATM   11  O   UNL     1      -5.282  20.060  66.303  1.00  0.00    -0.164 OA 
HETATM   12  C   UNL     1      -5.989  19.015  68.365  1.00  0.00    -0.228 C  
HETATM   13  C   UNL     1      -6.976  18.314  69.024  1.00  0.00    -0.266 C  
HETATM   14  C   UNL     1      -8.322  18.033  68.310  1.00  0.00    -0.295 C  
HETATM   15  C   UNL     1      -9.209  16.735  68.351  1.00  0.00    -0.229 C  
HETATM   16  C   UNL     1      -9.204  19.241  68.700  1.00  0.00    -0.436 C  
HETATM   17  C   UNL     1     -10.583  16.541  68.954  1.00  0.00    -0.326 C  
HETATM   18  O   UNL     1     -10.907  16.949  70.077  1.00  0.00    -0.219 OA 
HETATM   19  C   UNL     1     -11.511  15.704  68.047  1.00  0.00    -0.294 C  
HETATM   20  C   UNL     1     -11.023  14.231  67.960  1.00  0.00    -0.261 C  
HETATM   21  C   UNL     1     -12.000  13.469  68.907  1.00  0.00    -0.378 C  
HETATM   22  C   UNL     1     -10.836  13.431  66.547  1.00  0.00    -0.282 C  
HETATM   23  H   UNL     1     -10.786  15.002  65.354  1.00  0.00     0.000 HD 
HETATM   24  O   UNL     1     -10.179  14.304  65.570  1.00  0.00    -0.322 OA 
ENDROOT
BRANCH  22  25
HETATM   25  C   UNL     1     -12.044  13.159  65.638  1.00  0.00    -0.449 C  
HETATM   26  O   UNL     1     -12.461  12.019  65.449  1.00  0.00    -0.421 OA 
BRANCH  25  27
HETATM   27  C   UNL     1     -12.507  14.362  64.758  1.00  0.00    -0.357 C  
HETATM   28  O   UNL     1     -12.415  14.222  63.363  1.00  0.00    -1.125 OA 
HETATM   29  H   UNL     1     -12.696  14.955  62.828  1.00  0.00     0.000 HD 
ENDBRANCH  25  27
ENDBRANCH  22  25
TORSDOF 2
ENDMDL
MODEL        5
REMARK 921   NORMALIZED FREE ENERGY PREDICTED BY IDOCK:   -6.98 KCAL/MOL
REMARK 922        TOTAL FREE ENERGY PREDICTED BY IDOCK:   -8.04 KCAL/MOL
REMARK 923 INTER-LIGAND FREE ENERGY PREDICTED BY IDOCK:   -7.58 KCAL/MOL
REMARK 924 INTRA-LIGAND FREE ENERGY PREDICTED BY IDOCK:   -0.47 KCAL/MOL
REMARK 927      BINDING AFFINITY PREDICTED BY RF-SCORE:    0.00 PKD
ROOT
HETATM    1  C   UNL     1     -10.067   8.998  70.164  1.00  0.00    -0.220 C  
HETATM    2  C   UNL     1     -11.219   9.926  70.655  1.00  0.00    -0.416 C  
HETATM    3  C   UNL     1     -10.766   8.213  68.963  1.00  0.00    -0.099 C  
HETATM    4  C   UNL     1     -10.214   9.000  67.759  1.00  0.00    -0.284 C  
HETATM    5  C   UNL     1     -10.910  10.017  66.716  1.00  0.00    -0.091 C  
HETATM    6  C   UNL     1     -11.350  11.374  67.432  1.00  0.00    -0.359 C  
HETATM    7  C   UNL     1     -11.754  12.516  66.549  1.00  0.00    -0.454 C  
HETATM    8  C   UNL     1     -10.699  12.765  65.444  1.00  0.00    -0.309 C  
HETATM    9  C   UNL     1     -10.675  13.970  64.829  1.00  0.00    -0.442 C  
HETATM   10  C   UNL     1     -11.961  14.017  64.083  1.00  0.00    -0.408 C  
HETATM   11  O   UNL     1     -12.549  15.083  63.917  1.00  0.00    -0.813 OA 
HETATM   12  C   UNL     1     -12.524  12.687  63.601  1.00  0.00    -0.523 C  
HETATM   13  C   UNL     1     -11.868  11.499  63.838  1.00  0.00    -0.210 C  
HETATM   14  C   UNL     1     -10.495  11.513  64.556  1.00  0.00    -0.369 C  
HETATM   15  C   UNL     1      -9.935  10.513  65.633  1.00  0.00    -0.332 C  
HETATM   16  C   UNL     1      -9.476  11.607  63.398  1.00  0.00    -0.233 C  
HETATM   17  C   UNL     1      -8.789   9.531  65.514  1.00  0.00    -0.168 C  
HETATM   18  O   UNL     1      -8.626   8.777  64.547  1.00  0.00    -0.167 OA 
HETATM   19  C   UNL     1      -7.894   9.516  66.772  1.00  0.00    -0.101 C  
HETATM   20  C   UNL     1      -8.656   8.923  67.991  1.00  0.00    -0.130 C  
HETATM   21  C   UNL     1      -8.083   7.478  68.109  1.00  0.00    -0.124 C  
HETATM   22  C   UNL     1      -8.714   9.651  69.452  1.00  0.00    -0.171 C  
HETATM   23  H   UNL     1      -8.179  11.460  68.872  1.00  0.00     0.000 HD 
HETATM   24  O   UNL     1      -8.952  11.087  69.279  1.00  0.00    -0.058 OA 
ENDROOT
BRANCH  22  25
HETATM   25  C   UNL     1      -7.431   9.863  70.269  1.00  0.00    -0.162 C  
HETATM   26  O   UNL     1      -7.259   9.305  71.350  1.00  0.00    -0.288 OA 
BRANCH  25  27
HETATM   27  C   UNL     1      -6.516  11.035  69.791  1.00  0.00    -0.137 C  
HETATM   28  O   UNL     1      -6.499  12.206  70.568  1.00  0.00    -0.512 OA 
HETATM   29  H   UNL     1      -5.943  12.919  70.277  1.00  0.00     0.000 HD 
ENDBRANCH  25  27
ENDBRANCH  22  25
TORSDOF 2
ENDMDL
MODEL        6
REMARK 921   NORMALIZED FREE ENERGY PREDICTED BY IDOCK:   -6.97 KCAL/MOL
REMARK 922        TOTAL FREE ENERGY PREDICTED BY IDOCK:   -8.03 KCAL/MOL
REMARK 923 INTER-LIGAND FREE ENERGY PREDICTED BY IDOCK:   -7.93 KCAL/MOL
REMARK 924 INTRA-LIGAND FREE ENERGY PREDICTED BY IDOCK:   -0.11 KCAL/MOL
REMARK 927      BINDING AFFINITY PREDICTED BY RF-SCORE:    0.00 PKD
ROOT
HETATM    1  C   UNL     1      -6.426  17.692  67.926  1.00  0.00    -0.182 C  
HETATM    2  C   UNL     1      -5.845  16.534  68.794  1.00  0.00    -0.131 C  
HETATM    3  C   UNL     1      -6.454  17.033  66.473  1.00  0.00    -0.239 C  
HETATM    4  C   UNL     1      -7.942  16.642  66.375  1.00  0.00    -0.360 C  
HETATM    5  C   UNL     1      -8.693  15.213  66.391  1.00  0.00    -0.219 C  
HETATM    6  C   UNL     1      -8.578  14.511  67.820  1.00  0.00    -0.176 C  
HETATM    7  C   UNL     1      -9.451  13.319  68.071  1.00  0.00    -0.219 C  
HETATM    8  C   UNL     1     -10.922  13.617  67.694  1.00  0.00    -0.283 C  
HETATM    9  C   UNL     1     -11.898  12.841  68.220  1.00  0.00    -0.357 C  
HETATM   10  C   UNL     1     -11.658  11.505  67.611  1.00  0.00    -0.247 C  
HETATM   11  O   UNL     1     -11.911  10.478  68.238  1.00  0.00    -0.406 OA 
HETATM   12  C   UNL     1     -11.039  11.484  66.221  1.00  0.00    -0.321 C  
HETATM   13  C   UNL     1     -10.723  12.649  65.556  1.00  0.00    -0.303 C  
HETATM   14  C   UNL     1     -11.060  14.016  66.204  1.00  0.00    -0.302 C  
HETATM   15  C   UNL     1     -10.215  15.342  66.204  1.00  0.00    -0.320 C  
HETATM   16  C   UNL     1     -12.475  14.336  65.670  1.00  0.00    -0.432 C  
HETATM   17  C   UNL     1     -10.519  16.663  65.533  1.00  0.00    -0.267 C  
HETATM   18  O   UNL     1     -10.914  16.768  64.365  1.00  0.00    -0.974 OA 
HETATM   19  C   UNL     1     -10.201  17.871  66.440  1.00  0.00    -0.372 C  
HETATM   20  C   UNL     1      -8.670  18.010  66.668  1.00  0.00    -0.276 C  
HETATM   21  C   UNL     1      -8.267  19.181  65.722  1.00  0.00     0.135 C  
HETATM   22  C   UNL     1      -7.996  18.193  68.146  1.00  0.00    -0.283 C  
HETATM   23  H   UNL     1      -9.526  17.558  69.218  1.00  0.00     0.000 HD 
HETATM   24  O   UNL     1      -8.629  17.272  69.093  1.00  0.00    -0.129 OA 
ENDROOT
BRANCH  22  25
HETATM   25  C   UNL     1      -8.305  19.435  68.995  1.00  0.00    -0.223 C  
HETATM   26  O   UNL     1      -7.446  19.961  69.699  1.00  0.00    -0.165 OA 
BRANCH  25  27
HETATM   27  C   UNL     1      -9.818  19.795  69.133  1.00  0.00    -0.289 C  
HETATM   28  O   UNL     1     -10.298  20.108  70.416  1.00  0.00    -0.588 OA 
HETATM   29  H   UNL     1     -11.218  20.327  70.500  1.00  0.00     0.000 HD 
ENDBRANCH  25  27
ENDBRANCH  22  25
TORSDOF 2
ENDMDL
MODEL        7
REMARK 921   NORMALIZED FREE ENERGY PREDICTED BY IDOCK:   -6.88 KCAL/MOL
REMARK 922        TOTAL FREE ENERGY PREDICTED BY IDOCK:   -7.93 KCAL/MOL
REMARK 923 INTER-LIGAND FREE ENERGY PREDICTED BY IDOCK:   -7.66 KCAL/MOL
REMARK 924 INTRA-LIGAND FREE ENERGY PREDICTED BY IDOCK:   -0.27 KCAL/MOL
REMARK 927      BINDING AFFINITY PREDICTED BY RF-SCORE:    0.00 PKD
ROOT
HETATM    1  C   UNL     1     -11.474  12.081  67.557  1.00  0.00    -0.403 C  
HETATM    2  C   UNL     1     -11.001  12.084  69.043  1.00  0.00    -0.260 C  
HETATM    3  C   UNL     1     -12.507  13.297  67.538  1.00  0.00     0.206 C  
HETATM    4  C   UNL     1     -11.626  14.401  66.922  1.00  0.00    -0.404 C  
HETATM    5  C   UNL     1     -10.972  15.740  67.543  1.00  0.00    -0.293 C  
HETATM    6  C   UNL     1      -9.835  15.393  68.608  1.00  0.00    -0.208 C  
HETATM    7  C   UNL     1      -8.952  16.517  69.060  1.00  0.00    -0.225 C  
HETATM    8  C   UNL     1      -8.388  17.302  67.852  1.00  0.00    -0.220 C  
HETATM    9  C   UNL     1      -7.281  18.061  68.030  1.00  0.00    -0.230 C  
HETATM   10  C   UNL     1      -7.731  19.139  68.951  1.00  0.00    -0.323 C  
HETATM   11  O   UNL     1      -6.955  19.624  69.771  1.00  0.00    -0.298 OA 
HETATM   12  C   UNL     1      -9.194  19.553  68.862  1.00  0.00    -0.368 C  
HETATM   13  C   UNL     1     -10.056  18.962  67.964  1.00  0.00    -0.437 C  
HETATM   14  C   UNL     1      -9.519  17.895  66.976  1.00  0.00    -0.272 C  
HETATM   15  C   UNL     1     -10.205  16.565  66.493  1.00  0.00    -0.305 C  
HETATM   16  C   UNL     1      -9.114  18.718  65.732  1.00  0.00     0.426 C  
HETATM   17  C   UNL     1     -10.714  16.204  65.115  1.00  0.00    -0.371 C  
HETATM   18  O   UNL     1     -11.399  16.959  64.413  1.00  0.00    -1.133 OA 
HETATM   19  C   UNL     1     -10.354  14.757  64.714  1.00  0.00    -0.260 C  
HETATM   20  C   UNL     1     -11.128  13.729  65.586  1.00  0.00    -0.297 C  
HETATM   21  C   UNL     1     -12.264  13.235  64.639  1.00  0.00    -0.460 C  
HETATM   22  C   UNL     1     -10.408  12.472  66.341  1.00  0.00    -0.243 C  
HETATM   23  H   UNL     1      -8.554  13.144  66.275  1.00  0.00     0.000 HD 
HETATM   24  O   UNL     1      -9.163  12.921  66.969  1.00  0.00    -0.212 OA 
ENDROOT
BRANCH  22  25
HETATM   25  C   UNL     1      -9.716  11.367  65.530  1.00  0.00    -0.230 C  
HETATM   26  O   UNL     1     -10.276  10.817  64.585  1.00  0.00    -0.319 OA 
BRANCH  25  27
HETATM   27  C   UNL     1      -8.404  10.796  66.156  1.00  0.00    -0.166 C  
HETATM   28  O   UNL     1      -7.183  11.326  65.705  1.00  0.00    -0.359 OA 
HETATM   29  H   UNL     1      -6.385  10.979  66.085  1.00  0.00     0.000 HD 
ENDBRANCH  25  27
ENDBRANCH  22  25
TORSDOF 2
ENDMDL
MODEL        8
REMARK 921   NORMALIZED FREE ENERGY PREDICTED BY IDOCK:   -6.70 KCAL/MOL
REMARK 922        TOTAL FREE ENERGY PREDICTED BY IDOCK:   -7.73 KCAL/MOL
REMARK 923 INTER-LIGAND FREE ENERGY PREDICTED BY IDOCK:   -7.36 KCAL/MOL
REMARK 924 INTRA-LIGAND FREE ENERGY PREDICTED BY IDOCK:   -0.37 KCAL/MOL
REMARK 927      BINDING AFFINITY PREDICTED BY RF-SCORE:    0.00 PKD
ROOT
HETATM    1  C   UNL     1     -11.944  14.228  66.468  1.00  0.00    -0.448 C  
HETATM    2  C   UNL     1     -12.786  13.437  65.422  1.00  0.00    -0.484 C  
HETATM    3  C   UNL     1     -11.848  13.183  67.671  1.00  0.00    -0.405 C  
HETATM    4  C   UNL     1     -10.434  12.617  67.435  1.00  0.00    -0.233 C  
HETATM    5  C   UNL     1      -9.913  11.177  66.926  1.00  0.00    -0.230 C  
HETATM    6  C   UNL     1     -10.294  10.928  65.396  1.00  0.00    -0.326 C  
HETATM    7  C   UNL     1      -9.643   9.767  64.707  1.00  0.00    -0.284 C  
HETATM    8  C   UNL     1      -8.111   9.779  64.923  1.00  0.00    -0.140 C  
HETATM    9  C   UNL     1      -7.328   9.080  64.068  1.00  0.00    -0.100 C  
HETATM   10  C   UNL     1      -7.694   7.662  64.327  1.00  0.00    -0.131 C  
HETATM   11  O   UNL     1      -7.671   6.835  63.418  1.00  0.00    -0.097 OA 
HETATM   12  C   UNL     1      -8.146   7.316  65.738  1.00  0.00    -0.129 C  
HETATM   13  C   UNL     1      -8.206   8.271  66.730  1.00  0.00    -0.103 C  
HETATM   14  C   UNL     1      -7.745   9.719  66.427  1.00  0.00    -0.102 C  
HETATM   15  C   UNL     1      -8.377  11.076  66.907  1.00  0.00    -0.138 C  
HETATM   16  C   UNL     1      -6.247   9.714  66.806  1.00  0.00    -0.065 C  
HETATM   17  C   UNL     1      -7.803  12.109  67.853  1.00  0.00    -0.147 C  
HETATM   18  O   UNL     1      -7.266  11.833  68.933  1.00  0.00    -0.108 OA 
HETATM   19  C   UNL     1      -8.039  13.553  67.360  1.00  0.00    -0.184 C  
HETATM   20  C   UNL     1      -9.548  13.921  67.411  1.00  0.00    -0.235 C  
HETATM   21  C   UNL     1      -9.660  14.812  68.686  1.00  0.00    -0.218 C  
HETATM   22  C   UNL     1     -10.351  14.591  66.156  1.00  0.00    -0.297 C  
HETATM   23  H   UNL     1      -9.066  14.121  64.734  1.00  0.00     0.000 HD 
HETATM   24  O   UNL     1      -9.976  13.914  64.912  1.00  0.00    -0.311 OA 
ENDROOT
BRANCH  22  25
HETATM   25  C   UNL     1      -9.959  15.981  65.632  1.00  0.00    -0.313 C  
HETATM   26  O   UNL     1      -8.870  16.483  65.897  1.00  0.00    -0.464 OA 
BRANCH  25  27
HETATM   27  C   UNL     1     -11.121  16.815  65.007  1.00  0.00    -0.057 C  
HETATM   28  O   UNL     1     -11.637  16.389  63.771  1.00  0.00    -1.605 OA 
HETATM   29  H   UNL     1     -12.344  16.897  63.390  1.00  0.00     0.000 HD 
ENDBRANCH  25  27
ENDBRANCH  22  25
TORSDOF 2
ENDMDL
MODEL        9
REMARK 921   NORMALIZED FREE ENERGY PREDICTED BY IDOCK:   -6.69 KCAL/MOL
REMARK 922        TOTAL FREE ENERGY PREDICTED BY IDOCK:   -7.72 KCAL/MOL
REMARK 923 INTER-LIGAND FREE ENERGY PREDICTED BY IDOCK:   -7.68 KCAL/MOL
REMARK 924 INTRA-LIGAND FREE ENERGY PREDICTED BY IDOCK:   -0.04 KCAL/MOL
REMARK 927      BINDING AFFINITY PREDICTED BY RF-SCORE:    0.00 PKD
ROOT
HETATM    1  C   UNL     1      -9.864  13.345  66.634  1.00  0.00    -0.278 C  
HETATM    2  C   UNL     1     -10.523  14.292  67.682  1.00  0.00    -0.248 C  
HETATM    3  C   UNL     1      -8.743  12.617  67.506  1.00  0.00    -0.184 C  
HETATM    4  C   UNL     1      -9.447  11.278  67.801  1.00  0.00    -0.173 C  
HETATM    5  C   UNL     1     -10.066  10.653  69.154  1.00  0.00    -0.234 C  
HETATM    6  C   UNL     1     -11.355  11.463  69.632  1.00  0.00    -0.347 C  
HETATM    7  C   UNL     1     -12.196  10.842  70.707  1.00  0.00    -0.483 C  
HETATM    8  C   UNL     1     -12.535   9.371  70.368  1.00  0.00     0.194 C  
HETATM    9  C   UNL     1     -13.591   8.789  70.983  1.00  0.00     0.046 C  
HETATM   10  C   UNL     1     -13.179   8.719  72.410  1.00  0.00    -0.394 C  
HETATM   11  O   UNL     1     -14.014   8.821  73.307  1.00  0.00    -0.200 OA 
HETATM   12  C   UNL     1     -11.689   8.578  72.689  1.00  0.00    -0.301 C  
HETATM   13  C   UNL     1     -10.768   8.510  71.666  1.00  0.00    -0.351 C  
HETATM   14  C   UNL     1     -11.256   8.515  70.196  1.00  0.00    -0.139 C  
HETATM   15  C   UNL     1     -10.623   9.233  68.948  1.00  0.00    -0.222 C  
HETATM   16  C   UNL     1     -11.431   7.015  69.862  1.00  0.00    -0.223 C  
HETATM   17  C   UNL     1      -9.971   8.619  67.729  1.00  0.00    -0.190 C  
HETATM   18  O   UNL     1      -9.143   7.701  67.778  1.00  0.00    -0.130 OA 
HETATM   19  C   UNL     1     -10.390   9.323  66.420  1.00  0.00    -0.238 C  
HETATM   20  C   UNL     1      -9.819  10.768  66.357  1.00  0.00    -0.254 C  
HETATM   21  C   UNL     1      -8.614  10.638  65.377  1.00  0.00    -0.185 C  
HETATM   22  C   UNL     1     -10.729  12.076  65.995  1.00  0.00    -0.279 C  
HETATM   23  H   UNL     1     -12.499  11.278  66.347  1.00  0.00     0.000 HD 
HETATM   24  O   UNL     1     -12.005  12.003  66.711  1.00  0.00    -0.616 OA 
ENDROOT
BRANCH  22  25
HETATM   25  C   UNL     1     -11.397  12.205  64.618  1.00  0.00    -0.326 C  
HETATM   26  O   UNL     1     -11.163  11.408  63.713  1.00  0.00    -0.399 OA 
BRANCH  25  27
HETATM   27  C   UNL     1     -12.143  13.551  64.358  1.00  0.00    -0.420 C  
HETATM   28  O   UNL     1     -12.449  13.879  63.026  1.00  0.00    -1.099 OA 
HETATM   29  H   UNL     1     -12.903  14.698  62.867  1.00  0.00     0.000 HD 
ENDBRANCH  25  27
ENDBRANCH  22  25
TORSDOF 2
ENDMDL
MODEL       10
REMARK 921   NORMALIZED FREE ENERGY PREDICTED BY IDOCK:   -6.45 KCAL/MOL
REMARK 922        TOTAL FREE ENERGY PREDICTED BY IDOCK:   -7.45 KCAL/MOL
REMARK 923 INTER-LIGAND FREE ENERGY PREDICTED BY IDOCK:   -7.20 KCAL/MOL
REMARK 924 INTRA-LIGAND FREE ENERGY PREDICTED BY IDOCK:   -0.25 KCAL/MOL
REMARK 927      BINDING AFFINITY PREDICTED BY RF-SCORE:    0.00 PKD
ROOT
HETATM    1  C   UNL     1     -10.107  13.624  66.792  1.00  0.00    -0.269 C  
HETATM    2  C   UNL     1     -10.381  14.193  68.217  1.00  0.00    -0.245 C  
HETATM    3  C   UNL     1      -8.724  12.857  67.004  1.00  0.00    -0.195 C  
HETATM    4  C   UNL     1      -9.228  11.407  67.139  1.00  0.00    -0.170 C  
HETATM    5  C   UNL     1      -9.301  10.395  68.395  1.00  0.00    -0.150 C  
HETATM    6  C   UNL     1     -10.362  10.890  69.480  1.00  0.00    -0.136 C  
HETATM    7  C   UNL     1     -10.741   9.923  70.560  1.00  0.00    -0.382 C  
HETATM    8  C   UNL     1     -11.127   8.548  69.964  1.00  0.00    -0.152 C  
HETATM    9  C   UNL     1     -11.873   7.701  70.713  1.00  0.00    -0.227 C  
HETATM   10  C   UNL     1     -10.976   7.339  71.843  1.00  0.00    -0.230 C  
HETATM   11  O   UNL     1     -11.438   7.110  72.959  1.00  0.00    -0.217 OA 
HETATM   12  C   UNL     1      -9.481   7.328  71.557  1.00  0.00    -0.160 C  
HETATM   13  C   UNL     1      -8.984   7.632  70.308  1.00  0.00    -0.146 C  
HETATM   14  C   UNL     1      -9.965   7.932  69.147  1.00  0.00    -0.184 C  
HETATM   15  C   UNL     1      -9.844   9.009  68.007  1.00  0.00    -0.197 C  
HETATM   16  C   UNL     1     -10.194   6.550  68.494  1.00  0.00    -0.190 C  
HETATM   17  C   UNL     1      -9.650   8.801  66.521  1.00  0.00    -0.237 C  
HETATM   18  O   UNL     1      -8.827   8.014  66.036  1.00  0.00    -0.153 OA 
HETATM   19  C   UNL     1     -10.534   9.743  65.674  1.00  0.00     0.134 C  
HETATM   20  C   UNL     1     -10.074  11.220  65.822  1.00  0.00    -0.294 C  
HETATM   21  C   UNL     1      -9.294  11.491  64.499  1.00  0.00    -0.029 C  
HETATM   22  C   UNL     1     -11.098  12.448  66.159  1.00  0.00    -0.302 C  
HETATM   23  H   UNL     1     -12.597  11.366  66.849  1.00  0.00     0.000 HD 
HETATM   24  O   UNL     1     -12.031  12.037  67.211  1.00  0.00    -0.591 OA 
ENDROOT
BRANCH  22  25
HETATM   25  C   UNL     1     -12.218  12.822  65.177  1.00  0.00    -0.477 C  
HETATM   26  O   UNL     1     -12.972  11.971  64.709  1.00  0.00    -0.440 OA 
BRANCH  25  27
HETATM   27  C   UNL     1     -12.147  14.269  64.596  1.00  0.00    -0.463 C  
HETATM   28  O   UNL     1     -12.491  14.445  63.245  1.00  0.00    -1.099 OA 
HETATM   29  H   UNL     1     -12.448  15.326  62.891  1.00  0.00     0.000 HD 
ENDBRANCH  25  27
ENDBRANCH  22  25
TORSDOF 2
ENDMDL
MODEL       11
REMARK 921   NORMALIZED FREE ENERGY PREDICTED BY IDOCK:   -6.43 KCAL/MOL
REMARK 922        TOTAL FREE ENERGY PREDICTED BY IDOCK:   -7.44 KCAL/MOL
REMARK 923 INTER-LIGAND FREE ENERGY PREDICTED BY IDOCK:   -7.16 KCAL/MOL
REMARK 924 INTRA-LIGAND FREE ENERGY PREDICTED BY IDOCK:   -0.28 KCAL/MOL
REMARK 927      BINDING AFFINITY PREDICTED BY RF-SCORE:    0.00 PKD
ROOT
HETATM    1  C   UNL     1     -10.444  13.637  67.011  1.00  0.00    -0.270 C  
HETATM    2  C   UNL     1     -10.732  13.718  68.541  1.00  0.00    -0.274 C  
HETATM    3  C   UNL     1      -8.962  13.045  66.986  1.00  0.00    -0.225 C  
HETATM    4  C   UNL     1      -9.260  11.563  66.685  1.00  0.00    -0.194 C  
HETATM    5  C   UNL     1      -9.143  10.228  67.584  1.00  0.00    -0.144 C  
HETATM    6  C   UNL     1     -10.215  10.227  68.767  1.00  0.00    -0.205 C  
HETATM    7  C   UNL     1     -10.415   8.942  69.511  1.00  0.00    -0.229 C  
HETATM    8  C   UNL     1     -10.636   7.762  68.534  1.00  0.00    -0.153 C  
HETATM    9  C   UNL     1     -11.229   6.637  68.998  1.00  0.00    -0.289 C  
HETATM   10  C   UNL     1     -10.245   6.089  69.970  1.00  0.00    -0.205 C  
HETATM   11  O   UNL     1     -10.625   5.480  70.967  1.00  0.00    -0.239 OA 
HETATM   12  C   UNL     1      -8.775   6.374  69.694  1.00  0.00    -0.138 C  
HETATM   13  C   UNL     1      -8.377   7.098  68.592  1.00  0.00    -0.125 C  
HETATM   14  C   UNL     1      -9.437   7.585  67.571  1.00  0.00    -0.165 C  
HETATM   15  C   UNL     1      -9.510   8.954  66.802  1.00  0.00    -0.243 C  
HETATM   16  C   UNL     1      -9.504   6.437  66.537  1.00  0.00    -0.189 C  
HETATM   17  C   UNL     1      -9.351   9.221  65.321  1.00  0.00    -0.202 C  
HETATM   18  O   UNL     1      -8.451   8.736  64.625  1.00  0.00    -0.169 OA 
HETATM   19  C   UNL     1     -10.389  10.235  64.792  1.00  0.00    -0.101 C  
HETATM   20  C   UNL     1     -10.127  11.654  65.371  1.00  0.00    -0.299 C  
HETATM   21  C   UNL     1      -9.447  12.408  64.188  1.00  0.00     0.285 C  
HETATM   22  C   UNL     1     -11.293  12.571  66.057  1.00  0.00    -0.344 C  
HETATM   23  H   UNL     1     -12.601  11.133  66.395  1.00  0.00     0.000 HD 
HETATM   24  O   UNL     1     -12.116  11.742  66.940  1.00  0.00    -0.566 OA 
ENDROOT
BRANCH  22  25
HETATM   25  C   UNL     1     -12.493  13.055  65.230  1.00  0.00    -0.499 C  
HETATM   26  O   UNL     1     -13.179  12.272  64.576  1.00  0.00    -0.799 OA 
BRANCH  25  27
HETATM   27  C   UNL     1     -12.599  14.600  65.040  1.00  0.00    -0.155 C  
HETATM   28  O   UNL     1     -12.489  15.105  63.733  1.00  0.00    -1.020 OA 
HETATM   29  H   UNL     1     -12.553  16.045  63.617  1.00  0.00     0.000 HD 
ENDBRANCH  25  27
ENDBRANCH  22  25
TORSDOF 2
ENDMDL
MODEL       12
REMARK 921   NORMALIZED FREE ENERGY PREDICTED BY IDOCK:   -6.42 KCAL/MOL
REMARK 922        TOTAL FREE ENERGY PREDICTED BY IDOCK:   -7.42 KCAL/MOL
REMARK 923 INTER-LIGAND FREE ENERGY PREDICTED BY IDOCK:   -7.21 KCAL/MOL
REMARK 924 INTRA-LIGAND FREE ENERGY PREDICTED BY IDOCK:   -0.22 KCAL/MOL
REMARK 927      BINDING AFFINITY PREDICTED BY RF-SCORE:    0.00 PKD
ROOT
HETATM    1  C   UNL     1      -8.952  18.769  67.742  1.00  0.00    -0.308 C  
HETATM    2  C   UNL     1     -10.223  19.230  66.966  1.00  0.00    -0.495 C  
HETATM    3  C   UNL     1      -9.564  17.735  68.792  1.00  0.00    -0.290 C  
HETATM    4  C   UNL     1      -9.231  16.402  68.095  1.00  0.00    -0.201 C  
HETATM    5  C   UNL     1     -10.156  15.298  67.365  1.00  0.00    -0.232 C  
HETATM    6  C   UNL     1     -10.793  15.871  66.019  1.00  0.00    -0.226 C  
HETATM    7  C   UNL     1     -11.445  14.887  65.095  1.00  0.00    -0.357 C  
HETATM    8  C   UNL     1     -10.516  13.680  64.823  1.00  0.00    -0.436 C  
HETATM    9  C   UNL     1     -10.744  12.918  63.727  1.00  0.00    -0.320 C  
HETATM   10  C   UNL     1     -12.057  12.277  64.005  1.00  0.00    -0.471 C  
HETATM   11  O   UNL     1     -12.835  12.026  63.088  1.00  0.00    -0.661 OA 
HETATM   12  C   UNL     1     -12.397  12.011  65.465  1.00  0.00     0.287 C  
HETATM   13  C   UNL     1     -11.525  12.342  66.479  1.00  0.00    -0.427 C  
HETATM   14  C   UNL     1     -10.139  12.942  66.132  1.00  0.00    -0.281 C  
HETATM   15  C   UNL     1      -9.349  14.088  66.863  1.00  0.00    -0.266 C  
HETATM   16  C   UNL     1      -9.220  11.704  66.024  1.00  0.00    -0.218 C  
HETATM   17  C   UNL     1      -8.054  14.002  67.641  1.00  0.00    -0.174 C  
HETATM   18  O   UNL     1      -7.811  13.127  68.481  1.00  0.00    -0.134 OA 
HETATM   19  C   UNL     1      -7.101  15.178  67.330  1.00  0.00    -0.161 C  
HETATM   20  C   UNL     1      -7.675  16.517  67.871  1.00  0.00    -0.162 C  
HETATM   21  C   UNL     1      -6.844  16.770  69.166  1.00  0.00    -0.227 C  
HETATM   22  C   UNL     1      -7.781  17.876  66.970  1.00  0.00    -0.211 C  
HETATM   23  H   UNL     1      -7.614  17.033  65.193  1.00  0.00     0.000 HD 
HETATM   24  O   UNL     1      -8.283  17.544  65.634  1.00  0.00    -0.505 OA 
ENDROOT
BRANCH  22  25
HETATM   25  C   UNL     1      -6.514  18.556  66.431  1.00  0.00    -0.196 C  
HETATM   26  O   UNL     1      -5.485  17.918  66.216  1.00  0.00    -0.152 OA 
BRANCH  25  27
HETATM   27  C   UNL     1      -6.525  20.116  66.458  1.00  0.00    -0.203 C  
HETATM   28  O   UNL     1      -5.717  20.757  67.412  1.00  0.00    -0.183 OA 
HETATM   29  H   UNL     1      -5.724  21.707  67.428  1.00  0.00     0.000 HD 
ENDBRANCH  25  27
ENDBRANCH  22  25
TORSDOF 2
ENDMDL
MODEL       13
REMARK 921   NORMALIZED FREE ENERGY PREDICTED BY IDOCK:   -6.39 KCAL/MOL
REMARK 922        TOTAL FREE ENERGY PREDICTED BY IDOCK:   -7.39 KCAL/MOL
REMARK 923 INTER-LIGAND FREE ENERGY PREDICTED BY IDOCK:   -7.13 KCAL/MOL
REMARK 924 INTRA-LIGAND FREE ENERGY PREDICTED BY IDOCK:   -0.26 KCAL/MOL
REMARK 927      BINDING AFFINITY PREDICTED BY RF-SCORE:    0.00 PKD
ROOT
HETATM    1  C   UNL     1      -8.241  19.354  66.831  1.00  0.00    -0.302 C  
HETATM    2  C   UNL     1      -7.749  18.984  65.399  1.00  0.00     0.498 C  
HETATM    3  C   UNL     1      -9.826  19.365  66.642  1.00  0.00    -0.462 C  
HETATM    4  C   UNL     1     -10.184  17.983  67.221  1.00  0.00    -0.371 C  
HETATM    5  C   UNL     1     -10.705  16.619  66.533  1.00  0.00    -0.127 C  
HETATM    6  C   UNL     1      -9.579  15.966  65.609  1.00  0.00    -0.266 C  
HETATM    7  C   UNL     1      -9.813  14.566  65.127  1.00  0.00    -0.146 C  
HETATM    8  C   UNL     1     -10.208  13.634  66.298  1.00  0.00    -0.296 C  
HETATM    9  C   UNL     1     -10.058  12.298  66.143  1.00  0.00    -0.265 C  
HETATM   10  C   UNL     1     -11.044  11.947  65.086  1.00  0.00    -0.305 C  
HETATM   11  O   UNL     1     -10.812  11.037  64.293  1.00  0.00    -0.353 OA 
HETATM   12  C   UNL     1     -12.301  12.802  65.007  1.00  0.00    -0.559 C  
HETATM   13  C   UNL     1     -12.517  13.846  65.880  1.00  0.00    -0.519 C  
HETATM   14  C   UNL     1     -11.493  14.124  67.010  1.00  0.00    -0.370 C  
HETATM   15  C   UNL     1     -10.981  15.506  67.559  1.00  0.00    -0.316 C  
HETATM   16  C   UNL     1     -12.023  13.290  68.198  1.00  0.00    -0.340 C  
HETATM   17  C   UNL     1     -11.211  16.132  68.917  1.00  0.00    -0.351 C  
HETATM   18  O   UNL     1     -12.312  16.175  69.479  1.00  0.00    -0.078 OA 
HETATM   19  C   UNL     1      -9.934  16.788  69.486  1.00  0.00    -0.051 C  
HETATM   20  C   UNL     1      -9.531  18.038  68.655  1.00  0.00    -0.317 C  
HETATM   21  C   UNL     1     -10.002  19.230  69.543  1.00  0.00    -0.032 C  
HETATM   22  C   UNL     1      -8.018  18.291  68.091  1.00  0.00    -0.284 C  
HETATM   23  H   UNL     1      -7.359  16.438  68.253  1.00  0.00     0.000 HD 
HETATM   24  O   UNL     1      -7.486  17.045  67.533  1.00  0.00    -0.155 OA 
ENDROOT
BRANCH  22  25
HETATM   25  C   UNL     1      -6.844  18.472  69.063  1.00  0.00    -0.274 C  
HETATM   26  O   UNL     1      -6.403  17.532  69.720  1.00  0.00    -0.233 OA 
BRANCH  25  27
HETATM   27  C   UNL     1      -6.452  19.951  69.375  1.00  0.00    -0.347 C  
HETATM   28  O   UNL     1      -6.531  20.377  70.712  1.00  0.00    -0.505 OA 
HETATM   29  H   UNL     1      -6.293  21.277  70.902  1.00  0.00     0.000 HD 
ENDBRANCH  25  27
ENDBRANCH  22  25
TORSDOF 2
ENDMDL
MODEL       14
REMARK 921   NORMALIZED FREE ENERGY PREDICTED BY IDOCK:   -6.32 KCAL/MOL
REMARK 922        TOTAL FREE ENERGY PREDICTED BY IDOCK:   -7.31 KCAL/MOL
REMARK 923 INTER-LIGAND FREE ENERGY PREDICTED BY IDOCK:   -7.40 KCAL/MOL
REMARK 924 INTRA-LIGAND FREE ENERGY PREDICTED BY IDOCK:    0.09 KCAL/MOL
REMARK 927      BINDING AFFINITY PREDICTED BY RF-SCORE:    0.00 PKD
ROOT
HETATM    1  C   UNL     1     -11.248  13.468  64.689  1.00  0.00    -0.377 C  
HETATM    2  C   UNL     1     -10.702  12.513  63.585  1.00  0.00    -0.469 C  
HETATM    3  C   UNL     1     -12.370  12.566  65.380  1.00  0.00    -0.426 C  
HETATM    4  C   UNL     1     -11.606  12.081  66.627  1.00  0.00    -0.389 C  
HETATM    5  C   UNL     1     -11.023  10.636  67.049  1.00  0.00    -0.274 C  
HETATM    6  C   UNL     1      -9.810  10.200  66.107  1.00  0.00    -0.297 C  
HETATM    7  C   UNL     1      -8.992   9.022  66.542  1.00  0.00    -0.177 C  
HETATM    8  C   UNL     1      -8.550   9.166  68.018  1.00  0.00    -0.125 C  
HETATM    9  C   UNL     1      -7.496   8.438  68.455  1.00  0.00    -0.094 C  
HETATM   10  C   UNL     1      -7.978   7.033  68.383  1.00  0.00    -0.123 C  
HETATM   11  O   UNL     1      -7.199   6.118  68.124  1.00  0.00    -0.079 OA 
HETATM   12  C   UNL     1      -9.470   6.806  68.586  1.00  0.00    -0.132 C  
HETATM   13  C   UNL     1     -10.330   7.854  68.832  1.00  0.00    -0.225 C  
HETATM   14  C   UNL     1      -9.767   9.291  68.969  1.00  0.00    -0.162 C  
HETATM   15  C   UNL     1     -10.375  10.643  68.444  1.00  0.00    -0.197 C  
HETATM   16  C   UNL     1      -9.488   9.433  70.483  1.00  0.00    -0.327 C  
HETATM   17  C   UNL     1     -10.925  11.809  69.237  1.00  0.00    -0.175 C  
HETATM   18  O   UNL     1     -11.699  11.687  70.195  1.00  0.00    -0.323 OA 
HETATM   19  C   UNL     1     -10.478  13.172  68.666  1.00  0.00    -0.242 C  
HETATM   20  C   UNL     1     -11.128  13.435  67.279  1.00  0.00    -0.300 C  
HETATM   21  C   UNL     1     -12.271  14.446  67.600  1.00  0.00    -0.200 C  
HETATM   22  C   UNL     1     -10.279  13.910  65.966  1.00  0.00    -0.310 C  
HETATM   23  H   UNL     1      -8.486  13.385  66.603  1.00  0.00     0.000 HD 
HETATM   24  O   UNL     1      -9.040  13.132  65.873  1.00  0.00     0.084 OA 
ENDROOT
BRANCH  22  25
HETATM   25  C   UNL     1      -9.548  15.260  65.957  1.00  0.00    -0.338 C  
HETATM   26  O   UNL     1      -8.436  15.392  66.464  1.00  0.00    -0.274 OA 
BRANCH  25  27
HETATM   27  C   UNL     1     -10.413  16.489  65.538  1.00  0.00    -0.301 C  
HETATM   28  O   UNL     1     -10.993  16.471  64.258  1.00  0.00    -1.152 OA 
HETATM   29  H   UNL     1     -11.519  17.220  64.002  1.00  0.00     0.000 HD 
ENDBRANCH  25  27
ENDBRANCH  22  25
TORSDOF 2
ENDMDL
MODEL       15
REMARK 921   NORMALIZED FREE ENERGY PREDICTED BY IDOCK:   -6.20 KCAL/MOL
REMARK 922        TOTAL FREE ENERGY PREDICTED BY IDOCK:   -7.18 KCAL/MOL
REMARK 923 INTER-LIGAND FREE ENERGY PREDICTED BY IDOCK:   -6.85 KCAL/MOL
REMARK 924 INTRA-LIGAND FREE ENERGY PREDICTED BY IDOCK:   -0.33 KCAL/MOL
REMARK 927      BINDING AFFINITY PREDICTED BY RF-SCORE:    0.00 PKD
ROOT
HETATM    1  C   UNL     1      -8.370  12.191  67.072  1.00  0.00    -0.173 C  
HETATM    2  C   UNL     1      -7.922  12.796  68.437  1.00  0.00    -0.137 C  
HETATM    3  C   UNL     1      -7.475  10.872  66.986  1.00  0.00    -0.122 C  
HETATM    4  C   UNL     1      -8.502   9.812  67.429  1.00  0.00    -0.121 C  
HETATM    5  C   UNL     1      -8.634   8.922  68.769  1.00  0.00    -0.136 C  
HETATM    6  C   UNL     1      -8.986   9.827  70.036  1.00  0.00    -0.255 C  
HETATM    7  C   UNL     1      -9.410   9.120  71.288  1.00  0.00    -0.285 C  
HETATM    8  C   UNL     1     -10.524   8.086  70.993  1.00  0.00    -0.229 C  
HETATM    9  C   UNL     1     -11.303   7.661  72.014  1.00  0.00    -0.322 C  
HETATM   10  C   UNL     1     -10.366   6.906  72.889  1.00  0.00    -0.226 C  
HETATM   11  O   UNL     1     -10.523   6.893  74.108  1.00  0.00    -0.357 OA 
HETATM   12  C   UNL     1      -9.193   6.218  72.206  1.00  0.00    -0.139 C  
HETATM   13  C   UNL     1      -9.013   6.284  70.841  1.00  0.00    -0.147 C  
HETATM   14  C   UNL     1     -10.059   7.023  69.967  1.00  0.00    -0.196 C  
HETATM   15  C   UNL     1      -9.823   7.946  68.716  1.00  0.00    -0.171 C  
HETATM   16  C   UNL     1     -11.059   5.911  69.575  1.00  0.00    -0.403 C  
HETATM   17  C   UNL     1     -10.196   7.700  67.271  1.00  0.00    -0.272 C  
HETATM   18  O   UNL     1      -9.994   6.634  66.678  1.00  0.00    -0.175 OA 
HETATM   19  C   UNL     1     -10.781   8.959  66.593  1.00  0.00    -0.017 C  
HETATM   20  C   UNL     1      -9.695  10.059  66.428  1.00  0.00    -0.266 C  
HETATM   21  C   UNL     1      -9.314   9.967  64.919  1.00  0.00    -0.324 C  
HETATM   22  C   UNL     1      -9.917  11.612  66.882  1.00  0.00    -0.202 C  
HETATM   23  H   UNL     1     -11.455  11.323  68.085  1.00  0.00     0.000 HD 
HETATM   24  O   UNL     1     -10.571  11.654  68.193  1.00  0.00    -0.187 OA 
ENDROOT
BRANCH  22  25
HETATM   25  C   UNL     1     -10.994  12.476  66.209  1.00  0.00    -0.277 C  
HETATM   26  O   UNL     1     -12.181  12.159  66.235  1.00  0.00    -0.604 OA 
BRANCH  25  27
HETATM   27  C   UNL     1     -10.460  13.594  65.259  1.00  0.00    -0.351 C  
HETATM   28  O   UNL     1     -10.101  13.222  63.953  1.00  0.00    -0.754 OA 
HETATM   29  H   UNL     1      -9.776  13.902  63.375  1.00  0.00     0.000 HD 
ENDBRANCH  25  27
ENDBRANCH  22  25
TORSDOF 2
ENDMDL
MODEL       16
REMARK 921   NORMALIZED FREE ENERGY PREDICTED BY IDOCK:   -6.16 KCAL/MOL
REMARK 922        TOTAL FREE ENERGY PREDICTED BY IDOCK:   -7.12 KCAL/MOL
REMARK 923 INTER-LIGAND FREE ENERGY PREDICTED BY IDOCK:   -6.77 KCAL/MOL
REMARK 924 INTRA-LIGAND FREE ENERGY PREDICTED BY IDOCK:   -0.35 KCAL/MOL
REMARK 927      BINDING AFFINITY PREDICTED BY RF-SCORE:    0.00 PKD
ROOT
HETATM    1  C   UNL     1      -8.196   7.309  67.154  1.00  0.00    -0.118 C  
HETATM    2  C   UNL     1      -7.953   7.309  65.615  1.00  0.00    -0.123 C  
HETATM    3  C   UNL     1      -7.486   8.667  67.599  1.00  0.00    -0.090 C  
HETATM    4  C   UNL     1      -8.712   9.592  67.728  1.00  0.00    -0.122 C  
HETATM    5  C   UNL     1      -9.225  10.843  66.845  1.00  0.00    -0.175 C  
HETATM    6  C   UNL     1      -9.700  10.375  65.395  1.00  0.00    -0.325 C  
HETATM    7  C   UNL     1     -10.455  11.370  64.566  1.00  0.00    -0.381 C  
HETATM    8  C   UNL     1     -11.614  12.002  65.374  1.00  0.00    -0.343 C  
HETATM    9  C   UNL     1     -12.631  12.589  64.701  1.00  0.00    -0.507 C  
HETATM   10  C   UNL     1     -11.996  13.765  64.049  1.00  0.00    -0.408 C  
HETATM   11  O   UNL     1     -12.393  14.163  62.956  1.00  0.00    -0.488 OA 
HETATM   12  C   UNL     1     -10.811  14.394  64.770  1.00  0.00    -0.415 C  
HETATM   13  C   UNL     1     -10.356  13.901  65.973  1.00  0.00    -0.310 C  
HETATM   14  C   UNL     1     -11.099  12.719  66.646  1.00  0.00    -0.313 C  
HETATM   15  C   UNL     1     -10.498  11.489  67.420  1.00  0.00    -0.240 C  
HETATM   16  C   UNL     1     -12.140  13.411  67.557  1.00  0.00    -0.323 C  
HETATM   17  C   UNL     1     -10.605  11.147  68.890  1.00  0.00    -0.207 C  
HETATM   18  O   UNL     1     -10.432  11.964  69.803  1.00  0.00     0.346 OA 
HETATM   19  C   UNL     1     -10.871   9.644  69.126  1.00  0.00    -0.212 C  
HETATM   20  C   UNL     1      -9.637   8.789  68.720  1.00  0.00    -0.160 C  
HETATM   21  C   UNL     1      -8.978   8.432  70.087  1.00  0.00    -0.142 C  
HETATM   22  C   UNL     1      -9.738   7.473  67.756  1.00  0.00    -0.146 C  
HETATM   23  H   UNL     1     -11.509   7.849  66.972  1.00  0.00     0.000 HD 
HETATM   24  O   UNL     1     -10.628   7.755  66.628  1.00  0.00    -0.276 OA 
ENDROOT
BRANCH  22  25
HETATM   25  C   UNL     1     -10.534   6.239  68.203  1.00  0.00    -0.226 C  
HETATM   26  O   UNL     1     -11.080   6.190  69.303  1.00  0.00    -0.352 OA 
BRANCH  25  27
HETATM   27  C   UNL     1     -10.357   4.968  67.314  1.00  0.00    -0.134 C  
HETATM   28  O   UNL     1     -10.892   5.003  66.015  1.00  0.00    -0.586 OA 
HETATM   29  H   UNL     1     -10.785   4.229  65.474  1.00  0.00     0.000 HD 
ENDBRANCH  25  27
ENDBRANCH  22  25
TORSDOF 2
ENDMDL
MODEL       17
REMARK 921   NORMALIZED FREE ENERGY PREDICTED BY IDOCK:   -6.10 KCAL/MOL
REMARK 922        TOTAL FREE ENERGY PREDICTED BY IDOCK:   -7.06 KCAL/MOL
REMARK 923 INTER-LIGAND FREE ENERGY PREDICTED BY IDOCK:   -6.84 KCAL/MOL
REMARK 924 INTRA-LIGAND FREE ENERGY PREDICTED BY IDOCK:   -0.21 KCAL/MOL
REMARK 927      BINDING AFFINITY PREDICTED BY RF-SCORE:    0.00 PKD
ROOT
HETATM    1  C   UNL     1     -11.139  14.084  67.964  1.00  0.00    -0.282 C  
HETATM    2  C   UNL     1     -12.075  14.156  69.209  1.00  0.00    -0.364 C  
HETATM    3  C   UNL     1      -9.719  13.802  68.635  1.00  0.00    -0.140 C  
HETATM    4  C   UNL     1      -9.604  12.281  68.411  1.00  0.00    -0.183 C  
HETATM    5  C   UNL     1      -9.670  11.027  69.425  1.00  0.00     0.057 C  
HETATM    6  C   UNL     1     -11.132  10.850  70.038  1.00  0.00    -0.285 C  
HETATM    7  C   UNL     1     -11.419   9.576  70.773  1.00  0.00    -0.378 C  
HETATM    8  C   UNL     1     -10.992   8.344  69.939  1.00  0.00    -0.166 C  
HETATM    9  C   UNL     1     -11.531   7.138  70.238  1.00  0.00    -0.287 C  
HETATM   10  C   UNL     1     -10.993   6.832  71.590  1.00  0.00    -0.235 C  
HETATM   11  O   UNL     1     -11.662   6.192  72.399  1.00  0.00    -0.304 OA 
HETATM   12  C   UNL     1      -9.620   7.398  71.928  1.00  0.00    -0.174 C  
HETATM   13  C   UNL     1      -8.908   8.151  71.020  1.00  0.00    -0.163 C  
HETATM   14  C   UNL     1      -9.482   8.380  69.599  1.00  0.00    -0.166 C  
HETATM   15  C   UNL     1      -9.440   9.680  68.716  1.00  0.00    -0.148 C  
HETATM   16  C   UNL     1      -8.899   7.209  68.775  1.00  0.00    -0.130 C  
HETATM   17  C   UNL     1      -8.699   9.925  67.420  1.00  0.00    -0.128 C  
HETATM   18  O   UNL     1      -7.518   9.608  67.230  1.00  0.00    -0.087 OA 
HETATM   19  C   UNL     1      -9.555  10.692  66.388  1.00  0.00    -0.230 C  
HETATM   20  C   UNL     1      -9.813  12.153  66.854  1.00  0.00    -0.213 C  
HETATM   21  C   UNL     1      -8.822  12.989  65.989  1.00  0.00     0.437 C  
HETATM   22  C   UNL     1     -11.296  12.839  66.873  1.00  0.00    -0.321 C  
HETATM   23  H   UNL     1     -12.361  11.179  66.794  1.00  0.00     0.000 HD 
HETATM   24  O   UNL     1     -12.271  11.890  67.417  1.00  0.00    -0.502 OA 
ENDROOT
BRANCH  22  25
HETATM   25  C   UNL     1     -12.078  13.043  65.567  1.00  0.00    -0.452 C  
HETATM   26  O   UNL     1     -12.588  12.099  64.969  1.00  0.00    -0.514 OA 
BRANCH  25  27
HETATM   27  C   UNL     1     -11.930  14.451  64.909  1.00  0.00    -0.426 C  
HETATM   28  O   UNL     1     -12.411  14.611  63.598  1.00  0.00    -1.060 OA 
HETATM   29  H   UNL     1     -12.321  15.468  63.198  1.00  0.00     0.000 HD 
ENDBRANCH  25  27
ENDBRANCH  22  25
TORSDOF 2
ENDMDL
MODEL       18
REMARK 921   NORMALIZED FREE ENERGY PREDICTED BY IDOCK:   -6.08 KCAL/MOL
REMARK 922        TOTAL FREE ENERGY PREDICTED BY IDOCK:   -7.05 KCAL/MOL
REMARK 923 INTER-LIGAND FREE ENERGY PREDICTED BY IDOCK:   -6.88 KCAL/MOL
REMARK 924 INTRA-LIGAND FREE ENERGY PREDICTED BY IDOCK:   -0.17 KCAL/MOL
REMARK 927      BINDING AFFINITY PREDICTED BY RF-SCORE:    0.00 PKD
ROOT
HETATM    1  C   UNL     1     -12.285  14.391  64.694  1.00  0.00    -0.479 C  
HETATM    2  C   UNL     1     -12.241  13.705  63.295  1.00  0.00    -0.096 C  
HETATM    3  C   UNL     1     -13.036  13.293  65.576  1.00  0.00    -0.113 C  
HETATM    4  C   UNL     1     -11.835  12.641  66.288  1.00  0.00    -0.471 C  
HETATM    5  C   UNL     1     -11.141  11.191  66.140  1.00  0.00    -0.152 C  
HETATM    6  C   UNL     1     -10.419  11.034  64.725  1.00  0.00    -0.384 C  
HETATM    7  C   UNL     1      -9.503   9.860  64.549  1.00  0.00    -0.328 C  
HETATM    8  C   UNL     1      -8.499   9.757  65.722  1.00  0.00    -0.141 C  
HETATM    9  C   UNL     1      -7.363   9.042  65.544  1.00  0.00    -0.085 C  
HETATM   10  C   UNL     1      -7.842   7.643  65.387  1.00  0.00    -0.115 C  
HETATM   11  O   UNL     1      -7.242   6.855  64.659  1.00  0.00    -0.067 OA 
HETATM   12  C   UNL     1      -9.125   7.270  66.118  1.00  0.00    -0.160 C  
HETATM   13  C   UNL     1      -9.804   8.185  66.894  1.00  0.00    -0.316 C  
HETATM   14  C   UNL     1      -9.223   9.609  67.083  1.00  0.00    -0.156 C  
HETATM   15  C   UNL     1      -9.982  10.985  67.131  1.00  0.00    -0.218 C  
HETATM   16  C   UNL     1      -8.352   9.484  68.354  1.00  0.00    -0.118 C  
HETATM   17  C   UNL     1     -10.154  11.935  68.296  1.00  0.00    -0.203 C  
HETATM   18  O   UNL     1     -10.474  11.577  69.436  1.00  0.00    -0.108 OA 
HETATM   19  C   UNL     1      -9.969  13.412  67.883  1.00  0.00    -0.236 C  
HETATM   20  C   UNL     1     -11.124  13.880  66.955  1.00  0.00    -0.311 C  
HETATM   21  C   UNL     1     -12.031  14.723  67.903  1.00  0.00    -0.260 C  
HETATM   22  C   UNL     1     -10.877  14.657  65.539  1.00  0.00    -0.345 C  
HETATM   23  H   UNL     1      -8.985  14.159  65.286  1.00  0.00     0.000 HD 
HETATM   24  O   UNL     1      -9.789  14.008  64.804  1.00  0.00    -0.182 OA 
ENDROOT
BRANCH  22  25
HETATM   25  C   UNL     1     -10.204  16.036  65.513  1.00  0.00    -0.360 C  
HETATM   26  O   UNL     1     -10.688  16.976  64.886  1.00  0.00    -0.728 OA 
BRANCH  25  27
HETATM   27  C   UNL     1      -8.747  16.084  66.073  1.00  0.00    -0.232 C  
HETATM   28  O   UNL     1      -7.992  17.243  65.826  1.00  0.00    -0.511 OA 
HETATM   29  H   UNL     1      -7.106  17.271  66.167  1.00  0.00     0.000 HD 
ENDBRANCH  25  27
ENDBRANCH  22  25
TORSDOF 2
ENDMDL
MODEL       19
REMARK 921   NORMALIZED FREE ENERGY PREDICTED BY IDOCK:   -6.03 KCAL/MOL
REMARK 922        TOTAL FREE ENERGY PREDICTED BY IDOCK:   -6.98 KCAL/MOL
REMARK 923 INTER-LIGAND FREE ENERGY PREDICTED BY IDOCK:   -6.47 KCAL/MOL
REMARK 924 INTRA-LIGAND FREE ENERGY PREDICTED BY IDOCK:   -0.51 KCAL/MOL
REMARK 927      BINDING AFFINITY PREDICTED BY RF-SCORE:    0.00 PKD
ROOT
HETATM    1  C   UNL     1      -8.016   9.660  68.725  1.00  0.00    -0.089 C  
HETATM    2  C   UNL     1      -7.066  10.497  69.635  1.00  0.00    -0.141 C  
HETATM    3  C   UNL     1      -9.454  10.151  69.213  1.00  0.00    -0.231 C  
HETATM    4  C   UNL     1      -9.796  11.158  68.098  1.00  0.00    -0.188 C  
HETATM    5  C   UNL     1      -9.905  12.769  68.087  1.00  0.00    -0.226 C  
HETATM    6  C   UNL     1      -8.477  13.450  68.298  1.00  0.00    -0.166 C  
HETATM    7  C   UNL     1      -8.374  14.923  68.037  1.00  0.00    -0.147 C  
HETATM    8  C   UNL     1      -8.988  15.289  66.665  1.00  0.00    -0.324 C  
HETATM    9  C   UNL     1      -8.631  16.458  66.084  1.00  0.00    -0.343 C  
HETATM   10  C   UNL     1      -9.192  17.494  66.991  1.00  0.00    -0.248 C  
HETATM   11  O   UNL     1      -8.616  18.569  67.144  1.00  0.00    -0.260 OA 
HETATM   12  C   UNL     1     -10.462  17.130  67.748  1.00  0.00    -0.362 C  
HETATM   13  C   UNL     1     -11.065  15.900  67.593  1.00  0.00    -0.266 C  
HETATM   14  C   UNL     1     -10.481  14.883  66.580  1.00  0.00    -0.292 C  
HETATM   15  C   UNL     1     -10.340  13.323  66.719  1.00  0.00    -0.257 C  
HETATM   16  C   UNL     1     -11.240  15.193  65.270  1.00  0.00    -0.359 C  
HETATM   17  C   UNL     1     -11.052  12.233  65.948  1.00  0.00    -0.322 C  
HETATM   18  O   UNL     1     -12.268  12.228  65.724  1.00  0.00    -0.622 OA 
HETATM   19  C   UNL     1     -10.103  11.083  65.545  1.00  0.00    -0.316 C  
HETATM   20  C   UNL     1      -9.626  10.289  66.794  1.00  0.00    -0.214 C  
HETATM   21  C   UNL     1     -10.493   8.994  66.752  1.00  0.00    -0.270 C  
HETATM   22  C   UNL     1      -8.058   9.935  67.086  1.00  0.00    -0.117 C  
HETATM   23  H   UNL     1      -7.252  11.268  65.874  1.00  0.00     0.000 HD 
HETATM   24  O   UNL     1      -7.228  11.111  66.811  1.00  0.00    -0.131 OA 
ENDROOT
BRANCH  22  25
HETATM   25  C   UNL     1      -7.270   9.033  66.125  1.00  0.00    -0.090 C  
HETATM   26  O   UNL     1      -7.199   7.818  66.299  1.00  0.00    -0.072 OA 
BRANCH  25  27
HETATM   27  C   UNL     1      -6.344   9.776  65.112  1.00  0.00    -0.094 C  
HETATM   28  O   UNL     1      -6.959  10.504  64.080  1.00  0.00    -0.328 OA 
HETATM   29  H   UNL     1      -6.395  10.956  63.463  1.00  0.00     0.000 HD 
ENDBRANCH  25  27
ENDBRANCH  22  25
TORSDOF 2
ENDMDL
MODEL       20
REMARK 921   NORMALIZED FREE ENERGY PREDICTED BY IDOCK:   -6.03 KCAL/MOL
REMARK 922        TOTAL FREE ENERGY PREDICTED BY IDOCK:   -6.98 KCAL/MOL
REMARK 923 INTER-LIGAND FREE ENERGY PREDICTED BY IDOCK:   -6.51 KCAL/MOL
REMARK 924 INTRA-LIGAND FREE ENERGY PREDICTED BY IDOCK:   -0.47 KCAL/MOL
REMARK 927      BINDING AFFINITY PREDICTED BY RF-SCORE:    0.00 PKD
ROOT
HETATM    1  C   UNL     1      -8.948  11.455  65.833  1.00  0.00    -0.184 C  
HETATM    2  C   UNL     1      -7.760  10.447  65.794  1.00  0.00    -0.146 C  
HETATM    3  C   UNL     1     -10.210  10.478  65.801  1.00  0.00    -0.310 C  
HETATM    4  C   UNL     1     -10.588  10.466  67.295  1.00  0.00    -0.322 C  
HETATM    5  C   UNL     1     -10.480   9.326  68.433  1.00  0.00    -0.246 C  
HETATM    6  C   UNL     1      -8.959   9.004  68.792  1.00  0.00    -0.137 C  
HETATM    7  C   UNL     1      -8.702   8.176  70.014  1.00  0.00    -0.131 C  
HETATM    8  C   UNL     1      -9.475   8.732  71.235  1.00  0.00    -0.320 C  
HETATM    9  C   UNL     1      -9.062   8.388  72.477  1.00  0.00    -0.326 C  
HETATM   10  C   UNL     1      -9.326   6.926  72.549  1.00  0.00    -0.139 C  
HETATM   11  O   UNL     1      -8.593   6.191  73.207  1.00  0.00    -0.124 OA 
HETATM   12  C   UNL     1     -10.494   6.396  71.728  1.00  0.00    -0.246 C  
HETATM   13  C   UNL     1     -11.274   7.235  70.962  1.00  0.00    -0.291 C  
HETATM   14  C   UNL     1     -11.002   8.761  70.979  1.00  0.00    -0.328 C  
HETATM   15  C   UNL     1     -11.052   9.785  69.786  1.00  0.00    -0.272 C  
HETATM   16  C   UNL     1     -11.914   9.283  72.112  1.00  0.00    -0.316 C  
HETATM   17  C   UNL     1     -12.018  10.925  69.553  1.00  0.00    -0.330 C  
HETATM   18  O   UNL     1     -13.245  10.827  69.684  1.00  0.00     0.038 OA 
HETATM   19  C   UNL     1     -11.311  12.203  69.051  1.00  0.00    -0.329 C  
HETATM   20  C   UNL     1     -10.750  12.001  67.615  1.00  0.00    -0.252 C  
HETATM   21  C   UNL     1     -11.778  12.753  66.716  1.00  0.00    -0.459 C  
HETATM   22  C   UNL     1      -9.217  12.377  67.191  1.00  0.00    -0.199 C  
HETATM   23  H   UNL     1      -8.446  12.444  69.006  1.00  0.00     0.000 HD 
HETATM   24  O   UNL     1      -8.292  11.918  68.231  1.00  0.00    -0.149 OA 
ENDROOT
BRANCH  22  25
HETATM   25  C   UNL     1      -8.723  13.829  67.256  1.00  0.00    -0.219 C  
HETATM   26  O   UNL     1      -8.925  14.617  66.335  1.00  0.00    -0.244 OA 
BRANCH  25  27
HETATM   27  C   UNL     1      -7.717  14.146  68.406  1.00  0.00    -0.140 C  
HETATM   28  O   UNL     1      -8.249  14.519  69.652  1.00  0.00    -0.387 OA 
HETATM   29  H   UNL     1      -7.636  14.712  70.352  1.00  0.00     0.000 HD 
ENDBRANCH  25  27
ENDBRANCH  22  25
TORSDOF 2
ENDMDL
MODEL       21
REMARK 921   NORMALIZED FREE ENERGY PREDICTED BY IDOCK:   -5.97 KCAL/MOL
REMARK 922        TOTAL FREE ENERGY PREDICTED BY IDOCK:   -6.91 KCAL/MOL
REMARK 923 INTER-LIGAND FREE ENERGY PREDICTED BY IDOCK:   -6.60 KCAL/MOL
REMARK 924 INTRA-LIGAND FREE ENERGY PREDICTED BY IDOCK:   -0.31 KCAL/MOL
REMARK 927      BINDING AFFINITY PREDICTED BY RF-SCORE:    0.00 PKD
ROOT
HETATM    1  C   UNL     1      -7.681   9.515  66.025  1.00  0.00    -0.100 C  
HETATM    2  C   UNL     1      -6.978   8.172  66.389  1.00  0.00    -0.067 C  
HETATM    3  C   UNL     1      -9.194   9.050  65.823  1.00  0.00    -0.293 C  
HETATM    4  C   UNL     1      -9.797   9.471  67.177  1.00  0.00    -0.239 C  
HETATM    5  C   UNL     1     -10.326   8.619  68.442  1.00  0.00    -0.239 C  
HETATM    6  C   UNL     1      -9.126   7.870  69.182  1.00  0.00    -0.145 C  
HETATM    7  C   UNL     1      -9.415   7.270  70.524  1.00  0.00    -0.165 C  
HETATM    8  C   UNL     1     -10.114   8.293  71.453  1.00  0.00    -0.257 C  
HETATM    9  C   UNL     1     -10.081   8.085  72.790  1.00  0.00    -0.378 C  
HETATM   10  C   UNL     1     -10.888   6.851  72.980  1.00  0.00    -0.296 C  
HETATM   11  O   UNL     1     -10.614   6.057  73.878  1.00  0.00    -0.268 OA 
HETATM   12  C   UNL     1     -12.012   6.604  71.983  1.00  0.00    -0.361 C  
HETATM   13  C   UNL     1     -12.272   7.488  70.958  1.00  0.00    -0.288 C  
HETATM   14  C   UNL     1     -11.447   8.796  70.847  1.00  0.00    -0.330 C  
HETATM   15  C   UNL     1     -10.901   9.510  69.558  1.00  0.00    -0.243 C  
HETATM   16  C   UNL     1     -12.271   9.819  71.663  1.00  0.00    -0.488 C  
HETATM   17  C   UNL     1     -11.306  10.842  68.965  1.00  0.00    -0.281 C  
HETATM   18  O   UNL     1     -12.480  11.203  68.819  1.00  0.00    -0.468 OA 
HETATM   19  C   UNL     1     -10.091  11.667  68.486  1.00  0.00    -0.210 C  
HETATM   20  C   UNL     1      -9.414  10.998  67.257  1.00  0.00    -0.179 C  
HETATM   21  C   UNL     1      -9.909  11.861  66.056  1.00  0.00    -0.258 C  
HETATM   22  C   UNL     1      -7.806  10.727  67.157  1.00  0.00    -0.124 C  
HETATM   23  H   UNL     1      -7.387  10.888  69.079  1.00  0.00     0.000 HD 
HETATM   24  O   UNL     1      -7.316  10.196  68.432  1.00  0.00    -0.078 OA 
ENDROOT
BRANCH  22  25
HETATM   25  C   UNL     1      -6.815  11.900  67.153  1.00  0.00    -0.144 C  
HETATM   26  O   UNL     1      -5.782  11.865  66.489  1.00  0.00    -0.265 OA 
BRANCH  25  27
HETATM   27  C   UNL     1      -7.053  12.984  68.250  1.00  0.00    -0.103 C  
HETATM   28  O   UNL     1      -6.796  12.628  69.585  1.00  0.00    -0.333 OA 
HETATM   29  H   UNL     1      -6.941  13.288  70.253  1.00  0.00     0.000 HD 
ENDBRANCH  25  27
ENDBRANCH  22  25
TORSDOF 2
ENDMDL
MODEL       22
REMARK 921   NORMALIZED FREE ENERGY PREDICTED BY IDOCK:   -5.95 KCAL/MOL
REMARK 922        TOTAL FREE ENERGY PREDICTED BY IDOCK:   -6.90 KCAL/MOL
REMARK 923 INTER-LIGAND FREE ENERGY PREDICTED BY IDOCK:   -6.53 KCAL/MOL
REMARK 924 INTRA-LIGAND FREE ENERGY PREDICTED BY IDOCK:   -0.36 KCAL/MOL
REMARK 927      BINDING AFFINITY PREDICTED BY RF-SCORE:    0.00 PKD
ROOT
HETATM    1  C   UNL     1      -9.811  13.026  65.727  1.00  0.00    -0.217 C  
HETATM    2  C   UNL     1      -9.422  11.569  65.330  1.00  0.00    -0.220 C  
HETATM    3  C   UNL     1     -11.400  12.925  65.837  1.00  0.00    -0.348 C  
HETATM    4  C   UNL     1     -11.564  12.805  67.365  1.00  0.00    -0.415 C  
HETATM    5  C   UNL     1     -12.012  11.580  68.316  1.00  0.00    -0.239 C  
HETATM    6  C   UNL     1     -10.920  10.417  68.319  1.00  0.00    -0.321 C  
HETATM    7  C   UNL     1     -11.060   9.346  69.359  1.00  0.00    -0.098 C  
HETATM    8  C   UNL     1     -11.249   9.960  70.767  1.00  0.00    -0.427 C  
HETATM    9  C   UNL     1     -10.983   9.194  71.851  1.00  0.00    -0.372 C  
HETATM   10  C   UNL     1     -12.025   8.134  71.803  1.00  0.00    -0.305 C  
HETATM   11  O   UNL     1     -11.781   7.000  72.209  1.00  0.00    -0.275 OA 
HETATM   12  C   UNL     1     -13.362   8.512  71.180  1.00  0.00    -0.050 C  
HETATM   13  C   UNL     1     -13.596   9.779  70.691  1.00  0.00     0.137 C  
HETATM   14  C   UNL     1     -12.502  10.868  70.831  1.00  0.00    -0.507 C  
HETATM   15  C   UNL     1     -12.079  11.978  69.802  1.00  0.00    -0.317 C  
HETATM   16  C   UNL     1     -12.832  11.549  72.179  1.00  0.00    -0.067 C  
HETATM   17  C   UNL     1     -12.239  13.479  69.904  1.00  0.00    -0.292 C  
HETATM   18  O   UNL     1     -13.281  14.038  70.268  1.00  0.00    -0.015 OA 
HETATM   19  C   UNL     1     -10.984  14.239  69.421  1.00  0.00    -0.242 C  
HETATM   20  C   UNL     1     -10.787  14.073  67.888  1.00  0.00    -0.255 C  
HETATM   21  C   UNL     1     -11.286  15.432  67.310  1.00  0.00    -0.270 C  
HETATM   22  C   UNL     1      -9.366  13.635  67.210  1.00  0.00    -0.233 C  
HETATM   23  H   UNL     1      -8.516  12.887  68.826  1.00  0.00     0.000 HD 
HETATM   24  O   UNL     1      -8.770  12.540  67.979  1.00  0.00    -0.171 OA 
ENDROOT
BRANCH  22  25
HETATM   25  C   UNL     1      -8.128  14.533  67.342  1.00  0.00    -0.200 C  
HETATM   26  O   UNL     1      -8.107  15.669  66.875  1.00  0.00    -0.218 OA 
BRANCH  25  27
HETATM   27  C   UNL     1      -6.830  13.819  67.832  1.00  0.00    -0.155 C  
HETATM   28  O   UNL     1      -6.120  13.045  66.899  1.00  0.00    -0.443 OA 
HETATM   29  H   UNL     1      -5.329  12.610  67.197  1.00  0.00     0.000 HD 
ENDBRANCH  25  27
ENDBRANCH  22  25
TORSDOF 2
ENDMDL
MODEL       23
REMARK 921   NORMALIZED FREE ENERGY PREDICTED BY IDOCK:   -5.94 KCAL/MOL
REMARK 922        TOTAL FREE ENERGY PREDICTED BY IDOCK:   -6.89 KCAL/MOL
REMARK 923 INTER-LIGAND FREE ENERGY PREDICTED BY IDOCK:   -6.54 KCAL/MOL
REMARK 924 INTRA-LIGAND FREE ENERGY PREDICTED BY IDOCK:   -0.35 KCAL/MOL
REMARK 927      BINDING AFFINITY PREDICTED BY RF-SCORE:    0.00 PKD
ROOT
HETATM    1  C   UNL     1      -8.496  13.516  68.300  1.00  0.00    -0.168 C  
HETATM    2  C   UNL     1      -7.110  13.339  67.609  1.00  0.00    -0.163 C  
HETATM    3  C   UNL     1      -8.136  14.484  69.517  1.00  0.00     0.185 C  
HETATM    4  C   UNL     1      -8.606  15.836  68.944  1.00  0.00    -0.220 C  
HETATM    5  C   UNL     1      -7.799  17.141  68.441  1.00  0.00    -0.244 C  
HETATM    6  C   UNL     1      -6.973  16.837  67.110  1.00  0.00    -0.226 C  
HETATM    7  C   UNL     1      -6.402  18.010  66.374  1.00  0.00    -0.247 C  
HETATM    8  C   UNL     1      -7.476  19.102  66.147  1.00  0.00    -0.294 C  
HETATM    9  C   UNL     1      -7.274  20.020  65.174  1.00  0.00    -0.075 C  
HETATM   10  C   UNL     1      -6.100  20.797  65.653  1.00  0.00    -0.238 C  
HETATM   11  O   UNL     1      -5.294  21.268  64.853  1.00  0.00    -0.210 OA 
HETATM   12  C   UNL     1      -5.926  20.921  67.160  1.00  0.00    -0.309 C  
HETATM   13  C   UNL     1      -6.820  20.346  68.037  1.00  0.00    -0.331 C  
HETATM   14  C   UNL     1      -8.067  19.608  67.486  1.00  0.00    -0.333 C  
HETATM   15  C   UNL     1      -8.734  18.280  68.001  1.00  0.00    -0.287 C  
HETATM   16  C   UNL     1      -9.149  20.710  67.427  1.00  0.00    -0.392 C  
HETATM   17  C   UNL     1     -10.088  18.087  68.648  1.00  0.00    -0.394 C  
HETATM   18  O   UNL     1     -10.529  18.806  69.554  1.00  0.00     0.201 OA 
HETATM   19  C   UNL     1     -10.824  16.839  68.112  1.00  0.00    -0.353 C  
HETATM   20  C   UNL     1     -10.103  15.534  68.554  1.00  0.00    -0.211 C  
HETATM   21  C   UNL     1     -10.991  15.007  69.721  1.00  0.00    -0.291 C  
HETATM   22  C   UNL     1      -9.720  14.329  67.520  1.00  0.00    -0.223 C  
HETATM   23  H   UNL     1      -9.862  15.358  65.842  1.00  0.00     0.000 HD 
HETATM   24  O   UNL     1      -9.163  14.894  66.288  1.00  0.00    -0.287 OA 
ENDROOT
BRANCH  22  25
HETATM   25  C   UNL     1     -10.821  13.553  66.783  1.00  0.00    -0.282 C  
HETATM   26  O   UNL     1     -11.611  12.830  67.386  1.00  0.00    -0.315 OA 
BRANCH  25  27
HETATM   27  C   UNL     1     -10.687  13.510  65.228  1.00  0.00    -0.323 C  
HETATM   28  O   UNL     1      -9.637  12.750  64.686  1.00  0.00    -0.507 OA 
HETATM   29  H   UNL     1      -9.555  12.724  63.740  1.00  0.00     0.000 HD 
ENDBRANCH  25  27
ENDBRANCH  22  25
TORSDOF 2
ENDMDL
MODEL       24
REMARK 921   NORMALIZED FREE ENERGY PREDICTED BY IDOCK:   -5.90 KCAL/MOL
REMARK 922        TOTAL FREE ENERGY PREDICTED BY IDOCK:   -6.83 KCAL/MOL
REMARK 923 INTER-LIGAND FREE ENERGY PREDICTED BY IDOCK:   -6.51 KCAL/MOL
REMARK 924 INTRA-LIGAND FREE ENERGY PREDICTED BY IDOCK:   -0.33 KCAL/MOL
REMARK 927      BINDING AFFINITY PREDICTED BY RF-SCORE:    0.00 PKD
ROOT
HETATM    1  C   UNL     1     -11.564   7.044  71.569  1.00  0.00    -0.322 C  
HETATM    2  C   UNL     1     -12.944   7.766  71.612  1.00  0.00    -0.374 C  
HETATM    3  C   UNL     1     -11.452   6.637  70.029  1.00  0.00    -0.434 C  
HETATM    4  C   UNL     1     -10.525   7.755  69.513  1.00  0.00    -0.225 C  
HETATM    5  C   UNL     1     -10.786   9.022  68.548  1.00  0.00    -0.140 C  
HETATM    6  C   UNL     1     -11.735  10.099  69.246  1.00  0.00    -0.065 C  
HETATM    7  C   UNL     1     -11.843  11.444  68.593  1.00  0.00    -0.377 C  
HETATM    8  C   UNL     1     -10.443  12.027  68.284  1.00  0.00    -0.218 C  
HETATM    9  C   UNL     1     -10.323  13.360  68.086  1.00  0.00    -0.249 C  
HETATM   10  C   UNL     1     -11.074  13.603  66.826  1.00  0.00    -0.307 C  
HETATM   11  O   UNL     1     -11.675  14.661  66.651  1.00  0.00    -0.372 OA 
HETATM   12  C   UNL     1     -11.105  12.466  65.814  1.00  0.00    -0.351 C  
HETATM   13  C   UNL     1     -10.459  11.272  66.053  1.00  0.00    -0.310 C  
HETATM   14  C   UNL     1      -9.630  11.096  67.350  1.00  0.00    -0.183 C  
HETATM   15  C   UNL     1      -9.505   9.832  68.277  1.00  0.00    -0.148 C  
HETATM   16  C   UNL     1      -8.209  11.546  66.941  1.00  0.00    -0.167 C  
HETATM   17  C   UNL     1      -8.301   8.950  68.524  1.00  0.00    -0.125 C  
HETATM   18  O   UNL     1      -7.568   8.518  67.626  1.00  0.00    -0.095 OA 
HETATM   19  C   UNL     1      -8.139   8.578  70.014  1.00  0.00    -0.111 C  
HETATM   20  C   UNL     1      -9.286   7.639  70.482  1.00  0.00    -0.163 C  
HETATM   21  C   UNL     1      -8.612   6.234  70.518  1.00  0.00    -0.139 C  
HETATM   22  C   UNL     1     -10.164   7.902  71.835  1.00  0.00    -0.202 C  
HETATM   23  H   UNL     1      -9.722   9.810  72.075  1.00  0.00     0.000 HD 
HETATM   24  O   UNL     1     -10.522   9.320  71.923  1.00  0.00    -0.305 OA 
ENDROOT
BRANCH  22  25
HETATM   25  C   UNL     1      -9.492   7.885  73.216  1.00  0.00    -0.285 C  
HETATM   26  O   UNL     1      -8.482   8.544  73.447  1.00  0.00    -0.367 OA 
BRANCH  25  27
HETATM   27  C   UNL     1      -9.991   6.773  74.191  1.00  0.00    -0.342 C  
HETATM   28  O   UNL     1      -9.429   5.492  74.060  1.00  0.00    -0.132 OA 
HETATM   29  H   UNL     1      -9.732   4.815  74.654  1.00  0.00     0.000 HD 
ENDBRANCH  25  27
ENDBRANCH  22  25
TORSDOF 2
ENDMDL
MODEL       25
REMARK 921   NORMALIZED FREE ENERGY PREDICTED BY IDOCK:   -5.86 KCAL/MOL
REMARK 922        TOTAL FREE ENERGY PREDICTED BY IDOCK:   -6.79 KCAL/MOL
REMARK 923 INTER-LIGAND FREE ENERGY PREDICTED BY IDOCK:   -6.48 KCAL/MOL
REMARK 924 INTRA-LIGAND FREE ENERGY PREDICTED BY IDOCK:   -0.30 KCAL/MOL
REMARK 927      BINDING AFFINITY PREDICTED BY RF-SCORE:    0.00 PKD
ROOT
HETATM    1  C   UNL     1     -11.201  14.311  65.767  1.00  0.00    -0.317 C  
HETATM    2  C   UNL     1     -10.688  13.873  64.361  1.00  0.00    -0.286 C  
HETATM    3  C   UNL     1     -12.398  13.285  66.015  1.00  0.00    -0.449 C  
HETATM    4  C   UNL     1     -11.703  12.266  66.939  1.00  0.00    -0.404 C  
HETATM    5  C   UNL     1     -11.229  10.740  66.710  1.00  0.00    -0.053 C  
HETATM    6  C   UNL     1     -10.022  10.656  65.670  1.00  0.00    -0.327 C  
HETATM    7  C   UNL     1      -9.296   9.349  65.565  1.00  0.00    -0.315 C  
HETATM    8  C   UNL     1      -8.887   8.826  66.964  1.00  0.00    -0.139 C  
HETATM    9  C   UNL     1      -7.896   7.908  67.050  1.00  0.00    -0.108 C  
HETATM   10  C   UNL     1      -8.467   6.702  66.393  1.00  0.00    -0.125 C  
HETATM   11  O   UNL     1      -7.743   5.929  65.770  1.00  0.00    -0.091 OA 
HETATM   12  C   UNL     1      -9.975   6.519  66.485  1.00  0.00    -0.154 C  
HETATM   13  C   UNL     1     -10.771   7.425  67.152  1.00  0.00    -0.400 C  
HETATM   14  C   UNL     1     -10.118   8.626  67.881  1.00  0.00    -0.254 C  
HETATM   15  C   UNL     1     -10.621  10.113  67.978  1.00  0.00    -0.273 C  
HETATM   16  C   UNL     1      -9.874   8.097  69.313  1.00  0.00    -0.182 C  
HETATM   17  C   UNL     1     -11.115  10.872  69.189  1.00  0.00    -0.245 C  
HETATM   18  O   UNL     1     -11.923  10.415  70.008  1.00  0.00    -0.268 OA 
HETATM   19  C   UNL     1     -10.565  12.314  69.246  1.00  0.00     0.064 C  
HETATM   20  C   UNL     1     -11.157  13.182  68.100  1.00  0.00    -0.284 C  
HETATM   21  C   UNL     1     -12.239  14.042  68.820  1.00  0.00    -0.237 C  
HETATM   22  C   UNL     1     -10.241  14.103  67.109  1.00  0.00    -0.258 C  
HETATM   23  H   UNL     1      -8.505  13.232  67.460  1.00  0.00     0.000 HD 
HETATM   24  O   UNL     1      -9.054  13.351  66.694  1.00  0.00    -0.234 OA 
ENDROOT
BRANCH  22  25
HETATM   25  C   UNL     1      -9.422  15.275  67.668  1.00  0.00    -0.205 C  
HETATM   26  O   UNL     1      -8.858  15.203  68.757  1.00  0.00    -0.176 OA 
BRANCH  25  27
HETATM   27  C   UNL     1      -9.598  16.634  66.920  1.00  0.00    -0.249 C  
HETATM   28  O   UNL     1      -8.666  16.950  65.917  1.00  0.00    -0.516 OA 
HETATM   29  H   UNL     1      -8.772  17.778  65.462  1.00  0.00     0.000 HD 
ENDBRANCH  25  27
ENDBRANCH  22  25
TORSDOF 2
ENDMDL
MODEL       26
REMARK 921   NORMALIZED FREE ENERGY PREDICTED BY IDOCK:   -5.85 KCAL/MOL
REMARK 922        TOTAL FREE ENERGY PREDICTED BY IDOCK:   -6.78 KCAL/MOL
REMARK 923 INTER-LIGAND FREE ENERGY PREDICTED BY IDOCK:   -6.39 KCAL/MOL
REMARK 924 INTRA-LIGAND FREE ENERGY PREDICTED BY IDOCK:   -0.39 KCAL/MOL
REMARK 927      BINDING AFFINITY PREDICTED BY RF-SCORE:    0.00 PKD
ROOT
HETATM    1  C   UNL     1     -10.592   7.218  71.598  1.00  0.00    -0.228 C  
HETATM    2  C   UNL     1     -11.624   8.098  72.367  1.00  0.00    -0.463 C  
HETATM    3  C   UNL     1     -11.310   7.028  70.185  1.00  0.00    -0.321 C  
HETATM    4  C   UNL     1     -10.556   8.079  69.348  1.00  0.00    -0.210 C  
HETATM    5  C   UNL     1     -11.010   9.497  68.721  1.00  0.00    -0.116 C  
HETATM    6  C   UNL     1     -11.292  10.574  69.864  1.00  0.00    -0.380 C  
HETATM    7  C   UNL     1     -11.452  12.002  69.437  1.00  0.00    -0.361 C  
HETATM    8  C   UNL     1     -10.291  12.438  68.511  1.00  0.00    -0.232 C  
HETATM    9  C   UNL     1     -10.039  13.760  68.363  1.00  0.00    -0.241 C  
HETATM   10  C   UNL     1     -11.243  14.277  67.661  1.00  0.00    -0.304 C  
HETATM   11  O   UNL     1     -11.649  15.418  67.874  1.00  0.00    -0.332 OA 
HETATM   12  C   UNL     1     -11.963  13.313  66.729  1.00  0.00    -0.438 C  
HETATM   13  C   UNL     1     -11.514  12.023  66.541  1.00  0.00    -0.413 C  
HETATM   14  C   UNL     1     -10.213  11.556  67.240  1.00  0.00    -0.229 C  
HETATM   15  C   UNL     1      -9.893  10.166  67.901  1.00  0.00    -0.176 C  
HETATM   16  C   UNL     1      -9.107  11.874  66.207  1.00  0.00    -0.188 C  
HETATM   17  C   UNL     1      -8.904   9.109  67.461  1.00  0.00    -0.119 C  
HETATM   18  O   UNL     1      -8.784   8.721  66.292  1.00  0.00    -0.132 OA 
HETATM   19  C   UNL     1      -8.118   8.508  68.646  1.00  0.00    -0.121 C  
HETATM   20  C   UNL     1      -9.050   7.666  69.563  1.00  0.00    -0.146 C  
HETATM   21  C   UNL     1      -8.712   6.196  69.170  1.00  0.00    -0.121 C  
HETATM   22  C   UNL     1      -9.106   7.841  71.186  1.00  0.00    -0.142 C  
HETATM   23  H   UNL     1      -8.261   9.621  71.294  1.00  0.00     0.000 HD 
HETATM   24  O   UNL     1      -9.110   9.265  71.529  1.00  0.00    -0.315 OA 
ENDROOT
BRANCH  22  25
HETATM   25  C   UNL     1      -7.871   7.537  72.046  1.00  0.00    -0.090 C  
HETATM   26  O   UNL     1      -6.755   7.413  71.547  1.00  0.00    -0.049 OA 
BRANCH  25  27
HETATM   27  C   UNL     1      -8.165   7.112  73.519  1.00  0.00    -0.114 C  
HETATM   28  O   UNL     1      -8.620   8.105  74.404  1.00  0.00    -0.407 OA 
HETATM   29  H   UNL     1      -8.799   7.846  75.301  1.00  0.00     0.000 HD 
ENDBRANCH  25  27
ENDBRANCH  22  25
TORSDOF 2
ENDMDL
MODEL       27
REMARK 921   NORMALIZED FREE ENERGY PREDICTED BY IDOCK:   -5.63 KCAL/MOL
REMARK 922        TOTAL FREE ENERGY PREDICTED BY IDOCK:   -6.54 KCAL/MOL
REMARK 923 INTER-LIGAND FREE ENERGY PREDICTED BY IDOCK:   -6.09 KCAL/MOL
REMARK 924 INTRA-LIGAND FREE ENERGY PREDICTED BY IDOCK:   -0.46 KCAL/MOL
REMARK 927      BINDING AFFINITY PREDICTED BY RF-SCORE:    0.00 PKD
ROOT
HETATM    1  C   UNL     1      -6.658   9.627  68.047  1.00  0.00    -0.061 C  
HETATM    2  C   UNL     1      -5.542  10.699  67.862  1.00  0.00    -0.043 C  
HETATM    3  C   UNL     1      -7.474  10.214  69.287  1.00  0.00    -0.111 C  
HETATM    4  C   UNL     1      -8.664  10.863  68.554  1.00  0.00    -0.153 C  
HETATM    5  C   UNL     1      -9.079  12.404  68.311  1.00  0.00    -0.183 C  
HETATM    6  C   UNL     1      -8.048  13.138  67.339  1.00  0.00    -0.181 C  
HETATM    7  C   UNL     1      -8.446  14.479  66.802  1.00  0.00    -0.108 C  
HETATM    8  C   UNL     1      -9.872  14.437  66.201  1.00  0.00    -0.340 C  
HETATM    9  C   UNL     1     -10.237  15.401  65.325  1.00  0.00    -0.390 C  
HETATM   10  C   UNL     1     -10.254  16.642  66.145  1.00  0.00    -0.348 C  
HETATM   11  O   UNL     1      -9.956  17.725  65.645  1.00  0.00    -0.548 OA 
HETATM   12  C   UNL     1     -10.596  16.486  67.620  1.00  0.00    -0.321 C  
HETATM   13  C   UNL     1     -10.883  15.254  68.166  1.00  0.00    -0.273 C  
HETATM   14  C   UNL     1     -10.922  14.002  67.253  1.00  0.00    -0.303 C  
HETATM   15  C   UNL     1     -10.411  12.546  67.553  1.00  0.00    -0.225 C  
HETATM   16  C   UNL     1     -12.400  13.921  66.807  1.00  0.00    -0.370 C  
HETATM   17  C   UNL     1     -11.211  11.273  67.719  1.00  0.00    -0.291 C  
HETATM   18  O   UNL     1     -12.237  11.188  68.407  1.00  0.00    -0.610 OA 
HETATM   19  C   UNL     1     -10.559  10.070  67.005  1.00  0.00    -0.279 C  
HETATM   20  C   UNL     1      -9.227   9.666  67.696  1.00  0.00    -0.144 C  
HETATM   21  C   UNL     1      -9.615   8.398  68.517  1.00  0.00    -0.155 C  
HETATM   22  C   UNL     1      -7.829   9.431  66.883  1.00  0.00    -0.105 C  
HETATM   23  H   UNL     1      -8.321  10.382  65.225  1.00  0.00     0.000 HD 
HETATM   24  O   UNL     1      -7.652  10.494  65.890  1.00  0.00    -0.141 OA 
ENDROOT
BRANCH  22  25
HETATM   25  C   UNL     1      -7.711   8.307  65.844  1.00  0.00    -0.087 C  
HETATM   26  O   UNL     1      -7.069   7.284  66.074  1.00  0.00    -0.063 OA 
BRANCH  25  27
HETATM   27  C   UNL     1      -8.197   8.668  64.405  1.00  0.00    -0.162 C  
HETATM   28  O   UNL     1      -7.246   9.179  63.506  1.00  0.00    -0.092 OA 
HETATM   29  H   UNL     1      -7.542   9.400  62.630  1.00  0.00     0.000 HD 
ENDBRANCH  25  27
ENDBRANCH  22  25
TORSDOF 2
ENDMDL
MODEL       28
REMARK 921   NORMALIZED FREE ENERGY PREDICTED BY IDOCK:   -5.57 KCAL/MOL
REMARK 922        TOTAL FREE ENERGY PREDICTED BY IDOCK:   -6.47 KCAL/MOL
REMARK 923 INTER-LIGAND FREE ENERGY PREDICTED BY IDOCK:   -6.02 KCAL/MOL
REMARK 924 INTRA-LIGAND FREE ENERGY PREDICTED BY IDOCK:   -0.45 KCAL/MOL
REMARK 927      BINDING AFFINITY PREDICTED BY RF-SCORE:    0.00 PKD
ROOT
HETATM    1  C   UNL     1     -11.447   7.319  72.207  1.00  0.00    -0.316 C  
HETATM    2  C   UNL     1     -12.364   8.559  72.433  1.00  0.00    -0.424 C  
HETATM    3  C   UNL     1     -11.888   6.846  70.747  1.00  0.00    -0.427 C  
HETATM    4  C   UNL     1     -10.745   7.445  69.905  1.00  0.00    -0.254 C  
HETATM    5  C   UNL     1     -10.699   8.666  68.850  1.00  0.00    -0.109 C  
HETATM    6  C   UNL     1     -10.933  10.069  69.574  1.00  0.00    -0.289 C  
HETATM    7  C   UNL     1     -10.646  11.307  68.780  1.00  0.00    -0.234 C  
HETATM    8  C   UNL     1      -9.251  11.230  68.114  1.00  0.00    -0.170 C  
HETATM    9  C   UNL     1      -8.656  12.379  67.715  1.00  0.00    -0.172 C  
HETATM   10  C   UNL     1      -9.528  12.869  66.615  1.00  0.00    -0.255 C  
HETATM   11  O   UNL     1      -9.674  14.075  66.424  1.00  0.00    -0.279 OA 
HETATM   12  C   UNL     1     -10.259  11.815  65.796  1.00  0.00    -0.276 C  
HETATM   13  C   UNL     1     -10.113  10.470  66.058  1.00  0.00    -0.317 C  
HETATM   14  C   UNL     1      -9.136  10.009  67.169  1.00  0.00    -0.154 C  
HETATM   15  C   UNL     1      -9.309   8.847  68.214  1.00  0.00    -0.149 C  
HETATM   16  C   UNL     1      -7.801   9.798  66.419  1.00  0.00    -0.106 C  
HETATM   17  C   UNL     1      -8.543   7.547  68.326  1.00  0.00    -0.124 C  
HETATM   18  O   UNL     1      -8.288   6.812  67.364  1.00  0.00    -0.120 OA 
HETATM   19  C   UNL     1      -8.187   7.198  69.788  1.00  0.00    -0.131 C  
HETATM   20  C   UNL     1      -9.463   6.852  70.605  1.00  0.00    -0.165 C  
HETATM   21  C   UNL     1      -9.425   5.296  70.693  1.00  0.00    -0.222 C  
HETATM   22  C   UNL     1      -9.802   7.512  72.061  1.00  0.00    -0.163 C  
HETATM   23  H   UNL     1      -8.585   9.061  71.943  1.00  0.00     0.000 HD 
HETATM   24  O   UNL     1      -9.525   8.951  72.026  1.00  0.00    -0.295 OA 
ENDROOT
BRANCH  22  25
HETATM   25  C   UNL     1      -8.880   7.264  73.264  1.00  0.00    -0.146 C  
HETATM   26  O   UNL     1      -9.241   6.580  74.219  1.00  0.00    -0.161 OA 
BRANCH  25  27
HETATM   27  C   UNL     1      -7.603   8.159  73.327  1.00  0.00    -0.146 C  
HETATM   28  O   UNL     1      -7.505   9.081  74.383  1.00  0.00    -0.412 OA 
HETATM   29  H   UNL     1      -6.728   9.626  74.421  1.00  0.00     0.000 HD 
ENDBRANCH  25  27
ENDBRANCH  22  25
TORSDOF 2
ENDMDL
MODEL       29
REMARK 921   NORMALIZED FREE ENERGY PREDICTED BY IDOCK:   -5.52 KCAL/MOL
REMARK 922        TOTAL FREE ENERGY PREDICTED BY IDOCK:   -6.42 KCAL/MOL
REMARK 923 INTER-LIGAND FREE ENERGY PREDICTED BY IDOCK:   -5.95 KCAL/MOL
REMARK 924 INTRA-LIGAND FREE ENERGY PREDICTED BY IDOCK:   -0.46 KCAL/MOL
REMARK 927      BINDING AFFINITY PREDICTED BY RF-SCORE:    0.00 PKD
ROOT
HETATM    1  C   UNL     1      -9.558   5.134  70.603  1.00  0.00    -0.242 C  
HETATM    2  C   UNL     1      -9.860   4.362  69.283  1.00  0.00    -0.218 C  
HETATM    3  C   UNL     1      -8.059   5.626  70.361  1.00  0.00    -0.105 C  
HETATM    4  C   UNL     1      -8.312   7.087  69.941  1.00  0.00    -0.139 C  
HETATM    5  C   UNL     1      -8.164   7.851  68.526  1.00  0.00    -0.127 C  
HETATM    6  C   UNL     1      -9.244   7.335  67.471  1.00  0.00    -0.138 C  
HETATM    7  C   UNL     1      -9.412   8.135  66.214  1.00  0.00    -0.259 C  
HETATM    8  C   UNL     1      -9.592   9.639  66.532  1.00  0.00    -0.252 C  
HETATM    9  C   UNL     1     -10.156  10.438  65.597  1.00  0.00    -0.337 C  
HETATM   10  C   UNL     1      -9.164  10.445  64.489  1.00  0.00    -0.246 C  
HETATM   11  O   UNL     1      -9.534  10.534  63.320  1.00  0.00    -0.270 OA 
HETATM   12  C   UNL     1      -7.701  10.278  64.874  1.00  0.00    -0.124 C  
HETATM   13  C   UNL     1      -7.315  10.135  66.190  1.00  0.00    -0.115 C  
HETATM   14  C   UNL     1      -8.381  10.207  67.312  1.00  0.00    -0.121 C  
HETATM   15  C   UNL     1      -8.488   9.352  68.628  1.00  0.00    -0.119 C  
HETATM   16  C   UNL     1      -8.408  11.704  67.697  1.00  0.00    -0.142 C  
HETATM   17  C   UNL     1      -8.326   9.796  70.065  1.00  0.00    -0.192 C  
HETATM   18  O   UNL     1      -7.407  10.522  70.463  1.00  0.00    -0.168 OA 
HETATM   19  C   UNL     1      -9.388   9.173  70.997  1.00  0.00    -0.333 C  
HETATM   20  C   UNL     1      -9.172   7.640  71.141  1.00  0.00    -0.153 C  
HETATM   21  C   UNL     1      -8.505   7.499  72.543  1.00  0.00    -0.146 C  
HETATM   22  C   UNL     1     -10.368   6.544  70.950  1.00  0.00    -0.207 C  
HETATM   23  H   UNL     1     -11.637   7.699  69.976  1.00  0.00     0.000 HD 
HETATM   24  O   UNL     1     -11.174   6.893  69.778  1.00  0.00    -0.283 OA 
ENDROOT
BRANCH  22  25
HETATM   25  C   UNL     1     -11.576   6.533  71.899  1.00  0.00    -0.312 C  
HETATM   26  O   UNL     1     -11.807   5.576  72.634  1.00  0.00    -0.274 OA 
BRANCH  25  27
HETATM   27  C   UNL     1     -12.629   7.660  71.659  1.00  0.00    -0.339 C  
HETATM   28  O   UNL     1     -13.799   7.319  70.961  1.00  0.00    -0.592 OA 
HETATM   29  H   UNL     1     -14.440   8.005  70.814  1.00  0.00     0.000 HD 
ENDBRANCH  25  27
ENDBRANCH  22  25
TORSDOF 2
ENDMDL
MODEL       30
REMARK 921   NORMALIZED FREE ENERGY PREDICTED BY IDOCK:   -5.48 KCAL/MOL
REMARK 922        TOTAL FREE ENERGY PREDICTED BY IDOCK:   -6.37 KCAL/MOL
REMARK 923 INTER-LIGAND FREE ENERGY PREDICTED BY IDOCK:   -6.13 KCAL/MOL
REMARK 924 INTRA-LIGAND FREE ENERGY PREDICTED BY IDOCK:   -0.24 KCAL/MOL
REMARK 927      BINDING AFFINITY PREDICTED BY RF-SCORE:    0.00 PKD
ROOT
HETATM    1  C   UNL     1     -11.114   7.355  71.164  1.00  0.00    -0.271 C  
HETATM    2  C   UNL     1     -12.310   8.348  71.276  1.00  0.00    -0.289 C  
HETATM    3  C   UNL     1     -11.347   6.720  69.718  1.00  0.00    -0.350 C  
HETATM    4  C   UNL     1     -10.333   7.535  68.892  1.00  0.00    -0.220 C  
HETATM    5  C   UNL     1     -10.518   8.679  67.769  1.00  0.00    -0.287 C  
HETATM    6  C   UNL     1     -11.119  10.018  68.396  1.00  0.00    -0.236 C  
HETATM    7  C   UNL     1     -11.089  11.250  67.542  1.00  0.00    -0.346 C  
HETATM    8  C   UNL     1      -9.680  11.477  66.943  1.00  0.00    -0.205 C  
HETATM    9  C   UNL     1      -9.353  12.715  66.502  1.00  0.00    -0.228 C  
HETATM   10  C   UNL     1     -10.253  12.928  65.338  1.00  0.00    -0.287 C  
HETATM   11  O   UNL     1     -10.670  14.053  65.069  1.00  0.00    -0.347 OA 
HETATM   12  C   UNL     1     -10.666  11.691  64.552  1.00  0.00    -0.378 C  
HETATM   13  C   UNL     1     -10.219  10.435  64.901  1.00  0.00    -0.330 C  
HETATM   14  C   UNL     1      -9.226  10.275  66.079  1.00  0.00    -0.200 C  
HETATM   15  C   UNL     1      -9.177   9.157  67.184  1.00  0.00    -0.162 C  
HETATM   16  C   UNL     1      -7.838  10.356  65.402  1.00  0.00    -0.143 C  
HETATM   17  C   UNL     1      -8.132   8.087  67.407  1.00  0.00    -0.122 C  
HETATM   18  O   UNL     1      -7.656   7.388  66.503  1.00  0.00    -0.089 OA 
HETATM   19  C   UNL     1      -7.787   7.904  68.901  1.00  0.00    -0.117 C  
HETATM   20  C   UNL     1      -8.988   7.301  69.682  1.00  0.00    -0.141 C  
HETATM   21  C   UNL     1      -8.588   5.806  69.865  1.00  0.00    -0.127 C  
HETATM   22  C   UNL     1      -9.556   7.930  71.079  1.00  0.00    -0.159 C  
HETATM   23  H   UNL     1      -8.736   9.718  70.921  1.00  0.00     0.000 HD 
HETATM   24  O   UNL     1      -9.627   9.389  70.970  1.00  0.00    -0.268 OA 
ENDROOT
BRANCH  22  25
HETATM   25  C   UNL     1      -8.671   7.968  72.333  1.00  0.00    -0.167 C  
HETATM   26  O   UNL     1      -9.158   8.002  73.461  1.00  0.00    -0.269 OA 
BRANCH  25  27
HETATM   27  C   UNL     1      -7.158   8.256  72.080  1.00  0.00    -0.089 C  
HETATM   28  O   UNL     1      -6.777   9.591  71.861  1.00  0.00    -0.298 OA 
HETATM   29  H   UNL     1      -5.856   9.766  71.706  1.00  0.00     0.000 HD 
ENDBRANCH  25  27
ENDBRANCH  22  25
TORSDOF 2
ENDMDL
MODEL       31
REMARK 921   NORMALIZED FREE ENERGY PREDICTED BY IDOCK:   -5.48 KCAL/MOL
REMARK 922        TOTAL FREE ENERGY PREDICTED BY IDOCK:   -6.37 KCAL/MOL
REMARK 923 INTER-LIGAND FREE ENERGY PREDICTED BY IDOCK:   -6.23 KCAL/MOL
REMARK 924 INTRA-LIGAND FREE ENERGY PREDICTED BY IDOCK:   -0.14 KCAL/MOL
REMARK 927      BINDING AFFINITY PREDICTED BY RF-SCORE:    0.00 PKD
ROOT
HETATM    1  C   UNL     1      -9.320  15.861  66.841  1.00  0.00    -0.244 C  
HETATM    2  C   UNL     1      -7.767  15.994  66.839  1.00  0.00    -0.279 C  
HETATM    3  C   UNL     1      -9.548  14.645  65.832  1.00  0.00    -0.303 C  
HETATM    4  C   UNL     1      -9.767  13.493  66.832  1.00  0.00    -0.261 C  
HETATM    5  C   UNL     1      -8.863  12.217  67.234  1.00  0.00    -0.186 C  
HETATM    6  C   UNL     1      -7.536  12.662  68.001  1.00  0.00    -0.132 C  
HETATM    7  C   UNL     1      -6.740  11.587  68.676  1.00  0.00    -0.072 C  
HETATM    8  C   UNL     1      -7.645  10.697  69.562  1.00  0.00    -0.128 C  
HETATM    9  C   UNL     1      -7.073   9.960  70.543  1.00  0.00    -0.110 C  
HETATM   10  C   UNL     1      -6.243   8.969  69.807  1.00  0.00    -0.038 C  
HETATM   11  O   UNL     1      -5.187   8.562  70.286  1.00  0.00    -0.022 OA 
HETATM   12  C   UNL     1      -6.738   8.544  68.432  1.00  0.00    -0.064 C  
HETATM   13  C   UNL     1      -7.904   9.049  67.898  1.00  0.00    -0.101 C  
HETATM   14  C   UNL     1      -8.769  10.024  68.736  1.00  0.00    -0.136 C  
HETATM   15  C   UNL     1      -9.552  11.303  68.262  1.00  0.00    -0.193 C  
HETATM   16  C   UNL     1      -9.754   9.094  69.480  1.00  0.00    -0.176 C  
HETATM   17  C   UNL     1     -11.046  11.536  68.206  1.00  0.00    -0.239 C  
HETATM   18  O   UNL     1     -11.855  10.719  67.748  1.00  0.00    -0.538 OA 
HETATM   19  C   UNL     1     -11.442  12.942  68.706  1.00  0.00    -0.345 C  
HETATM   20  C   UNL     1     -10.941  14.043  67.729  1.00  0.00    -0.271 C  
HETATM   21  C   UNL     1     -12.229  14.446  66.947  1.00  0.00    -0.300 C  
HETATM   22  C   UNL     1     -10.114  15.365  68.216  1.00  0.00    -0.218 C  
HETATM   23  H   UNL     1      -9.554  14.695  69.985  1.00  0.00     0.000 HD 
HETATM   24  O   UNL     1      -9.100  14.978  69.200  1.00  0.00    -0.202 OA 
ENDROOT
BRANCH  22  25
HETATM   25  C   UNL     1     -10.768  16.394  69.149  1.00  0.00    -0.317 C  
HETATM   26  O   UNL     1     -10.496  17.590  69.078  1.00  0.00    -0.350 OA 
BRANCH  25  27
HETATM   27  C   UNL     1     -11.554  15.799  70.360  1.00  0.00    -0.360 C  
HETATM   28  O   UNL     1     -12.957  15.786  70.283  1.00  0.00    -0.641 OA 
HETATM   29  H   UNL     1     -13.435  15.424  71.020  1.00  0.00     0.000 HD 
ENDBRANCH  25  27
ENDBRANCH  22  25
TORSDOF 2
ENDMDL
MODEL       32
REMARK 921   NORMALIZED FREE ENERGY PREDICTED BY IDOCK:   -5.43 KCAL/MOL
REMARK 922        TOTAL FREE ENERGY PREDICTED BY IDOCK:   -6.31 KCAL/MOL
REMARK 923 INTER-LIGAND FREE ENERGY PREDICTED BY IDOCK:   -5.79 KCAL/MOL
REMARK 924 INTRA-LIGAND FREE ENERGY PREDICTED BY IDOCK:   -0.52 KCAL/MOL
REMARK 927      BINDING AFFINITY PREDICTED BY RF-SCORE:    0.00 PKD
ROOT
HETATM    1  C   UNL     1      -9.914   6.546  68.630  1.00  0.00    -0.155 C  
HETATM    2  C   UNL     1     -10.685   7.054  69.886  1.00  0.00    -0.265 C  
HETATM    3  C   UNL     1     -10.973   6.807  67.465  1.00  0.00    -0.375 C  
HETATM    4  C   UNL     1     -10.421   8.121  66.878  1.00  0.00    -0.379 C  
HETATM    5  C   UNL     1     -10.969   9.639  66.909  1.00  0.00     0.028 C  
HETATM    6  C   UNL     1     -10.914  10.247  68.383  1.00  0.00    -0.308 C  
HETATM    7  C   UNL     1     -11.126  11.724  68.525  1.00  0.00    -0.288 C  
HETATM    8  C   UNL     1     -10.225  12.512  67.544  1.00  0.00    -0.219 C  
HETATM    9  C   UNL     1      -9.972  13.817  67.799  1.00  0.00    -0.242 C  
HETATM   10  C   UNL     1     -11.297  14.475  67.642  1.00  0.00    -0.337 C  
HETATM   11  O   UNL     1     -11.595  15.451  68.327  1.00  0.00    -0.351 OA 
HETATM   12  C   UNL     1     -12.264  13.845  66.649  1.00  0.00    -0.465 C  
HETATM   13  C   UNL     1     -11.923  12.724  65.924  1.00  0.00    -0.506 C  
HETATM   14  C   UNL     1     -10.503  12.120  66.072  1.00  0.00    -0.281 C  
HETATM   15  C   UNL     1     -10.075  10.607  66.115  1.00  0.00    -0.306 C  
HETATM   16  C   UNL     1      -9.686  12.830  64.968  1.00  0.00     0.034 C  
HETATM   17  C   UNL     1      -9.267   9.820  65.107  1.00  0.00    -0.240 C  
HETATM   18  O   UNL     1      -9.462   9.858  63.886  1.00  0.00    -0.273 OA 
HETATM   19  C   UNL     1      -8.228   8.896  65.778  1.00  0.00    -0.116 C  
HETATM   20  C   UNL     1      -8.925   7.743  66.554  1.00  0.00    -0.191 C  
HETATM   21  C   UNL     1      -8.749   6.514  65.611  1.00  0.00    -0.102 C  
HETATM   22  C   UNL     1      -8.560   7.353  68.098  1.00  0.00    -0.123 C  
HETATM   23  H   UNL     1      -7.654   9.034  68.593  1.00  0.00     0.000 HD 
HETATM   24  O   UNL     1      -8.428   8.574  68.897  1.00  0.00    -0.121 OA 
ENDROOT
BRANCH  22  25
HETATM   25  C   UNL     1      -7.158   6.844  68.464  1.00  0.00    -0.082 C  
HETATM   26  O   UNL     1      -6.890   5.645  68.462  1.00  0.00    -0.055 OA 
BRANCH  25  27
HETATM   27  C   UNL     1      -6.208   7.900  69.110  1.00  0.00    -0.035 C  
HETATM   28  O   UNL     1      -5.646   8.874  68.266  1.00  0.00    -0.038 OA 
HETATM   29  H   UNL     1      -5.067   9.516  68.659  1.00  0.00     0.000 HD 
ENDBRANCH  25  27
ENDBRANCH  22  25
TORSDOF 2
ENDMDL
MODEL       33
REMARK 921   NORMALIZED FREE ENERGY PREDICTED BY IDOCK:   -5.40 KCAL/MOL
REMARK 922        TOTAL FREE ENERGY PREDICTED BY IDOCK:   -6.28 KCAL/MOL
REMARK 923 INTER-LIGAND FREE ENERGY PREDICTED BY IDOCK:   -5.87 KCAL/MOL
REMARK 924 INTRA-LIGAND FREE ENERGY PREDICTED BY IDOCK:   -0.41 KCAL/MOL
REMARK 927      BINDING AFFINITY PREDICTED BY RF-SCORE:    0.00 PKD
ROOT
HETATM    1  C   UNL     1      -7.219  10.720  67.319  1.00  0.00    -0.096 C  
HETATM    2  C   UNL     1      -6.079  11.580  66.695  1.00  0.00    -0.126 C  
HETATM    3  C   UNL     1      -7.352  11.355  68.777  1.00  0.00    -0.114 C  
HETATM    4  C   UNL     1      -8.582  12.261  68.574  1.00  0.00    -0.068 C  
HETATM    5  C   UNL     1      -8.749  13.866  68.505  1.00  0.00    -0.134 C  
HETATM    6  C   UNL     1      -8.061  14.466  67.196  1.00  0.00    -0.171 C  
HETATM    7  C   UNL     1      -8.368  15.892  66.852  1.00  0.00    -0.281 C  
HETATM    8  C   UNL     1      -9.893  16.153  66.870  1.00  0.00    -0.247 C  
HETATM    9  C   UNL     1     -10.377  17.227  66.204  1.00  0.00    -0.320 C  
HETATM   10  C   UNL     1      -9.828  18.389  66.953  1.00  0.00    -0.338 C  
HETATM   11  O   UNL     1      -9.545  19.432  66.368  1.00  0.00    -0.341 OA 
HETATM   12  C   UNL     1      -9.586  18.194  68.443  1.00  0.00    -0.345 C  
HETATM   13  C   UNL     1      -9.871  16.999  69.068  1.00  0.00    -0.240 C  
HETATM   14  C   UNL     1     -10.509  15.844  68.257  1.00  0.00    -0.257 C  
HETATM   15  C   UNL     1     -10.216  14.301  68.339  1.00  0.00    -0.245 C  
HETATM   16  C   UNL     1     -12.029  16.064  68.437  1.00  0.00     0.101 C  
HETATM   17  C   UNL     1     -11.119  13.187  68.821  1.00  0.00    -0.269 C  
HETATM   18  O   UNL     1     -11.788  13.241  69.860  1.00  0.00    -0.312 OA 
HETATM   19  C   UNL     1     -11.048  11.938  67.915  1.00  0.00    -0.297 C  
HETATM   20  C   UNL     1      -9.658  11.250  68.021  1.00  0.00    -0.182 C  
HETATM   21  C   UNL     1      -9.932  10.020  68.938  1.00  0.00    -0.198 C  
HETATM   22  C   UNL     1      -8.767  10.823  66.720  1.00  0.00    -0.143 C  
HETATM   23  H   UNL     1      -9.674  11.962  65.388  1.00  0.00     0.000 HD 
HETATM   24  O   UNL     1      -8.790  11.903  65.731  1.00  0.00    -0.045 OA 
ENDROOT
BRANCH  22  25
HETATM   25  C   UNL     1      -9.289   9.772  65.728  1.00  0.00    -0.221 C  
HETATM   26  O   UNL     1      -9.284   8.574  66.001  1.00  0.00    -0.195 OA 
BRANCH  25  27
HETATM   27  C   UNL     1      -9.539  10.286  64.276  1.00  0.00    -0.313 C  
HETATM   28  O   UNL     1     -10.793  10.853  63.993  1.00  0.00    -0.473 OA 
HETATM   29  H   UNL     1     -10.945  11.165  63.108  1.00  0.00     0.000 HD 
ENDBRANCH  25  27
ENDBRANCH  22  25
TORSDOF 2
ENDMDL
MODEL       34
REMARK 921   NORMALIZED FREE ENERGY PREDICTED BY IDOCK:   -5.38 KCAL/MOL
REMARK 922        TOTAL FREE ENERGY PREDICTED BY IDOCK:   -6.25 KCAL/MOL
REMARK 923 INTER-LIGAND FREE ENERGY PREDICTED BY IDOCK:   -6.05 KCAL/MOL
REMARK 924 INTRA-LIGAND FREE ENERGY PREDICTED BY IDOCK:   -0.21 KCAL/MOL
REMARK 927      BINDING AFFINITY PREDICTED BY RF-SCORE:    0.00 PKD
ROOT
HETATM    1  C   UNL     1      -7.755   5.460  66.197  1.00  0.00    -0.092 C  
HETATM    2  C   UNL     1      -8.136   6.936  65.871  1.00  0.00    -0.119 C  
HETATM    3  C   UNL     1      -6.894   5.629  67.530  1.00  0.00    -0.060 C  
HETATM    4  C   UNL     1      -7.948   5.256  68.591  1.00  0.00    -0.087 C  
HETATM    5  C   UNL     1      -8.736   6.133  69.694  1.00  0.00    -0.135 C  
HETATM    6  C   UNL     1      -9.753   7.154  69.008  1.00  0.00    -0.150 C  
HETATM    7  C   UNL     1     -10.748   7.834  69.899  1.00  0.00    -0.245 C  
HETATM    8  C   UNL     1     -11.481   6.810  70.798  1.00  0.00    -0.392 C  
HETATM    9  C   UNL     1     -12.666   7.161  71.351  1.00  0.00    -0.433 C  
HETATM   10  C   UNL     1     -12.308   8.248  72.300  1.00  0.00    -0.356 C  
HETATM   11  O   UNL     1     -13.093   9.169  72.520  1.00  0.00    -0.429 OA 
HETATM   12  C   UNL     1     -10.921   8.187  72.925  1.00  0.00    -0.307 C  
HETATM   13  C   UNL     1     -10.043   7.168  72.629  1.00  0.00    -0.217 C  
HETATM   14  C   UNL     1     -10.491   6.020  71.689  1.00  0.00    -0.276 C  
HETATM   15  C   UNL     1      -9.665   5.279  70.575  1.00  0.00    -0.254 C  
HETATM   16  C   UNL     1     -11.074   4.962  72.654  1.00  0.00    -0.227 C  
HETATM   17  C   UNL     1      -9.195   3.841  70.539  1.00  0.00    -0.140 C  
HETATM   18  O   UNL     1      -8.658   3.267  71.495  1.00  0.00    -0.070 OA 
HETATM   19  C   UNL     1      -9.384   3.195  69.149  1.00  0.00    -0.228 C  
HETATM   20  C   UNL     1      -8.430   3.836  68.102  1.00  0.00    -0.107 C  
HETATM   21  C   UNL     1      -7.297   2.777  67.948  1.00  0.00    -0.053 C  
HETATM   22  C   UNL     1      -8.933   4.373  66.643  1.00  0.00    -0.117 C  
HETATM   23  H   UNL     1     -10.860   4.493  67.050  1.00  0.00     0.000 HD 
HETATM   24  O   UNL     1     -10.187   5.114  66.795  1.00  0.00    -0.202 OA 
ENDROOT
BRANCH  22  25
HETATM   25  C   UNL     1      -9.520   3.397  65.613  1.00  0.00    -0.119 C  
HETATM   26  O   UNL     1      -9.207   2.209  65.603  1.00  0.00    -0.108 OA 
BRANCH  25  27
HETATM   27  C   UNL     1     -10.288   4.057  64.425  1.00  0.00    -0.201 C  
HETATM   28  O   UNL     1     -11.645   4.365  64.619  1.00  0.00    -0.919 OA 
HETATM   29  H   UNL     1     -12.113   4.766  63.895  1.00  0.00     0.000 HD 
ENDBRANCH  25  27
ENDBRANCH  22  25
TORSDOF 2
ENDMDL
MODEL       35
REMARK 921   NORMALIZED FREE ENERGY PREDICTED BY IDOCK:   -5.31 KCAL/MOL
REMARK 922        TOTAL FREE ENERGY PREDICTED BY IDOCK:   -6.18 KCAL/MOL
REMARK 923 INTER-LIGAND FREE ENERGY PREDICTED BY IDOCK:   -5.72 KCAL/MOL
REMARK 924 INTRA-LIGAND FREE ENERGY PREDICTED BY IDOCK:   -0.47 KCAL/MOL
REMARK 927      BINDING AFFINITY PREDICTED BY RF-SCORE:    0.00 PKD
ROOT
HETATM    1  C   UNL     1      -7.894  16.382  68.494  1.00  0.00    -0.197 C  
HETATM    2  C   UNL     1      -6.937  15.769  69.561  1.00  0.00    -0.191 C  
HETATM    3  C   UNL     1      -7.307  15.778  67.139  1.00  0.00    -0.257 C  
HETATM    4  C   UNL     1      -8.296  14.621  66.898  1.00  0.00    -0.159 C  
HETATM    5  C   UNL     1      -8.134  13.018  66.988  1.00  0.00    -0.043 C  
HETATM    6  C   UNL     1      -7.904  12.540  68.494  1.00  0.00    -0.108 C  
HETATM    7  C   UNL     1      -8.012  11.071  68.771  1.00  0.00    -0.144 C  
HETATM    8  C   UNL     1      -9.315  10.487  68.176  1.00  0.00    -0.150 C  
HETATM    9  C   UNL     1      -9.783   9.313  68.661  1.00  0.00    -0.158 C  
HETATM   10  C   UNL     1      -8.752   8.322  68.252  1.00  0.00    -0.136 C  
HETATM   11  O   UNL     1      -8.507   7.347  68.960  1.00  0.00    -0.128 OA 
HETATM   12  C   UNL     1      -7.992   8.611  66.965  1.00  0.00    -0.096 C  
HETATM   13  C   UNL     1      -8.254   9.735  66.212  1.00  0.00    -0.116 C  
HETATM   14  C   UNL     1      -9.388  10.698  66.643  1.00  0.00    -0.189 C  
HETATM   15  C   UNL     1      -9.420  12.270  66.594  1.00  0.00    -0.227 C  
HETATM   16  C   UNL     1     -10.631  10.160  65.898  1.00  0.00    -0.042 C  
HETATM   17  C   UNL     1     -10.275  13.177  65.736  1.00  0.00    -0.289 C  
HETATM   18  O   UNL     1     -10.454  13.011  64.523  1.00  0.00    -0.359 OA 
HETATM   19  C   UNL     1     -10.831  14.382  66.526  1.00  0.00    -0.310 C  
HETATM   20  C   UNL     1      -9.690  15.357  66.930  1.00  0.00    -0.241 C  
HETATM   21  C   UNL     1      -9.836  16.527  65.910  1.00  0.00    -0.324 C  
HETATM   22  C   UNL     1      -9.494  15.927  68.449  1.00  0.00    -0.201 C  
HETATM   23  H   UNL     1     -10.587  14.577  69.385  1.00  0.00     0.000 HD 
HETATM   24  O   UNL     1      -9.673  14.836  69.411  1.00  0.00    -0.151 OA 
ENDROOT
BRANCH  22  25
HETATM   25  C   UNL     1     -10.571  16.808  69.097  1.00  0.00    -0.343 C  
HETATM   26  O   UNL     1     -10.499  18.034  69.071  1.00  0.00    -0.278 OA 
BRANCH  25  27
HETATM   27  C   UNL     1     -11.580  16.061  70.026  1.00  0.00    -0.312 C  
HETATM   28  O   UNL     1     -12.414  15.095  69.437  1.00  0.00    -0.567 OA 
HETATM   29  H   UNL     1     -13.028  14.641  70.002  1.00  0.00     0.000 HD 
ENDBRANCH  25  27
ENDBRANCH  22  25
TORSDOF 2
ENDMDL
MODEL       36
REMARK 921   NORMALIZED FREE ENERGY PREDICTED BY IDOCK:   -5.30 KCAL/MOL
REMARK 922        TOTAL FREE ENERGY PREDICTED BY IDOCK:   -6.17 KCAL/MOL
REMARK 923 INTER-LIGAND FREE ENERGY PREDICTED BY IDOCK:   -6.01 KCAL/MOL
REMARK 924 INTRA-LIGAND FREE ENERGY PREDICTED BY IDOCK:   -0.15 KCAL/MOL
REMARK 927      BINDING AFFINITY PREDICTED BY RF-SCORE:    0.00 PKD
ROOT
HETATM    1  C   UNL     1     -11.062  16.208  68.788  1.00  0.00    -0.354 C  
HETATM    2  C   UNL     1     -12.408  15.492  69.112  1.00  0.00    -0.064 C  
HETATM    3  C   UNL     1     -10.058  15.497  69.804  1.00  0.00    -0.291 C  
HETATM    4  C   UNL     1      -9.379  14.485  68.860  1.00  0.00    -0.136 C  
HETATM    5  C   UNL     1      -9.467  12.877  68.747  1.00  0.00     0.110 C  
HETATM    6  C   UNL     1     -10.910  12.407  68.253  1.00  0.00    -0.264 C  
HETATM    7  C   UNL     1     -11.060  10.975  67.837  1.00  0.00    -0.347 C  
HETATM    8  C   UNL     1      -9.949  10.565  66.840  1.00  0.00    -0.246 C  
HETATM    9  C   UNL     1     -10.147   9.480  66.056  1.00  0.00    -0.319 C  
HETATM   10  C   UNL     1     -10.172   8.345  67.016  1.00  0.00    -0.307 C  
HETATM   11  O   UNL     1     -10.879   7.362  66.803  1.00  0.00    -0.303 OA 
HETATM   12  C   UNL     1      -9.337   8.495  68.280  1.00  0.00    -0.143 C  
HETATM   13  C   UNL     1      -8.587   9.626  68.517  1.00  0.00    -0.119 C  
HETATM   14  C   UNL     1      -8.538  10.750  67.451  1.00  0.00    -0.126 C  
HETATM   15  C   UNL     1      -8.540  12.308  67.659  1.00  0.00    -0.169 C  
HETATM   16  C   UNL     1      -7.319  10.373  66.577  1.00  0.00    -0.119 C  
HETATM   17  C   UNL     1      -7.437  13.306  67.379  1.00  0.00    -0.124 C  
HETATM   18  O   UNL     1      -6.256  13.138  67.708  1.00  0.00    -0.127 OA 
HETATM   19  C   UNL     1      -7.965  14.595  66.713  1.00  0.00     0.173 C  
HETATM   20  C   UNL     1      -8.849  15.410  67.698  1.00  0.00    -0.179 C  
HETATM   21  C   UNL     1      -7.908  16.565  68.158  1.00  0.00    -0.168 C  
HETATM   22  C   UNL     1     -10.330  15.981  67.312  1.00  0.00    -0.295 C  
HETATM   23  H   UNL     1     -10.667  14.820  65.752  1.00  0.00     0.000 HD 
HETATM   24  O   UNL     1     -11.085  14.950  66.595  1.00  0.00    -0.322 OA 
ENDROOT
BRANCH  22  25
HETATM   25  C   UNL     1     -10.498  17.020  66.193  1.00  0.00    -0.271 C  
HETATM   26  O   UNL     1     -10.533  16.689  65.010  1.00  0.00    -0.664 OA 
BRANCH  25  27
HETATM   27  C   UNL     1     -10.326  18.509  66.628  1.00  0.00    -0.408 C  
HETATM   28  O   UNL     1      -9.505  19.328  65.834  1.00  0.00    -0.429 OA 
HETATM   29  H   UNL     1      -9.399  20.234  66.099  1.00  0.00     0.000 HD 
ENDBRANCH  25  27
ENDBRANCH  22  25
TORSDOF 2
ENDMDL
MODEL       37
REMARK 921   NORMALIZED FREE ENERGY PREDICTED BY IDOCK:   -5.28 KCAL/MOL
REMARK 922        TOTAL FREE ENERGY PREDICTED BY IDOCK:   -6.15 KCAL/MOL
REMARK 923 INTER-LIGAND FREE ENERGY PREDICTED BY IDOCK:   -5.73 KCAL/MOL
REMARK 924 INTRA-LIGAND FREE ENERGY PREDICTED BY IDOCK:   -0.42 KCAL/MOL
REMARK 927      BINDING AFFINITY PREDICTED BY RF-SCORE:    0.00 PKD
ROOT
HETATM    1  C   UNL     1      -9.856   6.142  69.116  1.00  0.00    -0.176 C  
HETATM    2  C   UNL     1     -11.108   6.119  68.187  1.00  0.00    -0.328 C  
HETATM    3  C   UNL     1      -8.720   6.668  68.126  1.00  0.00    -0.117 C  
HETATM    4  C   UNL     1      -8.658   8.152  68.539  1.00  0.00    -0.130 C  
HETATM    5  C   UNL     1      -9.112   9.507  67.788  1.00  0.00    -0.133 C  
HETATM    6  C   UNL     1     -10.699   9.589  67.644  1.00  0.00    -0.314 C  
HETATM    7  C   UNL     1     -11.283  10.903  67.223  1.00  0.00    -0.307 C  
HETATM    8  C   UNL     1     -10.723  12.062  68.082  1.00  0.00    -0.246 C  
HETATM    9  C   UNL     1     -11.414  13.225  68.134  1.00  0.00    -0.347 C  
HETATM   10  C   UNL     1     -11.321  13.758  66.749  1.00  0.00    -0.330 C  
HETATM   11  O   UNL     1     -12.243  14.413  66.268  1.00  0.00    -0.412 OA 
HETATM   12  C   UNL     1     -10.070  13.402  65.958  1.00  0.00    -0.308 C  
HETATM   13  C   UNL     1      -9.068  12.629  66.504  1.00  0.00    -0.163 C  
HETATM   14  C   UNL     1      -9.181  12.159  67.977  1.00  0.00    -0.194 C  
HETATM   15  C   UNL     1      -8.785  10.772  68.602  1.00  0.00    -0.152 C  
HETATM   16  C   UNL     1      -8.471  13.277  68.774  1.00  0.00     0.123 C  
HETATM   17  C   UNL     1      -7.680  10.454  69.586  1.00  0.00    -0.144 C  
HETATM   18  O   UNL     1      -6.523  10.879  69.484  1.00  0.00    -0.069 OA 
HETATM   19  C   UNL     1      -8.136   9.470  70.686  1.00  0.00    -0.152 C  
HETATM   20  C   UNL     1      -8.410   8.059  70.093  1.00  0.00    -0.126 C  
HETATM   21  C   UNL     1      -7.149   7.242  70.508  1.00  0.00    -0.062 C  
HETATM   22  C   UNL     1      -9.778   7.214  70.385  1.00  0.00    -0.176 C  
HETATM   23  H   UNL     1     -10.893   8.717  71.012  1.00  0.00     0.000 HD 
HETATM   24  O   UNL     1     -10.938   8.104  70.287  1.00  0.00    -0.248 OA 
ENDROOT
BRANCH  22  25
HETATM   25  C   UNL     1     -10.124   6.759  71.810  1.00  0.00    -0.182 C  
HETATM   26  O   UNL     1     -10.333   5.577  72.074  1.00  0.00    -0.199 OA 
BRANCH  25  27
HETATM   27  C   UNL     1     -10.478   7.902  72.813  1.00  0.00    -0.346 C  
HETATM   28  O   UNL     1     -11.834   8.243  72.960  1.00  0.00    -0.497 OA 
HETATM   29  H   UNL     1     -12.049   8.938  73.570  1.00  0.00     0.000 HD 
ENDBRANCH  25  27
ENDBRANCH  22  25
TORSDOF 2
ENDMDL
MODEL       38
REMARK 921   NORMALIZED FREE ENERGY PREDICTED BY IDOCK:   -5.28 KCAL/MOL
REMARK 922        TOTAL FREE ENERGY PREDICTED BY IDOCK:   -6.15 KCAL/MOL
REMARK 923 INTER-LIGAND FREE ENERGY PREDICTED BY IDOCK:   -5.95 KCAL/MOL
REMARK 924 INTRA-LIGAND FREE ENERGY PREDICTED BY IDOCK:   -0.20 KCAL/MOL
REMARK 927      BINDING AFFINITY PREDICTED BY RF-SCORE:    0.00 PKD
ROOT
HETATM    1  C   UNL     1     -10.168  11.705  66.699  1.00  0.00    -0.249 C  
HETATM    2  C   UNL     1     -11.660  11.641  67.145  1.00  0.00    -0.291 C  
HETATM    3  C   UNL     1      -9.440  12.152  68.047  1.00  0.00    -0.201 C  
HETATM    4  C   UNL     1      -8.903  10.792  68.535  1.00  0.00    -0.149 C  
HETATM    5  C   UNL     1      -9.318   9.841  69.772  1.00  0.00    -0.249 C  
HETATM    6  C   UNL     1     -10.773   9.219  69.564  1.00  0.00    -0.236 C  
HETATM    7  C   UNL     1     -11.182   8.108  70.483  1.00  0.00    -0.249 C  
HETATM    8  C   UNL     1     -10.092   7.011  70.549  1.00  0.00    -0.202 C  
HETATM    9  C   UNL     1     -10.438   5.775  70.979  1.00  0.00    -0.307 C  
HETATM   10  C   UNL     1     -10.796   5.981  72.408  1.00  0.00    -0.247 C  
HETATM   11  O   UNL     1     -11.671   5.299  72.937  1.00  0.00    -0.295 OA 
HETATM   12  C   UNL     1     -10.074   7.102  73.143  1.00  0.00    -0.292 C  
HETATM   13  C   UNL     1      -9.128   7.882  72.514  1.00  0.00    -0.245 C  
HETATM   14  C   UNL     1      -8.739   7.580  71.045  1.00  0.00    -0.134 C  
HETATM   15  C   UNL     1      -8.431   8.588  69.878  1.00  0.00    -0.125 C  
HETATM   16  C   UNL     1      -7.549   6.602  71.175  1.00  0.00    -0.089 C  
HETATM   17  C   UNL     1      -7.121   8.849  69.169  1.00  0.00    -0.063 C  
HETATM   18  O   UNL     1      -6.039   8.999  69.751  1.00  0.00    -0.037 OA 
HETATM   19  C   UNL     1      -7.297   8.991  67.641  1.00  0.00    -0.084 C  
HETATM   20  C   UNL     1      -8.079  10.288  67.289  1.00  0.00    -0.120 C  
HETATM   21  C   UNL     1      -6.964  11.263  66.803  1.00  0.00    -0.141 C  
HETATM   22  C   UNL     1      -9.361  10.314  66.276  1.00  0.00    -0.167 C  
HETATM   23  H   UNL     1      -9.783   8.387  66.328  1.00  0.00     0.000 HD 
HETATM   24  O   UNL     1     -10.244   9.182  66.569  1.00  0.00    -0.278 OA 
ENDROOT
BRANCH  22  25
HETATM   25  C   UNL     1      -9.196   9.929  64.799  1.00  0.00    -0.254 C  
HETATM   26  O   UNL     1      -8.355   9.109  64.439  1.00  0.00    -0.156 OA 
BRANCH  25  27
HETATM   27  C   UNL     1      -9.944  10.843  63.779  1.00  0.00    -0.351 C  
HETATM   28  O   UNL     1      -9.925  10.462  62.426  1.00  0.00    -0.733 OA 
HETATM   29  H   UNL     1     -10.379  11.019  61.805  1.00  0.00     0.000 HD 
ENDBRANCH  25  27
ENDBRANCH  22  25
TORSDOF 2
ENDMDL
MODEL       39
REMARK 921   NORMALIZED FREE ENERGY PREDICTED BY IDOCK:   -5.25 KCAL/MOL
REMARK 922        TOTAL FREE ENERGY PREDICTED BY IDOCK:   -6.12 KCAL/MOL
REMARK 923 INTER-LIGAND FREE ENERGY PREDICTED BY IDOCK:   -5.73 KCAL/MOL
REMARK 924 INTRA-LIGAND FREE ENERGY PREDICTED BY IDOCK:   -0.39 KCAL/MOL
REMARK 927      BINDING AFFINITY PREDICTED BY RF-SCORE:    0.00 PKD
ROOT
HETATM    1  C   UNL     1      -7.421   7.588  65.094  1.00  0.00    -0.085 C  
HETATM    2  C   UNL     1      -7.982   7.739  63.647  1.00  0.00    -0.103 C  
HETATM    3  C   UNL     1      -6.521   8.899  65.236  1.00  0.00    -0.067 C  
HETATM    4  C   UNL     1      -7.474   9.803  66.042  1.00  0.00    -0.102 C  
HETATM    5  C   UNL     1      -8.301  11.132  65.649  1.00  0.00     0.002 C  
HETATM    6  C   UNL     1      -9.459  10.807  64.600  1.00  0.00    -0.297 C  
HETATM    7  C   UNL     1     -10.481  11.876  64.352  1.00  0.00    -0.356 C  
HETATM    8  C   UNL     1     -11.049  12.422  65.684  1.00  0.00    -0.343 C  
HETATM    9  C   UNL     1     -12.237  13.070  65.667  1.00  0.00    -0.521 C  
HETATM   10  C   UNL     1     -11.960  14.305  64.887  1.00  0.00    -0.425 C  
HETATM   11  O   UNL     1     -12.832  14.807  64.181  1.00  0.00    -0.678 OA 
HETATM   12  C   UNL     1     -10.546  14.865  64.966  1.00  0.00    -0.446 C  
HETATM   13  C   UNL     1      -9.573  14.258  65.730  1.00  0.00    -0.188 C  
HETATM   14  C   UNL     1      -9.933  13.014  66.581  1.00  0.00    -0.250 C  
HETATM   15  C   UNL     1      -9.084  11.716  66.838  1.00  0.00    -0.188 C  
HETATM   16  C   UNL     1     -10.344  13.610  67.946  1.00  0.00    -0.249 C  
HETATM   17  C   UNL     1      -8.456  11.232  68.127  1.00  0.00    -0.145 C  
HETATM   18  O   UNL     1      -7.811  11.956  68.895  1.00  0.00    -0.090 OA 
HETATM   19  C   UNL     1      -8.637   9.712  68.335  1.00  0.00    -0.119 C  
HETATM   20  C   UNL     1      -7.815   8.905  67.292  1.00  0.00    -0.096 C  
HETATM   21  C   UNL     1      -6.577   8.417  68.105  1.00  0.00    -0.061 C  
HETATM   22  C   UNL     1      -8.445   7.689  66.401  1.00  0.00    -0.137 C  
HETATM   23  H   UNL     1     -10.351   8.134  66.649  1.00  0.00     0.000 HD 
HETATM   24  O   UNL     1      -9.767   8.077  65.902  1.00  0.00    -0.029 OA 
ENDROOT
BRANCH  22  25
HETATM   25  C   UNL     1      -8.967   6.414  67.079  1.00  0.00    -0.119 C  
HETATM   26  O   UNL     1      -9.097   6.343  68.299  1.00  0.00    -0.117 OA 
BRANCH  25  27
HETATM   27  C   UNL     1      -9.035   5.148  66.168  1.00  0.00    -0.135 C  
HETATM   28  O   UNL     1     -10.069   5.084  65.219  1.00  0.00    -0.386 OA 
HETATM   29  H   UNL     1     -10.111   4.313  64.665  1.00  0.00     0.000 HD 
ENDBRANCH  25  27
ENDBRANCH  22  25
TORSDOF 2
ENDMDL
MODEL       40
REMARK 921   NORMALIZED FREE ENERGY PREDICTED BY IDOCK:   -5.22 KCAL/MOL
REMARK 922        TOTAL FREE ENERGY PREDICTED BY IDOCK:   -6.08 KCAL/MOL
REMARK 923 INTER-LIGAND FREE ENERGY PREDICTED BY IDOCK:   -5.70 KCAL/MOL
REMARK 924 INTRA-LIGAND FREE ENERGY PREDICTED BY IDOCK:   -0.38 KCAL/MOL
REMARK 927      BINDING AFFINITY PREDICTED BY RF-SCORE:    0.00 PKD
ROOT
HETATM    1  C   UNL     1     -10.214   6.126  69.223  1.00  0.00    -0.251 C  
HETATM    2  C   UNL     1     -11.103   6.654  70.390  1.00  0.00    -0.374 C  
HETATM    3  C   UNL     1     -11.133   6.417  67.951  1.00  0.00    -0.370 C  
HETATM    4  C   UNL     1     -10.485   7.715  67.432  1.00  0.00    -0.367 C  
HETATM    5  C   UNL     1     -10.993   9.248  67.409  1.00  0.00    -0.022 C  
HETATM    6  C   UNL     1     -11.083   9.853  68.883  1.00  0.00    -0.181 C  
HETATM    7  C   UNL     1     -11.270  11.335  69.006  1.00  0.00    -0.321 C  
HETATM    8  C   UNL     1     -10.247  12.099  68.132  1.00  0.00    -0.203 C  
HETATM    9  C   UNL     1      -9.989  13.397  68.417  1.00  0.00    -0.231 C  
HETATM   10  C   UNL     1     -11.270  14.090  68.119  1.00  0.00    -0.275 C  
HETATM   11  O   UNL     1     -11.615  15.074  68.772  1.00  0.00    -0.303 OA 
HETATM   12  C   UNL     1     -12.139  13.487  67.024  1.00  0.00    -0.401 C  
HETATM   13  C   UNL     1     -11.751  12.357  66.338  1.00  0.00    -0.453 C  
HETATM   14  C   UNL     1     -10.373  11.716  66.637  1.00  0.00    -0.257 C  
HETATM   15  C   UNL     1      -9.992  10.192  66.721  1.00  0.00    -0.266 C  
HETATM   16  C   UNL     1      -9.422  12.404  65.631  1.00  0.00    -0.046 C  
HETATM   17  C   UNL     1      -9.101   9.384  65.804  1.00  0.00    -0.200 C  
HETATM   18  O   UNL     1      -9.160   9.429  64.569  1.00  0.00    -0.222 OA 
HETATM   19  C   UNL     1      -8.165   8.432  66.581  1.00  0.00    -0.105 C  
HETATM   20  C   UNL     1      -8.973   7.298  67.272  1.00  0.00    -0.126 C  
HETATM   21  C   UNL     1      -8.729   6.065  66.349  1.00  0.00    -0.133 C  
HETATM   22  C   UNL     1      -8.789   6.897  68.845  1.00  0.00    -0.129 C  
HETATM   23  H   UNL     1      -7.899   8.553  69.442  1.00  0.00     0.000 HD 
HETATM   24  O   UNL     1      -8.712   8.113  69.658  1.00  0.00    -0.139 OA 
ENDROOT
BRANCH  22  25
HETATM   25  C   UNL     1      -7.449   6.351  69.359  1.00  0.00    -0.094 C  
HETATM   26  O   UNL     1      -6.473   6.246  68.621  1.00  0.00    -0.045 OA 
BRANCH  25  27
HETATM   27  C   UNL     1      -7.495   5.676  70.767  1.00  0.00    -0.089 C  
HETATM   28  O   UNL     1      -7.775   6.496  71.873  1.00  0.00    -0.096 OA 
HETATM   29  H   UNL     1      -7.802   6.086  72.729  1.00  0.00     0.000 HD 
ENDBRANCH  25  27
ENDBRANCH  22  25
TORSDOF 2
ENDMDL
MODEL       41
REMARK 921   NORMALIZED FREE ENERGY PREDICTED BY IDOCK:   -5.17 KCAL/MOL
REMARK 922        TOTAL FREE ENERGY PREDICTED BY IDOCK:   -6.02 KCAL/MOL
REMARK 923 INTER-LIGAND FREE ENERGY PREDICTED BY IDOCK:   -5.66 KCAL/MOL
REMARK 924 INTRA-LIGAND FREE ENERGY PREDICTED BY IDOCK:   -0.37 KCAL/MOL
REMARK 927      BINDING AFFINITY PREDICTED BY RF-SCORE:    0.00 PKD
ROOT
HETATM    1  C   UNL     1      -7.617   7.114  65.709  1.00  0.00    -0.094 C  
HETATM    2  C   UNL     1      -8.253   8.534  65.618  1.00  0.00    -0.130 C  
HETATM    3  C   UNL     1      -6.755   7.223  67.047  1.00  0.00    -0.068 C  
HETATM    4  C   UNL     1      -7.696   6.516  68.042  1.00  0.00    -0.105 C  
HETATM    5  C   UNL     1      -8.585   7.065  69.273  1.00  0.00    -0.136 C  
HETATM    6  C   UNL     1      -9.781   7.989  68.760  1.00  0.00    -0.157 C  
HETATM    7  C   UNL     1     -10.848   8.343  69.751  1.00  0.00    -0.184 C  
HETATM    8  C   UNL     1     -11.368   7.083  70.484  1.00  0.00    -0.355 C  
HETATM    9  C   UNL     1     -12.576   7.136  71.091  1.00  0.00    -0.384 C  
HETATM   10  C   UNL     1     -12.378   8.110  72.197  1.00  0.00    -0.338 C  
HETATM   11  O   UNL     1     -13.300   8.838  72.561  1.00  0.00    -0.399 OA 
HETATM   12  C   UNL     1     -10.981   8.195  72.797  1.00  0.00    -0.401 C  
HETATM   13  C   UNL     1      -9.953   7.399  72.341  1.00  0.00    -0.221 C  
HETATM   14  C   UNL     1     -10.230   6.349  71.235  1.00  0.00    -0.232 C  
HETATM   15  C   UNL     1      -9.327   5.940  70.015  1.00  0.00    -0.171 C  
HETATM   16  C   UNL     1     -10.594   5.071  72.026  1.00  0.00    -0.243 C  
HETATM   17  C   UNL     1      -8.621   4.627  69.753  1.00  0.00    -0.073 C  
HETATM   18  O   UNL     1      -7.964   4.015  70.604  1.00  0.00    -0.054 OA 
HETATM   19  C   UNL     1      -8.742   4.178  68.280  1.00  0.00    -0.119 C  
HETATM   20  C   UNL     1      -7.946   5.127  67.341  1.00  0.00    -0.100 C  
HETATM   21  C   UNL     1      -6.655   4.315  67.017  1.00  0.00    -0.046 C  
HETATM   22  C   UNL     1      -8.578   5.785  65.986  1.00  0.00    -0.139 C  
HETATM   23  H   UNL     1     -10.484   5.507  66.417  1.00  0.00     0.000 HD 
HETATM   24  O   UNL     1      -9.935   6.267  66.259  1.00  0.00    -0.098 OA 
ENDROOT
BRANCH  22  25
HETATM   25  C   UNL     1      -9.024   4.891  64.819  1.00  0.00    -0.125 C  
HETATM   26  O   UNL     1      -8.695   5.135  63.661  1.00  0.00    -0.124 OA 
BRANCH  25  27
HETATM   27  C   UNL     1     -10.141   3.854  65.157  1.00  0.00    -0.141 C  
HETATM   28  O   UNL     1     -11.476   4.276  65.049  1.00  0.00    -1.020 OA 
HETATM   29  H   UNL     1     -12.156   3.644  65.255  1.00  0.00     0.000 HD 
ENDBRANCH  25  27
ENDBRANCH  22  25
TORSDOF 2
ENDMDL
MODEL       42
REMARK 921   NORMALIZED FREE ENERGY PREDICTED BY IDOCK:   -5.11 KCAL/MOL
REMARK 922        TOTAL FREE ENERGY PREDICTED BY IDOCK:   -5.95 KCAL/MOL
REMARK 923 INTER-LIGAND FREE ENERGY PREDICTED BY IDOCK:   -5.89 KCAL/MOL
REMARK 924 INTRA-LIGAND FREE ENERGY PREDICTED BY IDOCK:   -0.06 KCAL/MOL
REMARK 927      BINDING AFFINITY PREDICTED BY RF-SCORE:    0.00 PKD
ROOT
HETATM    1  C   UNL     1      -5.973  18.137  68.481  1.00  0.00    -0.190 C  
HETATM    2  C   UNL     1      -5.759  17.561  69.914  1.00  0.00    -0.250 C  
HETATM    3  C   UNL     1      -5.889  16.821  67.581  1.00  0.00    -0.166 C  
HETATM    4  C   UNL     1      -7.388  16.548  67.349  1.00  0.00    -0.176 C  
HETATM    5  C   UNL     1      -8.379  15.396  67.895  1.00  0.00    -0.148 C  
HETATM    6  C   UNL     1      -8.623  15.536  69.466  1.00  0.00    -0.218 C  
HETATM    7  C   UNL     1      -9.727  14.718  70.064  1.00  0.00     0.387 C  
HETATM    8  C   UNL     1     -11.040  14.883  69.261  1.00  0.00    -0.284 C  
HETATM    9  C   UNL     1     -12.213  14.569  69.860  1.00  0.00    -0.379 C  
HETATM   10  C   UNL     1     -12.126  13.099  70.065  1.00  0.00    -0.305 C  
HETATM   11  O   UNL     1     -12.659  12.572  71.040  1.00  0.00    -0.361 OA 
HETATM   12  C   UNL     1     -11.308  12.311  69.052  1.00  0.00    -0.333 C  
HETATM   13  C   UNL     1     -10.683  12.931  67.992  1.00  0.00    -0.244 C  
HETATM   14  C   UNL     1     -10.864  14.456  67.783  1.00  0.00    -0.263 C  
HETATM   15  C   UNL     1      -9.802  15.521  67.324  1.00  0.00    -0.224 C  
HETATM   16  C   UNL     1     -12.093  14.555  66.851  1.00  0.00    -0.309 C  
HETATM   17  C   UNL     1      -9.750  16.317  66.038  1.00  0.00    -0.339 C  
HETATM   18  O   UNL     1      -9.928  15.827  64.916  1.00  0.00    -0.341 OA 
HETATM   19  C   UNL     1      -9.366  17.794  66.276  1.00  0.00    -0.219 C  
HETATM   20  C   UNL     1      -7.892  17.917  66.751  1.00  0.00    -0.259 C  
HETATM   21  C   UNL     1      -7.137  18.390  65.472  1.00  0.00    -0.110 C  
HETATM   22  C   UNL     1      -7.440  18.793  68.055  1.00  0.00    -0.251 C  
HETATM   23  H   UNL     1      -9.211  18.926  68.915  1.00  0.00     0.000 HD 
HETATM   24  O   UNL     1      -8.373  18.551  69.159  1.00  0.00    -0.124 OA 
ENDROOT
BRANCH  22  25
HETATM   25  C   UNL     1      -7.649  20.314  68.083  1.00  0.00    -0.154 C  
HETATM   26  O   UNL     1      -8.758  20.813  67.906  1.00  0.00    -0.020 OA 
BRANCH  25  27
HETATM   27  C   UNL     1      -6.345  21.172  68.053  1.00  0.00    -0.253 C  
HETATM   28  O   UNL     1      -5.473  21.069  69.151  1.00  0.00    -0.359 OA 
HETATM   29  H   UNL     1      -4.680  21.591  69.133  1.00  0.00     0.000 HD 
ENDBRANCH  25  27
ENDBRANCH  22  25
TORSDOF 2
ENDMDL
MODEL       43
REMARK 921   NORMALIZED FREE ENERGY PREDICTED BY IDOCK:   -5.09 KCAL/MOL
REMARK 922        TOTAL FREE ENERGY PREDICTED BY IDOCK:   -5.93 KCAL/MOL
REMARK 923 INTER-LIGAND FREE ENERGY PREDICTED BY IDOCK:   -5.68 KCAL/MOL
REMARK 924 INTRA-LIGAND FREE ENERGY PREDICTED BY IDOCK:   -0.26 KCAL/MOL
REMARK 927      BINDING AFFINITY PREDICTED BY RF-SCORE:    0.00 PKD
ROOT
HETATM    1  C   UNL     1      -9.621   6.885  66.535  1.00  0.00    -0.197 C  
HETATM    2  C   UNL     1      -9.261   5.377  66.369  1.00  0.00    -0.150 C  
HETATM    3  C   UNL     1     -11.091   6.806  67.152  1.00  0.00    -0.404 C  
HETATM    4  C   UNL     1     -10.778   7.046  68.642  1.00  0.00    -0.225 C  
HETATM    5  C   UNL     1     -10.825   6.075  69.931  1.00  0.00    -0.434 C  
HETATM    6  C   UNL     1      -9.698   4.948  69.851  1.00  0.00    -0.276 C  
HETATM    7  C   UNL     1      -9.437   4.149  71.092  1.00  0.00    -0.234 C  
HETATM    8  C   UNL     1      -9.239   5.074  72.318  1.00  0.00    -0.152 C  
HETATM    9  C   UNL     1      -8.603   4.583  73.407  1.00  0.00    -0.101 C  
HETATM   10  C   UNL     1      -9.528   3.537  73.920  1.00  0.00    -0.095 C  
HETATM   11  O   UNL     1      -9.088   2.530  74.470  1.00  0.00    -0.076 OA 
HETATM   12  C   UNL     1     -11.014   3.754  73.675  1.00  0.00    -0.334 C  
HETATM   13  C   UNL     1     -11.480   4.871  73.016  1.00  0.00    -0.327 C  
HETATM   14  C   UNL     1     -10.480   5.966  72.566  1.00  0.00    -0.238 C  
HETATM   15  C   UNL     1     -10.472   6.808  71.237  1.00  0.00    -0.237 C  
HETATM   16  C   UNL     1     -10.440   6.942  73.764  1.00  0.00    -0.390 C  
HETATM   17  C   UNL     1     -10.707   8.290  71.050  1.00  0.00    -0.218 C  
HETATM   18  O   UNL     1     -11.630   8.915  71.587  1.00  0.00    -0.291 OA 
HETATM   19  C   UNL     1      -9.717   8.921  70.047  1.00  0.00    -0.187 C  
HETATM   20  C   UNL     1      -9.978   8.403  68.605  1.00  0.00    -0.197 C  
HETATM   21  C   UNL     1     -10.729   9.588  67.925  1.00  0.00    -0.285 C  
HETATM   22  C   UNL     1      -8.799   7.824  67.633  1.00  0.00    -0.128 C  
HETATM   23  H   UNL     1      -7.447   7.477  69.029  1.00  0.00     0.000 HD 
HETATM   24  O   UNL     1      -7.917   6.941  68.401  1.00  0.00    -0.118 OA 
ENDROOT
BRANCH  22  25
HETATM   25  C   UNL     1      -7.650   8.733  67.173  1.00  0.00    -0.088 C  
HETATM   26  O   UNL     1      -6.851   9.213  67.974  1.00  0.00    -0.067 OA 
BRANCH  25  27
HETATM   27  C   UNL     1      -7.740   9.235  65.698  1.00  0.00    -0.095 C  
HETATM   28  O   UNL     1      -6.823  10.217  65.287  1.00  0.00    -0.131 OA 
HETATM   29  H   UNL     1      -6.878  10.523  64.390  1.00  0.00     0.000 HD 
ENDBRANCH  25  27
ENDBRANCH  22  25
TORSDOF 2
ENDMDL
MODEL       44
REMARK 921   NORMALIZED FREE ENERGY PREDICTED BY IDOCK:   -5.06 KCAL/MOL
REMARK 922        TOTAL FREE ENERGY PREDICTED BY IDOCK:   -5.90 KCAL/MOL
REMARK 923 INTER-LIGAND FREE ENERGY PREDICTED BY IDOCK:   -5.86 KCAL/MOL
REMARK 924 INTRA-LIGAND FREE ENERGY PREDICTED BY IDOCK:   -0.04 KCAL/MOL
REMARK 927      BINDING AFFINITY PREDICTED BY RF-SCORE:    0.00 PKD
ROOT
HETATM    1  C   UNL     1      -8.743   7.489  69.242  1.00  0.00    -0.136 C  
HETATM    2  C   UNL     1     -10.161   7.032  68.784  1.00  0.00    -0.170 C  
HETATM    3  C   UNL     1      -8.051   7.859  67.853  1.00  0.00    -0.129 C  
HETATM    4  C   UNL     1      -8.200   9.393  67.868  1.00  0.00    -0.115 C  
HETATM    5  C   UNL     1      -9.116  10.403  67.003  1.00  0.00    -0.153 C  
HETATM    6  C   UNL     1     -10.664  10.224  67.348  1.00  0.00    -0.339 C  
HETATM    7  C   UNL     1     -11.606  11.272  66.837  1.00  0.00     0.003 C  
HETATM    8  C   UNL     1     -11.100  12.693  67.184  1.00  0.00    -0.321 C  
HETATM    9  C   UNL     1     -11.985  13.717  67.177  1.00  0.00    -0.442 C  
HETATM   10  C   UNL     1     -12.379  13.840  65.748  1.00  0.00    -0.486 C  
HETATM   11  O   UNL     1     -13.514  14.198  65.442  1.00  0.00    -0.648 OA 
HETATM   12  C   UNL     1     -11.336  13.445  64.711  1.00  0.00    -0.356 C  
HETATM   13  C   UNL     1     -10.085  13.003  65.081  1.00  0.00    -0.238 C  
HETATM   14  C   UNL     1      -9.700  12.963  66.582  1.00  0.00    -0.254 C  
HETATM   15  C   UNL     1      -8.864  11.880  67.357  1.00  0.00    -0.171 C  
HETATM   16  C   UNL     1      -9.060  14.348  66.833  1.00  0.00    -0.269 C  
HETATM   17  C   UNL     1      -7.496  12.009  67.991  1.00  0.00    -0.113 C  
HETATM   18  O   UNL     1      -6.526  12.540  67.436  1.00  0.00    -0.141 OA 
HETATM   19  C   UNL     1      -7.423  11.328  69.375  1.00  0.00     0.014 C  
HETATM   20  C   UNL     1      -7.535   9.783  69.243  1.00  0.00    -0.090 C  
HETATM   21  C   UNL     1      -6.065   9.297  69.421  1.00  0.00    -0.037 C  
HETATM   22  C   UNL     1      -8.562   8.880  70.137  1.00  0.00    -0.155 C  
HETATM   23  H   UNL     1      -9.766  10.333  70.713  1.00  0.00     0.000 HD 
HETATM   24  O   UNL     1      -9.869   9.539  70.202  1.00  0.00    -0.212 OA 
ENDROOT
BRANCH  22  25
HETATM   25  C   UNL     1      -8.413   8.808  71.663  1.00  0.00    -0.141 C  
HETATM   26  O   UNL     1      -7.319   8.940  72.208  1.00  0.00    -0.328 OA 
BRANCH  25  27
HETATM   27  C   UNL     1      -9.659   8.273  72.436  1.00  0.00    -0.294 C  
HETATM   28  O   UNL     1      -9.534   7.040  73.099  1.00  0.00    -0.143 OA 
HETATM   29  H   UNL     1     -10.292   6.714  73.569  1.00  0.00     0.000 HD 
ENDBRANCH  25  27
ENDBRANCH  22  25
TORSDOF 2
ENDMDL
MODEL       45
REMARK 921   NORMALIZED FREE ENERGY PREDICTED BY IDOCK:   -5.05 KCAL/MOL
REMARK 922        TOTAL FREE ENERGY PREDICTED BY IDOCK:   -5.89 KCAL/MOL
REMARK 923 INTER-LIGAND FREE ENERGY PREDICTED BY IDOCK:   -5.56 KCAL/MOL
REMARK 924 INTRA-LIGAND FREE ENERGY PREDICTED BY IDOCK:   -0.33 KCAL/MOL
REMARK 927      BINDING AFFINITY PREDICTED BY RF-SCORE:    0.00 PKD
ROOT
HETATM    1  C   UNL     1      -9.888  10.605  66.708  1.00  0.00    -0.240 C  
HETATM    2  C   UNL     1     -11.285  11.126  66.255  1.00  0.00    -0.087 C  
HETATM    3  C   UNL     1      -8.914  11.328  65.671  1.00  0.00    -0.173 C  
HETATM    4  C   UNL     1      -8.405  12.497  66.537  1.00  0.00     0.142 C  
HETATM    5  C   UNL     1      -8.677  14.087  66.483  1.00  0.00     0.048 C  
HETATM    6  C   UNL     1     -10.188  14.432  66.863  1.00  0.00    -0.265 C  
HETATM    7  C   UNL     1     -10.519  15.871  67.125  1.00  0.00    -0.313 C  
HETATM    8  C   UNL     1      -9.517  16.499  68.124  1.00  0.00    -0.222 C  
HETATM    9  C   UNL     1      -9.877  17.623  68.785  1.00  0.00    -0.334 C  
HETATM   10  C   UNL     1      -9.975  18.651  67.715  1.00  0.00    -0.346 C  
HETATM   11  O   UNL     1     -10.798  19.561  67.796  1.00  0.00    -0.417 OA 
HETATM   12  C   UNL     1      -9.060  18.480  66.511  1.00  0.00    -0.299 C  
HETATM   13  C   UNL     1      -8.177  17.425  66.422  1.00  0.00    -0.306 C  
HETATM   14  C   UNL     1      -8.062  16.422  67.598  1.00  0.00    -0.170 C  
HETATM   15  C   UNL     1      -7.880  14.861  67.548  1.00  0.00    -0.206 C  
HETATM   16  C   UNL     1      -6.943  17.018  68.481  1.00  0.00    -0.197 C  
HETATM   17  C   UNL     1      -6.691  14.029  67.975  1.00  0.00    -0.144 C  
HETATM   18  O   UNL     1      -5.519  14.300  67.684  1.00  0.00    -0.311 OA 
HETATM   19  C   UNL     1      -7.109  12.757  68.744  1.00  0.00    -0.089 C  
HETATM   20  C   UNL     1      -7.841  11.755  67.808  1.00  0.00    -0.135 C  
HETATM   21  C   UNL     1      -6.753  10.678  67.509  1.00  0.00    -0.070 C  
HETATM   22  C   UNL     1      -9.268  11.055  68.185  1.00  0.00    -0.165 C  
HETATM   23  H   UNL     1      -9.817  12.312  69.603  1.00  0.00     0.000 HD 
HETATM   24  O   UNL     1     -10.171  12.056  68.760  1.00  0.00    -0.204 OA 
ENDROOT
BRANCH  22  25
HETATM   25  C   UNL     1      -9.382  10.115  69.394  1.00  0.00    -0.219 C  
HETATM   26  O   UNL     1      -8.458   9.985  70.194  1.00  0.00    -0.169 OA 
BRANCH  25  27
HETATM   27  C   UNL     1     -10.599   9.138  69.374  1.00  0.00    -0.223 C  
HETATM   28  O   UNL     1     -11.809   9.595  69.923  1.00  0.00    -0.450 OA 
HETATM   29  H   UNL     1     -12.550   9.001  69.911  1.00  0.00     0.000 HD 
ENDBRANCH  25  27
ENDBRANCH  22  25
TORSDOF 2
ENDMDL
MODEL       46
REMARK 921   NORMALIZED FREE ENERGY PREDICTED BY IDOCK:   -5.02 KCAL/MOL
REMARK 922        TOTAL FREE ENERGY PREDICTED BY IDOCK:   -5.85 KCAL/MOL
REMARK 923 INTER-LIGAND FREE ENERGY PREDICTED BY IDOCK:   -5.46 KCAL/MOL
REMARK 924 INTRA-LIGAND FREE ENERGY PREDICTED BY IDOCK:   -0.39 KCAL/MOL
REMARK 927      BINDING AFFINITY PREDICTED BY RF-SCORE:    0.00 PKD
ROOT
HETATM    1  C   UNL     1      -9.096  15.477  68.068  1.00  0.00    -0.182 C  
HETATM    2  C   UNL     1      -7.898  15.335  69.056  1.00  0.00    -0.184 C  
HETATM    3  C   UNL     1      -8.475  14.906  66.713  1.00  0.00    -0.215 C  
HETATM    4  C   UNL     1      -9.063  13.481  66.718  1.00  0.00    -0.223 C  
HETATM    5  C   UNL     1      -8.390  12.031  66.943  1.00  0.00    -0.159 C  
HETATM    6  C   UNL     1      -7.881  11.852  68.445  1.00  0.00    -0.141 C  
HETATM    7  C   UNL     1      -7.490  10.472  68.878  1.00  0.00    -0.104 C  
HETATM    8  C   UNL     1      -8.589   9.443  68.517  1.00  0.00    -0.123 C  
HETATM    9  C   UNL     1      -8.610   8.259  69.172  1.00  0.00    -0.138 C  
HETATM   10  C   UNL     1      -7.360   7.584  68.731  1.00  0.00    -0.095 C  
HETATM   11  O   UNL     1      -6.753   6.834  69.493  1.00  0.00    -0.047 OA 
HETATM   12  C   UNL     1      -6.855   7.916  67.334  1.00  0.00    -0.070 C  
HETATM   13  C   UNL     1      -7.531   8.795  66.515  1.00  0.00    -0.085 C  
HETATM   14  C   UNL     1      -8.867   9.415  66.994  1.00  0.00    -0.139 C  
HETATM   15  C   UNL     1      -9.402  10.881  66.795  1.00  0.00    -0.185 C  
HETATM   16  C   UNL     1      -9.937   8.428  66.473  1.00  0.00    -0.335 C  
HETATM   17  C   UNL     1     -10.577  11.360  65.971  1.00  0.00    -0.266 C  
HETATM   18  O   UNL     1     -10.806  10.986  64.814  1.00  0.00    -0.276 OA 
HETATM   19  C   UNL     1     -11.412  12.432  66.704  1.00  0.00    -0.429 C  
HETATM   20  C   UNL     1     -10.609  13.754  66.859  1.00  0.00    -0.276 C  
HETATM   21  C   UNL     1     -11.214  14.676  65.757  1.00  0.00    -0.336 C  
HETATM   22  C   UNL     1     -10.464  14.554  68.276  1.00  0.00    -0.242 C  
HETATM   23  H   UNL     1     -10.978  13.073  69.474  1.00  0.00     0.000 HD 
HETATM   24  O   UNL     1     -10.197  13.601  69.356  1.00  0.00     0.135 OA 
ENDROOT
BRANCH  22  25
HETATM   25  C   UNL     1     -11.701  15.143  68.970  1.00  0.00    -0.335 C  
HETATM   26  O   UNL     1     -11.987  16.334  68.871  1.00  0.00    -0.224 OA 
BRANCH  25  27
HETATM   27  C   UNL     1     -12.385  14.217  70.024  1.00  0.00    -0.344 C  
HETATM   28  O   UNL     1     -11.871  14.229  71.332  1.00  0.00    -0.445 OA 
HETATM   29  H   UNL     1     -12.287  13.665  71.973  1.00  0.00     0.000 HD 
ENDBRANCH  25  27
ENDBRANCH  22  25
TORSDOF 2
ENDMDL
MODEL       47
REMARK 921   NORMALIZED FREE ENERGY PREDICTED BY IDOCK:   -4.96 KCAL/MOL
REMARK 922        TOTAL FREE ENERGY PREDICTED BY IDOCK:   -5.78 KCAL/MOL
REMARK 923 INTER-LIGAND FREE ENERGY PREDICTED BY IDOCK:   -5.47 KCAL/MOL
REMARK 924 INTRA-LIGAND FREE ENERGY PREDICTED BY IDOCK:   -0.31 KCAL/MOL
REMARK 927      BINDING AFFINITY PREDICTED BY RF-SCORE:    0.00 PKD
ROOT
HETATM    1  C   UNL     1      -9.253   8.394  66.544  1.00  0.00    -0.238 C  
HETATM    2  C   UNL     1      -8.448   7.092  66.252  1.00  0.00    -0.134 C  
HETATM    3  C   UNL     1     -10.681   7.813  66.960  1.00  0.00    -0.316 C  
HETATM    4  C   UNL     1     -10.583   7.910  68.494  1.00  0.00    -0.146 C  
HETATM    5  C   UNL     1     -10.450   6.787  69.647  1.00  0.00    -0.243 C  
HETATM    6  C   UNL     1      -9.037   6.049  69.580  1.00  0.00    -0.141 C  
HETATM    7  C   UNL     1      -8.658   5.184  70.743  1.00  0.00    -0.131 C  
HETATM    8  C   UNL     1      -8.851   5.936  72.082  1.00  0.00    -0.136 C  
HETATM    9  C   UNL     1      -8.194   5.491  73.179  1.00  0.00    -0.118 C  
HETATM   10  C   UNL     1      -8.807   4.163  73.447  1.00  0.00    -0.097 C  
HETATM   11  O   UNL     1      -8.136   3.252  73.929  1.00  0.00    -0.069 OA 
HETATM   12  C   UNL     1     -10.264   3.984  73.045  1.00  0.00    -0.225 C  
HETATM   13  C   UNL     1     -10.982   5.008  72.466  1.00  0.00    -0.241 C  
HETATM   14  C   UNL     1     -10.318   6.395  72.274  1.00  0.00    -0.215 C  
HETATM   15  C   UNL     1     -10.445   7.390  71.063  1.00  0.00    -0.223 C  
HETATM   16  C   UNL     1     -10.673   7.155  73.572  1.00  0.00    -0.375 C  
HETATM   17  C   UNL     1     -11.093   8.756  71.020  1.00  0.00    -0.270 C  
HETATM   18  O   UNL     1     -12.203   9.008  71.505  1.00  0.00    -0.301 OA 
HETATM   19  C   UNL     1     -10.252   9.782  70.228  1.00  0.00    -0.346 C  
HETATM   20  C   UNL     1     -10.222   9.429  68.715  1.00  0.00    -0.221 C  
HETATM   21  C   UNL     1     -11.230  10.439  68.087  1.00  0.00    -0.333 C  
HETATM   22  C   UNL     1      -8.845   9.355  67.839  1.00  0.00    -0.124 C  
HETATM   23  H   UNL     1      -7.578   9.204  69.343  1.00  0.00     0.000 HD 
HETATM   24  O   UNL     1      -7.811   8.655  68.604  1.00  0.00    -0.103 OA 
ENDROOT
BRANCH  22  25
HETATM   25  C   UNL     1      -7.983  10.610  67.634  1.00  0.00    -0.106 C  
HETATM   26  O   UNL     1      -7.656  11.325  68.578  1.00  0.00    -0.107 OA 
BRANCH  25  27
HETATM   27  C   UNL     1      -7.806  11.069  66.153  1.00  0.00    -0.117 C  
HETATM   28  O   UNL     1      -8.728  12.000  65.645  1.00  0.00    -0.396 OA 
HETATM   29  H   UNL     1      -8.620  12.279  64.743  1.00  0.00     0.000 HD 
ENDBRANCH  25  27
ENDBRANCH  22  25
TORSDOF 2
ENDMDL
MODEL       48
REMARK 921   NORMALIZED FREE ENERGY PREDICTED BY IDOCK:   -4.95 KCAL/MOL
REMARK 922        TOTAL FREE ENERGY PREDICTED BY IDOCK:   -5.78 KCAL/MOL
REMARK 923 INTER-LIGAND FREE ENERGY PREDICTED BY IDOCK:   -5.90 KCAL/MOL
REMARK 924 INTRA-LIGAND FREE ENERGY PREDICTED BY IDOCK:    0.12 KCAL/MOL
REMARK 927      BINDING AFFINITY PREDICTED BY RF-SCORE:    0.00 PKD
ROOT
HETATM    1  C   UNL     1     -10.680   6.444  72.747  1.00  0.00    -0.267 C  
HETATM    2  C   UNL     1     -10.679   4.899  72.960  1.00  0.00    -0.305 C  
HETATM    3  C   UNL     1      -9.148   6.730  72.404  1.00  0.00    -0.142 C  
HETATM    4  C   UNL     1      -9.224   6.840  70.868  1.00  0.00    -0.157 C  
HETATM    5  C   UNL     1      -8.696   5.878  69.684  1.00  0.00    -0.128 C  
HETATM    6  C   UNL     1      -9.502   4.501  69.649  1.00  0.00    -0.244 C  
HETATM    7  C   UNL     1      -9.318   3.628  68.445  1.00  0.00    -0.225 C  
HETATM    8  C   UNL     1      -9.505   4.437  67.138  1.00  0.00    -0.193 C  
HETATM    9  C   UNL     1      -9.783   3.768  65.994  1.00  0.00    -0.136 C  
HETATM   10  C   UNL     1      -8.549   2.983  65.731  1.00  0.00    -0.116 C  
HETATM   11  O   UNL     1      -8.613   1.881  65.189  1.00  0.00    -0.096 OA 
HETATM   12  C   UNL     1      -7.236   3.583  66.214  1.00  0.00    -0.067 C  
HETATM   13  C   UNL     1      -7.195   4.800  66.859  1.00  0.00    -0.077 C  
HETATM   14  C   UNL     1      -8.501   5.612  67.045  1.00  0.00    -0.110 C  
HETATM   15  C   UNL     1      -8.968   6.459  68.285  1.00  0.00    -0.116 C  
HETATM   16  C   UNL     1      -8.556   6.511  65.788  1.00  0.00    -0.149 C  
HETATM   17  C   UNL     1      -9.148   7.957  68.399  1.00  0.00    -0.135 C  
HETATM   18  O   UNL     1      -8.326   8.784  67.986  1.00  0.00    -0.117 OA 
HETATM   19  C   UNL     1     -10.435   8.338  69.163  1.00  0.00    -0.217 C  
HETATM   20  C   UNL     1     -10.329   7.945  70.664  1.00  0.00    -0.205 C  
HETATM   21  C   UNL     1     -10.037   9.302  71.374  1.00  0.00    -0.348 C  
HETATM   22  C   UNL     1     -11.488   7.108  71.455  1.00  0.00    -0.272 C  
HETATM   23  H   UNL     1     -12.424   6.386  69.875  1.00  0.00     0.000 HD 
HETATM   24  O   UNL     1     -11.962   6.007  70.613  1.00  0.00    -0.001 OA 
ENDROOT
BRANCH  22  25
HETATM   25  C   UNL     1     -12.892   7.702  71.638  1.00  0.00    -0.349 C  
HETATM   26  O   UNL     1     -13.837   7.343  70.940  1.00  0.00    -0.139 OA 
BRANCH  25  27
HETATM   27  C   UNL     1     -12.971   8.973  72.541  1.00  0.00    -0.361 C  
HETATM   28  O   UNL     1     -14.052   9.072  73.433  1.00  0.00    -1.231 OA 
HETATM   29  H   UNL     1     -14.101   9.846  73.982  1.00  0.00     0.000 HD 
ENDBRANCH  25  27
ENDBRANCH  22  25
TORSDOF 2
ENDMDL
MODEL       49
REMARK 921   NORMALIZED FREE ENERGY PREDICTED BY IDOCK:   -4.91 KCAL/MOL
REMARK 922        TOTAL FREE ENERGY PREDICTED BY IDOCK:   -5.73 KCAL/MOL
REMARK 923 INTER-LIGAND FREE ENERGY PREDICTED BY IDOCK:   -5.23 KCAL/MOL
REMARK 924 INTRA-LIGAND FREE ENERGY PREDICTED BY IDOCK:   -0.49 KCAL/MOL
REMARK 927      BINDING AFFINITY PREDICTED BY RF-SCORE:    0.00 PKD
ROOT
HETATM    1  C   UNL     1     -10.043   8.941  68.209  1.00  0.00    -0.219 C  
HETATM    2  C   UNL     1     -11.058   8.380  69.250  1.00  0.00     0.142 C  
HETATM    3  C   UNL     1     -10.987   9.816  67.267  1.00  0.00    -0.142 C  
HETATM    4  C   UNL     1     -10.706  11.225  67.824  1.00  0.00    -0.265 C  
HETATM    5  C   UNL     1     -11.607  12.253  68.683  1.00  0.00    -0.372 C  
HETATM    6  C   UNL     1     -11.878  11.698  70.155  1.00  0.00    -0.428 C  
HETATM    7  C   UNL     1     -12.459  12.655  71.153  1.00  0.00    -0.326 C  
HETATM    8  C   UNL     1     -11.666  13.984  71.176  1.00  0.00     0.030 C  
HETATM    9  C   UNL     1     -11.771  14.784  72.262  1.00  0.00    -0.213 C  
HETATM   10  C   UNL     1     -13.188  15.237  72.237  1.00  0.00    -0.398 C  
HETATM   11  O   UNL     1     -13.794  15.451  73.285  1.00  0.00    -0.359 OA 
HETATM   12  C   UNL     1     -13.847  15.358  70.870  1.00  0.00    -0.245 C  
HETATM   13  C   UNL     1     -13.159  15.069  69.711  1.00  0.00     0.354 C  
HETATM   14  C   UNL     1     -11.663  14.671  69.788  1.00  0.00    -0.361 C  
HETATM   15  C   UNL     1     -10.887  13.585  68.956  1.00  0.00    -0.227 C  
HETATM   16  C   UNL     1     -10.918  16.019  69.651  1.00  0.00    -0.326 C  
HETATM   17  C   UNL     1      -9.798  13.779  67.924  1.00  0.00    -0.232 C  
HETATM   18  O   UNL     1      -9.849  14.617  67.016  1.00  0.00    -0.236 OA 
HETATM   19  C   UNL     1      -8.652  12.755  68.079  1.00  0.00    -0.186 C  
HETATM   20  C   UNL     1      -9.135  11.320  67.724  1.00  0.00    -0.152 C  
HETATM   21  C   UNL     1      -8.555  11.085  66.297  1.00  0.00    -0.167 C  
HETATM   22  C   UNL     1      -8.873  10.023  68.683  1.00  0.00    -0.132 C  
HETATM   23  H   UNL     1      -8.470  11.000  70.350  1.00  0.00     0.000 HD 
HETATM   24  O   UNL     1      -9.138  10.381  70.079  1.00  0.00     0.007 OA 
ENDROOT
BRANCH  22  25
HETATM   25  C   UNL     1      -7.443   9.545  68.975  1.00  0.00    -0.074 C  
HETATM   26  O   UNL     1      -6.905   8.677  68.292  1.00  0.00    -0.064 OA 
BRANCH  25  27
HETATM   27  C   UNL     1      -6.846  10.007  70.341  1.00  0.00    -0.136 C  
HETATM   28  O   UNL     1      -6.591  11.379  70.510  1.00  0.00    -0.508 OA 
HETATM   29  H   UNL     1      -6.227  11.660  71.341  1.00  0.00     0.000 HD 
ENDBRANCH  25  27
ENDBRANCH  22  25
TORSDOF 2
ENDMDL
MODEL       50
REMARK 921   NORMALIZED FREE ENERGY PREDICTED BY IDOCK:   -4.89 KCAL/MOL
REMARK 922        TOTAL FREE ENERGY PREDICTED BY IDOCK:   -5.71 KCAL/MOL
REMARK 923 INTER-LIGAND FREE ENERGY PREDICTED BY IDOCK:   -5.24 KCAL/MOL
REMARK 924 INTRA-LIGAND FREE ENERGY PREDICTED BY IDOCK:   -0.47 KCAL/MOL
REMARK 927      BINDING AFFINITY PREDICTED BY RF-SCORE:    0.00 PKD
ROOT
HETATM    1  C   UNL     1     -11.001   8.387  71.498  1.00  0.00    -0.326 C  
HETATM    2  C   UNL     1     -11.226   9.451  70.381  1.00  0.00    -0.309 C  
HETATM    3  C   UNL     1     -11.961   7.204  71.023  1.00  0.00    -0.387 C  
HETATM    4  C   UNL     1     -10.935   6.262  70.363  1.00  0.00    -0.385 C  
HETATM    5  C   UNL     1     -10.661   5.863  68.823  1.00  0.00    -0.354 C  
HETATM    6  C   UNL     1     -10.094   7.103  67.993  1.00  0.00    -0.201 C  
HETATM    7  C   UNL     1      -9.535   6.819  66.631  1.00  0.00    -0.205 C  
HETATM    8  C   UNL     1      -8.525   5.647  66.678  1.00  0.00    -0.113 C  
HETATM    9  C   UNL     1      -7.632   5.518  65.668  1.00  0.00    -0.083 C  
HETATM   10  C   UNL     1      -8.474   5.189  64.487  1.00  0.00    -0.141 C  
HETATM   11  O   UNL     1      -8.151   5.570  63.364  1.00  0.00    -0.099 OA 
HETATM   12  C   UNL     1      -9.763   4.424  64.753  1.00  0.00    -0.134 C  
HETATM   13  C   UNL     1     -10.126   4.047  66.028  1.00  0.00    -0.083 C  
HETATM   14  C   UNL     1      -9.178   4.350  67.216  1.00  0.00    -0.160 C  
HETATM   15  C   UNL     1      -9.540   4.820  68.672  1.00  0.00    -0.223 C  
HETATM   16  C   UNL     1      -8.296   3.085  67.314  1.00  0.00    -0.091 C  
HETATM   17  C   UNL     1      -9.382   4.072  69.978  1.00  0.00    -0.172 C  
HETATM   18  O   UNL     1      -9.716   2.892  70.142  1.00  0.00    -0.110 OA 
HETATM   19  C   UNL     1      -8.837   4.972  71.109  1.00  0.00    -0.149 C  
HETATM   20  C   UNL     1      -9.881   6.049  71.517  1.00  0.00    -0.197 C  
HETATM   21  C   UNL     1     -10.472   5.495  72.848  1.00  0.00    -0.250 C  
HETATM   22  C   UNL     1      -9.524   7.638  71.652  1.00  0.00    -0.146 C  
HETATM   23  H   UNL     1      -7.851   7.626  70.607  1.00  0.00     0.000 HD 
HETATM   24  O   UNL     1      -8.694   8.055  70.519  1.00  0.00    -0.132 OA 
ENDROOT
BRANCH  22  25
HETATM   25  C   UNL     1      -8.511   8.123  72.699  1.00  0.00    -0.190 C  
HETATM   26  O   UNL     1      -8.875   8.577  73.781  1.00  0.00    -0.209 OA 
BRANCH  25  27
HETATM   27  C   UNL     1      -7.043   8.277  72.192  1.00  0.00    -0.090 C  
HETATM   28  O   UNL     1      -6.589   9.573  71.894  1.00  0.00    -0.298 OA 
HETATM   29  H   UNL     1      -5.695   9.667  71.585  1.00  0.00     0.000 HD 
ENDBRANCH  25  27
ENDBRANCH  22  25
TORSDOF 2
ENDMDL
MODEL       51
REMARK 921   NORMALIZED FREE ENERGY PREDICTED BY IDOCK:   -4.81 KCAL/MOL
REMARK 922        TOTAL FREE ENERGY PREDICTED BY IDOCK:   -5.62 KCAL/MOL
REMARK 923 INTER-LIGAND FREE ENERGY PREDICTED BY IDOCK:   -5.28 KCAL/MOL
REMARK 924 INTRA-LIGAND FREE ENERGY PREDICTED BY IDOCK:   -0.35 KCAL/MOL
REMARK 927      BINDING AFFINITY PREDICTED BY RF-SCORE:    0.00 PKD
ROOT
HETATM    1  C   UNL     1     -10.416  12.867  65.908  1.00  0.00    -0.294 C  
HETATM    2  C   UNL     1      -9.961  12.255  64.548  1.00  0.00    -0.217 C  
HETATM    3  C   UNL     1     -11.727  12.016  66.230  1.00  0.00    -0.319 C  
HETATM    4  C   UNL     1     -11.158  11.002  67.241  1.00  0.00    -0.359 C  
HETATM    5  C   UNL     1     -10.871   9.416  67.144  1.00  0.00    -0.132 C  
HETATM    6  C   UNL     1      -9.684   9.101  66.124  1.00  0.00    -0.357 C  
HETATM    7  C   UNL     1      -9.120   7.713  66.134  1.00  0.00    -0.189 C  
HETATM    8  C   UNL     1      -8.775   7.263  67.574  1.00  0.00    -0.121 C  
HETATM    9  C   UNL     1      -7.901   6.243  67.745  1.00  0.00    -0.106 C  
HETATM   10  C   UNL     1      -8.614   5.064  67.186  1.00  0.00    -0.104 C  
HETATM   11  O   UNL     1      -7.989   4.160  66.635  1.00  0.00    -0.096 OA 
HETATM   12  C   UNL     1     -10.134   5.071  67.279  1.00  0.00    -0.226 C  
HETATM   13  C   UNL     1     -10.814   6.118  67.862  1.00  0.00    -0.406 C  
HETATM   14  C   UNL     1     -10.020   7.289  68.495  1.00  0.00    -0.168 C  
HETATM   15  C   UNL     1     -10.341   8.828  68.464  1.00  0.00    -0.231 C  
HETATM   16  C   UNL     1      -9.839   6.856  69.968  1.00  0.00    -0.180 C  
HETATM   17  C   UNL     1     -10.738   9.740  69.604  1.00  0.00    -0.242 C  
HETATM   18  O   UNL     1     -11.594   9.452  70.451  1.00  0.00    -0.257 OA 
HETATM   19  C   UNL     1     -10.018  11.104  69.546  1.00  0.00     0.166 C  
HETATM   20  C   UNL     1     -10.503  11.939  68.327  1.00  0.00    -0.221 C  
HETATM   21  C   UNL     1     -11.473  12.980  68.964  1.00  0.00    -0.353 C  
HETATM   22  C   UNL     1      -9.485  12.658  67.270  1.00  0.00    -0.199 C  
HETATM   23  H   UNL     1      -7.866  11.617  67.708  1.00  0.00     0.000 HD 
HETATM   24  O   UNL     1      -8.398  11.737  66.929  1.00  0.00    -0.163 OA 
ENDROOT
BRANCH  22  25
HETATM   25  C   UNL     1      -8.531  13.766  67.738  1.00  0.00    -0.181 C  
HETATM   26  O   UNL     1      -8.496  14.860  67.180  1.00  0.00    -0.193 OA 
BRANCH  25  27
HETATM   27  C   UNL     1      -7.428  13.321  68.749  1.00  0.00    -0.053 C  
HETATM   28  O   UNL     1      -6.087  13.460  68.353  1.00  0.00    -0.077 OA 
HETATM   29  H   UNL     1      -5.416  13.189  68.969  1.00  0.00     0.000 HD 
ENDBRANCH  25  27
ENDBRANCH  22  25
TORSDOF 2
ENDMDL
MODEL       52
REMARK 921   NORMALIZED FREE ENERGY PREDICTED BY IDOCK:   -4.74 KCAL/MOL
REMARK 922        TOTAL FREE ENERGY PREDICTED BY IDOCK:   -5.54 KCAL/MOL
REMARK 923 INTER-LIGAND FREE ENERGY PREDICTED BY IDOCK:   -5.20 KCAL/MOL
REMARK 924 INTRA-LIGAND FREE ENERGY PREDICTED BY IDOCK:   -0.34 KCAL/MOL
REMARK 927      BINDING AFFINITY PREDICTED BY RF-SCORE:    0.00 PKD
ROOT
HETATM    1  C   UNL     1     -11.105  15.219  68.119  1.00  0.00    -0.309 C  
HETATM    2  C   UNL     1     -12.373  14.796  68.922  1.00  0.00    -0.049 C  
HETATM    3  C   UNL     1      -9.936  14.898  69.157  1.00  0.00    -0.213 C  
HETATM    4  C   UNL     1      -9.441  13.546  68.608  1.00  0.00    -0.057 C  
HETATM    5  C   UNL     1      -9.553  12.038  69.175  1.00  0.00     0.392 C  
HETATM    6  C   UNL     1     -11.062  11.520  69.157  1.00  0.00    -0.316 C  
HETATM    7  C   UNL     1     -11.289  10.057  69.390  1.00  0.00    -0.192 C  
HETATM    8  C   UNL     1     -10.377   9.201  68.478  1.00  0.00    -0.236 C  
HETATM    9  C   UNL     1     -10.716   7.912  68.246  1.00  0.00    -0.088 C  
HETATM   10  C   UNL     1     -10.571   7.260  69.575  1.00  0.00    -0.234 C  
HETATM   11  O   UNL     1     -11.307   6.330  69.898  1.00  0.00    -0.397 OA 
HETATM   12  C   UNL     1      -9.520   7.838  70.513  1.00  0.00    -0.163 C  
HETATM   13  C   UNL     1      -8.737   8.909  70.144  1.00  0.00    -0.168 C  
HETATM   14  C   UNL     1      -8.878   9.506  68.721  1.00  0.00    -0.132 C  
HETATM   15  C   UNL     1      -8.839  11.014  68.275  1.00  0.00    -0.144 C  
HETATM   16  C   UNL     1      -7.837   8.722  67.889  1.00  0.00    -0.102 C  
HETATM   17  C   UNL     1      -7.802  11.730  67.438  1.00  0.00    -0.155 C  
HETATM   18  O   UNL     1      -6.581  11.619  67.608  1.00  0.00    -0.069 OA 
HETATM   19  C   UNL     1      -8.438  12.682  66.402  1.00  0.00     0.230 C  
HETATM   20  C   UNL     1      -9.127  13.887  67.101  1.00  0.00    -0.245 C  
HETATM   21  C   UNL     1      -8.116  15.055  66.892  1.00  0.00    -0.161 C  
HETATM   22  C   UNL     1     -10.652  14.367  66.764  1.00  0.00    -0.282 C  
HETATM   23  H   UNL     1     -11.268  12.709  65.889  1.00  0.00     0.000 HD 
HETATM   24  O   UNL     1     -11.527  13.196  66.663  1.00  0.00    -0.317 OA 
ENDROOT
BRANCH  22  25
HETATM   25  C   UNL     1     -11.017  14.882  65.364  1.00  0.00    -0.364 C  
HETATM   26  O   UNL     1     -11.032  16.084  65.106  1.00  0.00    -0.389 OA 
BRANCH  25  27
HETATM   27  C   UNL     1     -11.639  13.824  64.400  1.00  0.00    -0.395 C  
HETATM   28  O   UNL     1     -13.013  13.560  64.524  1.00  0.00    -0.643 OA 
HETATM   29  H   UNL     1     -13.392  12.915  63.937  1.00  0.00     0.000 HD 
ENDBRANCH  25  27
ENDBRANCH  22  25
TORSDOF 2
ENDMDL
MODEL       53
REMARK 921   NORMALIZED FREE ENERGY PREDICTED BY IDOCK:   -4.70 KCAL/MOL
REMARK 922        TOTAL FREE ENERGY PREDICTED BY IDOCK:   -5.50 KCAL/MOL
REMARK 923 INTER-LIGAND FREE ENERGY PREDICTED BY IDOCK:   -5.17 KCAL/MOL
REMARK 924 INTRA-LIGAND FREE ENERGY PREDICTED BY IDOCK:   -0.33 KCAL/MOL
REMARK 927      BINDING AFFINITY PREDICTED BY RF-SCORE:    0.00 PKD
ROOT
HETATM    1  C   UNL     1      -9.816   6.052  66.195  1.00  0.00    -0.032 C  
HETATM    2  C   UNL     1      -9.665   4.500  66.193  1.00  0.00    -0.215 C  
HETATM    3  C   UNL     1     -11.220   6.246  66.929  1.00  0.00    -0.194 C  
HETATM    4  C   UNL     1     -10.742   6.610  68.348  1.00  0.00    -0.314 C  
HETATM    5  C   UNL     1     -10.791   5.810  69.749  1.00  0.00    -0.419 C  
HETATM    6  C   UNL     1      -9.827   4.538  69.726  1.00  0.00    -0.295 C  
HETATM    7  C   UNL     1      -9.554   3.859  71.034  1.00  0.00    -0.251 C  
HETATM    8  C   UNL     1      -9.128   4.884  72.114  1.00  0.00    -0.148 C  
HETATM    9  C   UNL     1      -8.460   4.439  73.204  1.00  0.00    -0.094 C  
HETATM   10  C   UNL     1      -9.457   3.595  73.914  1.00  0.00    -0.095 C  
HETATM   11  O   UNL     1      -9.098   2.607  74.552  1.00  0.00    -0.077 OA 
HETATM   12  C   UNL     1     -10.921   3.983  73.760  1.00  0.00    -0.326 C  
HETATM   13  C   UNL     1     -11.302   5.070  73.003  1.00  0.00    -0.374 C  
HETATM   14  C   UNL     1     -10.219   5.960  72.342  1.00  0.00    -0.217 C  
HETATM   15  C   UNL     1     -10.228   6.633  70.921  1.00  0.00    -0.219 C  
HETATM   16  C   UNL     1      -9.945   7.052  73.401  1.00  0.00    -0.296 C  
HETATM   17  C   UNL     1     -10.291   8.103  70.567  1.00  0.00    -0.202 C  
HETATM   18  O   UNL     1     -11.074   8.905  71.090  1.00  0.00    -0.247 OA 
HETATM   19  C   UNL     1      -9.327   8.473  69.419  1.00  0.00    -0.154 C  
HETATM   20  C   UNL     1      -9.784   7.833  68.078  1.00  0.00    -0.176 C  
HETATM   21  C   UNL     1     -10.440   9.023  67.314  1.00  0.00    -0.343 C  
HETATM   22  C   UNL     1      -8.783   6.990  67.099  1.00  0.00    -0.121 C  
HETATM   23  H   UNL     1      -7.362   6.626  68.419  1.00  0.00     0.000 HD 
HETATM   24  O   UNL     1      -7.952   6.089  67.902  1.00  0.00    -0.104 OA 
ENDROOT
BRANCH  22  25
HETATM   25  C   UNL     1      -7.577   7.675  66.441  1.00  0.00    -0.088 C  
HETATM   26  O   UNL     1      -7.705   8.700  65.776  1.00  0.00    -0.087 OA 
BRANCH  25  27
HETATM   27  C   UNL     1      -6.258   6.841  66.423  1.00  0.00    -0.044 C  
HETATM   28  O   UNL     1      -6.183   5.760  65.528  1.00  0.00    -0.034 OA 
HETATM   29  H   UNL     1      -5.380   5.252  65.518  1.00  0.00     0.000 HD 
ENDBRANCH  25  27
ENDBRANCH  22  25
TORSDOF 2
ENDMDL
MODEL       54
REMARK 921   NORMALIZED FREE ENERGY PREDICTED BY IDOCK:   -4.66 KCAL/MOL
REMARK 922        TOTAL FREE ENERGY PREDICTED BY IDOCK:   -5.45 KCAL/MOL
REMARK 923 INTER-LIGAND FREE ENERGY PREDICTED BY IDOCK:   -4.98 KCAL/MOL
REMARK 924 INTRA-LIGAND FREE ENERGY PREDICTED BY IDOCK:   -0.47 KCAL/MOL
REMARK 927      BINDING AFFINITY PREDICTED BY RF-SCORE:    0.00 PKD
ROOT
HETATM    1  C   UNL     1     -10.803  12.288  67.464  1.00  0.00    -0.271 C  
HETATM    2  C   UNL     1     -12.099  11.521  67.867  1.00  0.00     0.054 C  
HETATM    3  C   UNL     1      -9.793  11.861  68.624  1.00  0.00    -0.139 C  
HETATM    4  C   UNL     1      -8.987  10.765  67.901  1.00  0.00    -0.139 C  
HETATM    5  C   UNL     1      -8.935   9.161  68.077  1.00  0.00    -0.129 C  
HETATM    6  C   UNL     1     -10.307   8.482  67.627  1.00  0.00    -0.317 C  
HETATM    7  C   UNL     1     -10.316   6.991  67.471  1.00  0.00    -0.288 C  
HETATM    8  C   UNL     1      -9.127   6.516  66.602  1.00  0.00    -0.159 C  
HETATM    9  C   UNL     1      -9.195   5.296  66.019  1.00  0.00    -0.163 C  
HETATM   10  C   UNL     1      -9.172   4.350  67.167  1.00  0.00    -0.142 C  
HETATM   11  O   UNL     1      -9.783   3.285  67.111  1.00  0.00    -0.127 OA 
HETATM   12  C   UNL     1      -8.415   4.796  68.410  1.00  0.00    -0.096 C  
HETATM   13  C   UNL     1      -7.775   6.015  68.464  1.00  0.00    -0.095 C  
HETATM   14  C   UNL     1      -7.768   6.932  67.215  1.00  0.00    -0.109 C  
HETATM   15  C   UNL     1      -7.911   8.496  67.140  1.00  0.00    -0.097 C  
HETATM   16  C   UNL     1      -6.480   6.521  66.465  1.00  0.00    -0.043 C  
HETATM   17  C   UNL     1      -6.883   9.525  66.722  1.00  0.00    -0.080 C  
HETATM   18  O   UNL     1      -5.710   9.527  67.114  1.00  0.00    -0.046 OA 
HETATM   19  C   UNL     1      -7.484  10.623  65.817  1.00  0.00    -0.114 C  
HETATM   20  C   UNL     1      -8.480  11.515  66.610  1.00  0.00    -0.172 C  
HETATM   21  C   UNL     1      -7.663  12.814  66.886  1.00  0.00     0.113 C  
HETATM   22  C   UNL     1      -9.983  11.872  66.078  1.00  0.00    -0.232 C  
HETATM   23  H   UNL     1     -10.145  10.429  64.742  1.00  0.00     0.000 HD 
HETATM   24  O   UNL     1     -10.613  10.666  65.534  1.00  0.00    -0.212 OA 
ENDROOT
BRANCH  22  25
HETATM   25  C   UNL     1     -10.182  12.677  64.785  1.00  0.00    -0.283 C  
HETATM   26  O   UNL     1     -10.537  13.854  64.810  1.00  0.00    -0.391 OA 
BRANCH  25  27
HETATM   27  C   UNL     1     -10.195  11.841  63.468  1.00  0.00    -0.450 C  
HETATM   28  O   UNL     1     -11.442  11.423  62.973  1.00  0.00    -0.853 OA 
HETATM   29  H   UNL     1     -11.450  10.914  62.171  1.00  0.00     0.000 HD 
ENDBRANCH  25  27
ENDBRANCH  22  25
TORSDOF 2
ENDMDL
MODEL       55
REMARK 921   NORMALIZED FREE ENERGY PREDICTED BY IDOCK:   -4.64 KCAL/MOL
REMARK 922        TOTAL FREE ENERGY PREDICTED BY IDOCK:   -5.43 KCAL/MOL
REMARK 923 INTER-LIGAND FREE ENERGY PREDICTED BY IDOCK:   -4.92 KCAL/MOL
REMARK 924 INTRA-LIGAND FREE ENERGY PREDICTED BY IDOCK:   -0.50 KCAL/MOL
REMARK 927      BINDING AFFINITY PREDICTED BY RF-SCORE:    0.00 PKD
ROOT
HETATM    1  C   UNL     1      -9.180   8.252  67.290  1.00  0.00    -0.165 C  
HETATM    2  C   UNL     1     -10.720   8.491  67.258  1.00  0.00    -0.219 C  
HETATM    3  C   UNL     1      -8.698   9.035  65.986  1.00  0.00    -0.184 C  
HETATM    4  C   UNL     1      -8.187  10.343  66.620  1.00  0.00    -0.128 C  
HETATM    5  C   UNL     1      -8.753  11.855  66.596  1.00  0.00    -0.185 C  
HETATM    6  C   UNL     1     -10.127  11.974  67.399  1.00  0.00    -0.206 C  
HETATM    7  C   UNL     1     -10.629  13.354  67.699  1.00  0.00    -0.249 C  
HETATM    8  C   UNL     1      -9.516  14.225  68.331  1.00  0.00    -0.213 C  
HETATM    9  C   UNL     1      -9.872  15.327  69.032  1.00  0.00    -0.230 C  
HETATM   10  C   UNL     1     -10.463  16.227  68.006  1.00  0.00    -0.293 C  
HETATM   11  O   UNL     1     -11.381  16.991  68.299  1.00  0.00    -0.174 OA 
HETATM   12  C   UNL     1      -9.918  16.107  66.590  1.00  0.00    -0.270 C  
HETATM   13  C   UNL     1      -8.918  15.211  66.277  1.00  0.00    -0.274 C  
HETATM   14  C   UNL     1      -8.287  14.347  67.398  1.00  0.00    -0.216 C  
HETATM   15  C   UNL     1      -7.841  12.840  67.348  1.00  0.00    -0.172 C  
HETATM   16  C   UNL     1      -7.091  15.197  67.886  1.00  0.00    -0.161 C  
HETATM   17  C   UNL     1      -6.446  12.259  67.428  1.00  0.00    -0.157 C  
HETATM   18  O   UNL     1      -5.479  12.695  66.791  1.00  0.00    -0.278 OA 
HETATM   19  C   UNL     1      -6.381  11.006  68.329  1.00  0.00    -0.056 C  
HETATM   20  C   UNL     1      -7.153   9.818  67.689  1.00  0.00    -0.088 C  
HETATM   21  C   UNL     1      -6.018   8.917  67.115  1.00  0.00    -0.057 C  
HETATM   22  C   UNL     1      -8.256   8.926  68.498  1.00  0.00    -0.116 C  
HETATM   23  H   UNL     1      -8.597  10.192  69.973  1.00  0.00     0.000 HD 
HETATM   24  O   UNL     1      -9.125   9.808  69.283  1.00  0.00    -0.160 OA 
ENDROOT
BRANCH  22  25
HETATM   25  C   UNL     1      -7.841   8.089  69.717  1.00  0.00    -0.106 C  
HETATM   26  O   UNL     1      -7.546   6.901  69.610  1.00  0.00    -0.096 OA 
BRANCH  25  27
HETATM   27  C   UNL     1      -8.098   8.752  71.107  1.00  0.00    -0.157 C  
HETATM   28  O   UNL     1      -7.096   9.591  71.624  1.00  0.00    -0.311 OA 
HETATM   29  H   UNL     1      -7.253   9.994  72.470  1.00  0.00     0.000 HD 
ENDBRANCH  25  27
ENDBRANCH  22  25
TORSDOF 2
ENDMDL
MODEL       56
REMARK 921   NORMALIZED FREE ENERGY PREDICTED BY IDOCK:   -4.59 KCAL/MOL
REMARK 922        TOTAL FREE ENERGY PREDICTED BY IDOCK:   -5.38 KCAL/MOL
REMARK 923 INTER-LIGAND FREE ENERGY PREDICTED BY IDOCK:   -4.92 KCAL/MOL
REMARK 924 INTRA-LIGAND FREE ENERGY PREDICTED BY IDOCK:   -0.46 KCAL/MOL
REMARK 927      BINDING AFFINITY PREDICTED BY RF-SCORE:    0.00 PKD
ROOT
HETATM    1  C   UNL     1      -9.291  10.497  65.978  1.00  0.00    -0.215 C  
HETATM    2  C   UNL     1      -8.410   9.493  65.173  1.00  0.00    -0.148 C  
HETATM    3  C   UNL     1     -10.643   9.670  66.168  1.00  0.00     0.015 C  
HETATM    4  C   UNL     1     -10.459   9.167  67.613  1.00  0.00    -0.323 C  
HETATM    5  C   UNL     1     -10.172   7.700  68.224  1.00  0.00    -0.229 C  
HETATM    6  C   UNL     1      -8.714   7.182  67.833  1.00  0.00    -0.126 C  
HETATM    7  C   UNL     1      -8.201   5.970  68.549  1.00  0.00    -0.110 C  
HETATM    8  C   UNL     1      -8.367   6.117  70.081  1.00  0.00    -0.128 C  
HETATM    9  C   UNL     1      -7.612   5.341  70.894  1.00  0.00    -0.088 C  
HETATM   10  C   UNL     1      -8.106   3.963  70.633  1.00  0.00    -0.054 C  
HETATM   11  O   UNL     1      -7.341   3.003  70.696  1.00  0.00    -0.037 OA 
HETATM   12  C   UNL     1      -9.568   3.821  70.231  1.00  0.00    -0.257 C  
HETATM   13  C   UNL     1     -10.395   4.919  70.123  1.00  0.00    -0.253 C  
HETATM   14  C   UNL     1      -9.850   6.325  70.477  1.00  0.00    -0.207 C  
HETATM   15  C   UNL     1     -10.125   7.698  69.762  1.00  0.00    -0.196 C  
HETATM   16  C   UNL     1     -10.181   6.480  71.979  1.00  0.00    -0.212 C  
HETATM   17  C   UNL     1     -10.875   8.906  70.280  1.00  0.00    -0.239 C  
HETATM   18  O   UNL     1     -11.969   8.844  70.855  1.00  0.00    -0.282 OA 
HETATM   19  C   UNL     1     -10.164  10.233  69.936  1.00  0.00    -0.250 C  
HETATM   20  C   UNL     1     -10.200  10.504  68.406  1.00  0.00    -0.192 C  
HETATM   21  C   UNL     1     -11.317  11.581  68.256  1.00  0.00    -0.352 C  
HETATM   22  C   UNL     1      -8.877  10.909  67.535  1.00  0.00    -0.133 C  
HETATM   23  H   UNL     1      -7.512  10.299  68.823  1.00  0.00     0.000 HD 
HETATM   24  O   UNL     1      -7.748  10.064  67.933  1.00  0.00    -0.089 OA 
ENDROOT
BRANCH  22  25
HETATM   25  C   UNL     1      -8.126  12.217  67.820  1.00  0.00    -0.155 C  
HETATM   26  O   UNL     1      -8.334  13.233  67.161  1.00  0.00    -0.180 OA 
BRANCH  25  27
HETATM   27  C   UNL     1      -6.900  12.093  68.778  1.00  0.00    -0.095 C  
HETATM   28  O   UNL     1      -7.144  11.671  70.096  1.00  0.00    -0.387 OA 
HETATM   29  H   UNL     1      -6.398  11.596  70.679  1.00  0.00     0.000 HD 
ENDBRANCH  25  27
ENDBRANCH  22  25
TORSDOF 2
ENDMDL
MODEL       57
REMARK 921   NORMALIZED FREE ENERGY PREDICTED BY IDOCK:   -4.57 KCAL/MOL
REMARK 922        TOTAL FREE ENERGY PREDICTED BY IDOCK:   -5.35 KCAL/MOL
REMARK 923 INTER-LIGAND FREE ENERGY PREDICTED BY IDOCK:   -5.47 KCAL/MOL
REMARK 924 INTRA-LIGAND FREE ENERGY PREDICTED BY IDOCK:    0.12 KCAL/MOL
REMARK 927      BINDING AFFINITY PREDICTED BY RF-SCORE:    0.00 PKD
ROOT
HETATM    1  C   UNL     1      -8.650  10.888  65.426  1.00  0.00    -0.123 C  
HETATM    2  C   UNL     1      -8.501   9.337  65.399  1.00  0.00    -0.157 C  
HETATM    3  C   UNL     1     -10.235  11.068  65.391  1.00  0.00    -0.333 C  
HETATM    4  C   UNL     1     -10.517  11.334  66.882  1.00  0.00    -0.286 C  
HETATM    5  C   UNL     1     -11.237  10.450  68.026  1.00  0.00    -0.340 C  
HETATM    6  C   UNL     1     -10.371   9.161  68.395  1.00  0.00    -0.242 C  
HETATM    7  C   UNL     1     -10.766   8.398  69.623  1.00  0.00    -0.201 C  
HETATM    8  C   UNL     1     -10.935   9.344  70.836  1.00  0.00    -0.391 C  
HETATM    9  C   UNL     1     -10.881   8.819  72.082  1.00  0.00    -0.400 C  
HETATM   10  C   UNL     1     -12.089   7.955  72.159  1.00  0.00    -0.326 C  
HETATM   11  O   UNL     1     -12.078   6.922  72.825  1.00  0.00     0.040 OA 
HETATM   12  C   UNL     1     -13.294   8.385  71.333  1.00  0.00    -0.244 C  
HETATM   13  C   UNL     1     -13.267   9.524  70.558  1.00  0.00     0.246 C  
HETATM   14  C   UNL     1     -12.008  10.428  70.571  1.00  0.00    -0.427 C  
HETATM   15  C   UNL     1     -11.328  11.188  69.374  1.00  0.00    -0.352 C  
HETATM   16  C   UNL     1     -12.300  11.447  71.696  1.00  0.00    -0.069 C  
HETATM   17  C   UNL     1     -11.225  12.677  69.129  1.00  0.00    -0.243 C  
HETATM   18  O   UNL     1     -12.173  13.464  69.253  1.00  0.00    -0.284 OA 
HETATM   19  C   UNL     1      -9.827  13.096  68.626  1.00  0.00    -0.089 C  
HETATM   20  C   UNL     1      -9.563  12.550  67.195  1.00  0.00    -0.208 C  
HETATM   21  C   UNL     1      -9.774  13.799  66.286  1.00  0.00    -0.297 C  
HETATM   22  C   UNL     1      -8.202  11.746  66.779  1.00  0.00    -0.147 C  
HETATM   23  H   UNL     1      -7.605  11.270  68.598  1.00  0.00     0.000 HD 
HETATM   24  O   UNL     1      -7.860  10.780  67.826  1.00  0.00    -0.106 OA 
ENDROOT
BRANCH  22  25
HETATM   25  C   UNL     1      -6.835  12.443  66.840  1.00  0.00     0.131 C  
HETATM   26  O   UNL     1      -5.838  11.948  66.320  1.00  0.00    -0.160 OA 
BRANCH  25  27
HETATM   27  C   UNL     1      -6.736  13.642  67.836  1.00  0.00    -0.153 C  
HETATM   28  O   UNL     1      -6.288  14.874  67.330  1.00  0.00    -0.310 OA 
HETATM   29  H   UNL     1      -6.228  15.603  67.936  1.00  0.00     0.000 HD 
ENDBRANCH  25  27
ENDBRANCH  22  25
TORSDOF 2
ENDMDL
MODEL       58
REMARK 921   NORMALIZED FREE ENERGY PREDICTED BY IDOCK:   -4.54 KCAL/MOL
REMARK 922        TOTAL FREE ENERGY PREDICTED BY IDOCK:   -5.31 KCAL/MOL
REMARK 923 INTER-LIGAND FREE ENERGY PREDICTED BY IDOCK:   -4.85 KCAL/MOL
REMARK 924 INTRA-LIGAND FREE ENERGY PREDICTED BY IDOCK:   -0.46 KCAL/MOL
REMARK 927      BINDING AFFINITY PREDICTED BY RF-SCORE:    0.00 PKD
ROOT
HETATM    1  C   UNL     1      -9.144   5.249  72.793  1.00  0.00    -0.138 C  
HETATM    2  C   UNL     1      -9.497   3.738  72.643  1.00  0.00    -0.171 C  
HETATM    3  C   UNL     1      -7.694   5.316  72.130  1.00  0.00    -0.100 C  
HETATM    4  C   UNL     1      -8.052   5.866  70.736  1.00  0.00    -0.119 C  
HETATM    5  C   UNL     1      -8.043   5.193  69.268  1.00  0.00    -0.084 C  
HETATM    6  C   UNL     1      -9.165   4.066  69.138  1.00  0.00    -0.217 C  
HETATM    7  C   UNL     1      -9.463   3.550  67.763  1.00  0.00    -0.230 C  
HETATM    8  C   UNL     1      -9.699   4.714  66.770  1.00  0.00    -0.214 C  
HETATM    9  C   UNL     1     -10.367   4.462  65.620  1.00  0.00    -0.252 C  
HETATM   10  C   UNL     1      -9.457   3.557  64.868  1.00  0.00    -0.158 C  
HETATM   11  O   UNL     1      -9.912   2.687  64.129  1.00  0.00    -0.150 OA 
HETATM   12  C   UNL     1      -7.964   3.729  65.110  1.00  0.00    -0.093 C  
HETATM   13  C   UNL     1      -7.480   4.683  65.979  1.00  0.00    -0.082 C  
HETATM   14  C   UNL     1      -8.467   5.648  66.683  1.00  0.00    -0.113 C  
HETATM   15  C   UNL     1      -8.437   6.186  68.160  1.00  0.00    -0.116 C  
HETATM   16  C   UNL     1      -8.545   6.858  65.722  1.00  0.00    -0.139 C  
HETATM   17  C   UNL     1      -8.198   7.596  68.653  1.00  0.00    -0.128 C  
HETATM   18  O   UNL     1      -7.293   8.329  68.236  1.00  0.00    -0.091 OA 
HETATM   19  C   UNL     1      -9.159   7.990  69.797  1.00  0.00    -0.149 C  
HETATM   20  C   UNL     1      -8.853   7.178  71.086  1.00  0.00    -0.144 C  
HETATM   21  C   UNL     1      -8.083   8.196  71.981  1.00  0.00    -0.178 C  
HETATM   22  C   UNL     1     -10.001   6.394  71.945  1.00  0.00    -0.175 C  
HETATM   23  H   UNL     1     -11.394   6.343  70.548  1.00  0.00     0.000 HD 
HETATM   24  O   UNL     1     -10.904   5.689  71.033  1.00  0.00    -0.260 OA 
ENDROOT
BRANCH  22  25
HETATM   25  C   UNL     1     -11.137   7.175  72.623  1.00  0.00    -0.292 C  
HETATM   26  O   UNL     1     -11.005   7.655  73.746  1.00  0.00    -0.220 OA 
BRANCH  25  27
HETATM   27  C   UNL     1     -12.533   7.063  71.933  1.00  0.00    -0.311 C  
HETATM   28  O   UNL     1     -12.693   7.685  70.683  1.00  0.00    -0.531 OA 
HETATM   29  H   UNL     1     -13.543   7.618  70.264  1.00  0.00     0.000 HD 
ENDBRANCH  25  27
ENDBRANCH  22  25
TORSDOF 2
ENDMDL
MODEL       59
REMARK 921   NORMALIZED FREE ENERGY PREDICTED BY IDOCK:   -4.43 KCAL/MOL
REMARK 922        TOTAL FREE ENERGY PREDICTED BY IDOCK:   -5.19 KCAL/MOL
REMARK 923 INTER-LIGAND FREE ENERGY PREDICTED BY IDOCK:   -5.10 KCAL/MOL
REMARK 924 INTRA-LIGAND FREE ENERGY PREDICTED BY IDOCK:   -0.10 KCAL/MOL
REMARK 927      BINDING AFFINITY PREDICTED BY RF-SCORE:    0.00 PKD
ROOT
HETATM    1  C   UNL     1      -9.110  10.842  68.331  1.00  0.00    -0.164 C  
HETATM    2  C   UNL     1      -8.684  11.168  66.867  1.00  0.00    -0.152 C  
HETATM    3  C   UNL     1     -10.535  10.156  68.114  1.00  0.00    -0.243 C  
HETATM    4  C   UNL     1     -10.148   8.669  68.234  1.00  0.00    -0.225 C  
HETATM    5  C   UNL     1     -10.070   7.477  67.148  1.00  0.00    -0.317 C  
HETATM    6  C   UNL     1      -8.894   7.723  66.098  1.00  0.00    -0.192 C  
HETATM    7  C   UNL     1      -8.521   6.578  65.205  1.00  0.00    -0.052 C  
HETATM    8  C   UNL     1      -8.300   5.284  66.023  1.00  0.00    -0.118 C  
HETATM    9  C   UNL     1      -7.577   4.281  65.471  1.00  0.00    -0.085 C  
HETATM   10  C   UNL     1      -8.416   3.821  64.333  1.00  0.00    -0.097 C  
HETATM   11  O   UNL     1      -7.894   3.392  63.306  1.00  0.00    -0.066 OA 
HETATM   12  C   UNL     1      -9.923   3.964  64.488  1.00  0.00    -0.205 C  
HETATM   13  C   UNL     1     -10.483   4.489  65.633  1.00  0.00    -0.261 C  
HETATM   14  C   UNL     1      -9.568   4.887  66.819  1.00  0.00    -0.170 C  
HETATM   15  C   UNL     1      -9.679   6.128  67.777  1.00  0.00    -0.118 C  
HETATM   16  C   UNL     1      -9.507   3.605  67.682  1.00  0.00    -0.234 C  
HETATM   17  C   UNL     1      -9.999   6.162  69.256  1.00  0.00    -0.158 C  
HETATM   18  O   UNL     1     -10.920   5.520  69.777  1.00  0.00    -0.310 OA 
HETATM   19  C   UNL     1      -9.103   7.152  70.030  1.00  0.00    -0.145 C  
HETATM   20  C   UNL     1      -9.421   8.621  69.632  1.00  0.00    -0.162 C  
HETATM   21  C   UNL     1     -10.270   9.145  70.830  1.00  0.00    -0.351 C  
HETATM   22  C   UNL     1      -8.273   9.705  69.210  1.00  0.00    -0.123 C  
HETATM   23  H   UNL     1      -6.827   8.422  68.813  1.00  0.00     0.000 HD 
HETATM   24  O   UNL     1      -7.305   9.072  68.311  1.00  0.00    -0.080 OA 
ENDROOT
BRANCH  22  25
HETATM   25  C   UNL     1      -7.200  10.138  70.220  1.00  0.00    -0.121 C  
HETATM   26  O   UNL     1      -7.111   9.611  71.327  1.00  0.00    -0.329 OA 
BRANCH  25  27
HETATM   27  C   UNL     1      -6.445  11.458  69.872  1.00  0.00    -0.118 C  
HETATM   28  O   UNL     1      -5.990  12.249  70.941  1.00  0.00    -0.499 OA 
HETATM   29  H   UNL     1      -5.530  13.053  70.730  1.00  0.00     0.000 HD 
ENDBRANCH  25  27
ENDBRANCH  22  25
TORSDOF 2
ENDMDL
MODEL       60
REMARK 921   NORMALIZED FREE ENERGY PREDICTED BY IDOCK:   -4.41 KCAL/MOL
REMARK 922        TOTAL FREE ENERGY PREDICTED BY IDOCK:   -5.17 KCAL/MOL
REMARK 923 INTER-LIGAND FREE ENERGY PREDICTED BY IDOCK:   -4.66 KCAL/MOL
REMARK 924 INTRA-LIGAND FREE ENERGY PREDICTED BY IDOCK:   -0.52 KCAL/MOL
REMARK 927      BINDING AFFINITY PREDICTED BY RF-SCORE:    0.00 PKD
ROOT
HETATM    1  C   UNL     1      -9.576   6.608  67.455  1.00  0.00    -0.142 C  
HETATM    2  C   UNL     1     -11.128   6.753  67.468  1.00  0.00    -0.340 C  
HETATM    3  C   UNL     1      -9.184   7.383  66.116  1.00  0.00    -0.148 C  
HETATM    4  C   UNL     1      -8.734   8.736  66.700  1.00  0.00    -0.138 C  
HETATM    5  C   UNL     1      -9.392  10.210  66.658  1.00  0.00    -0.195 C  
HETATM    6  C   UNL     1     -10.744  10.268  67.503  1.00  0.00    -0.348 C  
HETATM    7  C   UNL     1     -11.319  11.623  67.785  1.00  0.00    -0.356 C  
HETATM    8  C   UNL     1     -10.243  12.576  68.358  1.00  0.00    -0.230 C  
HETATM    9  C   UNL     1     -10.643  13.673  69.042  1.00  0.00    -0.147 C  
HETATM   10  C   UNL     1     -11.320  14.508  68.015  1.00  0.00    -0.306 C  
HETATM   11  O   UNL     1     -12.273  15.222  68.319  1.00  0.00    -0.106 OA 
HETATM   12  C   UNL     1     -10.814  14.383  66.584  1.00  0.00    -0.304 C  
HETATM   13  C   UNL     1      -9.772  13.540  66.261  1.00  0.00    -0.287 C  
HETATM   14  C   UNL     1      -9.053  12.746  67.381  1.00  0.00    -0.192 C  
HETATM   15  C   UNL     1      -8.518  11.268  67.354  1.00  0.00    -0.137 C  
HETATM   16  C   UNL     1      -7.897  13.679  67.807  1.00  0.00    -0.172 C  
HETATM   17  C   UNL     1      -7.089  10.774  67.402  1.00  0.00    -0.091 C  
HETATM   18  O   UNL     1      -6.171  11.251  66.722  1.00  0.00    -0.106 OA 
HETATM   19  C   UNL     1      -6.919   9.553  68.331  1.00  0.00    -0.066 C  
HETATM   20  C   UNL     1      -7.637   8.304  67.746  1.00  0.00    -0.102 C  
HETATM   21  C   UNL     1      -6.468   7.457  67.157  1.00  0.00    -0.060 C  
HETATM   22  C   UNL     1      -8.657   7.368  68.615  1.00  0.00    -0.129 C  
HETATM   23  H   UNL     1      -9.027   8.651  70.067  1.00  0.00     0.000 HD 
HETATM   24  O   UNL     1      -9.552   8.217  69.405  1.00  0.00    -0.165 OA 
ENDROOT
BRANCH  22  25
HETATM   25  C   UNL     1      -8.152   6.591  69.839  1.00  0.00    -0.121 C  
HETATM   26  O   UNL     1      -7.776   5.425  69.749  1.00  0.00    -0.074 OA 
BRANCH  25  27
HETATM   27  C   UNL     1      -8.423   7.265  71.221  1.00  0.00    -0.115 C  
HETATM   28  O   UNL     1      -7.516   8.247  71.655  1.00  0.00    -0.077 OA 
HETATM   29  H   UNL     1      -7.681   8.657  72.496  1.00  0.00     0.000 HD 
ENDBRANCH  25  27
ENDBRANCH  22  25
TORSDOF 2
ENDMDL
MODEL       61
REMARK 921   NORMALIZED FREE ENERGY PREDICTED BY IDOCK:   -4.40 KCAL/MOL
REMARK 922        TOTAL FREE ENERGY PREDICTED BY IDOCK:   -5.16 KCAL/MOL
REMARK 923 INTER-LIGAND FREE ENERGY PREDICTED BY IDOCK:   -5.47 KCAL/MOL
REMARK 924 INTRA-LIGAND FREE ENERGY PREDICTED BY IDOCK:    0.30 KCAL/MOL
REMARK 927      BINDING AFFINITY PREDICTED BY RF-SCORE:    0.00 PKD
ROOT
HETATM    1  C   UNL     1      -7.729  17.137  67.834  1.00  0.00    -0.188 C  
HETATM    2  C   UNL     1      -6.671  16.183  68.466  1.00  0.00    -0.126 C  
HETATM    3  C   UNL     1      -7.625  16.765  66.286  1.00  0.00    -0.275 C  
HETATM    4  C   UNL     1      -8.846  15.836  66.142  1.00  0.00    -0.346 C  
HETATM    5  C   UNL     1      -8.978  14.244  65.908  1.00  0.00     0.423 C  
HETATM    6  C   UNL     1      -8.475  13.426  67.182  1.00  0.00    -0.179 C  
HETATM    7  C   UNL     1      -8.790  11.961  67.225  1.00  0.00    -0.179 C  
HETATM    8  C   UNL     1     -10.288  11.705  66.932  1.00  0.00    -0.253 C  
HETATM    9  C   UNL     1     -10.835  10.530  67.322  1.00  0.00    -0.338 C  
HETATM   10  C   UNL     1     -10.149   9.518  66.476  1.00  0.00    -0.256 C  
HETATM   11  O   UNL     1      -9.927   8.389  66.909  1.00  0.00    -0.218 OA 
HETATM   12  C   UNL     1      -9.694   9.970  65.096  1.00  0.00    -0.380 C  
HETATM   13  C   UNL     1      -9.915  11.255  64.650  1.00  0.00    -0.331 C  
HETATM   14  C   UNL     1     -10.699  12.250  65.542  1.00  0.00    -0.314 C  
HETATM   15  C   UNL     1     -10.440  13.784  65.772  1.00  0.00    -0.303 C  
HETATM   16  C   UNL     1     -12.168  12.063  65.099  1.00  0.00    -0.075 C  
HETATM   17  C   UNL     1     -11.292  14.964  65.358  1.00  0.00    -0.346 C  
HETATM   18  O   UNL     1     -11.797  15.090  64.236  1.00  0.00    -0.380 OA 
HETATM   19  C   UNL     1     -11.391  16.036  66.466  1.00  0.00     0.286 C  
HETATM   20  C   UNL     1     -10.020  16.734  66.691  1.00  0.00    -0.300 C  
HETATM   21  C   UNL     1     -10.190  18.105  65.968  1.00  0.00    -0.325 C  
HETATM   22  C   UNL     1      -9.345  16.929  68.166  1.00  0.00    -0.240 C  
HETATM   23  H   UNL     1     -10.408  15.573  69.129  1.00  0.00     0.000 HD 
HETATM   24  O   UNL     1      -9.484  15.692  68.939  1.00  0.00    -0.199 OA 
ENDROOT
BRANCH  22  25
HETATM   25  C   UNL     1     -10.037  17.790  69.233  1.00  0.00    -0.135 C  
HETATM   26  O   UNL     1     -10.931  17.336  69.944  1.00  0.00     0.124 OA 
BRANCH  25  27
HETATM   27  C   UNL     1      -9.745  19.321  69.153  1.00  0.00    -0.321 C  
HETATM   28  O   UNL     1      -8.505  19.721  68.627  1.00  0.00    -0.293 OA 
HETATM   29  H   UNL     1      -8.327  20.653  68.579  1.00  0.00     0.000 HD 
ENDBRANCH  25  27
ENDBRANCH  22  25
TORSDOF 2
ENDMDL
MODEL       62
REMARK 921   NORMALIZED FREE ENERGY PREDICTED BY IDOCK:   -4.39 KCAL/MOL
REMARK 922        TOTAL FREE ENERGY PREDICTED BY IDOCK:   -5.16 KCAL/MOL
REMARK 923 INTER-LIGAND FREE ENERGY PREDICTED BY IDOCK:   -4.90 KCAL/MOL
REMARK 924 INTRA-LIGAND FREE ENERGY PREDICTED BY IDOCK:   -0.26 KCAL/MOL
REMARK 927      BINDING AFFINITY PREDICTED BY RF-SCORE:    0.00 PKD
ROOT
HETATM    1  C   UNL     1      -9.031   9.154  66.087  1.00  0.00    -0.211 C  
HETATM    2  C   UNL     1     -10.026   9.853  65.112  1.00  0.00    -0.278 C  
HETATM    3  C   UNL     1      -7.659   9.893  65.743  1.00  0.00    -0.113 C  
HETATM    4  C   UNL     1      -7.590  10.903  66.906  1.00  0.00    -0.128 C  
HETATM    5  C   UNL     1      -7.755  12.508  66.961  1.00  0.00    -0.044 C  
HETATM    6  C   UNL     1      -9.254  12.950  66.635  1.00  0.00    -0.222 C  
HETATM    7  C   UNL     1      -9.626  14.374  66.916  1.00  0.00    -0.263 C  
HETATM    8  C   UNL     1      -9.203  14.787  68.347  1.00  0.00    -0.189 C  
HETATM    9  C   UNL     1      -9.801  15.859  68.917  1.00  0.00    -0.226 C  
HETATM   10  C   UNL     1      -9.346  17.006  68.087  1.00  0.00    -0.254 C  
HETATM   11  O   UNL     1     -10.080  17.975  67.905  1.00  0.00    -0.319 OA 
HETATM   12  C   UNL     1      -7.972  16.885  67.442  1.00  0.00    -0.190 C  
HETATM   13  C   UNL     1      -7.186  15.768  67.625  1.00  0.00    -0.189 C  
HETATM   14  C   UNL     1      -7.677  14.632  68.558  1.00  0.00    -0.126 C  
HETATM   15  C   UNL     1      -7.540  13.076  68.374  1.00  0.00    -0.133 C  
HETATM   16  C   UNL     1      -7.097  15.015  69.939  1.00  0.00    -0.121 C  
HETATM   17  C   UNL     1      -6.724  12.092  69.184  1.00  0.00    -0.100 C  
HETATM   18  O   UNL     1      -5.548  12.281  69.518  1.00  0.00    -0.069 OA 
HETATM   19  C   UNL     1      -7.496  10.787  69.474  1.00  0.00    -0.113 C  
HETATM   20  C   UNL     1      -7.723   9.971  68.170  1.00  0.00    -0.085 C  
HETATM   21  C   UNL     1      -6.657   8.837  68.263  1.00  0.00    -0.060 C  
HETATM   22  C   UNL     1      -9.178   9.372  67.729  1.00  0.00    -0.128 C  
HETATM   23  H   UNL     1     -10.299  10.508  68.890  1.00  0.00     0.000 HD 
HETATM   24  O   UNL     1     -10.215  10.383  67.952  1.00  0.00    -0.165 OA 
ENDROOT
BRANCH  22  25
HETATM   25  C   UNL     1      -9.882   8.317  68.594  1.00  0.00    -0.176 C  
HETATM   26  O   UNL     1      -9.951   8.430  69.816  1.00  0.00    -0.185 OA 
BRANCH  25  27
HETATM   27  C   UNL     1     -10.234   6.980  67.869  1.00  0.00    -0.183 C  
HETATM   28  O   UNL     1     -11.570   6.548  67.912  1.00  0.00    -0.623 OA 
HETATM   29  H   UNL     1     -11.784   5.734  67.472  1.00  0.00     0.000 HD 
ENDBRANCH  25  27
ENDBRANCH  22  25
TORSDOF 2
ENDMDL
MODEL       63
REMARK 921   NORMALIZED FREE ENERGY PREDICTED BY IDOCK:   -4.33 KCAL/MOL
REMARK 922        TOTAL FREE ENERGY PREDICTED BY IDOCK:   -5.08 KCAL/MOL
REMARK 923 INTER-LIGAND FREE ENERGY PREDICTED BY IDOCK:   -4.64 KCAL/MOL
REMARK 924 INTRA-LIGAND FREE ENERGY PREDICTED BY IDOCK:   -0.44 KCAL/MOL
REMARK 927      BINDING AFFINITY PREDICTED BY RF-SCORE:    0.00 PKD
ROOT
HETATM    1  C   UNL     1     -10.685   7.512  71.435  1.00  0.00    -0.243 C  
HETATM    2  C   UNL     1     -11.790   6.432  71.227  1.00  0.00    -0.333 C  
HETATM    3  C   UNL     1      -9.381   6.614  71.637  1.00  0.00    -0.149 C  
HETATM    4  C   UNL     1      -8.759   6.708  70.231  1.00  0.00    -0.147 C  
HETATM    5  C   UNL     1      -8.596   5.628  69.041  1.00  0.00    -0.105 C  
HETATM    6  C   UNL     1     -10.010   5.235  68.415  1.00  0.00    -0.220 C  
HETATM    7  C   UNL     1     -10.001   4.462  67.131  1.00  0.00    -0.182 C  
HETATM    8  C   UNL     1      -9.076   5.131  66.086  1.00  0.00    -0.144 C  
HETATM    9  C   UNL     1      -9.251   4.831  64.777  1.00  0.00    -0.101 C  
HETATM   10  C   UNL     1      -8.878   3.395  64.687  1.00  0.00    -0.116 C  
HETATM   11  O   UNL     1      -9.438   2.654  63.881  1.00  0.00    -0.112 OA 
HETATM   12  C   UNL     1      -7.829   2.893  65.669  1.00  0.00    -0.085 C  
HETATM   13  C   UNL     1      -7.248   3.734  66.594  1.00  0.00    -0.068 C  
HETATM   14  C   UNL     1      -7.619   5.239  66.599  1.00  0.00    -0.088 C  
HETATM   15  C   UNL     1      -7.841   6.196  67.827  1.00  0.00    -0.105 C  
HETATM   16  C   UNL     1      -6.569   5.879  65.661  1.00  0.00    -0.044 C  
HETATM   17  C   UNL     1      -7.008   7.379  68.272  1.00  0.00    -0.079 C  
HETATM   18  O   UNL     1      -5.773   7.363  68.347  1.00  0.00    -0.022 OA 
HETATM   19  C   UNL     1      -7.877   8.581  68.703  1.00  0.00    -0.108 C  
HETATM   20  C   UNL     1      -8.654   8.266  70.011  1.00  0.00    -0.128 C  
HETATM   21  C   UNL     1      -7.846   9.028  71.105  1.00  0.00    -0.154 C  
HETATM   22  C   UNL     1     -10.259   8.522  70.185  1.00  0.00    -0.195 C  
HETATM   23  H   UNL     1     -10.719   8.643  68.270  1.00  0.00     0.000 HD 
HETATM   24  O   UNL     1     -10.963   8.066  68.984  1.00  0.00    -0.062 OA 
ENDROOT
BRANCH  22  25
HETATM   25  C   UNL     1     -10.835   9.943  70.102  1.00  0.00    -0.304 C  
HETATM   26  O   UNL     1     -11.468  10.434  71.034  1.00  0.00    -0.328 OA 
BRANCH  25  27
HETATM   27  C   UNL     1     -10.821  10.592  68.683  1.00  0.00    -0.237 C  
HETATM   28  O   UNL     1     -12.034  10.634  67.974  1.00  0.00    -0.784 OA 
HETATM   29  H   UNL     1     -12.025  11.028  67.110  1.00  0.00     0.000 HD 
ENDBRANCH  25  27
ENDBRANCH  22  25
TORSDOF 2
ENDMDL
MODEL       64
REMARK 921   NORMALIZED FREE ENERGY PREDICTED BY IDOCK:   -4.29 KCAL/MOL
REMARK 922        TOTAL FREE ENERGY PREDICTED BY IDOCK:   -5.04 KCAL/MOL
REMARK 923 INTER-LIGAND FREE ENERGY PREDICTED BY IDOCK:   -4.65 KCAL/MOL
REMARK 924 INTRA-LIGAND FREE ENERGY PREDICTED BY IDOCK:   -0.40 KCAL/MOL
REMARK 927      BINDING AFFINITY PREDICTED BY RF-SCORE:    0.00 PKD
ROOT
HETATM    1  C   UNL     1      -8.854   9.019  67.192  1.00  0.00    -0.130 C  
HETATM    2  C   UNL     1     -10.313   8.587  67.531  1.00  0.00    -0.334 C  
HETATM    3  C   UNL     1      -9.093  10.157  66.100  1.00  0.00    -0.184 C  
HETATM    4  C   UNL     1      -8.923  11.417  66.971  1.00  0.00    -0.166 C  
HETATM    5  C   UNL     1      -9.974  12.525  67.494  1.00  0.00    -0.201 C  
HETATM    6  C   UNL     1     -10.997  11.904  68.550  1.00  0.00    -0.277 C  
HETATM    7  C   UNL     1     -11.848  12.862  69.327  1.00  0.00    -0.363 C  
HETATM    8  C   UNL     1     -10.990  13.988  69.952  1.00  0.00     0.055 C  
HETATM    9  C   UNL     1     -11.495  14.687  70.996  1.00  0.00    -0.211 C  
HETATM   10  C   UNL     1     -12.643  15.426  70.408  1.00  0.00    -0.389 C  
HETATM   11  O   UNL     1     -13.644  15.663  71.082  1.00  0.00    -0.582 OA 
HETATM   12  C   UNL     1     -12.535  15.810  68.939  1.00  0.00     0.404 C  
HETATM   13  C   UNL     1     -11.421  15.494  68.193  1.00  0.00    -0.332 C  
HETATM   14  C   UNL     1     -10.220  14.787  68.871  1.00  0.00    -0.237 C  
HETATM   15  C   UNL     1      -9.299  13.646  68.304  1.00  0.00    -0.204 C  
HETATM   16  C   UNL     1      -9.323  15.955  69.339  1.00  0.00    -0.250 C  
HETATM   17  C   UNL     1      -7.832  13.703  67.939  1.00  0.00    -0.159 C  
HETATM   18  O   UNL     1      -7.320  14.615  67.278  1.00  0.00    -0.193 OA 
HETATM   19  C   UNL     1      -7.059  12.452  68.411  1.00  0.00    -0.106 C  
HETATM   20  C   UNL     1      -7.504  11.190  67.620  1.00  0.00    -0.100 C  
HETATM   21  C   UNL     1      -6.345  10.974  66.600  1.00  0.00    -0.124 C  
HETATM   22  C   UNL     1      -7.922   9.783  68.338  1.00  0.00    -0.089 C  
HETATM   23  H   UNL     1      -8.243  10.492  70.151  1.00  0.00     0.000 HD 
HETATM   24  O   UNL     1      -8.776  10.055  69.497  1.00  0.00    -0.170 OA 
ENDROOT
BRANCH  22  25
HETATM   25  C   UNL     1      -6.894   8.991  69.158  1.00  0.00    -0.054 C  
HETATM   26  O   UNL     1      -5.789   9.457  69.425  1.00  0.00    -0.034 OA 
BRANCH  25  27
HETATM   27  C   UNL     1      -7.223   7.479  69.369  1.00  0.00    -0.082 C  
HETATM   28  O   UNL     1      -8.334   7.160  70.168  1.00  0.00    -0.133 OA 
HETATM   29  H   UNL     1      -8.534   6.241  70.297  1.00  0.00     0.000 HD 
ENDBRANCH  25  27
ENDBRANCH  22  25
TORSDOF 2
ENDMDL
MODEL       65
REMARK 921   NORMALIZED FREE ENERGY PREDICTED BY IDOCK:   -4.25 KCAL/MOL
REMARK 922        TOTAL FREE ENERGY PREDICTED BY IDOCK:   -5.00 KCAL/MOL
REMARK 923 INTER-LIGAND FREE ENERGY PREDICTED BY IDOCK:   -4.51 KCAL/MOL
REMARK 924 INTRA-LIGAND FREE ENERGY PREDICTED BY IDOCK:   -0.49 KCAL/MOL
REMARK 927      BINDING AFFINITY PREDICTED BY RF-SCORE:    0.00 PKD
ROOT
HETATM    1  C   UNL     1      -6.072   4.652  68.250  1.00  0.00    -0.031 C  
HETATM    2  C   UNL     1      -6.427   5.943  67.452  1.00  0.00    -0.047 C  
HETATM    3  C   UNL     1      -5.736   5.239  69.695  1.00  0.00    -0.016 C  
HETATM    4  C   UNL     1      -7.059   4.944  70.429  1.00  0.00    -0.053 C  
HETATM    5  C   UNL     1      -8.241   5.904  70.964  1.00  0.00    -0.122 C  
HETATM    6  C   UNL     1      -9.034   6.580  69.755  1.00  0.00    -0.142 C  
HETATM    7  C   UNL     1     -10.322   7.272  70.082  1.00  0.00    -0.221 C  
HETATM    8  C   UNL     1     -11.241   6.365  70.936  1.00  0.00    -0.384 C  
HETATM    9  C   UNL     1     -12.566   6.638  70.979  1.00  0.00    -0.151 C  
HETATM   10  C   UNL     1     -12.639   7.947  71.680  1.00  0.00    -0.321 C  
HETATM   11  O   UNL     1     -13.518   8.759  71.397  1.00  0.00    -0.320 OA 
HETATM   12  C   UNL     1     -11.550   8.241  72.703  1.00  0.00    -0.419 C  
HETATM   13  C   UNL     1     -10.549   7.333  72.970  1.00  0.00    -0.371 C  
HETATM   14  C   UNL     1     -10.560   5.953  72.265  1.00  0.00    -0.260 C  
HETATM   15  C   UNL     1      -9.349   5.126  71.697  1.00  0.00    -0.183 C  
HETATM   16  C   UNL     1     -11.357   5.051  73.235  1.00  0.00    -0.393 C  
HETATM   17  C   UNL     1      -8.788   3.807  72.181  1.00  0.00    -0.097 C  
HETATM   18  O   UNL     1      -8.570   3.545  73.370  1.00  0.00    -0.085 OA 
HETATM   19  C   UNL     1      -8.439   2.854  71.017  1.00  0.00    -0.096 C  
HETATM   20  C   UNL     1      -7.236   3.394  70.195  1.00  0.00    -0.041 C  
HETATM   21  C   UNL     1      -6.042   2.518  70.683  1.00  0.00    -0.019 C  
HETATM   22  C   UNL     1      -7.245   3.516  68.566  1.00  0.00    -0.050 C  
HETATM   23  H   UNL     1      -9.198   3.418  68.301  1.00  0.00     0.000 HD 
HETATM   24  O   UNL     1      -8.528   4.066  68.120  1.00  0.00    -0.091 OA 
ENDROOT
BRANCH  22  25
HETATM   25  C   UNL     1      -7.368   2.261  67.691  1.00  0.00    -0.056 C  
HETATM   26  O   UNL     1      -6.378   1.624  67.338  1.00  0.00    -0.024 OA 
BRANCH  25  27
HETATM   27  C   UNL     1      -8.771   2.024  67.048  1.00  0.00    -0.119 C  
HETATM   28  O   UNL     1      -9.819   1.634  67.899  1.00  0.00    -0.400 OA 
HETATM   29  H   UNL     1     -10.673   1.490  67.509  1.00  0.00     0.000 HD 
ENDBRANCH  25  27
ENDBRANCH  22  25
TORSDOF 2
ENDMDL
MODEL       66
REMARK 921   NORMALIZED FREE ENERGY PREDICTED BY IDOCK:   -4.25 KCAL/MOL
REMARK 922        TOTAL FREE ENERGY PREDICTED BY IDOCK:   -5.00 KCAL/MOL
REMARK 923 INTER-LIGAND FREE ENERGY PREDICTED BY IDOCK:   -4.68 KCAL/MOL
REMARK 924 INTRA-LIGAND FREE ENERGY PREDICTED BY IDOCK:   -0.31 KCAL/MOL
REMARK 927      BINDING AFFINITY PREDICTED BY RF-SCORE:    0.00 PKD
ROOT
HETATM    1  C   UNL     1     -10.437  10.099  70.033  1.00  0.00    -0.325 C  
HETATM    2  C   UNL     1     -11.262   8.912  70.617  1.00  0.00    -0.308 C  
HETATM    3  C   UNL     1      -8.938   9.590  70.239  1.00  0.00    -0.288 C  
HETATM    4  C   UNL     1      -8.618   9.086  68.819  1.00  0.00    -0.132 C  
HETATM    5  C   UNL     1      -8.410   7.604  68.214  1.00  0.00    -0.125 C  
HETATM    6  C   UNL     1      -9.772   6.773  68.228  1.00  0.00    -0.126 C  
HETATM    7  C   UNL     1      -9.802   5.491  67.452  1.00  0.00    -0.167 C  
HETATM    8  C   UNL     1      -9.271   5.699  66.013  1.00  0.00    -0.164 C  
HETATM    9  C   UNL     1      -9.596   4.793  65.062  1.00  0.00    -0.060 C  
HETATM   10  C   UNL     1      -8.905   3.551  65.500  1.00  0.00    -0.127 C  
HETATM   11  O   UNL     1      -9.400   2.449  65.277  1.00  0.00    -0.130 OA 
HETATM   12  C   UNL     1      -7.608   3.725  66.278  1.00  0.00    -0.084 C  
HETATM   13  C   UNL     1      -7.096   4.974  66.555  1.00  0.00    -0.069 C  
HETATM   14  C   UNL     1      -7.817   6.234  66.013  1.00  0.00    -0.106 C  
HETATM   15  C   UNL     1      -8.044   7.620  66.719  1.00  0.00    -0.115 C  
HETATM   16  C   UNL     1      -7.140   6.485  64.646  1.00  0.00    -0.060 C  
HETATM   17  C   UNL     1      -7.462   8.972  66.368  1.00  0.00    -0.092 C  
HETATM   18  O   UNL     1      -6.268   9.161  66.105  1.00  0.00    -0.061 OA 
HETATM   19  C   UNL     1      -8.508  10.105  66.459  1.00  0.00    -0.128 C  
HETATM   20  C   UNL     1      -8.939  10.350  67.932  1.00  0.00    -0.128 C  
HETATM   21  C   UNL     1      -8.161  11.641  68.327  1.00  0.00    -0.150 C  
HETATM   22  C   UNL     1     -10.500  10.439  68.406  1.00  0.00    -0.189 C  
HETATM   23  H   UNL     1     -11.309   9.570  66.830  1.00  0.00     0.000 HD 
HETATM   24  O   UNL     1     -11.273   9.376  67.759  1.00  0.00    -0.040 OA 
ENDROOT
BRANCH  22  25
HETATM   25  C   UNL     1     -11.412  11.557  67.881  1.00  0.00    -0.301 C  
HETATM   26  O   UNL     1     -11.641  11.688  66.680  1.00  0.00    -0.493 OA 
BRANCH  25  27
HETATM   27  C   UNL     1     -11.779  12.666  68.915  1.00  0.00    -0.325 C  
HETATM   28  O   UNL     1     -10.802  13.633  69.207  1.00  0.00    -0.385 OA 
HETATM   29  H   UNL     1     -11.025  14.308  69.837  1.00  0.00     0.000 HD 
ENDBRANCH  25  27
ENDBRANCH  22  25
TORSDOF 2
ENDMDL
MODEL       67
REMARK 921   NORMALIZED FREE ENERGY PREDICTED BY IDOCK:   -4.18 KCAL/MOL
REMARK 922        TOTAL FREE ENERGY PREDICTED BY IDOCK:   -4.91 KCAL/MOL
REMARK 923 INTER-LIGAND FREE ENERGY PREDICTED BY IDOCK:   -4.65 KCAL/MOL
REMARK 924 INTRA-LIGAND FREE ENERGY PREDICTED BY IDOCK:   -0.27 KCAL/MOL
REMARK 927      BINDING AFFINITY PREDICTED BY RF-SCORE:    0.00 PKD
ROOT
HETATM    1  C   UNL     1      -9.778  11.541  67.423  1.00  0.00    -0.191 C  
HETATM    2  C   UNL     1     -10.999  11.356  68.374  1.00  0.00    -0.263 C  
HETATM    3  C   UNL     1      -8.551  11.431  68.437  1.00  0.00    -0.156 C  
HETATM    4  C   UNL     1      -8.116   9.974  68.189  1.00  0.00    -0.108 C  
HETATM    5  C   UNL     1      -8.218   8.641  69.095  1.00  0.00    -0.117 C  
HETATM    6  C   UNL     1      -9.734   8.182  69.286  1.00  0.00    -0.170 C  
HETATM    7  C   UNL     1      -9.971   6.820  69.864  1.00  0.00    -0.184 C  
HETATM    8  C   UNL     1      -9.135   5.748  69.124  1.00  0.00    -0.126 C  
HETATM    9  C   UNL     1      -9.511   4.451  69.217  1.00  0.00    -0.249 C  
HETATM   10  C   UNL     1      -9.293   4.118  70.650  1.00  0.00    -0.148 C  
HETATM   11  O   UNL     1     -10.023   3.312  71.223  1.00  0.00    -0.149 OA 
HETATM   12  C   UNL     1      -8.175   4.863  71.366  1.00  0.00    -0.112 C  
HETATM   13  C   UNL     1      -7.397   5.795  70.714  1.00  0.00    -0.084 C  
HETATM   14  C   UNL     1      -7.619   6.053  69.202  1.00  0.00    -0.090 C  
HETATM   15  C   UNL     1      -7.581   7.415  68.417  1.00  0.00    -0.114 C  
HETATM   16  C   UNL     1      -6.648   5.065  68.515  1.00  0.00    -0.049 C  
HETATM   17  C   UNL     1      -6.588   7.886  67.378  1.00  0.00    -0.057 C  
HETATM   18  O   UNL     1      -5.361   7.778  67.498  1.00  0.00    -0.029 OA 
HETATM   19  C   UNL     1      -7.272   8.594  66.188  1.00  0.00    -0.085 C  
HETATM   20  C   UNL     1      -7.894   9.949  66.628  1.00  0.00    -0.110 C  
HETATM   21  C   UNL     1      -6.877  11.004  66.095  1.00  0.00    -0.059 C  
HETATM   22  C   UNL     1      -9.428  10.386  66.278  1.00  0.00    -0.171 C  
HETATM   23  H   UNL     1     -10.128   8.592  65.848  1.00  0.00     0.000 HD 
HETATM   24  O   UNL     1     -10.328   9.252  66.502  1.00  0.00    -0.258 OA 
ENDROOT
BRANCH  22  25
HETATM   25  C   UNL     1      -9.872  10.577  64.821  1.00  0.00    -0.323 C  
HETATM   26  O   UNL     1      -9.509   9.808  63.933  1.00  0.00    -0.232 OA 
BRANCH  25  27
HETATM   27  C   UNL     1     -10.552  11.945  64.499  1.00  0.00    -0.311 C  
HETATM   28  O   UNL     1      -9.805  12.887  63.771  1.00  0.00    -0.700 OA 
HETATM   29  H   UNL     1     -10.218  13.720  63.575  1.00  0.00     0.000 HD 
ENDBRANCH  25  27
ENDBRANCH  22  25
TORSDOF 2
ENDMDL
MODEL       68
REMARK 921   NORMALIZED FREE ENERGY PREDICTED BY IDOCK:   -4.07 KCAL/MOL
REMARK 922        TOTAL FREE ENERGY PREDICTED BY IDOCK:   -4.79 KCAL/MOL
REMARK 923 INTER-LIGAND FREE ENERGY PREDICTED BY IDOCK:   -4.40 KCAL/MOL
REMARK 924 INTRA-LIGAND FREE ENERGY PREDICTED BY IDOCK:   -0.40 KCAL/MOL
REMARK 927      BINDING AFFINITY PREDICTED BY RF-SCORE:    0.00 PKD
ROOT
HETATM    1  C   UNL     1      -8.857   3.631  66.128  1.00  0.00    -0.127 C  
HETATM    2  C   UNL     1      -9.345   2.529  67.116  1.00  0.00    -0.089 C  
HETATM    3  C   UNL     1     -10.131   4.589  66.049  1.00  0.00    -0.282 C  
HETATM    4  C   UNL     1      -9.694   5.710  67.012  1.00  0.00    -0.155 C  
HETATM    5  C   UNL     1     -10.202   6.137  68.484  1.00  0.00    -0.221 C  
HETATM    6  C   UNL     1      -9.835   5.027  69.571  1.00  0.00    -0.281 C  
HETATM    7  C   UNL     1      -9.993   5.400  71.014  1.00  0.00    -0.261 C  
HETATM    8  C   UNL     1      -9.304   6.752  71.317  1.00  0.00    -0.165 C  
HETATM    9  C   UNL     1      -8.986   7.046  72.599  1.00  0.00    -0.141 C  
HETATM   10  C   UNL     1     -10.305   7.183  73.272  1.00  0.00    -0.327 C  
HETATM   11  O   UNL     1     -10.441   6.861  74.451  1.00  0.00    -0.231 OA 
HETATM   12  C   UNL     1     -11.464   7.676  72.418  1.00  0.00    -0.392 C  
HETATM   13  C   UNL     1     -11.296   7.988  71.087  1.00  0.00    -0.292 C  
HETATM   14  C   UNL     1      -9.885   7.897  70.452  1.00  0.00    -0.183 C  
HETATM   15  C   UNL     1      -9.478   7.383  69.023  1.00  0.00    -0.148 C  
HETATM   16  C   UNL     1      -9.304   9.316  70.646  1.00  0.00    -0.329 C  
HETATM   17  C   UNL     1      -8.907   8.163  67.859  1.00  0.00    -0.131 C  
HETATM   18  O   UNL     1      -9.350   9.254  67.477  1.00  0.00    -0.127 OA 
HETATM   19  C   UNL     1      -7.764   7.407  67.147  1.00  0.00    -0.115 C  
HETATM   20  C   UNL     1      -8.302   6.147  66.413  1.00  0.00    -0.120 C  
HETATM   21  C   UNL     1      -8.342   6.587  64.918  1.00  0.00    -0.049 C  
HETATM   22  C   UNL     1      -7.632   4.665  66.569  1.00  0.00    -0.087 C  
HETATM   23  H   UNL     1      -6.620   5.001  68.229  1.00  0.00     0.000 HD 
HETATM   24  O   UNL     1      -7.320   4.410  67.977  1.00  0.00    -0.064 OA 
ENDROOT
BRANCH  22  25
HETATM   25  C   UNL     1      -6.192   4.407  66.102  1.00  0.00    -0.032 C  
HETATM   26  O   UNL     1      -5.442   5.331  65.794  1.00  0.00    -0.012 OA 
BRANCH  25  27
HETATM   27  C   UNL     1      -5.849   2.922  65.767  1.00  0.00    -0.019 C  
HETATM   28  O   UNL     1      -5.801   2.009  66.834  1.00  0.00    -0.018 OA 
HETATM   29  H   UNL     1      -5.592   1.104  66.631  1.00  0.00     0.000 HD 
ENDBRANCH  25  27
ENDBRANCH  22  25
TORSDOF 2
ENDMDL
MODEL       69
REMARK 921   NORMALIZED FREE ENERGY PREDICTED BY IDOCK:   -4.03 KCAL/MOL
REMARK 922        TOTAL FREE ENERGY PREDICTED BY IDOCK:   -4.75 KCAL/MOL
REMARK 923 INTER-LIGAND FREE ENERGY PREDICTED BY IDOCK:   -4.49 KCAL/MOL
REMARK 924 INTRA-LIGAND FREE ENERGY PREDICTED BY IDOCK:   -0.26 KCAL/MOL
REMARK 927      BINDING AFFINITY PREDICTED BY RF-SCORE:    0.00 PKD
ROOT
HETATM    1  C   UNL     1     -10.161   7.286  69.510  1.00  0.00    -0.200 C  
HETATM    2  C   UNL     1     -11.187   6.120  69.638  1.00  0.00    -0.488 C  
HETATM    3  C   UNL     1      -8.768   6.509  69.573  1.00  0.00    -0.134 C  
HETATM    4  C   UNL     1      -8.412   6.457  68.075  1.00  0.00    -0.118 C  
HETATM    5  C   UNL     1      -8.366   5.243  67.012  1.00  0.00    -0.107 C  
HETATM    6  C   UNL     1      -9.828   4.679  66.708  1.00  0.00    -0.237 C  
HETATM    7  C   UNL     1      -9.976   3.746  65.545  1.00  0.00    -0.067 C  
HETATM    8  C   UNL     1      -9.310   4.330  64.275  1.00  0.00    -0.150 C  
HETATM    9  C   UNL     1      -9.684   3.850  63.066  1.00  0.00    -0.150 C  
HETATM   10  C   UNL     1      -9.209   2.441  63.078  1.00  0.00    -0.091 C  
HETATM   11  O   UNL     1      -9.834   1.566  62.483  1.00  0.00    -0.087 OA 
HETATM   12  C   UNL     1      -7.965   2.142  63.903  1.00  0.00    -0.072 C  
HETATM   13  C   UNL     1      -7.307   3.134  64.598  1.00  0.00    -0.071 C  
HETATM   14  C   UNL     1      -7.801   4.599  64.494  1.00  0.00    -0.087 C  
HETATM   15  C   UNL     1      -7.887   5.693  65.620  1.00  0.00    -0.099 C  
HETATM   16  C   UNL     1      -6.991   5.176  63.310  1.00  0.00    -0.042 C  
HETATM   17  C   UNL     1      -7.096   6.975  65.761  1.00  0.00    -0.069 C  
HETATM   18  O   UNL     1      -5.871   7.050  65.609  1.00  0.00    -0.034 OA 
HETATM   19  C   UNL     1      -7.978   8.165  66.200  1.00  0.00    -0.102 C  
HETATM   20  C   UNL     1      -8.484   7.976  67.658  1.00  0.00    -0.131 C  
HETATM   21  C   UNL     1      -7.566   8.926  68.486  1.00  0.00    -0.097 C  
HETATM   22  C   UNL     1     -10.049   8.149  68.093  1.00  0.00    -0.198 C  
HETATM   23  H   UNL     1     -10.847   7.986  66.295  1.00  0.00     0.000 HD 
HETATM   24  O   UNL     1     -10.911   7.493  67.105  1.00  0.00    -0.324 OA 
ENDROOT
BRANCH  22  25
HETATM   25  C   UNL     1     -10.753   9.506  67.951  1.00  0.00    -0.228 C  
HETATM   26  O   UNL     1     -10.668  10.169  66.919  1.00  0.00    -0.226 OA 
BRANCH  25  27
HETATM   27  C   UNL     1     -11.322  10.109  69.273  1.00  0.00    -0.156 C  
HETATM   28  O   UNL     1     -12.650  10.569  69.261  1.00  0.00    -0.726 OA 
HETATM   29  H   UNL     1     -12.996  10.937  70.066  1.00  0.00     0.000 HD 
ENDBRANCH  25  27
ENDBRANCH  22  25
TORSDOF 2
ENDMDL
MODEL       70
REMARK 921   NORMALIZED FREE ENERGY PREDICTED BY IDOCK:   -4.01 KCAL/MOL
REMARK 922        TOTAL FREE ENERGY PREDICTED BY IDOCK:   -4.73 KCAL/MOL
REMARK 923 INTER-LIGAND FREE ENERGY PREDICTED BY IDOCK:   -4.80 KCAL/MOL
REMARK 924 INTRA-LIGAND FREE ENERGY PREDICTED BY IDOCK:    0.06 KCAL/MOL
REMARK 927      BINDING AFFINITY PREDICTED BY RF-SCORE:    0.00 PKD
ROOT
HETATM    1  C   UNL     1      -9.908   5.257  72.138  1.00  0.00    -0.216 C  
HETATM    2  C   UNL     1      -9.899   4.007  71.207  1.00  0.00    -0.242 C  
HETATM    3  C   UNL     1      -8.353   5.602  72.242  1.00  0.00    -0.119 C  
HETATM    4  C   UNL     1      -8.258   6.757  71.226  1.00  0.00    -0.119 C  
HETATM    5  C   UNL     1      -7.580   6.865  69.765  1.00  0.00    -0.104 C  
HETATM    6  C   UNL     1      -8.348   5.958  68.699  1.00  0.00    -0.109 C  
HETATM    7  C   UNL     1      -8.011   6.165  67.253  1.00  0.00    -0.102 C  
HETATM    8  C   UNL     1      -8.066   7.665  66.878  1.00  0.00    -0.116 C  
HETATM    9  C   UNL     1      -8.199   8.005  65.574  1.00  0.00    -0.138 C  
HETATM   10  C   UNL     1      -6.926   7.550  64.955  1.00  0.00    -0.055 C  
HETATM   11  O   UNL     1      -6.906   7.146  63.794  1.00  0.00    -0.046 OA 
HETATM   12  C   UNL     1      -5.689   7.555  65.842  1.00  0.00    -0.037 C  
HETATM   13  C   UNL     1      -5.747   7.971  67.155  1.00  0.00    -0.038 C  
HETATM   14  C   UNL     1      -7.083   8.504  67.731  1.00  0.00    -0.083 C  
HETATM   15  C   UNL     1      -7.705   8.273  69.156  1.00  0.00    -0.097 C  
HETATM   16  C   UNL     1      -7.014  10.026  67.467  1.00  0.00    -0.086 C  
HETATM   17  C   UNL     1      -7.928   9.273  70.269  1.00  0.00    -0.146 C  
HETATM   18  O   UNL     1      -7.081  10.098  70.636  1.00  0.00    -0.312 OA 
HETATM   19  C   UNL     1      -9.300   9.094  70.955  1.00  0.00    -0.335 C  
HETATM   20  C   UNL     1      -9.356   7.760  71.750  1.00  0.00    -0.179 C  
HETATM   21  C   UNL     1      -9.175   8.213  73.231  1.00  0.00    -0.316 C  
HETATM   22  C   UNL     1     -10.579   6.685  71.613  1.00  0.00    -0.217 C  
HETATM   23  H   UNL     1     -11.315   7.333  69.901  1.00  0.00     0.000 HD 
HETATM   24  O   UNL     1     -10.932   6.517  70.201  1.00  0.00    -0.261 OA 
ENDROOT
BRANCH  22  25
HETATM   25  C   UNL     1     -12.007   7.071  72.025  1.00  0.00    -0.298 C  
HETATM   26  O   UNL     1     -12.868   6.219  72.232  1.00  0.00    -0.127 OA 
BRANCH  25  27
HETATM   27  C   UNL     1     -12.363   8.584  71.876  1.00  0.00    -0.352 C  
HETATM   28  O   UNL     1     -13.427   8.921  71.023  1.00  0.00    -0.548 OA 
HETATM   29  H   UNL     1     -13.644   9.841  70.932  1.00  0.00     0.000 HD 
ENDBRANCH  25  27
ENDBRANCH  22  25
TORSDOF 2
ENDMDL
MODEL       71
REMARK 921   NORMALIZED FREE ENERGY PREDICTED BY IDOCK:   -3.89 KCAL/MOL
REMARK 922        TOTAL FREE ENERGY PREDICTED BY IDOCK:   -4.59 KCAL/MOL
REMARK 923 INTER-LIGAND FREE ENERGY PREDICTED BY IDOCK:   -4.15 KCAL/MOL
REMARK 924 INTRA-LIGAND FREE ENERGY PREDICTED BY IDOCK:   -0.44 KCAL/MOL
REMARK 927      BINDING AFFINITY PREDICTED BY RF-SCORE:    0.00 PKD
ROOT
HETATM    1  C   UNL     1      -6.425   8.937  65.207  1.00  0.00    -0.067 C  
HETATM    2  C   UNL     1      -5.573   9.931  66.052  1.00  0.00    -0.057 C  
HETATM    3  C   UNL     1      -5.934   7.525  65.766  1.00  0.00    -0.038 C  
HETATM    4  C   UNL     1      -7.087   7.193  66.733  1.00  0.00    -0.078 C  
HETATM    5  C   UNL     1      -7.170   7.135  68.344  1.00  0.00    -0.091 C  
HETATM    6  C   UNL     1      -7.017   8.588  68.987  1.00  0.00    -0.064 C  
HETATM    7  C   UNL     1      -7.347   8.733  70.442  1.00  0.00    -0.063 C  
HETATM    8  C   UNL     1      -8.723   8.103  70.765  1.00  0.00    -0.145 C  
HETATM    9  C   UNL     1      -9.363   8.486  71.895  1.00  0.00    -0.337 C  
HETATM   10  C   UNL     1      -8.494   7.976  72.989  1.00  0.00    -0.193 C  
HETATM   11  O   UNL     1      -8.401   8.589  74.050  1.00  0.00    -0.329 OA 
HETATM   12  C   UNL     1      -7.698   6.711  72.701  1.00  0.00    -0.101 C  
HETATM   13  C   UNL     1      -7.785   6.066  71.486  1.00  0.00    -0.101 C  
HETATM   14  C   UNL     1      -8.761   6.597  70.406  1.00  0.00    -0.151 C  
HETATM   15  C   UNL     1      -8.554   6.691  68.850  1.00  0.00    -0.126 C  
HETATM   16  C   UNL     1     -10.070   5.822  70.680  1.00  0.00    -0.263 C  
HETATM   17  C   UNL     1      -9.260   5.930  67.750  1.00  0.00    -0.108 C  
HETATM   18  O   UNL     1      -9.461   4.709  67.775  1.00  0.00    -0.137 OA 
HETATM   19  C   UNL     1      -9.628   6.832  66.552  1.00  0.00    -0.191 C  
HETATM   20  C   UNL     1      -8.353   7.309  65.801  1.00  0.00    -0.140 C  
HETATM   21  C   UNL     1      -8.319   6.401  64.534  1.00  0.00     0.017 C  
HETATM   22  C   UNL     1      -8.075   8.870  65.409  1.00  0.00    -0.119 C  
HETATM   23  H   UNL     1      -9.361   9.694  66.659  1.00  0.00     0.000 HD 
HETATM   24  O   UNL     1      -8.419   9.732  66.543  1.00  0.00    -0.123 OA 
ENDROOT
BRANCH  22  25
HETATM   25  C   UNL     1      -9.007   9.610  64.439  1.00  0.00    -0.234 C  
HETATM   26  O   UNL     1      -8.832   9.569  63.223  1.00  0.00    -0.225 OA 
BRANCH  25  27
HETATM   27  C   UNL     1      -9.988  10.631  65.096  1.00  0.00    -0.303 C  
HETATM   28  O   UNL     1      -9.571  11.971  65.182  1.00  0.00    -0.387 OA 
HETATM   29  H   UNL     1     -10.167  12.592  65.582  1.00  0.00     0.000 HD 
ENDBRANCH  25  27
ENDBRANCH  22  25
TORSDOF 2
ENDMDL
MODEL       72
REMARK 921   NORMALIZED FREE ENERGY PREDICTED BY IDOCK:   -3.72 KCAL/MOL
REMARK 922        TOTAL FREE ENERGY PREDICTED BY IDOCK:   -4.40 KCAL/MOL
REMARK 923 INTER-LIGAND FREE ENERGY PREDICTED BY IDOCK:   -4.16 KCAL/MOL
REMARK 924 INTRA-LIGAND FREE ENERGY PREDICTED BY IDOCK:   -0.24 KCAL/MOL
REMARK 927      BINDING AFFINITY PREDICTED BY RF-SCORE:    0.00 PKD
ROOT
HETATM    1  C   UNL     1      -9.886  15.635  68.132  1.00  0.00    -0.212 C  
HETATM    2  C   UNL     1      -8.386  15.736  68.546  1.00  0.00    -0.175 C  
HETATM    3  C   UNL     1      -9.784  15.546  66.542  1.00  0.00    -0.290 C  
HETATM    4  C   UNL     1      -9.955  14.028  66.338  1.00  0.00    -0.301 C  
HETATM    5  C   UNL     1      -8.927  12.872  65.877  1.00  0.00     0.378 C  
HETATM    6  C   UNL     1      -7.801  12.620  66.980  1.00  0.00    -0.043 C  
HETATM    7  C   UNL     1      -6.946  11.399  66.823  1.00  0.00    -0.128 C  
HETATM    8  C   UNL     1      -7.814  10.139  66.590  1.00  0.00    -0.110 C  
HETATM    9  C   UNL     1      -7.273   8.923  66.833  1.00  0.00    -0.082 C  
HETATM   10  C   UNL     1      -6.208   8.793  65.803  1.00  0.00    -0.056 C  
HETATM   11  O   UNL     1      -5.175   8.172  66.047  1.00  0.00    -0.025 OA 
HETATM   12  C   UNL     1      -6.440   9.509  64.480  1.00  0.00    -0.093 C  
HETATM   13  C   UNL     1      -7.587  10.236  64.247  1.00  0.00    -0.089 C  
HETATM   14  C   UNL     1      -8.699  10.280  65.326  1.00  0.00    -0.186 C  
HETATM   15  C   UNL     1      -9.599  11.492  65.766  1.00  0.00    -0.259 C  
HETATM   16  C   UNL     1      -9.619   9.095  64.953  1.00  0.00     0.199 C  
HETATM   17  C   UNL     1     -11.089  11.682  65.589  1.00  0.00    -0.249 C  
HETATM   18  O   UNL     1     -11.692  11.456  64.532  1.00  0.00    -0.095 OA 
HETATM   19  C   UNL     1     -11.762  12.269  66.848  1.00  0.00    -0.404 C  
HETATM   20  C   UNL     1     -11.310  13.737  67.089  1.00  0.00    -0.344 C  
HETATM   21  C   UNL     1     -12.527  14.576  66.592  1.00  0.00     0.005 C  
HETATM   22  C   UNL     1     -10.772  14.285  68.531  1.00  0.00    -0.255 C  
HETATM   23  H   UNL     1     -10.358  12.535  69.345  1.00  0.00     0.000 HD 
HETATM   24  O   UNL     1      -9.852  13.306  69.117  1.00  0.00     0.162 OA 
ENDROOT
BRANCH  22  25
HETATM   25  C   UNL     1     -11.697  14.296  69.756  1.00  0.00    -0.309 C  
HETATM   26  O   UNL     1     -12.059  13.253  70.297  1.00  0.00    -0.343 OA 
BRANCH  25  27
HETATM   27  C   UNL     1     -12.371  15.667  70.077  1.00  0.00    -0.276 C  
HETATM   28  O   UNL     1     -12.375  16.093  71.416  1.00  0.00    -0.581 OA 
HETATM   29  H   UNL     1     -12.785  16.927  71.611  1.00  0.00     0.000 HD 
ENDBRANCH  25  27
ENDBRANCH  22  25
TORSDOF 2
ENDMDL
MODEL       73
REMARK 921   NORMALIZED FREE ENERGY PREDICTED BY IDOCK:   -3.69 KCAL/MOL
REMARK 922        TOTAL FREE ENERGY PREDICTED BY IDOCK:   -4.37 KCAL/MOL
REMARK 923 INTER-LIGAND FREE ENERGY PREDICTED BY IDOCK:   -4.13 KCAL/MOL
REMARK 924 INTRA-LIGAND FREE ENERGY PREDICTED BY IDOCK:   -0.25 KCAL/MOL
REMARK 927      BINDING AFFINITY PREDICTED BY RF-SCORE:    0.00 PKD
ROOT
HETATM    1  C   UNL     1     -10.574   5.311  69.666  1.00  0.00    -0.261 C  
HETATM    2  C   UNL     1     -10.511   5.895  71.110  1.00  0.00    -0.291 C  
HETATM    3  C   UNL     1     -11.401   6.435  68.892  1.00  0.00    -0.292 C  
HETATM    4  C   UNL     1     -10.254   7.191  68.193  1.00  0.00    -0.220 C  
HETATM    5  C   UNL     1      -9.619   8.656  68.427  1.00  0.00    -0.157 C  
HETATM    6  C   UNL     1      -8.856   8.743  69.826  1.00  0.00    -0.142 C  
HETATM    7  C   UNL     1      -7.986   9.941  70.060  1.00  0.00    -0.194 C  
HETATM    8  C   UNL     1      -7.028  10.175  68.867  1.00  0.00    -0.063 C  
HETATM    9  C   UNL     1      -5.919  10.926  69.061  1.00  0.00    -0.041 C  
HETATM   10  C   UNL     1      -6.452  12.286  69.336  1.00  0.00    -0.105 C  
HETATM   11  O   UNL     1      -5.862  13.046  70.102  1.00  0.00    -0.133 OA 
HETATM   12  C   UNL     1      -7.774  12.653  68.676  1.00  0.00    -0.066 C  
HETATM   13  C   UNL     1      -8.439  11.767  67.856  1.00  0.00    -0.154 C  
HETATM   14  C   UNL     1      -7.805  10.388  67.544  1.00  0.00    -0.106 C  
HETATM   15  C   UNL     1      -8.505   8.986  67.418  1.00  0.00    -0.115 C  
HETATM   16  C   UNL     1      -6.985  10.644  66.259  1.00  0.00    -0.133 C  
HETATM   17  C   UNL     1      -8.676   8.116  66.192  1.00  0.00    -0.156 C  
HETATM   18  O   UNL     1      -9.050   8.541  65.092  1.00  0.00    -0.085 OA 
HETATM   19  C   UNL     1      -8.413   6.624  66.488  1.00  0.00    -0.121 C  
HETATM   20  C   UNL     1      -9.515   6.037  67.414  1.00  0.00    -0.113 C  
HETATM   21  C   UNL     1     -10.416   5.225  66.435  1.00  0.00    -0.347 C  
HETATM   22  C   UNL     1      -9.186   5.171  68.761  1.00  0.00    -0.119 C  
HETATM   23  H   UNL     1      -7.309   5.735  68.990  1.00  0.00     0.000 HD 
HETATM   24  O   UNL     1      -8.102   5.815  69.507  1.00  0.00    -0.104 OA 
ENDROOT
BRANCH  22  25
HETATM   25  C   UNL     1      -8.453   3.826  68.664  1.00  0.00    -0.083 C  
HETATM   26  O   UNL     1      -7.250   3.766  68.418  1.00  0.00    -0.053 OA 
BRANCH  25  27
HETATM   27  C   UNL     1      -9.370   2.564  68.602  1.00  0.00    -0.179 C  
HETATM   28  O   UNL     1      -9.322   1.781  67.436  1.00  0.00    -0.293 OA 
HETATM   29  H   UNL     1      -9.881   1.013  67.399  1.00  0.00     0.000 HD 
ENDBRANCH  25  27
ENDBRANCH  22  25
TORSDOF 2
ENDMDL
MODEL       74
REMARK 921   NORMALIZED FREE ENERGY PREDICTED BY IDOCK:   -3.58 KCAL/MOL
REMARK 922        TOTAL FREE ENERGY PREDICTED BY IDOCK:   -4.25 KCAL/MOL
REMARK 923 INTER-LIGAND FREE ENERGY PREDICTED BY IDOCK:   -4.12 KCAL/MOL
REMARK 924 INTRA-LIGAND FREE ENERGY PREDICTED BY IDOCK:   -0.13 KCAL/MOL
REMARK 927      BINDING AFFINITY PREDICTED BY RF-SCORE:    0.00 PKD
ROOT
HETATM    1  C   UNL     1      -9.540   9.961  68.307  1.00  0.00    -0.151 C  
HETATM    2  C   UNL     1     -10.578   9.010  68.976  1.00  0.00    -0.209 C  
HETATM    3  C   UNL     1      -8.159   9.241  68.658  1.00  0.00    -0.105 C  
HETATM    4  C   UNL     1      -7.877   8.518  67.327  1.00  0.00    -0.098 C  
HETATM    5  C   UNL     1      -7.904   6.959  66.911  1.00  0.00    -0.107 C  
HETATM    6  C   UNL     1      -9.389   6.374  66.941  1.00  0.00    -0.150 C  
HETATM    7  C   UNL     1      -9.610   5.029  66.318  1.00  0.00    -0.175 C  
HETATM    8  C   UNL     1      -8.996   4.966  64.899  1.00  0.00    -0.138 C  
HETATM    9  C   UNL     1      -9.437   4.015  64.042  1.00  0.00    -0.158 C  
HETATM   10  C   UNL     1      -8.986   2.740  64.660  1.00  0.00    -0.123 C  
HETATM   11  O   UNL     1      -9.654   1.715  64.537  1.00  0.00    -0.130 OA 
HETATM   12  C   UNL     1      -7.708   2.791  65.487  1.00  0.00    -0.077 C  
HETATM   13  C   UNL     1      -7.000   3.962  65.647  1.00  0.00    -0.062 C  
HETATM   14  C   UNL     1      -7.473   5.247  64.921  1.00  0.00    -0.069 C  
HETATM   15  C   UNL     1      -7.486   6.729  65.448  1.00  0.00    -0.084 C  
HETATM   16  C   UNL     1      -6.712   5.211  63.576  1.00  0.00    -0.037 C  
HETATM   17  C   UNL     1      -6.667   7.911  64.977  1.00  0.00    -0.051 C  
HETATM   18  O   UNL     1      -5.449   7.865  64.764  1.00  0.00    -0.032 OA 
HETATM   19  C   UNL     1      -7.505   9.204  64.875  1.00  0.00    -0.105 C  
HETATM   20  C   UNL     1      -7.943   9.698  66.282  1.00  0.00    -0.108 C  
HETATM   21  C   UNL     1      -6.970  10.881  66.570  1.00  0.00    -0.139 C  
HETATM   22  C   UNL     1      -9.482  10.103  66.651  1.00  0.00    -0.170 C  
HETATM   23  H   UNL     1     -10.369   9.192  65.142  1.00  0.00     0.000 HD 
HETATM   24  O   UNL     1     -10.402   9.111  66.088  1.00  0.00    -0.221 OA 
ENDROOT
BRANCH  22  25
HETATM   25  C   UNL     1     -10.168  11.283  65.947  1.00  0.00    -0.249 C  
HETATM   26  O   UNL     1     -10.851  12.093  66.570  1.00  0.00    -0.249 OA 
BRANCH  25  27
HETATM   27  C   UNL     1     -10.187  11.216  64.388  1.00  0.00    -0.330 C  
HETATM   28  O   UNL     1      -9.909  12.399  63.683  1.00  0.00    -0.589 OA 
HETATM   29  H   UNL     1      -9.920  12.359  62.733  1.00  0.00     0.000 HD 
ENDBRANCH  25  27
ENDBRANCH  22  25
TORSDOF 2
ENDMDL
MODEL       75
REMARK 921   NORMALIZED FREE ENERGY PREDICTED BY IDOCK:   -3.51 KCAL/MOL
REMARK 922        TOTAL FREE ENERGY PREDICTED BY IDOCK:   -4.17 KCAL/MOL
REMARK 923 INTER-LIGAND FREE ENERGY PREDICTED BY IDOCK:   -3.90 KCAL/MOL
REMARK 924 INTRA-LIGAND FREE ENERGY PREDICTED BY IDOCK:   -0.27 KCAL/MOL
REMARK 927      BINDING AFFINITY PREDICTED BY RF-SCORE:    0.00 PKD
ROOT
HETATM    1  C   UNL     1      -7.366   4.068  66.571  1.00  0.00    -0.076 C  
HETATM    2  C   UNL     1      -5.974   3.946  67.263  1.00  0.00    -0.024 C  
HETATM    3  C   UNL     1      -8.331   3.398  67.651  1.00  0.00    -0.094 C  
HETATM    4  C   UNL     1      -8.911   4.657  68.324  1.00  0.00    -0.122 C  
HETATM    5  C   UNL     1      -8.696   5.302  69.788  1.00  0.00    -0.116 C  
HETATM    6  C   UNL     1      -7.212   5.863  69.965  1.00  0.00    -0.073 C  
HETATM    7  C   UNL     1      -6.944   6.731  71.156  1.00  0.00    -0.070 C  
HETATM    8  C   UNL     1      -8.001   7.856  71.275  1.00  0.00    -0.094 C  
HETATM    9  C   UNL     1      -7.704   8.951  72.013  1.00  0.00     0.067 C  
HETATM   10  C   UNL     1      -7.609   8.431  73.402  1.00  0.00    -0.067 C  
HETATM   11  O   UNL     1      -6.824   8.933  74.204  1.00  0.00    -0.351 OA 
HETATM   12  C   UNL     1      -8.477   7.229  73.748  1.00  0.00    -0.191 C  
HETATM   13  C   UNL     1      -9.317   6.657  72.817  1.00  0.00    -0.149 C  
HETATM   14  C   UNL     1      -9.433   7.282  71.404  1.00  0.00    -0.165 C  
HETATM   15  C   UNL     1      -9.556   6.559  70.013  1.00  0.00    -0.169 C  
HETATM   16  C   UNL     1     -10.603   8.283  71.541  1.00  0.00    -0.296 C  
HETATM   17  C   UNL     1     -10.727   6.533  69.056  1.00  0.00    -0.278 C  
HETATM   18  O   UNL     1     -11.898   6.333  69.403  1.00  0.00    -0.174 OA 
HETATM   19  C   UNL     1     -10.288   6.700  67.585  1.00  0.00    -0.248 C  
HETATM   20  C   UNL     1      -9.489   5.459  67.097  1.00  0.00    -0.127 C  
HETATM   21  C   UNL     1     -10.526   4.678  66.233  1.00  0.00    -0.249 C  
HETATM   22  C   UNL     1      -8.050   5.565  66.330  1.00  0.00    -0.105 C  
HETATM   23  H   UNL     1      -7.595   7.409  66.866  1.00  0.00     0.000 HD 
HETATM   24  O   UNL     1      -7.204   6.554  67.003  1.00  0.00    -0.074 OA 
ENDROOT
BRANCH  22  25
HETATM   25  C   UNL     1      -7.942   6.258  64.964  1.00  0.00    -0.120 C  
HETATM   26  O   UNL     1      -7.716   5.622  63.938  1.00  0.00    -0.081 OA 
BRANCH  25  27
HETATM   27  C   UNL     1      -7.845   7.815  65.007  1.00  0.00    -0.125 C  
HETATM   28  O   UNL     1      -8.488   8.536  63.986  1.00  0.00    -0.332 OA 
HETATM   29  H   UNL     1      -8.428   9.484  64.012  1.00  0.00     0.000 HD 
ENDBRANCH  25  27
ENDBRANCH  22  25
TORSDOF 2
ENDMDL
MODEL       76
REMARK 921   NORMALIZED FREE ENERGY PREDICTED BY IDOCK:   -3.43 KCAL/MOL
REMARK 922        TOTAL FREE ENERGY PREDICTED BY IDOCK:   -4.08 KCAL/MOL
REMARK 923 INTER-LIGAND FREE ENERGY PREDICTED BY IDOCK:   -3.61 KCAL/MOL
REMARK 924 INTRA-LIGAND FREE ENERGY PREDICTED BY IDOCK:   -0.47 KCAL/MOL
REMARK 927      BINDING AFFINITY PREDICTED BY RF-SCORE:    0.00 PKD
ROOT
HETATM    1  C   UNL     1     -10.888   6.848  72.973  1.00  0.00    -0.328 C  
HETATM    2  C   UNL     1     -11.885   7.403  71.911  1.00  0.00    -0.332 C  
HETATM    3  C   UNL     1     -11.187   5.281  72.919  1.00  0.00    -0.375 C  
HETATM    4  C   UNL     1     -10.015   4.806  72.038  1.00  0.00    -0.247 C  
HETATM    5  C   UNL     1      -9.952   4.246  70.525  1.00  0.00    -0.219 C  
HETATM    6  C   UNL     1     -10.316   5.385  69.468  1.00  0.00    -0.350 C  
HETATM    7  C   UNL     1     -10.033   5.096  68.024  1.00  0.00    -0.200 C  
HETATM    8  C   UNL     1      -8.588   4.576  67.833  1.00  0.00    -0.108 C  
HETATM    9  C   UNL     1      -8.026   4.654  66.605  1.00  0.00    -0.103 C  
HETATM   10  C   UNL     1      -8.834   3.715  65.781  1.00  0.00    -0.127 C  
HETATM   11  O   UNL     1      -9.029   3.940  64.589  1.00  0.00    -0.121 OA 
HETATM   12  C   UNL     1      -9.442   2.519  66.501  1.00  0.00     0.122 C  
HETATM   13  C   UNL     1      -9.245   2.314  67.849  1.00  0.00    -0.240 C  
HETATM   14  C   UNL     1      -8.335   3.282  68.646  1.00  0.00    -0.091 C  
HETATM   15  C   UNL     1      -8.528   3.842  70.103  1.00  0.00    -0.091 C  
HETATM   16  C   UNL     1      -6.935   2.633  68.552  1.00  0.00    -0.047 C  
HETATM   17  C   UNL     1      -7.704   3.570  71.342  1.00  0.00    -0.056 C  
HETATM   18  O   UNL     1      -7.336   2.441  71.691  1.00  0.00    -0.038 OA 
HETATM   19  C   UNL     1      -7.446   4.847  72.170  1.00  0.00    -0.088 C  
HETATM   20  C   UNL     1      -8.762   5.374  72.808  1.00  0.00    -0.123 C  
HETATM   21  C   UNL     1      -8.649   4.923  74.296  1.00  0.00    -0.110 C  
HETATM   22  C   UNL     1      -9.249   6.930  72.704  1.00  0.00    -0.135 C  
HETATM   23  H   UNL     1      -8.111   7.466  71.184  1.00  0.00     0.000 HD 
HETATM   24  O   UNL     1      -9.047   7.419  71.338  1.00  0.00    -0.141 OA 
ENDROOT
BRANCH  22  25
HETATM   25  C   UNL     1      -8.413   8.053  73.334  1.00  0.00    -0.235 C  
HETATM   26  O   UNL     1      -8.847   8.734  74.261  1.00  0.00     0.367 OA 
BRANCH  25  27
HETATM   27  C   UNL     1      -7.128   8.458  72.545  1.00  0.00    -0.079 C  
HETATM   28  O   UNL     1      -7.181   9.630  71.773  1.00  0.00    -0.119 OA 
HETATM   29  H   UNL     1      -6.399   9.877  71.292  1.00  0.00     0.000 HD 
ENDBRANCH  25  27
ENDBRANCH  22  25
TORSDOF 2
ENDMDL
MODEL       77
REMARK 921   NORMALIZED FREE ENERGY PREDICTED BY IDOCK:   -3.34 KCAL/MOL
REMARK 922        TOTAL FREE ENERGY PREDICTED BY IDOCK:   -3.97 KCAL/MOL
REMARK 923 INTER-LIGAND FREE ENERGY PREDICTED BY IDOCK:   -3.91 KCAL/MOL
REMARK 924 INTRA-LIGAND FREE ENERGY PREDICTED BY IDOCK:   -0.06 KCAL/MOL
REMARK 927      BINDING AFFINITY PREDICTED BY RF-SCORE:    0.00 PKD
ROOT
HETATM    1  C   UNL     1      -8.822   9.401  71.294  1.00  0.00     0.119 C  
HETATM    2  C   UNL     1      -8.569   8.139  72.172  1.00  0.00    -0.226 C  
HETATM    3  C   UNL     1      -7.453   9.517  70.481  1.00  0.00    -0.159 C  
HETATM    4  C   UNL     1      -7.875   8.890  69.138  1.00  0.00    -0.093 C  
HETATM    5  C   UNL     1      -7.494   7.493  68.424  1.00  0.00    -0.108 C  
HETATM    6  C   UNL     1      -8.097   6.249  69.221  1.00  0.00    -0.110 C  
HETATM    7  C   UNL     1      -8.065   4.915  68.538  1.00  0.00    -0.085 C  
HETATM    8  C   UNL     1      -8.638   5.011  67.103  1.00  0.00    -0.104 C  
HETATM    9  C   UNL     1      -9.066   3.879  66.497  1.00  0.00    -0.155 C  
HETATM   10  C   UNL     1      -7.825   3.082  66.312  1.00  0.00    -0.078 C  
HETATM   11  O   UNL     1      -7.858   1.854  66.362  1.00  0.00    -0.069 OA 
HETATM   12  C   UNL     1      -6.530   3.860  66.121  1.00  0.00    -0.037 C  
HETATM   13  C   UNL     1      -6.512   5.238  66.112  1.00  0.00    -0.040 C  
HETATM   14  C   UNL     1      -7.844   6.021  66.237  1.00  0.00    -0.104 C  
HETATM   15  C   UNL     1      -8.139   7.344  67.035  1.00  0.00    -0.113 C  
HETATM   16  C   UNL     1      -8.290   6.222  64.771  1.00  0.00    -0.051 C  
HETATM   17  C   UNL     1      -8.488   8.716  66.502  1.00  0.00    -0.113 C  
HETATM   18  O   UNL     1      -7.892   9.265  65.567  1.00  0.00    -0.097 OA 
HETATM   19  C   UNL     1      -9.616   9.392  67.311  1.00  0.00    -0.194 C  
HETATM   20  C   UNL     1      -9.136   9.752  68.745  1.00  0.00    -0.136 C  
HETATM   21  C   UNL     1      -8.880  11.288  68.666  1.00  0.00    -0.141 C  
HETATM   22  C   UNL     1      -9.973   9.367  70.094  1.00  0.00    -0.229 C  
HETATM   23  H   UNL     1     -11.125   7.972  69.306  1.00  0.00     0.000 HD 
HETATM   24  O   UNL     1     -10.467   7.992  69.992  1.00  0.00    -0.218 OA 
ENDROOT
BRANCH  22  25
HETATM   25  C   UNL     1     -11.370   9.955  70.340  1.00  0.00    -0.307 C  
HETATM   26  O   UNL     1     -11.868  10.771  69.568  1.00  0.00    -0.287 OA 
BRANCH  25  27
HETATM   27  C   UNL     1     -11.975   9.682  71.753  1.00  0.00    -0.347 C  
HETATM   28  O   UNL     1     -13.321  10.025  71.962  1.00  0.00    -0.429 OA 
HETATM   29  H   UNL     1     -13.689   9.859  72.822  1.00  0.00     0.000 HD 
ENDBRANCH  25  27
ENDBRANCH  22  25
TORSDOF 2
ENDMDL
MODEL       78
REMARK 921   NORMALIZED FREE ENERGY PREDICTED BY IDOCK:   -3.33 KCAL/MOL
REMARK 922        TOTAL FREE ENERGY PREDICTED BY IDOCK:   -3.97 KCAL/MOL
REMARK 923 INTER-LIGAND FREE ENERGY PREDICTED BY IDOCK:   -3.64 KCAL/MOL
REMARK 924 INTRA-LIGAND FREE ENERGY PREDICTED BY IDOCK:   -0.33 KCAL/MOL
REMARK 927      BINDING AFFINITY PREDICTED BY RF-SCORE:    0.00 PKD
ROOT
HETATM    1  C   UNL     1      -6.632  13.113  69.440  1.00  0.00    -0.065 C  
HETATM    2  C   UNL     1      -5.150  13.592  69.506  1.00  0.00    -0.083 C  
HETATM    3  C   UNL     1      -7.382  14.245  70.280  1.00  0.00     0.609 C  
HETATM    4  C   UNL     1      -7.945  15.111  69.136  1.00  0.00    -0.205 C  
HETATM    5  C   UNL     1      -7.566  16.587  68.604  1.00  0.00    -0.213 C  
HETATM    6  C   UNL     1      -6.116  16.612  67.940  1.00  0.00    -0.141 C  
HETATM    7  C   UNL     1      -5.739  17.834  67.159  1.00  0.00    -0.160 C  
HETATM    8  C   UNL     1      -6.844  18.206  66.141  1.00  0.00    -0.298 C  
HETATM    9  C   UNL     1      -6.521  19.000  65.093  1.00  0.00    -0.276 C  
HETATM   10  C   UNL     1      -6.190  20.306  65.722  1.00  0.00    -0.214 C  
HETATM   11  O   UNL     1      -5.334  21.037  65.229  1.00  0.00    -0.196 OA 
HETATM   12  C   UNL     1      -6.912  20.648  67.017  1.00  0.00    -0.365 C  
HETATM   13  C   UNL     1      -7.836  19.790  67.575  1.00  0.00    -0.317 C  
HETATM   14  C   UNL     1      -8.199  18.475  66.841  1.00  0.00    -0.266 C  
HETATM   15  C   UNL     1      -8.471  17.050  67.448  1.00  0.00    -0.208 C  
HETATM   16  C   UNL     1      -9.404  18.868  65.956  1.00  0.00    -0.063 C  
HETATM   17  C   UNL     1      -9.763  16.265  67.488  1.00  0.00    -0.234 C  
HETATM   18  O   UNL     1     -10.854  16.748  67.814  1.00  0.00    -0.341 OA 
HETATM   19  C   UNL     1      -9.555  14.770  67.158  1.00  0.00    -0.231 C  
HETATM   20  C   UNL     1      -8.750  14.058  68.281  1.00  0.00    -0.182 C  
HETATM   21  C   UNL     1      -9.843  13.273  69.068  1.00  0.00     0.229 C  
HETATM   22  C   UNL     1      -7.447  13.115  67.990  1.00  0.00    -0.132 C  
HETATM   23  H   UNL     1      -7.050  13.761  66.168  1.00  0.00     0.000 HD 
HETATM   24  O   UNL     1      -6.584  13.759  66.996  1.00  0.00    -0.031 OA 
ENDROOT
BRANCH  22  25
HETATM   25  C   UNL     1      -7.587  11.822  67.174  1.00  0.00    -0.155 C  
HETATM   26  O   UNL     1      -8.042  11.829  66.033  1.00  0.00     0.099 OA 
BRANCH  25  27
HETATM   27  C   UNL     1      -7.398  10.497  67.978  1.00  0.00    -0.089 C  
HETATM   28  O   UNL     1      -8.533   9.940  68.591  1.00  0.00    -0.108 OA 
HETATM   29  H   UNL     1      -8.418   9.134  69.081  1.00  0.00     0.000 HD 
ENDBRANCH  25  27
ENDBRANCH  22  25
TORSDOF 2
ENDMDL
MODEL       79
REMARK 921   NORMALIZED FREE ENERGY PREDICTED BY IDOCK:   -3.19 KCAL/MOL
REMARK 922        TOTAL FREE ENERGY PREDICTED BY IDOCK:   -3.81 KCAL/MOL
REMARK 923 INTER-LIGAND FREE ENERGY PREDICTED BY IDOCK:   -3.46 KCAL/MOL
REMARK 924 INTRA-LIGAND FREE ENERGY PREDICTED BY IDOCK:   -0.35 KCAL/MOL
REMARK 927      BINDING AFFINITY PREDICTED BY RF-SCORE:    0.00 PKD
ROOT
HETATM    1  C   UNL     1      -6.984   7.309  63.257  1.00  0.00    -0.059 C  
HETATM    2  C   UNL     1      -8.011   8.090  62.383  1.00  0.00    -0.156 C  
HETATM    3  C   UNL     1      -6.093   8.492  63.853  1.00  0.00    -0.072 C  
HETATM    4  C   UNL     1      -6.709   8.621  65.260  1.00  0.00    -0.067 C  
HETATM    5  C   UNL     1      -7.625   9.761  65.943  1.00  0.00    -0.103 C  
HETATM    6  C   UNL     1      -9.074   9.821  65.277  1.00  0.00    -0.259 C  
HETATM    7  C   UNL     1     -10.120  10.632  65.981  1.00  0.00    -0.308 C  
HETATM    8  C   UNL     1     -10.192  10.263  67.482  1.00  0.00    -0.254 C  
HETATM    9  C   UNL     1     -11.315  10.570  68.174  1.00  0.00    -0.324 C  
HETATM   10  C   UNL     1     -11.327  12.057  68.191  1.00  0.00    -0.291 C  
HETATM   11  O   UNL     1     -12.391  12.673  68.177  1.00  0.00    -0.138 OA 
HETATM   12  C   UNL     1      -9.975  12.756  68.167  1.00  0.00    -0.229 C  
HETATM   13  C   UNL     1      -8.796  12.043  68.138  1.00  0.00    -0.182 C  
HETATM   14  C   UNL     1      -8.837  10.495  68.194  1.00  0.00    -0.134 C  
HETATM   15  C   UNL     1      -7.948   9.457  67.417  1.00  0.00    -0.106 C  
HETATM   16  C   UNL     1      -8.751  10.180  69.705  1.00  0.00    -0.176 C  
HETATM   17  C   UNL     1      -6.912   8.498  67.961  1.00  0.00    -0.074 C  
HETATM   18  O   UNL     1      -6.042   8.815  68.783  1.00  0.00    -0.044 OA 
HETATM   19  C   UNL     1      -7.006   7.099  67.313  1.00  0.00    -0.078 C  
HETATM   20  C   UNL     1      -6.594   7.150  65.815  1.00  0.00    -0.052 C  
HETATM   21  C   UNL     1      -5.150   6.562  65.816  1.00  0.00    -0.017 C  
HETATM   22  C   UNL     1      -7.491   6.496  64.616  1.00  0.00    -0.089 C  
HETATM   23  H   UNL     1      -9.195   6.354  65.602  1.00  0.00     0.000 HD 
HETATM   24  O   UNL     1      -8.905   6.819  64.825  1.00  0.00     0.228 OA 
ENDROOT
BRANCH  22  25
HETATM   25  C   UNL     1      -7.743   4.982  64.567  1.00  0.00    -0.085 C  
HETATM   26  O   UNL     1      -6.854   4.193  64.259  1.00  0.00    -0.043 OA 
BRANCH  25  27
HETATM   27  C   UNL     1      -9.241   4.548  64.642  1.00  0.00    -0.145 C  
HETATM   28  O   UNL     1      -9.687   3.952  65.834  1.00  0.00    -0.204 OA 
HETATM   29  H   UNL     1     -10.599   3.687  65.879  1.00  0.00     0.000 HD 
ENDBRANCH  25  27
ENDBRANCH  22  25
TORSDOF 2
ENDMDL
MODEL       80
REMARK 921   NORMALIZED FREE ENERGY PREDICTED BY IDOCK:   -3.07 KCAL/MOL
REMARK 922        TOTAL FREE ENERGY PREDICTED BY IDOCK:   -3.68 KCAL/MOL
REMARK 923 INTER-LIGAND FREE ENERGY PREDICTED BY IDOCK:   -3.34 KCAL/MOL
REMARK 924 INTRA-LIGAND FREE ENERGY PREDICTED BY IDOCK:   -0.33 KCAL/MOL
REMARK 927      BINDING AFFINITY PREDICTED BY RF-SCORE:    0.00 PKD
ROOT
HETATM    1  C   UNL     1     -10.349  10.735  64.213  1.00  0.00    -0.401 C  
HETATM    2  C   UNL     1     -11.864  11.095  64.139  1.00  0.00     0.600 C  
HETATM    3  C   UNL     1      -9.661  12.162  64.014  1.00  0.00    -0.118 C  
HETATM    4  C   UNL     1      -9.322  12.512  65.476  1.00  0.00     0.141 C  
HETATM    5  C   UNL     1      -9.926  13.605  66.499  1.00  0.00    -0.288 C  
HETATM    6  C   UNL     1     -11.428  13.253  66.907  1.00  0.00    -0.376 C  
HETATM    7  C   UNL     1     -12.024  14.013  68.053  1.00  0.00    -0.386 C  
HETATM    8  C   UNL     1     -11.078  14.004  69.278  1.00  0.00    -0.271 C  
HETATM    9  C   UNL     1     -11.596  14.267  70.501  1.00  0.00    -0.239 C  
HETATM   10  C   UNL     1     -12.018  15.690  70.412  1.00  0.00    -0.376 C  
HETATM   11  O   UNL     1     -13.000  16.091  71.033  1.00  0.00    -0.414 OA 
HETATM   12  C   UNL     1     -11.216  16.587  69.479  1.00  0.00    -0.169 C  
HETATM   13  C   UNL     1     -10.146  16.104  68.758  1.00  0.00    -0.237 C  
HETATM   14  C   UNL     1      -9.702  14.630  68.942  1.00  0.00    -0.196 C  
HETATM   15  C   UNL     1      -9.203  13.608  67.857  1.00  0.00    -0.203 C  
HETATM   16  C   UNL     1      -8.647  14.703  70.070  1.00  0.00     0.759 C  
HETATM   17  C   UNL     1      -7.828  13.000  67.686  1.00  0.00    -0.166 C  
HETATM   18  O   UNL     1      -6.776  13.650  67.738  1.00  0.00    -0.142 OA 
HETATM   19  C   UNL     1      -7.887  11.493  67.354  1.00  0.00    -0.143 C  
HETATM   20  C   UNL     1      -8.486  11.258  65.938  1.00  0.00    -0.060 C  
HETATM   21  C   UNL     1      -7.234  10.947  65.063  1.00  0.00     0.338 C  
HETATM   22  C   UNL     1      -9.688  10.192  65.640  1.00  0.00    -0.259 C  
HETATM   23  H   UNL     1     -10.339   9.995  67.492  1.00  0.00     0.000 HD 
HETATM   24  O   UNL     1     -10.716  10.305  66.677  1.00  0.00    -0.199 OA 
ENDROOT
BRANCH  22  25
HETATM   25  C   UNL     1      -9.476   8.690  65.876  1.00  0.00    -0.173 C  
HETATM   26  O   UNL     1      -8.970   7.970  65.018  1.00  0.00     0.075 OA 
BRANCH  25  27
HETATM   27  C   UNL     1     -10.199   8.098  67.126  1.00  0.00    -0.296 C  
HETATM   28  O   UNL     1      -9.398   7.672  68.200  1.00  0.00    -0.144 OA 
HETATM   29  H   UNL     1      -9.838   7.311  68.961  1.00  0.00     0.000 HD 
ENDBRANCH  25  27
ENDBRANCH  22  25
TORSDOF 2
ENDMDL
MODEL       81
REMARK 921   NORMALIZED FREE ENERGY PREDICTED BY IDOCK:   -3.04 KCAL/MOL
REMARK 922        TOTAL FREE ENERGY PREDICTED BY IDOCK:   -3.64 KCAL/MOL
REMARK 923 INTER-LIGAND FREE ENERGY PREDICTED BY IDOCK:   -3.56 KCAL/MOL
REMARK 924 INTRA-LIGAND FREE ENERGY PREDICTED BY IDOCK:   -0.08 KCAL/MOL
REMARK 927      BINDING AFFINITY PREDICTED BY RF-SCORE:    0.00 PKD
ROOT
HETATM    1  C   UNL     1      -6.814  10.585  65.850  1.00  0.00    -0.132 C  
HETATM    2  C   UNL     1      -7.501  11.702  66.692  1.00  0.00    -0.037 C  
HETATM    3  C   UNL     1      -5.984   9.797  66.962  1.00  0.00    -0.055 C  
HETATM    4  C   UNL     1      -6.918   8.596  67.206  1.00  0.00    -0.075 C  
HETATM    5  C   UNL     1      -7.853   8.183  68.456  1.00  0.00    -0.118 C  
HETATM    6  C   UNL     1      -9.072   9.198  68.630  1.00  0.00    -0.136 C  
HETATM    7  C   UNL     1     -10.172   8.794  69.566  1.00  0.00    -0.208 C  
HETATM    8  C   UNL     1     -10.659   7.356  69.265  1.00  0.00    -0.220 C  
HETATM    9  C   UNL     1     -11.881   6.978  69.707  1.00  0.00     0.030 C  
HETATM   10  C   UNL     1     -11.743   6.984  71.187  1.00  0.00    -0.325 C  
HETATM   11  O   UNL     1     -12.699   7.276  71.903  1.00  0.00    -0.316 OA 
HETATM   12  C   UNL     1     -10.363   6.672  71.750  1.00  0.00    -0.218 C  
HETATM   13  C   UNL     1      -9.296   6.390  70.925  1.00  0.00    -0.168 C  
HETATM   14  C   UNL     1      -9.510   6.326  69.392  1.00  0.00    -0.148 C  
HETATM   15  C   UNL     1      -8.567   6.837  68.242  1.00  0.00    -0.124 C  
HETATM   16  C   UNL     1      -9.841   4.839  69.130  1.00  0.00    -0.254 C  
HETATM   17  C   UNL     1      -7.807   6.034  67.209  1.00  0.00    -0.102 C  
HETATM   18  O   UNL     1      -7.145   5.022  67.472  1.00  0.00    -0.064 OA 
HETATM   19  C   UNL     1      -7.880   6.666  65.802  1.00  0.00    -0.105 C  
HETATM   20  C   UNL     1      -7.100   8.010  65.754  1.00  0.00    -0.063 C  
HETATM   21  C   UNL     1      -5.773   7.633  65.028  1.00  0.00    -0.037 C  
HETATM   22  C   UNL     1      -7.729   9.389  65.143  1.00  0.00    -0.109 C  
HETATM   23  H   UNL     1      -9.631   8.868  65.207  1.00  0.00     0.000 HD 
HETATM   24  O   UNL     1      -9.108   9.551  65.611  1.00  0.00    -0.171 OA 
ENDROOT
BRANCH  22  25
HETATM   25  C   UNL     1      -8.117   9.481  63.660  1.00  0.00    -0.151 C  
HETATM   26  O   UNL     1      -8.261   8.474  62.971  1.00  0.00    -0.179 OA 
BRANCH  25  27
HETATM   27  C   UNL     1      -8.026  10.905  63.029  1.00  0.00     0.111 C  
HETATM   28  O   UNL     1      -6.749  11.389  62.695  1.00  0.00    -0.185 OA 
HETATM   29  H   UNL     1      -6.694  12.256  62.311  1.00  0.00     0.000 HD 
ENDBRANCH  25  27
ENDBRANCH  22  25
TORSDOF 2
ENDMDL
MODEL       82
REMARK 921   NORMALIZED FREE ENERGY PREDICTED BY IDOCK:   -2.99 KCAL/MOL
REMARK 922        TOTAL FREE ENERGY PREDICTED BY IDOCK:   -3.59 KCAL/MOL
REMARK 923 INTER-LIGAND FREE ENERGY PREDICTED BY IDOCK:   -3.39 KCAL/MOL
REMARK 924 INTRA-LIGAND FREE ENERGY PREDICTED BY IDOCK:   -0.20 KCAL/MOL
REMARK 927      BINDING AFFINITY PREDICTED BY RF-SCORE:    0.00 PKD
ROOT
HETATM    1  C   UNL     1     -11.447   8.264  70.586  1.00  0.00    -0.236 C  
HETATM    2  C   UNL     1     -12.163   8.189  71.968  1.00  0.00    -0.385 C  
HETATM    3  C   UNL     1     -12.593   8.869  69.653  1.00  0.00     2.104 C  
HETATM    4  C   UNL     1     -12.156  10.346  69.601  1.00  0.00    -0.167 C  
HETATM    5  C   UNL     1     -12.788  11.688  70.238  1.00  0.00     0.095 C  
HETATM    6  C   UNL     1     -12.673  11.686  71.830  1.00  0.00    -0.233 C  
HETATM    7  C   UNL     1     -12.961  12.974  72.541  1.00  0.00    -0.132 C  
HETATM    8  C   UNL     1     -12.172  14.146  71.909  1.00  0.00    -0.196 C  
HETATM    9  C   UNL     1     -11.979  15.268  72.640  1.00  0.00    -0.535 C  
HETATM   10  C   UNL     1     -13.346  15.830  72.800  1.00  0.00    -0.547 C  
HETATM   11  O   UNL     1     -13.655  16.442  73.820  1.00  0.00    -0.547 OA 
HETATM   12  C   UNL     1     -14.337  15.557  71.677  1.00  0.00    -0.510 C  
HETATM   13  C   UNL     1     -13.979  14.830  70.562  1.00  0.00     0.505 C  
HETATM   14  C   UNL     1     -12.521  14.328  70.411  1.00  0.00    -0.426 C  
HETATM   15  C   UNL     1     -12.004  12.954  69.849  1.00  0.00    -0.377 C  
HETATM   16  C   UNL     1     -11.819  15.469  69.640  1.00  0.00    -0.384 C  
HETATM   17  C   UNL     1     -11.219  12.679  68.585  1.00  0.00    -0.282 C  
HETATM   18  O   UNL     1     -11.494  13.168  67.482  1.00  0.00    -0.291 OA 
HETATM   19  C   UNL     1     -10.087  11.652  68.807  1.00  0.00    -0.169 C  
HETATM   20  C   UNL     1     -10.665  10.240  69.100  1.00  0.00    -0.259 C  
HETATM   21  C   UNL     1     -10.480   9.485  67.749  1.00  0.00    -0.309 C  
HETATM   22  C   UNL     1     -10.179   9.316  70.358  1.00  0.00    -0.233 C  
HETATM   23  H   UNL     1      -9.342  10.744  71.432  1.00  0.00     0.000 HD 
HETATM   24  O   UNL     1     -10.066  10.143  71.562  1.00  0.00     0.797 OA 
ENDROOT
BRANCH  22  25
HETATM   25  C   UNL     1      -8.730   8.817  70.445  1.00  0.00    -0.166 C  
HETATM   26  O   UNL     1      -7.792   9.594  70.615  1.00  0.00    -0.231 OA 
BRANCH  25  27
HETATM   27  C   UNL     1      -8.503   7.334  70.017  1.00  0.00    -0.139 C  
HETATM   28  O   UNL     1      -8.838   6.330  70.942  1.00  0.00    -0.135 OA 
HETATM   29  H   UNL     1      -8.700   5.427  70.681  1.00  0.00     0.000 HD 
ENDBRANCH  25  27
ENDBRANCH  22  25
TORSDOF 2
ENDMDL
MODEL       83
REMARK 921   NORMALIZED FREE ENERGY PREDICTED BY IDOCK:   -2.99 KCAL/MOL
REMARK 922        TOTAL FREE ENERGY PREDICTED BY IDOCK:   -3.58 KCAL/MOL
REMARK 923 INTER-LIGAND FREE ENERGY PREDICTED BY IDOCK:   -3.27 KCAL/MOL
REMARK 924 INTRA-LIGAND FREE ENERGY PREDICTED BY IDOCK:   -0.31 KCAL/MOL
REMARK 927      BINDING AFFINITY PREDICTED BY RF-SCORE:    0.00 PKD
ROOT
HETATM    1  C   UNL     1      -7.456   6.726  65.615  1.00  0.00    -0.082 C  
HETATM    2  C   UNL     1      -8.819   7.147  64.986  1.00  0.00     0.317 C  
HETATM    3  C   UNL     1      -7.062   8.028  66.449  1.00  0.00    -0.074 C  
HETATM    4  C   UNL     1      -7.487   7.590  67.864  1.00  0.00    -0.105 C  
HETATM    5  C   UNL     1      -8.693   8.059  68.830  1.00  0.00    -0.131 C  
HETATM    6  C   UNL     1     -10.111   7.622  68.243  1.00  0.00    -0.214 C  
HETATM    7  C   UNL     1     -11.297   7.740  69.153  1.00  0.00     0.422 C  
HETATM    8  C   UNL     1     -11.014   7.080  70.523  1.00  0.00    -0.297 C  
HETATM    9  C   UNL     1     -12.062   6.725  71.303  1.00  0.00    -0.421 C  
HETATM   10  C   UNL     1     -12.684   8.024  71.677  1.00  0.00    -0.326 C  
HETATM   11  O   UNL     1     -13.899   8.109  71.844  1.00  0.00    -0.358 OA 
HETATM   12  C   UNL     1     -11.756   9.226  71.779  1.00  0.00    -0.456 C  
HETATM   13  C   UNL     1     -10.403   9.113  71.543  1.00  0.00    -0.414 C  
HETATM   14  C   UNL     1      -9.794   7.724  71.227  1.00  0.00    -0.194 C  
HETATM   15  C   UNL     1      -8.666   7.352  70.197  1.00  0.00    -0.143 C  
HETATM   16  C   UNL     1      -9.389   7.177  72.615  1.00  0.00    -0.165 C  
HETATM   17  C   UNL     1      -7.266   6.845  70.463  1.00  0.00    -0.072 C  
HETATM   18  O   UNL     1      -6.505   7.332  71.309  1.00  0.00    -0.040 OA 
HETATM   19  C   UNL     1      -6.859   5.707  69.502  1.00  0.00    -0.061 C  
HETATM   20  C   UNL     1      -6.705   6.233  68.047  1.00  0.00    -0.064 C  
HETATM   21  C   UNL     1      -5.160   6.338  67.863  1.00  0.00    -0.004 C  
HETATM   22  C   UNL     1      -7.401   5.515  66.755  1.00  0.00    -0.083 C  
HETATM   23  H   UNL     1      -8.750   4.456  67.731  1.00  0.00     0.000 HD 
HETATM   24  O   UNL     1      -8.781   5.148  67.080  1.00  0.00    -0.106 OA 
ENDROOT
BRANCH  22  25
HETATM   25  C   UNL     1      -7.011   4.086  66.353  1.00  0.00    -0.059 C  
HETATM   26  O   UNL     1      -6.907   3.190  67.187  1.00  0.00    -0.044 OA 
BRANCH  25  27
HETATM   27  C   UNL     1      -6.477   3.920  64.895  1.00  0.00    -0.038 C  
HETATM   28  O   UNL     1      -7.420   3.685  63.880  1.00  0.00    -0.060 OA 
HETATM   29  H   UNL     1      -7.095   3.583  62.992  1.00  0.00     0.000 HD 
ENDBRANCH  25  27
ENDBRANCH  22  25
TORSDOF 2
ENDMDL
MODEL       84
REMARK 921   NORMALIZED FREE ENERGY PREDICTED BY IDOCK:   -2.82 KCAL/MOL
REMARK 922        TOTAL FREE ENERGY PREDICTED BY IDOCK:   -3.39 KCAL/MOL
REMARK 923 INTER-LIGAND FREE ENERGY PREDICTED BY IDOCK:   -2.97 KCAL/MOL
REMARK 924 INTRA-LIGAND FREE ENERGY PREDICTED BY IDOCK:   -0.42 KCAL/MOL
REMARK 927      BINDING AFFINITY PREDICTED BY RF-SCORE:    0.00 PKD
ROOT
HETATM    1  C   UNL     1      -9.281  10.048  70.187  1.00  0.00    -0.078 C  
HETATM    2  C   UNL     1     -10.522  10.210  69.256  1.00  0.00    -0.246 C  
HETATM    3  C   UNL     1      -9.581   8.649  70.894  1.00  0.00    -0.252 C  
HETATM    4  C   UNL     1      -8.678   7.718  70.061  1.00  0.00    -0.141 C  
HETATM    5  C   UNL     1      -9.010   6.568  68.977  1.00  0.00    -0.129 C  
HETATM    6  C   UNL     1      -9.640   7.187  67.648  1.00  0.00    -0.152 C  
HETATM    7  C   UNL     1      -9.743   6.286  66.454  1.00  0.00    -0.146 C  
HETATM    8  C   UNL     1      -8.396   5.576  66.176  1.00  0.00    -0.119 C  
HETATM    9  C   UNL     1      -8.174   5.064  64.942  1.00  0.00    -0.132 C  
HETATM   10  C   UNL     1      -9.166   3.962  64.828  1.00  0.00    -0.149 C  
HETATM   11  O   UNL     1      -9.666   3.682  63.741  1.00  0.00    -0.137 OA 
HETATM   12  C   UNL     1      -9.563   3.258  66.118  1.00  0.00    -0.019 C  
HETATM   13  C   UNL     1      -9.021   3.621  67.332  1.00  0.00    -0.162 C  
HETATM   14  C   UNL     1      -7.937   4.727  67.387  1.00  0.00    -0.094 C  
HETATM   15  C   UNL     1      -7.745   5.867  68.452  1.00  0.00    -0.094 C  
HETATM   16  C   UNL     1      -6.609   3.946  67.260  1.00  0.00    -0.046 C  
HETATM   17  C   UNL     1      -6.626   6.053  69.454  1.00  0.00    -0.044 C  
HETATM   18  O   UNL     1      -6.177   5.144  70.163  1.00  0.00    -0.020 OA 
HETATM   19  C   UNL     1      -6.163   7.523  69.553  1.00  0.00    -0.031 C  
HETATM   20  C   UNL     1      -7.269   8.414  70.187  1.00  0.00    -0.050 C  
HETATM   21  C   UNL     1      -6.771   8.624  71.649  1.00  0.00    -0.084 C  
HETATM   22  C   UNL     1      -7.769   9.824  69.531  1.00  0.00    -0.120 C  
HETATM   23  H   UNL     1      -7.068   9.536  67.709  1.00  0.00     0.000 HD 
HETATM   24  O   UNL     1      -7.932   9.664  68.084  1.00  0.00    -0.099 OA 
ENDROOT
BRANCH  22  25
HETATM   25  C   UNL     1      -6.800  11.007  69.391  1.00  0.00    -0.119 C  
HETATM   26  O   UNL     1      -6.497  11.706  70.354  1.00  0.00    -0.214 OA 
BRANCH  25  27
HETATM   27  C   UNL     1      -6.468  11.433  67.926  1.00  0.00    -0.058 C  
HETATM   28  O   UNL     1      -5.415  10.766  67.277  1.00  0.00    -0.040 OA 
HETATM   29  H   UNL     1      -5.213  11.026  66.386  1.00  0.00     0.000 HD 
ENDBRANCH  25  27
ENDBRANCH  22  25
TORSDOF 2
ENDMDL
MODEL       85
REMARK 921   NORMALIZED FREE ENERGY PREDICTED BY IDOCK:   -2.58 KCAL/MOL
REMARK 922        TOTAL FREE ENERGY PREDICTED BY IDOCK:   -3.13 KCAL/MOL
REMARK 923 INTER-LIGAND FREE ENERGY PREDICTED BY IDOCK:   -2.90 KCAL/MOL
REMARK 924 INTRA-LIGAND FREE ENERGY PREDICTED BY IDOCK:   -0.23 KCAL/MOL
REMARK 927      BINDING AFFINITY PREDICTED BY RF-SCORE:    0.00 PKD
ROOT
HETATM    1  C   UNL     1      -7.596   8.168  66.856  1.00  0.00    -0.095 C  
HETATM    2  C   UNL     1      -8.296   9.551  66.688  1.00  0.00    -0.116 C  
HETATM    3  C   UNL     1      -6.970   8.292  68.319  1.00  0.00    -0.076 C  
HETATM    4  C   UNL     1      -8.014   7.504  69.135  1.00  0.00    -0.121 C  
HETATM    5  C   UNL     1      -9.122   7.967  70.214  1.00  0.00    -0.152 C  
HETATM    6  C   UNL     1     -10.275   8.832  69.529  1.00  0.00    -0.208 C  
HETATM    7  C   UNL     1     -11.508   9.097  70.340  1.00  0.00    -0.228 C  
HETATM    8  C   UNL     1     -12.060   7.789  70.956  1.00  0.00    -0.264 C  
HETATM    9  C   UNL     1     -13.351   7.754  71.359  1.00  0.00    -0.309 C  
HETATM   10  C   UNL     1     -13.395   8.709  72.499  1.00  0.00    -0.292 C  
HETATM   11  O   UNL     1     -14.407   9.371  72.721  1.00  0.00    -0.407 OA 
HETATM   12  C   UNL     1     -12.122   8.858  73.320  1.00  0.00     1.686 C  
HETATM   13  C   UNL     1     -10.986   8.137  73.023  1.00  0.00    -0.181 C  
HETATM   14  C   UNL     1     -11.015   7.102  71.870  1.00  0.00    -0.262 C  
HETATM   15  C   UNL     1      -9.903   6.780  70.806  1.00  0.00    -0.194 C  
HETATM   16  C   UNL     1     -11.421   5.785  72.569  1.00  0.00    -0.349 C  
HETATM   17  C   UNL     1      -9.084   5.518  70.640  1.00  0.00    -0.145 C  
HETATM   18  O   UNL     1      -8.536   4.923  71.576  1.00  0.00    -0.118 OA 
HETATM   19  C   UNL     1      -8.937   5.103  69.160  1.00  0.00    -0.125 C  
HETATM   20  C   UNL     1      -8.060   6.122  68.379  1.00  0.00    -0.108 C  
HETATM   21  C   UNL     1      -6.686   5.396  68.256  1.00  0.00    -0.054 C  
HETATM   22  C   UNL     1      -8.505   6.778  66.950  1.00  0.00    -0.115 C  
HETATM   23  H   UNL     1     -10.434   6.378  67.061  1.00  0.00     0.000 HD 
HETATM   24  O   UNL     1      -9.915   7.172  67.007  1.00  0.00    -0.182 OA 
ENDROOT
BRANCH  22  25
HETATM   25  C   UNL     1      -8.701   5.892  65.712  1.00  0.00    -0.151 C  
HETATM   26  O   UNL     1      -9.127   4.743  65.805  1.00  0.00    -0.131 OA 
BRANCH  25  27
HETATM   27  C   UNL     1      -8.058   6.428  64.394  1.00  0.00    -0.076 C  
HETATM   28  O   UNL     1      -8.873   6.490  63.251  1.00  0.00    -0.128 OA 
HETATM   29  H   UNL     1      -8.482   6.816  62.449  1.00  0.00     0.000 HD 
ENDBRANCH  25  27
ENDBRANCH  22  25
TORSDOF 2
ENDMDL
MODEL       86
REMARK 921   NORMALIZED FREE ENERGY PREDICTED BY IDOCK:   -2.33 KCAL/MOL
REMARK 922        TOTAL FREE ENERGY PREDICTED BY IDOCK:   -2.85 KCAL/MOL
REMARK 923 INTER-LIGAND FREE ENERGY PREDICTED BY IDOCK:   -3.15 KCAL/MOL
REMARK 924 INTRA-LIGAND FREE ENERGY PREDICTED BY IDOCK:    0.30 KCAL/MOL
REMARK 927      BINDING AFFINITY PREDICTED BY RF-SCORE:    0.00 PKD
ROOT
HETATM    1  C   UNL     1     -11.107  10.486  66.278  1.00  0.00     0.145 C  
HETATM    2  C   UNL     1     -10.616   9.882  67.629  1.00  0.00    -0.325 C  
HETATM    3  C   UNL     1     -11.903  11.780  66.766  1.00  0.00    -0.067 C  
HETATM    4  C   UNL     1     -10.847  12.871  66.502  1.00  0.00    -0.290 C  
HETATM    5  C   UNL     1      -9.950  13.776  67.493  1.00  0.00    -0.233 C  
HETATM    6  C   UNL     1      -8.877  12.892  68.276  1.00  0.00    -0.168 C  
HETATM    7  C   UNL     1      -7.798  13.621  69.018  1.00  0.00     0.130 C  
HETATM    8  C   UNL     1      -7.121  14.682  68.116  1.00  0.00    -0.127 C  
HETATM    9  C   UNL     1      -5.893  15.136  68.457  1.00  0.00    -0.095 C  
HETATM   10  C   UNL     1      -6.124  15.873  69.727  1.00  0.00    -0.169 C  
HETATM   11  O   UNL     1      -5.258  15.902  70.600  1.00  0.00    -0.157 OA 
HETATM   12  C   UNL     1      -7.488  16.525  69.906  1.00  0.00     0.680 C  
HETATM   13  C   UNL     1      -8.459  16.441  68.931  1.00  0.00    -0.247 C  
HETATM   14  C   UNL     1      -8.142  15.723  67.595  1.00  0.00    -0.163 C  
HETATM   15  C   UNL     1      -9.066  14.783  66.737  1.00  0.00    -0.291 C  
HETATM   16  C   UNL     1      -7.616  16.857  66.685  1.00  0.00    -0.301 C  
HETATM   17  C   UNL     1      -9.655  15.025  65.365  1.00  0.00    -0.077 C  
HETATM   18  O   UNL     1     -10.204  16.080  65.026  1.00  0.00    -0.513 OA 
HETATM   19  C   UNL     1      -9.570  13.776  64.460  1.00  0.00     0.995 C  
HETATM   20  C   UNL     1     -10.503  12.647  64.980  1.00  0.00    -0.331 C  
HETATM   21  C   UNL     1     -11.726  12.714  64.015  1.00  0.00    -0.496 C  
HETATM   22  C   UNL     1     -10.010  11.103  65.192  1.00  0.00    -0.272 C  
HETATM   23  H   UNL     1      -8.066  11.444  65.213  1.00  0.00     0.000 HD 
HETATM   24  O   UNL     1      -8.693  11.091  65.834  1.00  0.00    -0.178 OA 
ENDROOT
BRANCH  22  25
HETATM   25  C   UNL     1      -9.543  10.262  63.995  1.00  0.00    -0.304 C  
HETATM   26  O   UNL     1      -9.834  10.569  62.841  1.00  0.00    -0.309 OA 
BRANCH  25  27
HETATM   27  C   UNL     1      -8.943   8.865  64.349  1.00  0.00     0.099 C  
HETATM   28  O   UNL     1      -9.654   8.063  65.257  1.00  0.00    -0.083 OA 
HETATM   29  H   UNL     1      -9.289   7.213  65.473  1.00  0.00     0.000 HD 
ENDBRANCH  25  27
ENDBRANCH  22  25
TORSDOF 2
ENDMDL
MODEL       87
REMARK 921   NORMALIZED FREE ENERGY PREDICTED BY IDOCK:   -1.63 KCAL/MOL
REMARK 922        TOTAL FREE ENERGY PREDICTED BY IDOCK:   -2.07 KCAL/MOL
REMARK 923 INTER-LIGAND FREE ENERGY PREDICTED BY IDOCK:   -1.93 KCAL/MOL
REMARK 924 INTRA-LIGAND FREE ENERGY PREDICTED BY IDOCK:   -0.14 KCAL/MOL
REMARK 927      BINDING AFFINITY PREDICTED BY RF-SCORE:    0.00 PKD
ROOT
HETATM    1  C   UNL     1      -6.377  19.013  68.341  1.00  0.00    -0.247 C  
HETATM    2  C   UNL     1      -7.185  19.945  69.295  1.00  0.00    -0.241 C  
HETATM    3  C   UNL     1      -6.065  17.765  69.286  1.00  0.00    -0.233 C  
HETATM    4  C   UNL     1      -7.150  16.779  68.810  1.00  0.00    -0.202 C  
HETATM    5  C   UNL     1      -8.493  16.221  69.511  1.00  0.00     0.129 C  
HETATM    6  C   UNL     1      -9.582  17.374  69.683  1.00  0.00     0.515 C  
HETATM    7  C   UNL     1     -10.971  16.956  70.060  1.00  0.00     0.142 C  
HETATM    8  C   UNL     1     -11.478  15.818  69.141  1.00  0.00    -0.383 C  
HETATM    9  C   UNL     1     -12.811  15.599  69.054  1.00  0.00     0.928 C  
HETATM   10  C   UNL     1     -13.185  15.126  70.413  1.00  0.00    -0.133 C  
HETATM   11  O   UNL     1     -14.290  15.388  70.884  1.00  0.00    -0.379 OA 
HETATM   12  C   UNL     1     -12.121  14.366  71.194  1.00  0.00    -0.410 C  
HETATM   13  C   UNL     1     -10.874  14.123  70.661  1.00  0.00     0.807 C  
HETATM   14  C   UNL     1     -10.559  14.574  69.212  1.00  0.00    -0.224 C  
HETATM   15  C   UNL     1      -9.232  15.191  68.638  1.00  0.00    -0.196 C  
HETATM   16  C   UNL     1     -10.939  13.345  68.355  1.00  0.00    -0.291 C  
HETATM   17  C   UNL     1      -8.257  14.594  67.647  1.00  0.00    -0.171 C  
HETATM   18  O   UNL     1      -7.837  13.432  67.708  1.00  0.00    -0.129 OA 
HETATM   19  C   UNL     1      -7.778  15.622  66.599  1.00  0.00    -0.068 C  
HETATM   20  C   UNL     1      -6.889  16.715  67.256  1.00  0.00    -0.212 C  
HETATM   21  C   UNL     1      -5.443  16.296  66.852  1.00  0.00     0.164 C  
HETATM   22  C   UNL     1      -7.120  18.316  67.027  1.00  0.00    -0.196 C  
HETATM   23  H   UNL     1      -8.975  18.227  66.359  1.00  0.00     0.000 HD 
HETATM   24  O   UNL     1      -8.550  18.625  67.110  1.00  0.00    -0.261 OA 
ENDROOT
BRANCH  22  25
HETATM   25  C   UNL     1      -6.968  18.934  65.629  1.00  0.00    -0.232 C  
HETATM   26  O   UNL     1      -6.532  18.283  64.683  1.00  0.00    -0.157 OA 
BRANCH  25  27
HETATM   27  C   UNL     1      -7.118  20.487  65.561  1.00  0.00    -0.122 C  
HETATM   28  O   UNL     1      -8.206  21.066  66.236  1.00  0.00    -0.131 OA 
HETATM   29  H   UNL     1      -8.297  22.011  66.194  1.00  0.00     0.000 HD 
ENDBRANCH  25  27
ENDBRANCH  22  25
TORSDOF 2
ENDMDL
MODEL       88
REMARK 921   NORMALIZED FREE ENERGY PREDICTED BY IDOCK:    0.04 KCAL/MOL
REMARK 922        TOTAL FREE ENERGY PREDICTED BY IDOCK:   -0.21 KCAL/MOL
REMARK 923 INTER-LIGAND FREE ENERGY PREDICTED BY IDOCK:    0.04 KCAL/MOL
REMARK 924 INTRA-LIGAND FREE ENERGY PREDICTED BY IDOCK:   -0.25 KCAL/MOL
REMARK 927      BINDING AFFINITY PREDICTED BY RF-SCORE:    0.00 PKD
ROOT
HETATM    1  C   UNL     1      -6.546   8.310  65.441  1.00  0.00    -0.052 C  
HETATM    2  C   UNL     1      -7.307   8.788  64.167  1.00  0.00    -0.101 C  
HETATM    3  C   UNL     1      -5.645   9.582  65.782  1.00  0.00    -0.048 C  
HETATM    4  C   UNL     1      -6.480  10.219  66.910  1.00  0.00    -0.071 C  
HETATM    5  C   UNL     1      -7.364  11.568  66.976  1.00  0.00    -0.145 C  
HETATM    6  C   UNL     1      -8.657  11.463  66.046  1.00  0.00    -0.094 C  
HETATM    7  C   UNL     1      -9.710  12.516  66.213  1.00  0.00    -0.259 C  
HETATM    8  C   UNL     1     -10.088  12.693  67.703  1.00  0.00    -0.218 C  
HETATM    9  C   UNL     1     -11.271  13.274  68.010  1.00  0.00    -0.307 C  
HETATM   10  C   UNL     1     -11.116  14.674  67.532  1.00  0.00    -0.313 C  
HETATM   11  O   UNL     1     -12.083  15.297  67.099  1.00  0.00     0.035 OA 
HETATM   12  C   UNL     1      -9.710  15.256  67.556  1.00  0.00    -0.204 C  
HETATM   13  C   UNL     1      -8.634  14.522  68.006  1.00  0.00    -0.162 C  
HETATM   14  C   UNL     1      -8.861  13.092  68.560  1.00  0.00    -0.045 C  
HETATM   15  C   UNL     1      -7.974  11.808  68.368  1.00  0.00    -0.147 C  
HETATM   16  C   UNL     1      -9.079  13.316  70.074  1.00  0.00     3.158 C  
HETATM   17  C   UNL     1      -7.167  11.049  69.398  1.00  0.00    -0.114 C  
HETATM   18  O   UNL     1      -6.425  11.589  70.228  1.00  0.00    -0.194 OA 
HETATM   19  C   UNL     1      -7.306   9.518  69.243  1.00  0.00    -0.072 C  
HETATM   20  C   UNL     1      -6.634   9.028  67.930  1.00  0.00    -0.060 C  
HETATM   21  C   UNL     1      -5.290   8.408  68.421  1.00  0.00    -0.034 C  
HETATM   22  C   UNL     1      -7.375   8.043  66.858  1.00  0.00    -0.090 C  
HETATM   23  H   UNL     1      -9.230   8.333  67.465  1.00  0.00     0.000 HD 
HETATM   24  O   UNL     1      -8.757   8.485  66.655  1.00  0.00    -0.117 OA 
ENDROOT
BRANCH  22  25
HETATM   25  C   UNL     1      -7.786   6.619  67.261  1.00  0.00    -0.112 C  
HETATM   26  O   UNL     1      -8.525   6.412  68.221  1.00  0.00    -0.115 OA 
BRANCH  25  27
HETATM   27  C   UNL     1      -6.986   5.469  66.574  1.00  0.00    -0.064 C  
HETATM   28  O   UNL     1      -5.598   5.423  66.788  1.00  0.00    -0.015 OA 
HETATM   29  H   UNL     1      -5.111   4.723  66.369  1.00  0.00     0.000 HD 
ENDBRANCH  25  27
ENDBRANCH  22  25
TORSDOF 2
ENDMDL
MODEL       89
REMARK 921   NORMALIZED FREE ENERGY PREDICTED BY IDOCK:    2.88 KCAL/MOL
REMARK 922        TOTAL FREE ENERGY PREDICTED BY IDOCK:    2.97 KCAL/MOL
REMARK 923 INTER-LIGAND FREE ENERGY PREDICTED BY IDOCK:    2.98 KCAL/MOL
REMARK 924 INTRA-LIGAND FREE ENERGY PREDICTED BY IDOCK:   -0.01 KCAL/MOL
REMARK 927      BINDING AFFINITY PREDICTED BY RF-SCORE:    0.00 PKD
ROOT
HETATM    1  C   UNL     1      -7.202  11.219  66.447  1.00  0.00    -0.052 C  
HETATM    2  C   UNL     1      -6.119  10.104  66.331  1.00  0.00    -0.070 C  
HETATM    3  C   UNL     1      -8.554  10.371  66.406  1.00  0.00    -0.137 C  
HETATM    4  C   UNL     1      -8.897  10.325  67.908  1.00  0.00    -0.122 C  
HETATM    5  C   UNL     1      -8.875   9.128  68.991  1.00  0.00    -0.139 C  
HETATM    6  C   UNL     1      -7.384   8.645  69.293  1.00  0.00    -0.074 C  
HETATM    7  C   UNL     1      -7.182   7.739  70.470  1.00  0.00    -0.057 C  
HETATM    8  C   UNL     1      -7.868   8.309  71.735  1.00  0.00    -0.147 C  
HETATM    9  C   UNL     1      -7.463   7.868  72.949  1.00  0.00    -0.139 C  
HETATM   10  C   UNL     1      -7.866   6.437  72.962  1.00  0.00    -0.105 C  
HETATM   11  O   UNL     1      -7.194   5.605  73.567  1.00  0.00    -0.085 OA 
HETATM   12  C   UNL     1      -9.099   6.062  72.151  1.00  0.00    -0.142 C  
HETATM   13  C   UNL     1      -9.810   7.007  71.445  1.00  0.00    -0.180 C  
HETATM   14  C   UNL     1      -9.391   8.497  71.522  1.00  0.00    -0.289 C  
HETATM   15  C   UNL     1      -9.368   9.576  70.378  1.00  0.00    -0.311 C  
HETATM   16  C   UNL     1     -10.222   9.051  72.702  1.00  0.00     0.575 C  
HETATM   17  C   UNL     1     -10.223  10.814  70.222  1.00  0.00     0.627 C  
HETATM   18  O   UNL     1     -11.450  10.829  70.382  1.00  0.00    -0.303 OA 
HETATM   19  C   UNL     1      -9.407  12.039  69.758  1.00  0.00     2.031 C  
HETATM   20  C   UNL     1      -8.901  11.852  68.300  1.00  0.00    -0.174 C  
HETATM   21  C   UNL     1      -9.870  12.741  67.464  1.00  0.00    -0.211 C  
HETATM   22  C   UNL     1      -7.349  12.097  67.852  1.00  0.00    -0.108 C  
HETATM   23  H   UNL     1      -6.533  12.005  69.646  1.00  0.00     0.000 HD 
HETATM   24  O   UNL     1      -6.449  11.503  68.844  1.00  0.00    -0.054 OA 
ENDROOT
BRANCH  22  25
HETATM   25  C   UNL     1      -6.714  13.491  67.967  1.00  0.00    -0.138 C  
HETATM   26  O   UNL     1      -6.458  13.992  69.060  1.00  0.00    -0.090 OA 
BRANCH  25  27
HETATM   27  C   UNL     1      -6.692  14.330  66.651  1.00  0.00     2.232 C  
HETATM   28  O   UNL     1      -7.912  14.526  65.983  1.00  0.00     0.637 OA 
HETATM   29  H   UNL     1      -7.899  15.036  65.182  1.00  0.00     0.000 HD 
ENDBRANCH  25  27
ENDBRANCH  22  25
TORSDOF 2
ENDMDL
MODEL       90
REMARK 921   NORMALIZED FREE ENERGY PREDICTED BY IDOCK:    3.18 KCAL/MOL
REMARK 922        TOTAL FREE ENERGY PREDICTED BY IDOCK:    3.30 KCAL/MOL
REMARK 923 INTER-LIGAND FREE ENERGY PREDICTED BY IDOCK:    3.12 KCAL/MOL
REMARK 924 INTRA-LIGAND FREE ENERGY PREDICTED BY IDOCK:    0.18 KCAL/MOL
REMARK 927      BINDING AFFINITY PREDICTED BY RF-SCORE:    0.00 PKD
ROOT
HETATM    1  C   UNL     1     -10.310  19.527  68.287  1.00  0.00    -0.524 C  
HETATM    2  C   UNL     1     -11.733  19.322  68.888  1.00  0.00     3.954 C  
HETATM    3  C   UNL     1      -9.384  18.832  69.385  1.00  0.00     0.163 C  
HETATM    4  C   UNL     1      -9.125  17.471  68.709  1.00  0.00    -0.212 C  
HETATM    5  C   UNL     1      -9.633  15.977  69.048  1.00  0.00    -0.247 C  
HETATM    6  C   UNL     1     -11.203  15.826  68.803  1.00  0.00    -0.342 C  
HETATM    7  C   UNL     1     -11.769  14.438  68.807  1.00  0.00    -0.372 C  
HETATM    8  C   UNL     1     -10.951  13.502  67.885  1.00  0.00    -0.275 C  
HETATM    9  C   UNL     1     -11.527  12.360  67.443  1.00  0.00    -0.418 C  
HETATM   10  C   UNL     1     -11.703  11.548  68.677  1.00  0.00    -0.326 C  
HETATM   11  O   UNL     1     -12.659  10.783  68.791  1.00  0.00    -0.257 OA 
HETATM   12  C   UNL     1     -10.685  11.760  69.790  1.00  0.00     0.307 C  
HETATM   13  C   UNL     1      -9.647  12.656  69.655  1.00  0.00     1.765 C  
HETATM   14  C   UNL     1      -9.468  13.424  68.321  1.00  0.00    -0.209 C  
HETATM   15  C   UNL     1      -9.045  14.922  68.094  1.00  0.00    -0.177 C  
HETATM   16  C   UNL     1      -8.521  12.518  67.500  1.00  0.00    -0.177 C  
HETATM   17  C   UNL     1      -7.777  15.468  67.475  1.00  0.00    -0.171 C  
HETATM   18  O   UNL     1      -6.643  15.060  67.753  1.00  0.00    -0.143 OA 
HETATM   19  C   UNL     1      -8.051  16.650  66.520  1.00  0.00    -0.337 C  
HETATM   20  C   UNL     1      -8.550  17.896  67.305  1.00  0.00    -0.241 C  
HETATM   21  C   UNL     1      -7.291  18.815  67.364  1.00  0.00    -0.231 C  
HETATM   22  C   UNL     1      -9.877  18.750  66.881  1.00  0.00    -0.334 C  
HETATM   23  H   UNL     1     -10.715  17.387  65.726  1.00  0.00     0.000 HD 
HETATM   24  O   UNL     1     -10.962  17.831  66.529  1.00  0.00    -0.047 OA 
ENDROOT
BRANCH  22  25
HETATM   25  C   UNL     1      -9.934  19.488  65.536  1.00  0.00     0.229 C  
HETATM   26  O   UNL     1     -10.599  19.059  64.596  1.00  0.00     0.675 OA 
BRANCH  25  27
HETATM   27  C   UNL     1      -8.883  20.627  65.349  1.00  0.00     1.016 C  
HETATM   28  O   UNL     1      -7.791  20.373  64.501  1.00  0.00     0.055 OA 
HETATM   29  H   UNL     1      -7.151  21.066  64.388  1.00  0.00     0.000 HD 
ENDBRANCH  25  27
ENDBRANCH  22  25
TORSDOF 2
ENDMDL
MODEL       91
REMARK 921   NORMALIZED FREE ENERGY PREDICTED BY IDOCK:    5.21 KCAL/MOL
REMARK 922        TOTAL FREE ENERGY PREDICTED BY IDOCK:    5.57 KCAL/MOL
REMARK 923 INTER-LIGAND FREE ENERGY PREDICTED BY IDOCK:    3.63 KCAL/MOL
REMARK 924 INTRA-LIGAND FREE ENERGY PREDICTED BY IDOCK:    1.94 KCAL/MOL
REMARK 927      BINDING AFFINITY PREDICTED BY RF-SCORE:    0.00 PKD
ROOT
HETATM    1  C   UNL     1      -6.882  10.107  70.047  1.00  0.00    -0.137 C  
HETATM    2  C   UNL     1      -6.363  11.431  70.685  1.00  0.00     0.330 C  
HETATM    3  C   UNL     1      -8.342   9.986  70.680  1.00  0.00     0.545 C  
HETATM    4  C   UNL     1      -9.196  10.510  69.509  1.00  0.00    -0.072 C  
HETATM    5  C   UNL     1     -10.041  11.870  69.305  1.00  0.00     0.272 C  
HETATM    6  C   UNL     1      -9.082  13.141  69.205  1.00  0.00     0.891 C  
HETATM    7  C   UNL     1      -9.695  14.429  68.742  1.00  0.00    -0.190 C  
HETATM    8  C   UNL     1     -10.510  14.221  67.443  1.00  0.00    -0.264 C  
HETATM    9  C   UNL     1     -10.782  15.296  66.668  1.00  0.00    -0.309 C  
HETATM   10  C   UNL     1     -11.690  16.122  67.507  1.00  0.00     0.375 C  
HETATM   11  O   UNL     1     -11.670  17.349  67.430  1.00  0.00     0.767 OA 
HETATM   12  C   UNL     1     -12.584  15.378  68.490  1.00  0.00     0.701 C  
HETATM   13  C   UNL     1     -12.557  14.004  68.589  1.00  0.00     0.475 C  
HETATM   14  C   UNL     1     -11.645  13.186  67.641  1.00  0.00    -0.392 C  
HETATM   15  C   UNL     1     -10.786  11.908  67.958  1.00  0.00    -0.242 C  
HETATM   16  C   UNL     1     -12.557  12.875  66.432  1.00  0.00     0.309 C  
HETATM   17  C   UNL     1     -10.965  10.493  67.453  1.00  0.00    -0.288 C  
HETATM   18  O   UNL     1     -12.053   9.905  67.420  1.00  0.00     1.703 OA 
HETATM   19  C   UNL     1      -9.624   9.832  67.064  1.00  0.00    -0.218 C  
HETATM   20  C   UNL     1      -8.741   9.582  68.318  1.00  0.00    -0.120 C  
HETATM   21  C   UNL     1      -8.907   8.054  68.578  1.00  0.00    -0.134 C  
HETATM   22  C   UNL     1      -7.171  10.025  68.411  1.00  0.00    -0.073 C  
HETATM   23  H   UNL     1      -7.170  11.326  66.928  1.00  0.00     0.000 HD 
HETATM   24  O   UNL     1      -7.005  11.373  67.862  1.00  0.00    -0.069 OA 
ENDROOT
BRANCH  22  25
HETATM   25  C   UNL     1      -6.129   9.406  67.468  1.00  0.00    -0.053 C  
HETATM   26  O   UNL     1      -5.145  10.041  67.094  1.00  0.00    -0.040 OA 
BRANCH  25  27
HETATM   27  C   UNL     1      -6.545   8.060  66.796  1.00  0.00    -0.056 C  
HETATM   28  O   UNL     1      -7.743   8.043  66.061  1.00  0.00    -0.083 OA 
HETATM   29  H   UNL     1      -7.997   7.224  65.652  1.00  0.00     0.000 HD 
ENDBRANCH  25  27
ENDBRANCH  22  25
TORSDOF 2
ENDMDL
MODEL       92
REMARK 921   NORMALIZED FREE ENERGY PREDICTED BY IDOCK:    5.63 KCAL/MOL
REMARK 922        TOTAL FREE ENERGY PREDICTED BY IDOCK:    6.04 KCAL/MOL
REMARK 923 INTER-LIGAND FREE ENERGY PREDICTED BY IDOCK:    6.14 KCAL/MOL
REMARK 924 INTRA-LIGAND FREE ENERGY PREDICTED BY IDOCK:   -0.10 KCAL/MOL
REMARK 927      BINDING AFFINITY PREDICTED BY RF-SCORE:    0.00 PKD
ROOT
HETATM    1  C   UNL     1     -11.132  14.116  69.881  1.00  0.00    -0.083 C  
HETATM    2  C   UNL     1     -12.217  13.061  69.507  1.00  0.00    -0.198 C  
HETATM    3  C   UNL     1      -9.996  13.204  70.533  1.00  0.00     4.491 C  
HETATM    4  C   UNL     1      -9.018  13.090  69.347  1.00  0.00     1.232 C  
HETATM    5  C   UNL     1      -8.624  11.859  68.380  1.00  0.00    -0.152 C  
HETATM    6  C   UNL     1      -9.846  11.440  67.443  1.00  0.00    -0.199 C  
HETATM    7  C   UNL     1      -9.552  10.507  66.308  1.00  0.00    -0.232 C  
HETATM    8  C   UNL     1      -8.338  10.998  65.484  1.00  0.00    -0.024 C  
HETATM    9  C   UNL     1      -8.180  10.537  64.220  1.00  0.00    -0.062 C  
HETATM   10  C   UNL     1      -7.901   9.088  64.401  1.00  0.00    -0.125 C  
HETATM   11  O   UNL     1      -8.278   8.270  63.565  1.00  0.00    -0.153 OA 
HETATM   12  C   UNL     1      -7.189   8.680  65.683  1.00  0.00    -0.084 C  
HETATM   13  C   UNL     1      -6.815   9.612  66.627  1.00  0.00    -0.084 C  
HETATM   14  C   UNL     1      -7.065  11.117  66.357  1.00  0.00    -0.091 C  
HETATM   15  C   UNL     1      -7.534  12.234  67.360  1.00  0.00    -0.160 C  
HETATM   16  C   UNL     1      -5.761  11.589  65.673  1.00  0.00     0.690 C  
HETATM   17  C   UNL     1      -6.767  13.432  67.874  1.00  0.00    -0.150 C  
HETATM   18  O   UNL     1      -5.601  13.381  68.284  1.00  0.00    -0.081 OA 
HETATM   19  C   UNL     1      -7.631  14.712  67.911  1.00  0.00    -0.151 C  
HETATM   20  C   UNL     1      -8.748  14.600  68.986  1.00  0.00    -0.097 C  
HETATM   21  C   UNL     1      -8.206  15.468  70.163  1.00  0.00     0.635 C  
HETATM   22  C   UNL     1     -10.318  14.938  68.686  1.00  0.00    -0.237 C  
HETATM   23  H   UNL     1     -10.245  14.825  66.717  1.00  0.00     0.000 HD 
HETATM   24  O   UNL     1     -10.710  14.355  67.400  1.00  0.00    -0.274 OA 
ENDROOT
BRANCH  22  25
HETATM   25  C   UNL     1     -10.749  16.356  68.286  1.00  0.00    -0.337 C  
HETATM   26  O   UNL     1     -10.544  16.795  67.157  1.00  0.00    -0.315 OA 
BRANCH  25  27
HETATM   27  C   UNL     1     -11.181  17.284  69.465  1.00  0.00     0.782 C  
HETATM   28  O   UNL     1     -12.440  17.054  70.046  1.00  0.00     1.599 OA 
HETATM   29  H   UNL     1     -12.703  17.619  70.763  1.00  0.00     0.000 HD 
ENDBRANCH  25  27
ENDBRANCH  22  25
TORSDOF 2
ENDMDL
MODEL       93
REMARK 921   NORMALIZED FREE ENERGY PREDICTED BY IDOCK:    5.77 KCAL/MOL
REMARK 922        TOTAL FREE ENERGY PREDICTED BY IDOCK:    6.20 KCAL/MOL
REMARK 923 INTER-LIGAND FREE ENERGY PREDICTED BY IDOCK:    5.87 KCAL/MOL
REMARK 924 INTRA-LIGAND FREE ENERGY PREDICTED BY IDOCK:    0.32 KCAL/MOL
REMARK 927      BINDING AFFINITY PREDICTED BY RF-SCORE:    0.00 PKD
ROOT
HETATM    1  C   UNL     1     -10.334  17.098  70.391  1.00  0.00     0.976 C  
HETATM    2  C   UNL     1     -11.634  16.386  70.876  1.00  0.00    -0.187 C  
HETATM    3  C   UNL     1      -9.342  15.866  70.183  1.00  0.00     0.593 C  
HETATM    4  C   UNL     1      -9.434  15.690  68.655  1.00  0.00    -0.204 C  
HETATM    5  C   UNL     1     -10.101  14.545  67.732  1.00  0.00    -0.225 C  
HETATM    6  C   UNL     1     -11.692  14.555  67.852  1.00  0.00    -0.381 C  
HETATM    7  C   UNL     1     -12.460  13.743  66.853  1.00  0.00    -0.196 C  
HETATM    8  C   UNL     1     -11.990  14.045  65.410  1.00  0.00    -0.386 C  
HETATM    9  C   UNL     1     -12.813  13.738  64.380  1.00  0.00     0.103 C  
HETATM   10  C   UNL     1     -12.880  12.252  64.408  1.00  0.00    -0.196 C  
HETATM   11  O   UNL     1     -13.907  11.667  64.070  1.00  0.00     0.122 OA 
HETATM   12  C   UNL     1     -11.652  11.518  64.927  1.00  0.00    -0.054 C  
HETATM   13  C   UNL     1     -10.528  12.200  65.343  1.00  0.00    -0.305 C  
HETATM   14  C   UNL     1     -10.483  13.744  65.225  1.00  0.00    -0.376 C  
HETATM   15  C   UNL     1      -9.878  14.792  66.230  1.00  0.00    -0.316 C  
HETATM   16  C   UNL     1      -9.863  13.988  63.830  1.00  0.00     2.705 C  
HETATM   17  C   UNL     1      -8.678  15.697  66.051  1.00  0.00    -0.069 C  
HETATM   18  O   UNL     1      -7.591  15.319  65.596  1.00  0.00     2.537 OA 
HETATM   19  C   UNL     1      -8.934  17.125  66.578  1.00  0.00    -0.300 C  
HETATM   20  C   UNL     1      -9.072  17.131  68.127  1.00  0.00    -0.247 C  
HETATM   21  C   UNL     1      -7.695  17.679  68.611  1.00  0.00    -0.281 C  
HETATM   22  C   UNL     1     -10.303  17.863  68.914  1.00  0.00    -0.268 C  
HETATM   23  H   UNL     1     -11.549  18.006  67.391  1.00  0.00     0.000 HD 
HETATM   24  O   UNL     1     -11.567  17.569  68.235  1.00  0.00     0.438 OA 
ENDROOT
BRANCH  22  25
HETATM   25  C   UNL     1     -10.493  19.384  68.822  1.00  0.00    -0.021 C  
HETATM   26  O   UNL     1     -10.071  20.027  67.864  1.00  0.00    -0.401 OA 
BRANCH  25  27
HETATM   27  C   UNL     1     -10.981  20.080  70.131  1.00  0.00     2.228 C  
HETATM   28  O   UNL     1     -10.356  19.715  71.335  1.00  0.00     0.584 OA 
HETATM   29  H   UNL     1     -10.653  20.138  72.132  1.00  0.00     0.000 HD 
ENDBRANCH  25  27
ENDBRANCH  22  25
TORSDOF 2
ENDMDL
MODEL       94
REMARK 921   NORMALIZED FREE ENERGY PREDICTED BY IDOCK:    5.94 KCAL/MOL
REMARK 922        TOTAL FREE ENERGY PREDICTED BY IDOCK:    6.38 KCAL/MOL
REMARK 923 INTER-LIGAND FREE ENERGY PREDICTED BY IDOCK:    6.70 KCAL/MOL
REMARK 924 INTRA-LIGAND FREE ENERGY PREDICTED BY IDOCK:   -0.32 KCAL/MOL
REMARK 927      BINDING AFFINITY PREDICTED BY RF-SCORE:    0.00 PKD
ROOT
HETATM    1  C   UNL     1     -10.925  12.860  63.861  1.00  0.00    -0.422 C  
HETATM    2  C   UNL     1      -9.430  13.001  63.441  1.00  0.00     2.636 C  
HETATM    3  C   UNL     1     -11.042  11.293  64.141  1.00  0.00    -0.306 C  
HETATM    4  C   UNL     1     -10.940  11.278  65.679  1.00  0.00    -0.201 C  
HETATM    5  C   UNL     1      -9.784  10.772  66.685  1.00  0.00    -0.227 C  
HETATM    6  C   UNL     1      -8.482  11.688  66.584  1.00  0.00    -0.165 C  
HETATM    7  C   UNL     1      -7.437  11.515  67.645  1.00  0.00    -0.110 C  
HETATM    8  C   UNL     1      -8.066  11.563  69.059  1.00  0.00     0.037 C  
HETATM    9  C   UNL     1      -7.267  11.836  70.117  1.00  0.00     1.155 C  
HETATM   10  C   UNL     1      -6.360  10.659  70.191  1.00  0.00    -0.139 C  
HETATM   11  O   UNL     1      -5.201  10.788  70.581  1.00  0.00    -0.068 OA 
HETATM   12  C   UNL     1      -6.920   9.328  69.710  1.00  0.00    -0.058 C  
HETATM   13  C   UNL     1      -8.209   9.219  69.235  1.00  0.00    -0.108 C  
HETATM   14  C   UNL     1      -9.136  10.460  69.246  1.00  0.00    -0.188 C  
HETATM   15  C   UNL     1     -10.182  10.919  68.165  1.00  0.00    -0.197 C  
HETATM   16  C   UNL     1      -9.851  10.372  70.614  1.00  0.00     0.862 C  
HETATM   17  C   UNL     1     -11.690  10.978  68.267  1.00  0.00    -0.229 C  
HETATM   18  O   UNL     1     -12.386  10.067  68.734  1.00  0.00     0.449 OA 
HETATM   19  C   UNL     1     -12.273  12.266  67.646  1.00  0.00     0.250 C  
HETATM   20  C   UNL     1     -12.087  12.274  66.102  1.00  0.00    -0.189 C  
HETATM   21  C   UNL     1     -13.504  11.906  65.566  1.00  0.00     4.736 C  
HETATM   22  C   UNL     1     -11.461  13.540  65.281  1.00  0.00    -0.299 C  
HETATM   23  H   UNL     1     -10.598  14.448  66.806  1.00  0.00     0.000 HD 
HETATM   24  O   UNL     1     -10.291  14.060  65.994  1.00  0.00    -0.289 OA 
ENDROOT
BRANCH  22  25
HETATM   25  C   UNL     1     -12.180  14.896  65.271  1.00  0.00    -0.064 C  
HETATM   26  O   UNL     1     -13.272  15.040  64.726  1.00  0.00     0.021 OA 
BRANCH  25  27
HETATM   27  C   UNL     1     -11.320  16.116  65.726  1.00  0.00     0.299 C  
HETATM   28  O   UNL     1     -10.248  16.501  64.902  1.00  0.00    -0.486 OA 
HETATM   29  H   UNL     1      -9.724  17.243  65.179  1.00  0.00     0.000 HD 
ENDBRANCH  25  27
ENDBRANCH  22  25
TORSDOF 2
ENDMDL
MODEL       95
REMARK 921   NORMALIZED FREE ENERGY PREDICTED BY IDOCK:    6.93 KCAL/MOL
REMARK 922        TOTAL FREE ENERGY PREDICTED BY IDOCK:    7.49 KCAL/MOL
REMARK 923 INTER-LIGAND FREE ENERGY PREDICTED BY IDOCK:    7.75 KCAL/MOL
REMARK 924 INTRA-LIGAND FREE ENERGY PREDICTED BY IDOCK:   -0.26 KCAL/MOL
REMARK 927      BINDING AFFINITY PREDICTED BY RF-SCORE:    0.00 PKD
ROOT
HETATM    1  C   UNL     1     -12.049  10.046  68.211  1.00  0.00     1.603 C  
HETATM    2  C   UNL     1     -12.282   9.591  66.738  1.00  0.00     6.856 C  
HETATM    3  C   UNL     1     -12.154   8.663  69.002  1.00  0.00     2.326 C  
HETATM    4  C   UNL     1     -10.660   8.344  69.202  1.00  0.00    -0.177 C  
HETATM    5  C   UNL     1      -9.695   7.221  68.558  1.00  0.00    -0.149 C  
HETATM    6  C   UNL     1      -9.456   7.482  67.002  1.00  0.00    -0.206 C  
HETATM    7  C   UNL     1      -8.371   6.694  66.332  1.00  0.00    -0.121 C  
HETATM    8  C   UNL     1      -7.051   6.769  67.136  1.00  0.00    -0.079 C  
HETATM    9  C   UNL     1      -5.888   6.482  66.506  1.00  0.00    -0.018 C  
HETATM   10  C   UNL     1      -6.005   5.035  66.184  1.00  0.00    -0.023 C  
HETATM   11  O   UNL     1      -5.488   4.578  65.166  1.00  0.00    -0.013 OA 
HETATM   12  C   UNL     1      -6.834   4.183  67.136  1.00  0.00    -0.051 C  
HETATM   13  C   UNL     1      -7.440   4.728  68.246  1.00  0.00    -0.073 C  
HETATM   14  C   UNL     1      -7.228   6.227  68.576  1.00  0.00    -0.085 C  
HETATM   15  C   UNL     1      -8.266   7.272  69.127  1.00  0.00    -0.122 C  
HETATM   16  C   UNL     1      -5.992   6.227  69.505  1.00  0.00    -0.021 C  
HETATM   17  C   UNL     1      -8.295   7.963  70.473  1.00  0.00    -0.124 C  
HETATM   18  O   UNL     1      -8.121   7.381  71.551  1.00  0.00    -0.098 OA 
HETATM   19  C   UNL     1      -8.651   9.461  70.358  1.00  0.00    -0.266 C  
HETATM   20  C   UNL     1     -10.126   9.651  69.904  1.00  0.00    -0.279 C  
HETATM   21  C   UNL     1     -10.865  10.034  71.222  1.00  0.00     0.043 C  
HETATM   22  C   UNL     1     -10.567  10.637  68.678  1.00  0.00    -0.203 C  
HETATM   23  H   UNL     1      -8.798  10.805  67.819  1.00  0.00     0.000 HD 
HETATM   24  O   UNL     1      -9.645  10.467  67.552  1.00  0.00    -0.154 OA 
ENDROOT
BRANCH  22  25
HETATM   25  C   UNL     1     -10.328  12.151  68.771  1.00  0.00    -0.147 C  
HETATM   26  O   UNL     1      -9.194  12.623  68.785  1.00  0.00    -0.019 OA 
BRANCH  25  27
HETATM   27  C   UNL     1     -11.581  13.007  69.139  1.00  0.00    -0.316 C  
HETATM   28  O   UNL     1     -11.870  14.119  68.330  1.00  0.00    -0.333 OA 
HETATM   29  H   UNL     1     -12.632  14.640  68.554  1.00  0.00     0.000 HD 
ENDBRANCH  25  27
ENDBRANCH  22  25
TORSDOF 2
ENDMDL
MODEL       96
REMARK 921   NORMALIZED FREE ENERGY PREDICTED BY IDOCK:    7.77 KCAL/MOL
REMARK 922        TOTAL FREE ENERGY PREDICTED BY IDOCK:    8.43 KCAL/MOL
REMARK 923 INTER-LIGAND FREE ENERGY PREDICTED BY IDOCK:    8.74 KCAL/MOL
REMARK 924 INTRA-LIGAND FREE ENERGY PREDICTED BY IDOCK:   -0.31 KCAL/MOL
REMARK 927      BINDING AFFINITY PREDICTED BY RF-SCORE:    0.00 PKD
ROOT
HETATM    1  C   UNL     1     -10.564  18.218  65.805  1.00  0.00    -0.205 C  
HETATM    2  C   UNL     1     -11.765  19.068  66.320  1.00  0.00     2.023 C  
HETATM    3  C   UNL     1      -9.512  18.380  66.995  1.00  0.00    -0.281 C  
HETATM    4  C   UNL     1      -9.725  17.046  67.737  1.00  0.00    -0.258 C  
HETATM    5  C   UNL     1     -10.391  16.692  69.164  1.00  0.00    -0.326 C  
HETATM    6  C   UNL     1     -11.963  16.966  69.157  1.00  0.00     1.289 C  
HETATM    7  C   UNL     1     -12.758  16.430  70.309  1.00  0.00     1.631 C  
HETATM    8  C   UNL     1     -12.437  14.936  70.559  1.00  0.00    -0.419 C  
HETATM    9  C   UNL     1     -13.323  14.188  71.256  1.00  0.00    -0.370 C  
HETATM   10  C   UNL     1     -13.288  14.774  72.623  1.00  0.00    -0.464 C  
HETATM   11  O   UNL     1     -14.298  14.788  73.323  1.00  0.00     0.484 OA 
HETATM   12  C   UNL     1     -11.972  15.396  73.070  1.00  0.00    -0.557 C  
HETATM   13  C   UNL     1     -10.865  15.407  72.249  1.00  0.00     0.523 C  
HETATM   14  C   UNL     1     -10.934  14.719  70.863  1.00  0.00     0.040 C  
HETATM   15  C   UNL     1     -10.316  15.191  69.496  1.00  0.00    -0.251 C  
HETATM   16  C   UNL     1     -10.456  13.276  71.145  1.00  0.00     5.360 C  
HETATM   17  C   UNL     1      -9.200  14.562  68.690  1.00  0.00    -0.192 C  
HETATM   18  O   UNL     1      -8.134  14.168  69.179  1.00  0.00    -0.020 OA 
HETATM   19  C   UNL     1      -9.505  14.544  67.176  1.00  0.00    -0.236 C  
HETATM   20  C   UNL     1      -9.508  15.984  66.591  1.00  0.00    -0.259 C  
HETATM   21  C   UNL     1      -8.134  16.081  65.860  1.00  0.00     0.630 C  
HETATM   22  C   UNL     1     -10.712  16.568  65.653  1.00  0.00    -0.248 C  
HETATM   23  H   UNL     1     -12.093  15.242  66.132  1.00  0.00     0.000 HD 
HETATM   24  O   UNL     1     -12.008  16.184  66.219  1.00  0.00     0.983 OA 
ENDROOT
BRANCH  22  25
HETATM   25  C   UNL     1     -11.012  15.937  64.286  1.00  0.00     0.213 C  
HETATM   26  O   UNL     1     -11.422  16.611  63.344  1.00  0.00     0.087 OA 
BRANCH  25  27
HETATM   27  C   UNL     1     -11.046  14.377  64.259  1.00  0.00    -0.044 C  
HETATM   28  O   UNL     1     -12.242  13.745  64.639  1.00  0.00    -0.393 OA 
HETATM   29  H   UNL     1     -12.263  12.795  64.623  1.00  0.00     0.000 HD 
ENDBRANCH  25  27
ENDBRANCH  22  25
TORSDOF 2
ENDMDL
MODEL       97
REMARK 921   NORMALIZED FREE ENERGY PREDICTED BY IDOCK:   20.43 KCAL/MOL
REMARK 922        TOTAL FREE ENERGY PREDICTED BY IDOCK:   22.57 KCAL/MOL
REMARK 923 INTER-LIGAND FREE ENERGY PREDICTED BY IDOCK:   22.07 KCAL/MOL
REMARK 924 INTRA-LIGAND FREE ENERGY PREDICTED BY IDOCK:    0.50 KCAL/MOL
REMARK 927      BINDING AFFINITY PREDICTED BY RF-SCORE:    0.00 PKD
ROOT
HETATM    1  C   UNL     1     -10.969   9.005  64.205  1.00  0.00     8.263 C  
HETATM    2  C   UNL     1     -12.155   9.873  64.724  1.00  0.00     7.966 C  
HETATM    3  C   UNL     1     -10.095  10.081  63.414  1.00  0.00     0.673 C  
HETATM    4  C   UNL     1      -9.003  10.374  64.462  1.00  0.00    -0.241 C  
HETATM    5  C   UNL     1      -8.695  11.670  65.375  1.00  0.00     0.253 C  
HETATM    6  C   UNL     1      -9.838  11.897  66.466  1.00  0.00    -0.225 C  
HETATM    7  C   UNL     1      -9.557  12.886  67.557  1.00  0.00    -0.200 C  
HETATM    8  C   UNL     1      -8.182  12.615  68.213  1.00  0.00    -0.164 C  
HETATM    9  C   UNL     1      -7.940  13.117  69.447  1.00  0.00     0.777 C  
HETATM   10  C   UNL     1      -7.930  14.589  69.238  1.00  0.00     0.007 C  
HETATM   11  O   UNL     1      -8.325  15.348  70.120  1.00  0.00     0.134 OA 
HETATM   12  C   UNL     1      -7.468  15.087  67.875  1.00  0.00    -0.150 C  
HETATM   13  C   UNL     1      -7.071  14.214  66.886  1.00  0.00     0.897 C  
HETATM   14  C   UNL     1      -7.031  12.693  67.179  1.00  0.00    -0.031 C  
HETATM   15  C   UNL     1      -7.436  11.497  66.242  1.00  0.00     0.118 C  
HETATM   16  C   UNL     1      -5.589  12.454  67.684  1.00  0.00    -0.121 C  
HETATM   17  C   UNL     1      -6.554  10.433  65.626  1.00  0.00    -0.129 C  
HETATM   18  O   UNL     1      -5.476  10.669  65.067  1.00  0.00    -0.138 OA 
HETATM   19  C   UNL     1      -7.191   9.027  65.696  1.00  0.00    -0.085 C  
HETATM   20  C   UNL     1      -8.442   8.935  64.777  1.00  0.00    -0.193 C  
HETATM   21  C   UNL     1      -7.921   8.149  63.535  1.00  0.00    -0.145 C  
HETATM   22  C   UNL     1      -9.882   8.349  65.279  1.00  0.00     1.106 C  
HETATM   23  H   UNL     1      -9.573   8.506  67.222  1.00  0.00     0.000 HD 
HETATM   24  O   UNL     1     -10.194   8.881  66.608  1.00  0.00    -0.275 OA 
ENDROOT
BRANCH  22  25
HETATM   25  C   UNL     1     -10.016   6.886  65.725  1.00  0.00     0.837 C  
HETATM   26  O   UNL     1      -9.359   5.991  65.198  1.00  0.00     0.225 OA 
BRANCH  25  27
HETATM   27  C   UNL     1     -11.227   6.577  66.660  1.00  0.00     0.163 C  
HETATM   28  O   UNL     1     -12.232   7.554  66.769  1.00  0.00     2.751 OA 
HETATM   29  H   UNL     1     -12.969   7.366  67.338  1.00  0.00     0.000 HD 
ENDBRANCH  25  27
ENDBRANCH  22  25
TORSDOF 2
ENDMDL
MODEL       98
REMARK 921   NORMALIZED FREE ENERGY PREDICTED BY IDOCK:   26.48 KCAL/MOL
REMARK 922        TOTAL FREE ENERGY PREDICTED BY IDOCK:   29.32 KCAL/MOL
REMARK 923 INTER-LIGAND FREE ENERGY PREDICTED BY IDOCK:   26.39 KCAL/MOL
REMARK 924 INTRA-LIGAND FREE ENERGY PREDICTED BY IDOCK:    2.93 KCAL/MOL
REMARK 927      BINDING AFFINITY PREDICTED BY RF-SCORE:    0.00 PKD
ROOT
HETATM    1  C   UNL     1      -7.903  18.890  67.493  1.00  0.00    -0.256 C  
HETATM    2  C   UNL     1      -8.768  19.969  68.213  1.00  0.00    -0.186 C  
HETATM    3  C   UNL     1      -7.066  18.275  68.705  1.00  0.00    -0.291 C  
HETATM    4  C   UNL     1      -7.872  16.990  68.975  1.00  0.00    -0.163 C  
HETATM    5  C   UNL     1      -8.836  16.548  70.192  1.00  0.00     1.685 C  
HETATM    6  C   UNL     1     -10.172  17.420  70.222  1.00  0.00     1.073 C  
HETATM    7  C   UNL     1     -11.280  16.948  71.115  1.00  0.00     0.581 C  
HETATM    8  C   UNL     1     -11.579  15.447  70.886  1.00  0.00    -0.396 C  
HETATM    9  C   UNL     1     -12.777  14.955  71.279  1.00  0.00    -0.412 C  
HETATM   10  C   UNL     1     -12.741  15.069  72.761  1.00  0.00    -0.400 C  
HETATM   11  O   UNL     1     -13.770  15.290  73.396  1.00  0.00    -0.361 OA 
HETATM   12  C   UNL     1     -11.376  14.957  73.426  1.00  0.00     0.521 C  
HETATM   13  C   UNL     1     -10.230  14.752  72.688  1.00  0.00     4.028 C  
HETATM   14  C   UNL     1     -10.331  14.569  71.152  1.00  0.00     1.762 C  
HETATM   15  C   UNL     1      -9.377  15.116  70.029  1.00  0.00     0.218 C  
HETATM   16  C   UNL     1     -10.473  13.040  70.974  1.00  0.00     5.332 C  
HETATM   17  C   UNL     1      -8.462  14.346  69.101  1.00  0.00     0.080 C  
HETATM   18  O   UNL     1      -7.709  13.437  69.473  1.00  0.00     0.405 OA 
HETATM   19  C   UNL     1      -8.512  14.877  67.652  1.00  0.00    -0.176 C  
HETATM   20  C   UNL     1      -7.888  16.298  67.558  1.00  0.00    -0.168 C  
HETATM   21  C   UNL     1      -6.481  16.036  66.941  1.00  0.00     0.081 C  
HETATM   22  C   UNL     1      -8.627  17.554  66.817  1.00  0.00    -0.253 C  
HETATM   23  H   UNL     1     -10.458  16.817  66.803  1.00  0.00     0.000 HD 
HETATM   24  O   UNL     1     -10.044  17.581  67.189  1.00  0.00    -0.299 OA 
ENDROOT
BRANCH  22  25
HETATM   25  C   UNL     1      -8.921  17.508  65.311  1.00  0.00     1.879 C  
HETATM   26  O   UNL     1     -10.056  17.684  64.873  1.00  0.00     0.488 OA 
BRANCH  25  27
HETATM   27  C   UNL     1      -7.773  16.941  64.419  1.00  0.00     8.994 C  
HETATM   28  O   UNL     1      -6.557  16.622  65.048  1.00  0.00     2.625 OA 
HETATM   29  H   UNL     1      -5.858  16.277  64.505  1.00  0.00     0.000 HD 
ENDBRANCH  25  27
ENDBRANCH  22  25
TORSDOF 2
ENDMDL
MODEL       99
REMARK 921   NORMALIZED FREE ENERGY PREDICTED BY IDOCK:   38.43 KCAL/MOL
REMARK 922        TOTAL FREE ENERGY PREDICTED BY IDOCK:   42.67 KCAL/MOL
REMARK 923 INTER-LIGAND FREE ENERGY PREDICTED BY IDOCK:   42.52 KCAL/MOL
REMARK 924 INTRA-LIGAND FREE ENERGY PREDICTED BY IDOCK:    0.14 KCAL/MOL
REMARK 927      BINDING AFFINITY PREDICTED BY RF-SCORE:    0.00 PKD
ROOT
HETATM    1  C   UNL     1     -11.205  19.637  68.267  1.00  0.00     0.843 C  
HETATM    2  C   UNL     1     -12.165  19.757  69.489  1.00  0.00     8.840 C  
HETATM    3  C   UNL     1      -9.929  18.933  68.918  1.00  0.00    -0.437 C  
HETATM    4  C   UNL     1     -10.159  17.475  68.474  1.00  0.00    -0.363 C  
HETATM    5  C   UNL     1     -10.572  16.145  69.290  1.00  0.00    -0.280 C  
HETATM    6  C   UNL     1     -12.068  16.239  69.839  1.00  0.00     0.225 C  
HETATM    7  C   UNL     1     -12.684  14.981  70.372  1.00  0.00    -0.371 C  
HETATM    8  C   UNL     1     -12.511  13.811  69.374  1.00  0.00    -0.062 C  
HETATM    9  C   UNL     1     -13.332  12.740  69.480  1.00  0.00     2.516 C  
HETATM   10  C   UNL     1     -12.956  12.129  70.783  1.00  0.00     0.099 C  
HETATM   11  O   UNL     1     -13.800  11.562  71.473  1.00  0.00     0.415 OA 
HETATM   12  C   UNL     1     -11.510  12.298  71.229  1.00  0.00     2.171 C  
HETATM   13  C   UNL     1     -10.593  12.977  70.457  1.00  0.00     2.774 C  
HETATM   14  C   UNL     1     -11.018  13.532  69.074  1.00  0.00    -0.264 C  
HETATM   15  C   UNL     1     -10.624  14.894  68.394  1.00  0.00    -0.244 C  
HETATM   16  C   UNL     1     -10.680  12.381  68.098  1.00  0.00    -0.243 C  
HETATM   17  C   UNL     1      -9.776  15.132  67.164  1.00  0.00    -0.228 C  
HETATM   18  O   UNL     1      -8.694  14.571  66.954  1.00  0.00    -0.225 OA 
HETATM   19  C   UNL     1     -10.371  16.217  66.240  1.00  0.00    -0.337 C  
HETATM   20  C   UNL     1     -10.307  17.618  66.911  1.00  0.00    -0.329 C  
HETATM   21  C   UNL     1      -9.101  18.305  66.200  1.00  0.00    -0.122 C  
HETATM   22  C   UNL     1     -11.587  18.629  67.000  1.00  0.00     1.440 C  
HETATM   23  H   UNL     1     -13.004  17.299  66.654  1.00  0.00     0.000 HD 
HETATM   24  O   UNL     1     -12.785  17.875  67.378  1.00  0.00     4.282 OA 
ENDROOT
BRANCH  22  25
HETATM   25  C   UNL     1     -12.226  19.193  65.723  1.00  0.00     5.567 C  
HETATM   26  O   UNL     1     -13.210  18.666  65.210  1.00  0.00    12.419 OA 
BRANCH  25  27
HETATM   27  C   UNL     1     -11.385  20.273  64.972  1.00  0.00     1.246 C  
HETATM   28  O   UNL     1     -10.613  19.852  63.876  1.00  0.00     3.191 OA 
HETATM   29  H   UNL     1     -10.101  20.509  63.420  1.00  0.00     0.000 HD 
ENDBRANCH  25  27
ENDBRANCH  22  25
TORSDOF 2
ENDMDL
MODEL      100
REMARK 921   NORMALIZED FREE ENERGY PREDICTED BY IDOCK:   40.90 KCAL/MOL
REMARK 922        TOTAL FREE ENERGY PREDICTED BY IDOCK:   45.44 KCAL/MOL
REMARK 923 INTER-LIGAND FREE ENERGY PREDICTED BY IDOCK:   45.76 KCAL/MOL
REMARK 924 INTRA-LIGAND FREE ENERGY PREDICTED BY IDOCK:   -0.33 KCAL/MOL
REMARK 927      BINDING AFFINITY PREDICTED BY RF-SCORE:    0.00 PKD
ROOT
HETATM    1  C   UNL     1      -6.522   4.836  69.972  1.00  0.00    -0.035 C  
HETATM    2  C   UNL     1      -5.198   5.507  69.494  1.00  0.00    -0.004 C  
HETATM    3  C   UNL     1      -6.515   5.170  71.533  1.00  0.00    -0.032 C  
HETATM    4  C   UNL     1      -7.485   6.367  71.564  1.00  0.00    -0.090 C  
HETATM    5  C   UNL     1      -7.257   7.943  71.828  1.00  0.00    -0.071 C  
HETATM    6  C   UNL     1      -6.426   8.617  70.644  1.00  0.00    -0.040 C  
HETATM    7  C   UNL     1      -6.372  10.115  70.609  1.00  0.00    -0.093 C  
HETATM    8  C   UNL     1      -7.789  10.725  70.737  1.00  0.00     2.418 C  
HETATM    9  C   UNL     1      -7.988  11.998  70.322  1.00  0.00     3.378 C  
HETATM   10  C   UNL     1      -7.184  12.813  71.270  1.00  0.00     5.453 C  
HETATM   11  O   UNL     1      -6.648  13.855  70.899  1.00  0.00     0.136 OA 
HETATM   12  C   UNL     1      -7.016  12.263  72.680  1.00  0.00     8.805 C  
HETATM   13  C   UNL     1      -7.591  11.069  73.059  1.00  0.00    11.515 C  
HETATM   14  C   UNL     1      -8.480  10.294  72.054  1.00  0.00     5.581 C  
HETATM   15  C   UNL     1      -8.571   8.743  71.810  1.00  0.00    -0.198 C  
HETATM   16  C   UNL     1      -9.903  10.831  72.333  1.00  0.00    10.707 C  
HETATM   17  C   UNL     1      -9.724   7.804  72.089  1.00  0.00    -0.185 C  
HETATM   18  O   UNL     1     -10.373   7.802  73.143  1.00  0.00    -0.316 OA 
HETATM   19  C   UNL     1      -9.947   6.790  70.946  1.00  0.00    -0.200 C  
HETATM   20  C   UNL     1      -8.767   5.781  70.858  1.00  0.00    -0.135 C  
HETATM   21  C   UNL     1      -9.344   4.491  71.516  1.00  0.00    -0.203 C  
HETATM   22  C   UNL     1      -7.990   5.430  69.464  1.00  0.00    -0.089 C  
HETATM   23  H   UNL     1      -8.575   7.003  68.427  1.00  0.00     0.000 HD 
HETATM   24  O   UNL     1      -7.736   6.664  68.717  1.00  0.00    -0.105 OA 
ENDROOT
BRANCH  22  25
HETATM   25  C   UNL     1      -8.738   4.763  68.301  1.00  0.00    -0.102 C  
HETATM   26  O   UNL     1      -9.423   3.757  68.470  1.00  0.00    -0.161 OA 
BRANCH  25  27
HETATM   27  C   UNL     1      -8.340   5.259  66.875  1.00  0.00    -0.107 C  
HETATM   28  O   UNL     1      -7.032   4.994  66.435  1.00  0.00    -0.064 OA 
HETATM   29  H   UNL     1      -6.790   5.296  65.567  1.00  0.00     0.000 HD 
ENDBRANCH  25  27
ENDBRANCH  22  25
TORSDOF 2
ENDMDL
MODEL      101
REMARK 921   NORMALIZED FREE ENERGY PREDICTED BY IDOCK:   45.98 KCAL/MOL
REMARK 922        TOTAL FREE ENERGY PREDICTED BY IDOCK:   51.11 KCAL/MOL
REMARK 923 INTER-LIGAND FREE ENERGY PREDICTED BY IDOCK:   51.40 KCAL/MOL
REMARK 924 INTRA-LIGAND FREE ENERGY PREDICTED BY IDOCK:   -0.29 KCAL/MOL
REMARK 927      BINDING AFFINITY PREDICTED BY RF-SCORE:    0.00 PKD
ROOT
HETATM    1  C   UNL     1     -10.723   7.039  62.730  1.00  0.00     9.824 C  
HETATM    2  C   UNL     1     -11.841   8.103  62.509  1.00  0.00    17.717 C  
HETATM    3  C   UNL     1      -9.409   7.945  62.770  1.00  0.00     1.938 C  
HETATM    4  C   UNL     1      -9.181   8.035  64.291  1.00  0.00     1.356 C  
HETATM    5  C   UNL     1      -9.335   9.251  65.342  1.00  0.00    -0.292 C  
HETATM    6  C   UNL     1     -10.863   9.674  65.522  1.00  0.00     1.319 C  
HETATM    7  C   UNL     1     -11.192  10.592  66.660  1.00  0.00     0.135 C  
HETATM    8  C   UNL     1     -10.578  10.078  67.985  1.00  0.00    -0.280 C  
HETATM    9  C   UNL     1     -11.091  10.523  69.155  1.00  0.00    -0.302 C  
HETATM   10  C   UNL     1     -10.752  11.971  69.167  1.00  0.00    -0.075 C  
HETATM   11  O   UNL     1     -11.502  12.784  69.701  1.00  0.00    -0.254 OA 
HETATM   12  C   UNL     1      -9.479  12.384  68.440  1.00  0.00    -0.169 C  
HETATM   13  C   UNL     1      -8.677  11.458  67.810  1.00  0.00    -0.136 C  
HETATM   14  C   UNL     1      -9.037   9.953  67.890  1.00  0.00    -0.135 C  
HETATM   15  C   UNL     1      -8.929   8.852  66.772  1.00  0.00    -0.155 C  
HETATM   16  C   UNL     1      -8.274   9.459  69.140  1.00  0.00    -0.112 C  
HETATM   17  C   UNL     1      -8.012   7.650  66.707  1.00  0.00    -0.111 C  
HETATM   18  O   UNL     1      -6.801   7.693  66.958  1.00  0.00    -0.064 OA 
HETATM   19  C   UNL     1      -8.739   6.381  66.212  1.00  0.00    -0.146 C  
HETATM   20  C   UNL     1      -9.142   6.517  64.717  1.00  0.00     0.712 C  
HETATM   21  C   UNL     1      -8.075   5.656  63.974  1.00  0.00    -0.123 C  
HETATM   22  C   UNL     1     -10.644   6.195  64.161  1.00  0.00     5.740 C  
HETATM   23  H   UNL     1     -11.595   6.287  65.888  1.00  0.00     0.000 HD 
HETATM   24  O   UNL     1     -11.640   6.769  65.070  1.00  0.00     6.848 OA 
ENDROOT
BRANCH  22  25
HETATM   25  C   UNL     1     -11.226   4.778  64.260  1.00  0.00     1.113 C  
HETATM   26  O   UNL     1     -11.366   4.070  63.266  1.00  0.00     0.045 OA 
BRANCH  25  27
HETATM   27  C   UNL     1     -11.886   4.417  65.628  1.00  0.00     3.122 C  
HETATM   28  O   UNL     1     -11.486   3.222  66.249  1.00  0.00     3.888 OA 
HETATM   29  H   UNL     1     -11.888   3.002  67.081  1.00  0.00     0.000 HD 
ENDBRANCH  25  27
ENDBRANCH  22  25
TORSDOF 2
ENDMDL
MODEL      102
REMARK 921   NORMALIZED FREE ENERGY PREDICTED BY IDOCK:   76.45 KCAL/MOL
REMARK 922        TOTAL FREE ENERGY PREDICTED BY IDOCK:   85.14 KCAL/MOL
REMARK 923 INTER-LIGAND FREE ENERGY PREDICTED BY IDOCK:   84.63 KCAL/MOL
REMARK 924 INTRA-LIGAND FREE ENERGY PREDICTED BY IDOCK:    0.51 KCAL/MOL
REMARK 927      BINDING AFFINITY PREDICTED BY RF-SCORE:    0.00 PKD
ROOT
HETATM    1  C   UNL     1      -8.193  11.555  69.395  1.00  0.00     0.451 C  
HETATM    2  C   UNL     1      -7.903  10.505  68.280  1.00  0.00    -0.111 C  
HETATM    3  C   UNL     1      -9.740  11.867  69.160  1.00  0.00     0.292 C  
HETATM    4  C   UNL     1     -10.369  10.995  70.264  1.00  0.00     0.823 C  
HETATM    5  C   UNL     1     -11.243   9.639  70.210  1.00  0.00    -0.324 C  
HETATM    6  C   UNL     1     -10.369   8.405  69.699  1.00  0.00    -0.218 C  
HETATM    7  C   UNL     1     -10.958   7.035  69.858  1.00  0.00    -0.296 C  
HETATM    8  C   UNL     1     -11.475   6.816  71.300  1.00  0.00    -0.347 C  
HETATM    9  C   UNL     1     -11.653   5.548  71.740  1.00  0.00     0.086 C  
HETATM   10  C   UNL     1     -12.766   5.031  70.901  1.00  0.00     6.618 C  
HETATM   11  O   UNL     1     -12.811   3.843  70.585  1.00  0.00    13.687 OA 
HETATM   12  C   UNL     1     -13.791   6.046  70.415  1.00  0.00     5.304 C  
HETATM   13  C   UNL     1     -13.694   7.381  70.746  1.00  0.00     0.288 C  
HETATM   14  C   UNL     1     -12.556   7.857  71.683  1.00  0.00    -0.344 C  
HETATM   15  C   UNL     1     -11.697   9.172  71.604  1.00  0.00    -0.448 C  
HETATM   16  C   UNL     1     -13.180   7.763  73.094  1.00  0.00     1.493 C  
HETATM   17  C   UNL     1     -11.677  10.351  72.551  1.00  0.00     2.797 C  
HETATM   18  O   UNL     1     -12.694  10.895  72.998  1.00  0.00     1.848 OA 
HETATM   19  C   UNL     1     -10.244  10.857  72.830  1.00  0.00    12.721 C  
HETATM   20  C   UNL     1      -9.621  11.496  71.558  1.00  0.00    10.896 C  
HETATM   21  C   UNL     1      -9.735  13.027  71.829  1.00  0.00    14.188 C  
HETATM   22  C   UNL     1      -8.135  11.111  70.997  1.00  0.00     5.311 C  
HETATM   23  H   UNL     1      -7.917   9.405  71.964  1.00  0.00     0.000 HD 
HETATM   24  O   UNL     1      -7.950   9.659  71.049  1.00  0.00    -0.301 OA 
ENDROOT
BRANCH  22  25
HETATM   25  C   UNL     1      -6.884  11.399  71.839  1.00  0.00     5.113 C  
HETATM   26  O   UNL     1      -6.898  11.300  73.064  1.00  0.00     5.112 OA 
BRANCH  25  27
HETATM   27  C   UNL     1      -5.711  12.097  71.082  1.00  0.00     0.164 C  
HETATM   28  O   UNL     1      -6.038  12.923  69.993  1.00  0.00    -0.167 OA 
HETATM   29  H   UNL     1      -5.324  13.347  69.532  1.00  0.00     0.000 HD 
ENDBRANCH  25  27
ENDBRANCH  22  25
TORSDOF 2
ENDMDL
