MODEL        1
REMARK 921   NORMALIZED FREE ENERGY PREDICTED BY IDOCK:   -4.56 KCAL/MOL
REMARK 922        TOTAL FREE ENERGY PREDICTED BY IDOCK:   -4.85 KCAL/MOL
REMARK 923 INTER-LIGAND FREE ENERGY PREDICTED BY IDOCK:   -4.82 KCAL/MOL
REMARK 924 INTRA-LIGAND FREE ENERGY PREDICTED BY IDOCK:   -0.03 KCAL/MOL
REMARK 927      BINDING AFFINITY PREDICTED BY RF-SCORE:    0.00 PKD
ROOT
HETATM    1  C   UNL     1     -11.729  11.754  68.245  1.00  0.00    -0.310 C  
HETATM    2  O   UNL     1     -12.000  11.743  66.849  1.00  0.00    -0.605 OA 
ENDROOT
BRANCH   2   3
HETATM    3  C   UNL     1     -11.827  12.924  66.179  1.00  0.00    -0.429 A  
HETATM    4  C   UNL     1     -11.216  14.073  66.687  1.00  0.00    -0.330 A  
HETATM    5  C   UNL     1     -11.109  15.222  65.897  1.00  0.00    -0.287 A  
HETATM    6  C   UNL     1     -11.614  15.215  64.601  1.00  0.00    -0.357 A  
HETATM    7  C   UNL     1     -12.215  14.077  64.080  1.00  0.00    -0.433 A  
HETATM    8  O   UNL     1     -11.541  16.318  63.803  1.00  0.00    -1.539 OA 
HETATM    9  H   UNL     1     -11.886  16.314  62.918  1.00  0.00     0.000 HD 
HETATM   10  C   UNL     1     -12.320  12.931  64.871  1.00  0.00    -0.532 A  
ENDBRANCH   2   3
TORSDOF 1
ENDMDL
MODEL        2
REMARK 921   NORMALIZED FREE ENERGY PREDICTED BY IDOCK:   -4.54 KCAL/MOL
REMARK 922        TOTAL FREE ENERGY PREDICTED BY IDOCK:   -4.83 KCAL/MOL
REMARK 923 INTER-LIGAND FREE ENERGY PREDICTED BY IDOCK:   -4.79 KCAL/MOL
REMARK 924 INTRA-LIGAND FREE ENERGY PREDICTED BY IDOCK:   -0.04 KCAL/MOL
REMARK 927      BINDING AFFINITY PREDICTED BY RF-SCORE:    0.00 PKD
ROOT
HETATM    1  C   UNL     1     -11.786  12.156  68.560  1.00  0.00    -0.330 C  
HETATM    2  O   UNL     1     -12.033  11.855  67.191  1.00  0.00    -0.611 OA 
ENDROOT
BRANCH   2   3
HETATM    3  C   UNL     1     -11.960  12.898  66.309  1.00  0.00    -0.408 A  
HETATM    4  C   UNL     1     -12.485  12.916  65.015  1.00  0.00    -0.553 A  
HETATM    5  C   UNL     1     -12.334  14.049  64.208  1.00  0.00    -0.393 A  
HETATM    6  C   UNL     1     -11.659  15.160  64.702  1.00  0.00    -0.357 A  
HETATM    7  C   UNL     1     -11.142  15.160  65.990  1.00  0.00    -0.312 A  
HETATM    8  O   UNL     1     -11.481  16.279  63.944  1.00  0.00    -1.484 OA 
HETATM    9  H   UNL     1     -11.020  17.038  64.282  1.00  0.00     0.000 HD 
HETATM   10  C   UNL     1     -11.293  14.028  66.793  1.00  0.00    -0.346 A  
ENDBRANCH   2   3
TORSDOF 1
ENDMDL
MODEL        3
REMARK 921   NORMALIZED FREE ENERGY PREDICTED BY IDOCK:   -4.28 KCAL/MOL
REMARK 922        TOTAL FREE ENERGY PREDICTED BY IDOCK:   -4.56 KCAL/MOL
REMARK 923 INTER-LIGAND FREE ENERGY PREDICTED BY IDOCK:   -4.52 KCAL/MOL
REMARK 924 INTRA-LIGAND FREE ENERGY PREDICTED BY IDOCK:   -0.03 KCAL/MOL
REMARK 927      BINDING AFFINITY PREDICTED BY RF-SCORE:    0.00 PKD
ROOT
HETATM    1  C   UNL     1     -11.427  13.543  69.194  1.00  0.00    -0.295 C  
HETATM    2  O   UNL     1     -12.412  14.558  69.350  1.00  0.00    -0.230 OA 
ENDROOT
BRANCH   2   3
HETATM    3  C   UNL     1     -12.665  14.979  70.627  1.00  0.00    -0.376 A  
HETATM    4  C   UNL     1     -13.910  14.976  71.260  1.00  0.00    -0.528 A  
HETATM    5  C   UNL     1     -14.035  15.443  72.572  1.00  0.00    -0.640 A  
HETATM    6  C   UNL     1     -12.911  15.910  73.246  1.00  0.00    -0.570 A  
HETATM    7  C   UNL     1     -11.666  15.908  72.633  1.00  0.00    -0.527 A  
HETATM    8  O   UNL     1     -12.992  16.384  74.521  1.00  0.00    -0.920 OA 
HETATM    9  H   UNL     1     -12.225  16.703  74.982  1.00  0.00     0.000 HD 
HETATM   10  C   UNL     1     -11.544  15.442  71.322  1.00  0.00    -0.440 A  
ENDBRANCH   2   3
TORSDOF 1
ENDMDL
MODEL        4
REMARK 921   NORMALIZED FREE ENERGY PREDICTED BY IDOCK:   -4.23 KCAL/MOL
REMARK 922        TOTAL FREE ENERGY PREDICTED BY IDOCK:   -4.51 KCAL/MOL
REMARK 923 INTER-LIGAND FREE ENERGY PREDICTED BY IDOCK:   -4.48 KCAL/MOL
REMARK 924 INTRA-LIGAND FREE ENERGY PREDICTED BY IDOCK:   -0.02 KCAL/MOL
REMARK 927      BINDING AFFINITY PREDICTED BY RF-SCORE:    0.00 PKD
ROOT
HETATM    1  C   UNL     1     -11.640  15.056  68.253  1.00  0.00    -0.334 C  
HETATM    2  O   UNL     1     -12.230  14.258  69.272  1.00  0.00    -0.316 OA 
ENDROOT
BRANCH   2   3
HETATM    3  C   UNL     1     -12.443  14.861  70.481  1.00  0.00    -0.363 A  
HETATM    4  C   UNL     1     -11.577  15.755  71.116  1.00  0.00    -0.469 A  
HETATM    5  C   UNL     1     -11.912  16.298  72.361  1.00  0.00    -0.630 A  
HETATM    6  C   UNL     1     -13.114  15.943  72.964  1.00  0.00    -0.541 A  
HETATM    7  C   UNL     1     -13.989  15.064  72.341  1.00  0.00    -0.593 A  
HETATM    8  O   UNL     1     -13.472  16.441  74.182  1.00  0.00    -0.869 OA 
HETATM    9  H   UNL     1     -14.292  16.199  74.595  1.00  0.00     0.000 HD 
HETATM   10  C   UNL     1     -13.652  14.523  71.098  1.00  0.00    -0.368 A  
ENDBRANCH   2   3
TORSDOF 1
ENDMDL
MODEL        5
REMARK 921   NORMALIZED FREE ENERGY PREDICTED BY IDOCK:   -4.07 KCAL/MOL
REMARK 922        TOTAL FREE ENERGY PREDICTED BY IDOCK:   -4.33 KCAL/MOL
REMARK 923 INTER-LIGAND FREE ENERGY PREDICTED BY IDOCK:   -4.29 KCAL/MOL
REMARK 924 INTRA-LIGAND FREE ENERGY PREDICTED BY IDOCK:   -0.04 KCAL/MOL
REMARK 927      BINDING AFFINITY PREDICTED BY RF-SCORE:    0.00 PKD
ROOT
HETATM    1  C   UNL     1     -11.400  10.830  68.177  1.00  0.00    -0.308 C  
HETATM    2  O   UNL     1     -10.543  10.859  67.042  1.00  0.00    -0.232 OA 
ENDROOT
BRANCH   2   3
HETATM    3  C   UNL     1     -10.967  11.594  65.969  1.00  0.00    -0.286 A  
HETATM    4  C   UNL     1     -10.575  11.407  64.641  1.00  0.00    -0.380 A  
HETATM    5  C   UNL     1     -11.080  12.237  63.634  1.00  0.00    -0.537 A  
HETATM    6  C   UNL     1     -11.976  13.249  63.962  1.00  0.00    -0.465 A  
HETATM    7  C   UNL     1     -12.382  13.439  65.275  1.00  0.00    -0.513 A  
HETATM    8  O   UNL     1     -12.482  14.086  63.012  1.00  0.00    -1.101 OA 
HETATM    9  H   UNL     1     -13.094  14.777  63.235  1.00  0.00     0.000 HD 
HETATM   10  C   UNL     1     -11.876  12.610  66.279  1.00  0.00    -0.471 A  
ENDBRANCH   2   3
TORSDOF 1
ENDMDL
MODEL        6
REMARK 921   NORMALIZED FREE ENERGY PREDICTED BY IDOCK:   -4.05 KCAL/MOL
REMARK 922        TOTAL FREE ENERGY PREDICTED BY IDOCK:   -4.32 KCAL/MOL
REMARK 923 INTER-LIGAND FREE ENERGY PREDICTED BY IDOCK:   -4.28 KCAL/MOL
REMARK 924 INTRA-LIGAND FREE ENERGY PREDICTED BY IDOCK:   -0.04 KCAL/MOL
REMARK 927      BINDING AFFINITY PREDICTED BY RF-SCORE:    0.00 PKD
ROOT
HETATM    1  C   UNL     1      -8.655   9.372  70.555  1.00  0.00    -0.223 C  
HETATM    2  O   UNL     1      -9.863   9.957  70.083  1.00  0.00    -0.247 OA 
ENDROOT
BRANCH   2   3
HETATM    3  C   UNL     1     -10.975   9.786  70.862  1.00  0.00    -0.341 A  
HETATM    4  C   UNL     1     -12.067  10.654  70.935  1.00  0.00    -0.489 A  
HETATM    5  C   UNL     1     -13.142  10.365  71.781  1.00  0.00    -0.567 A  
HETATM    6  C   UNL     1     -13.120   9.206  72.550  1.00  0.00    -0.377 A  
HETATM    7  C   UNL     1     -12.047   8.329  72.479  1.00  0.00    -0.400 A  
HETATM    8  O   UNL     1     -14.143   8.894  73.395  1.00  0.00    -1.256 OA 
HETATM    9  H   UNL     1     -14.128   8.103  73.921  1.00  0.00     0.000 HD 
HETATM   10  C   UNL     1     -10.974   8.620  71.634  1.00  0.00    -0.378 A  
ENDBRANCH   2   3
TORSDOF 1
ENDMDL
MODEL        7
REMARK 921   NORMALIZED FREE ENERGY PREDICTED BY IDOCK:   -4.04 KCAL/MOL
REMARK 922        TOTAL FREE ENERGY PREDICTED BY IDOCK:   -4.31 KCAL/MOL
REMARK 923 INTER-LIGAND FREE ENERGY PREDICTED BY IDOCK:   -4.27 KCAL/MOL
REMARK 924 INTRA-LIGAND FREE ENERGY PREDICTED BY IDOCK:   -0.03 KCAL/MOL
REMARK 927      BINDING AFFINITY PREDICTED BY RF-SCORE:    0.00 PKD
ROOT
HETATM    1  C   UNL     1     -10.625  16.961  68.400  1.00  0.00    -0.365 C  
HETATM    2  O   UNL     1     -10.634  15.552  68.204  1.00  0.00    -0.253 OA 
ENDROOT
BRANCH   2   3
HETATM    3  C   UNL     1     -11.136  15.099  67.015  1.00  0.00    -0.328 A  
HETATM    4  C   UNL     1     -12.063  14.066  66.857  1.00  0.00    -0.465 A  
HETATM    5  C   UNL     1     -12.492  13.693  65.578  1.00  0.00    -0.544 A  
HETATM    6  C   UNL     1     -11.991  14.358  64.464  1.00  0.00    -0.472 A  
HETATM    7  C   UNL     1     -11.078  15.393  64.607  1.00  0.00    -0.361 A  
HETATM    8  O   UNL     1     -12.375  14.017  63.201  1.00  0.00    -1.133 OA 
HETATM    9  H   UNL     1     -12.033  14.471  62.440  1.00  0.00     0.000 HD 
HETATM   10  C   UNL     1     -10.651  15.763  65.884  1.00  0.00    -0.350 A  
ENDBRANCH   2   3
TORSDOF 1
ENDMDL
MODEL        8
REMARK 921   NORMALIZED FREE ENERGY PREDICTED BY IDOCK:   -4.02 KCAL/MOL
REMARK 922        TOTAL FREE ENERGY PREDICTED BY IDOCK:   -4.28 KCAL/MOL
REMARK 923 INTER-LIGAND FREE ENERGY PREDICTED BY IDOCK:   -4.24 KCAL/MOL
REMARK 924 INTRA-LIGAND FREE ENERGY PREDICTED BY IDOCK:   -0.04 KCAL/MOL
REMARK 927      BINDING AFFINITY PREDICTED BY RF-SCORE:    0.00 PKD
ROOT
HETATM    1  C   UNL     1     -11.963  14.442  69.349  1.00  0.00    -0.328 C  
HETATM    2  O   UNL     1     -10.971  14.928  68.452  1.00  0.00    -0.245 OA 
ENDROOT
BRANCH   2   3
HETATM    3  C   UNL     1     -11.250  14.834  67.116  1.00  0.00    -0.343 A  
HETATM    4  C   UNL     1     -10.778  15.690  66.118  1.00  0.00    -0.305 A  
HETATM    5  C   UNL     1     -11.146  15.486  64.783  1.00  0.00    -0.421 A  
HETATM    6  C   UNL     1     -11.985  14.426  64.455  1.00  0.00    -0.472 A  
HETATM    7  C   UNL     1     -12.452  13.562  65.436  1.00  0.00    -0.540 A  
HETATM    8  O   UNL     1     -12.376  14.201  63.169  1.00  0.00    -1.125 OA 
HETATM    9  H   UNL     1     -12.948  13.477  62.945  1.00  0.00     0.000 HD 
HETATM   10  C   UNL     1     -12.084  13.767  66.767  1.00  0.00    -0.460 A  
ENDBRANCH   2   3
TORSDOF 1
ENDMDL
MODEL        9
REMARK 921   NORMALIZED FREE ENERGY PREDICTED BY IDOCK:   -4.01 KCAL/MOL
REMARK 922        TOTAL FREE ENERGY PREDICTED BY IDOCK:   -4.27 KCAL/MOL
REMARK 923 INTER-LIGAND FREE ENERGY PREDICTED BY IDOCK:   -4.23 KCAL/MOL
REMARK 924 INTRA-LIGAND FREE ENERGY PREDICTED BY IDOCK:   -0.04 KCAL/MOL
REMARK 927      BINDING AFFINITY PREDICTED BY RF-SCORE:    0.00 PKD
ROOT
HETATM    1  C   UNL     1     -10.708  11.682  68.996  1.00  0.00    -0.179 C  
HETATM    2  O   UNL     1     -10.367  10.441  69.602  1.00  0.00    -0.230 OA 
ENDROOT
BRANCH   2   3
HETATM    3  C   UNL     1     -11.228   9.962  70.551  1.00  0.00    -0.330 A  
HETATM    4  C   UNL     1     -11.106   8.748  71.230  1.00  0.00    -0.348 A  
HETATM    5  C   UNL     1     -12.065   8.371  72.177  1.00  0.00    -0.435 A  
HETATM    6  C   UNL     1     -13.140   9.213  72.440  1.00  0.00    -0.423 A  
HETATM    7  C   UNL     1     -13.267  10.428  71.781  1.00  0.00    -0.529 A  
HETATM    8  O   UNL     1     -14.101   8.877  73.347  1.00  0.00    -1.256 OA 
HETATM    9  H   UNL     1     -14.835   9.452  73.527  1.00  0.00     0.000 HD 
HETATM   10  C   UNL     1     -12.310  10.801  70.836  1.00  0.00    -0.497 A  
ENDBRANCH   2   3
TORSDOF 1
ENDMDL
MODEL       10
REMARK 921   NORMALIZED FREE ENERGY PREDICTED BY IDOCK:   -3.93 KCAL/MOL
REMARK 922        TOTAL FREE ENERGY PREDICTED BY IDOCK:   -4.19 KCAL/MOL
REMARK 923 INTER-LIGAND FREE ENERGY PREDICTED BY IDOCK:   -4.16 KCAL/MOL
REMARK 924 INTRA-LIGAND FREE ENERGY PREDICTED BY IDOCK:   -0.03 KCAL/MOL
REMARK 927      BINDING AFFINITY PREDICTED BY RF-SCORE:    0.00 PKD
ROOT
HETATM    1  C   UNL     1      -9.168   9.508  69.446  1.00  0.00    -0.176 C  
HETATM    2  O   UNL     1     -10.406  10.202  69.545  1.00  0.00    -0.210 OA 
ENDROOT
BRANCH   2   3
HETATM    3  C   UNL     1     -11.273   9.779  70.514  1.00  0.00    -0.315 A  
HETATM    4  C   UNL     1     -11.237   8.542  71.164  1.00  0.00    -0.317 A  
HETATM    5  C   UNL     1     -12.193   8.229  72.137  1.00  0.00    -0.418 A  
HETATM    6  C   UNL     1     -13.180   9.156  72.455  1.00  0.00    -0.444 A  
HETATM    7  C   UNL     1     -13.221  10.392  71.825  1.00  0.00    -0.529 A  
HETATM    8  O   UNL     1     -14.136   8.885  73.388  1.00  0.00    -1.256 OA 
HETATM    9  H   UNL     1     -14.810   9.517  73.605  1.00  0.00     0.000 HD 
HETATM   10  C   UNL     1     -12.267  10.702  70.854  1.00  0.00    -0.497 A  
ENDBRANCH   2   3
TORSDOF 1
ENDMDL
MODEL       11
REMARK 921   NORMALIZED FREE ENERGY PREDICTED BY IDOCK:   -3.92 KCAL/MOL
REMARK 922        TOTAL FREE ENERGY PREDICTED BY IDOCK:   -4.18 KCAL/MOL
REMARK 923 INTER-LIGAND FREE ENERGY PREDICTED BY IDOCK:   -4.14 KCAL/MOL
REMARK 924 INTRA-LIGAND FREE ENERGY PREDICTED BY IDOCK:   -0.04 KCAL/MOL
REMARK 927      BINDING AFFINITY PREDICTED BY RF-SCORE:    0.00 PKD
ROOT
HETATM    1  C   UNL     1     -10.901  15.702  64.925  1.00  0.00    -0.418 C  
HETATM    2  O   UNL     1     -10.687  17.095  64.728  1.00  0.00    -0.727 OA 
ENDROOT
BRANCH   2   3
HETATM    3  C   UNL     1     -10.577  17.865  65.853  1.00  0.00    -0.215 A  
HETATM    4  C   UNL     1     -10.529  19.261  65.889  1.00  0.00    -0.534 A  
HETATM    5  C   UNL     1     -10.407  19.931  67.111  1.00  0.00    -0.581 A  
HETATM    6  C   UNL     1     -10.334  19.200  68.292  1.00  0.00    -0.361 A  
HETATM    7  C   UNL     1     -10.391  17.813  68.272  1.00  0.00    -0.387 A  
HETATM    8  O   UNL     1     -10.203  19.814  69.502  1.00  0.00    -0.633 OA 
HETATM    9  H   UNL     1     -10.153  19.315  70.308  1.00  0.00     0.000 HD 
HETATM   10  C   UNL     1     -10.512  17.147  67.051  1.00  0.00    -0.282 A  
ENDBRANCH   2   3
TORSDOF 1
ENDMDL
MODEL       12
REMARK 921   NORMALIZED FREE ENERGY PREDICTED BY IDOCK:   -3.92 KCAL/MOL
REMARK 922        TOTAL FREE ENERGY PREDICTED BY IDOCK:   -4.18 KCAL/MOL
REMARK 923 INTER-LIGAND FREE ENERGY PREDICTED BY IDOCK:   -4.16 KCAL/MOL
REMARK 924 INTRA-LIGAND FREE ENERGY PREDICTED BY IDOCK:   -0.02 KCAL/MOL
REMARK 927      BINDING AFFINITY PREDICTED BY RF-SCORE:    0.00 PKD
ROOT
HETATM    1  C   UNL     1     -11.760  14.503  67.495  1.00  0.00    -0.386 C  
HETATM    2  O   UNL     1     -12.149  13.155  67.259  1.00  0.00    -0.354 OA 
ENDROOT
BRANCH   2   3
HETATM    3  C   UNL     1     -11.817  12.622  66.044  1.00  0.00    -0.436 A  
HETATM    4  C   UNL     1     -12.423  12.925  64.822  1.00  0.00    -0.517 A  
HETATM    5  C   UNL     1     -11.992  12.300  63.647  1.00  0.00    -0.633 A  
HETATM    6  C   UNL     1     -10.954  11.376  63.701  1.00  0.00    -0.363 A  
HETATM    7  C   UNL     1     -10.336  11.073  64.906  1.00  0.00    -0.378 A  
HETATM    8  O   UNL     1     -10.512  10.737  62.580  1.00  0.00    -0.760 OA 
HETATM    9  H   UNL     1      -9.804  10.105  62.617  1.00  0.00     0.000 HD 
HETATM   10  C   UNL     1     -10.769  11.697  66.077  1.00  0.00    -0.328 A  
ENDBRANCH   2   3
TORSDOF 1
ENDMDL
MODEL       13
REMARK 921   NORMALIZED FREE ENERGY PREDICTED BY IDOCK:   -3.90 KCAL/MOL
REMARK 922        TOTAL FREE ENERGY PREDICTED BY IDOCK:   -4.15 KCAL/MOL
REMARK 923 INTER-LIGAND FREE ENERGY PREDICTED BY IDOCK:   -4.12 KCAL/MOL
REMARK 924 INTRA-LIGAND FREE ENERGY PREDICTED BY IDOCK:   -0.03 KCAL/MOL
REMARK 927      BINDING AFFINITY PREDICTED BY RF-SCORE:    0.00 PKD
ROOT
HETATM    1  C   UNL     1     -11.544  14.785  67.992  1.00  0.00    -0.343 C  
HETATM    2  O   UNL     1     -11.172  15.162  66.671  1.00  0.00    -0.328 OA 
ENDROOT
BRANCH   2   3
HETATM    3  C   UNL     1     -11.308  14.210  65.698  1.00  0.00    -0.319 A  
HETATM    4  C   UNL     1     -10.291  13.740  64.863  1.00  0.00    -0.420 A  
HETATM    5  C   UNL     1     -10.566  12.765  63.899  1.00  0.00    -0.427 A  
HETATM    6  C   UNL     1     -11.857  12.264  63.775  1.00  0.00    -0.498 A  
HETATM    7  C   UNL     1     -12.875  12.714  64.605  1.00  0.00    -0.361 A  
HETATM    8  O   UNL     1     -12.168  11.322  62.840  1.00  0.00    -0.884 OA 
HETATM    9  H   UNL     1     -13.050  10.980  62.756  1.00  0.00     0.000 HD 
HETATM   10  C   UNL     1     -12.598  13.688  65.567  1.00  0.00    -0.541 A  
ENDBRANCH   2   3
TORSDOF 1
ENDMDL
MODEL       14
REMARK 921   NORMALIZED FREE ENERGY PREDICTED BY IDOCK:   -3.89 KCAL/MOL
REMARK 922        TOTAL FREE ENERGY PREDICTED BY IDOCK:   -4.15 KCAL/MOL
REMARK 923 INTER-LIGAND FREE ENERGY PREDICTED BY IDOCK:   -4.11 KCAL/MOL
REMARK 924 INTRA-LIGAND FREE ENERGY PREDICTED BY IDOCK:   -0.04 KCAL/MOL
REMARK 927      BINDING AFFINITY PREDICTED BY RF-SCORE:    0.00 PKD
ROOT
HETATM    1  C   UNL     1     -12.710   9.847  71.094  1.00  0.00    -0.366 C  
HETATM    2  O   UNL     1     -13.064  10.783  72.105  1.00  0.00    -0.460 OA 
ENDROOT
BRANCH   2   3
HETATM    3  C   UNL     1     -13.101  12.100  71.740  1.00  0.00    -0.352 A  
HETATM    4  C   UNL     1     -13.841  13.105  72.367  1.00  0.00    -0.583 A  
HETATM    5  C   UNL     1     -13.796  14.418  71.887  1.00  0.00    -0.549 A  
HETATM    6  C   UNL     1     -13.009  14.719  70.780  1.00  0.00    -0.352 A  
HETATM    7  C   UNL     1     -12.260  13.732  70.153  1.00  0.00    -0.425 A  
HETATM    8  O   UNL     1     -12.947  15.983  70.274  1.00  0.00    -0.653 OA 
HETATM    9  H   UNL     1     -12.410  16.189  69.518  1.00  0.00     0.000 HD 
HETATM   10  C   UNL     1     -12.307  12.423  70.634  1.00  0.00    -0.367 A  
ENDBRANCH   2   3
TORSDOF 1
ENDMDL
MODEL       15
REMARK 921   NORMALIZED FREE ENERGY PREDICTED BY IDOCK:   -3.86 KCAL/MOL
REMARK 922        TOTAL FREE ENERGY PREDICTED BY IDOCK:   -4.12 KCAL/MOL
REMARK 923 INTER-LIGAND FREE ENERGY PREDICTED BY IDOCK:   -4.09 KCAL/MOL
REMARK 924 INTRA-LIGAND FREE ENERGY PREDICTED BY IDOCK:   -0.02 KCAL/MOL
REMARK 927      BINDING AFFINITY PREDICTED BY RF-SCORE:    0.00 PKD
ROOT
HETATM    1  C   UNL     1     -10.972  10.255  68.053  1.00  0.00    -0.289 C  
HETATM    2  O   UNL     1     -10.154  11.044  67.197  1.00  0.00    -0.184 OA 
ENDROOT
BRANCH   2   3
HETATM    3  C   UNL     1     -10.799  11.837  66.288  1.00  0.00    -0.281 A  
HETATM    4  C   UNL     1     -11.776  12.791  66.579  1.00  0.00    -0.463 A  
HETATM    5  C   UNL     1     -12.365  13.534  65.550  1.00  0.00    -0.524 A  
HETATM    6  C   UNL     1     -11.972  13.318  64.234  1.00  0.00    -0.421 A  
HETATM    7  C   UNL     1     -10.994  12.380  63.931  1.00  0.00    -0.467 A  
HETATM    8  O   UNL     1     -12.529  14.012  63.202  1.00  0.00    -1.137 OA 
HETATM    9  H   UNL     1     -12.261  13.865  62.303  1.00  0.00     0.000 HD 
HETATM   10  C   UNL     1     -10.408  11.640  64.960  1.00  0.00    -0.329 A  
ENDBRANCH   2   3
TORSDOF 1
ENDMDL
MODEL       16
REMARK 921   NORMALIZED FREE ENERGY PREDICTED BY IDOCK:   -3.85 KCAL/MOL
REMARK 922        TOTAL FREE ENERGY PREDICTED BY IDOCK:   -4.10 KCAL/MOL
REMARK 923 INTER-LIGAND FREE ENERGY PREDICTED BY IDOCK:   -4.07 KCAL/MOL
REMARK 924 INTRA-LIGAND FREE ENERGY PREDICTED BY IDOCK:   -0.03 KCAL/MOL
REMARK 927      BINDING AFFINITY PREDICTED BY RF-SCORE:    0.00 PKD
ROOT
HETATM    1  C   UNL     1     -12.447  12.003  63.492  1.00  0.00    -0.540 C  
HETATM    2  O   UNL     1     -13.086  12.623  64.602  1.00  0.00    -0.821 OA 
ENDROOT
BRANCH   2   3
HETATM    3  C   UNL     1     -12.359  13.554  65.290  1.00  0.00    -0.467 A  
HETATM    4  C   UNL     1     -12.201  13.611  66.677  1.00  0.00    -0.437 A  
HETATM    5  C   UNL     1     -11.433  14.625  67.258  1.00  0.00    -0.386 A  
HETATM    6  C   UNL     1     -10.825  15.578  66.447  1.00  0.00    -0.277 A  
HETATM    7  C   UNL     1     -10.964  15.527  65.067  1.00  0.00    -0.454 A  
HETATM    8  O   UNL     1     -10.078  16.589  66.975  1.00  0.00    -0.265 OA 
HETATM    9  H   UNL     1      -9.662  17.239  66.422  1.00  0.00     0.000 HD 
HETATM   10  C   UNL     1     -11.732  14.514  64.489  1.00  0.00    -0.421 A  
ENDBRANCH   2   3
TORSDOF 1
ENDMDL
MODEL       17
REMARK 921   NORMALIZED FREE ENERGY PREDICTED BY IDOCK:   -3.83 KCAL/MOL
REMARK 922        TOTAL FREE ENERGY PREDICTED BY IDOCK:   -4.09 KCAL/MOL
REMARK 923 INTER-LIGAND FREE ENERGY PREDICTED BY IDOCK:   -4.05 KCAL/MOL
REMARK 924 INTRA-LIGAND FREE ENERGY PREDICTED BY IDOCK:   -0.04 KCAL/MOL
REMARK 927      BINDING AFFINITY PREDICTED BY RF-SCORE:    0.00 PKD
ROOT
HETATM    1  C   UNL     1     -10.786  16.461  69.499  1.00  0.00    -0.338 C  
HETATM    2  O   UNL     1     -10.968  17.007  68.198  1.00  0.00    -0.367 OA 
ENDROOT
BRANCH   2   3
HETATM    3  C   UNL     1     -10.253  18.134  67.897  1.00  0.00    -0.379 A  
HETATM    4  C   UNL     1     -10.734  19.250  67.209  1.00  0.00    -0.594 A  
HETATM    5  C   UNL     1      -9.893  20.340  66.959  1.00  0.00    -0.607 A  
HETATM    6  C   UNL     1      -8.575  20.307  67.401  1.00  0.00    -0.343 A  
HETATM    7  C   UNL     1      -8.087  19.209  68.095  1.00  0.00    -0.351 A  
HETATM    8  O   UNL     1      -7.721  21.344  67.167  1.00  0.00    -0.767 OA 
HETATM    9  H   UNL     1      -6.820  21.321  67.469  1.00  0.00     0.000 HD 
HETATM   10  C   UNL     1      -8.928  18.122  68.343  1.00  0.00    -0.305 A  
ENDBRANCH   2   3
TORSDOF 1
ENDMDL
MODEL       18
REMARK 921   NORMALIZED FREE ENERGY PREDICTED BY IDOCK:   -3.83 KCAL/MOL
REMARK 922        TOTAL FREE ENERGY PREDICTED BY IDOCK:   -4.08 KCAL/MOL
REMARK 923 INTER-LIGAND FREE ENERGY PREDICTED BY IDOCK:   -4.05 KCAL/MOL
REMARK 924 INTRA-LIGAND FREE ENERGY PREDICTED BY IDOCK:   -0.03 KCAL/MOL
REMARK 927      BINDING AFFINITY PREDICTED BY RF-SCORE:    0.00 PKD
ROOT
HETATM    1  C   UNL     1      -8.792  12.997  67.984  1.00  0.00    -0.191 C  
HETATM    2  O   UNL     1     -10.194  13.219  67.890  1.00  0.00    -0.222 OA 
ENDROOT
BRANCH   2   3
HETATM    3  C   UNL     1     -10.634  13.927  66.805  1.00  0.00    -0.277 A  
HETATM    4  C   UNL     1     -11.619  13.517  65.903  1.00  0.00    -0.359 A  
HETATM    5  C   UNL     1     -11.973  14.336  64.825  1.00  0.00    -0.449 A  
HETATM    6  C   UNL     1     -11.340  15.562  64.657  1.00  0.00    -0.357 A  
HETATM    7  C   UNL     1     -10.367  15.987  65.551  1.00  0.00    -0.415 A  
HETATM    8  O   UNL     1     -11.648  16.384  63.613  1.00  0.00    -1.514 OA 
HETATM    9  H   UNL     1     -11.215  17.222  63.498  1.00  0.00     0.000 HD 
HETATM   10  C   UNL     1     -10.015  15.168  66.626  1.00  0.00    -0.261 A  
ENDBRANCH   2   3
TORSDOF 1
ENDMDL
MODEL       19
REMARK 921   NORMALIZED FREE ENERGY PREDICTED BY IDOCK:   -3.77 KCAL/MOL
REMARK 922        TOTAL FREE ENERGY PREDICTED BY IDOCK:   -4.02 KCAL/MOL
REMARK 923 INTER-LIGAND FREE ENERGY PREDICTED BY IDOCK:   -3.97 KCAL/MOL
REMARK 924 INTRA-LIGAND FREE ENERGY PREDICTED BY IDOCK:   -0.04 KCAL/MOL
REMARK 927      BINDING AFFINITY PREDICTED BY RF-SCORE:    0.00 PKD
ROOT
HETATM    1  C   UNL     1     -10.403  15.918  68.921  1.00  0.00    -0.228 C  
HETATM    2  O   UNL     1     -10.698  16.360  70.241  1.00  0.00    -0.264 OA 
ENDROOT
BRANCH   2   3
HETATM    3  C   UNL     1     -11.594  15.613  70.955  1.00  0.00    -0.392 A  
HETATM    4  C   UNL     1     -12.167  15.968  72.178  1.00  0.00    -0.597 A  
HETATM    5  C   UNL     1     -13.068  15.105  72.812  1.00  0.00    -0.545 A  
HETATM    6  C   UNL     1     -13.391  13.891  72.216  1.00  0.00    -0.503 A  
HETATM    7  C   UNL     1     -12.837  13.530  70.996  1.00  0.00    -0.343 A  
HETATM    8  O   UNL     1     -14.256  13.017  72.806  1.00  0.00    -0.708 OA 
HETATM    9  H   UNL     1     -14.477  12.188  72.400  1.00  0.00     0.000 HD 
HETATM   10  C   UNL     1     -11.938  14.392  70.366  1.00  0.00    -0.395 A  
ENDBRANCH   2   3
TORSDOF 1
ENDMDL
MODEL       20
REMARK 921   NORMALIZED FREE ENERGY PREDICTED BY IDOCK:   -3.75 KCAL/MOL
REMARK 922        TOTAL FREE ENERGY PREDICTED BY IDOCK:   -3.99 KCAL/MOL
REMARK 923 INTER-LIGAND FREE ENERGY PREDICTED BY IDOCK:   -3.97 KCAL/MOL
REMARK 924 INTRA-LIGAND FREE ENERGY PREDICTED BY IDOCK:   -0.02 KCAL/MOL
REMARK 927      BINDING AFFINITY PREDICTED BY RF-SCORE:    0.00 PKD
ROOT
HETATM    1  C   UNL     1     -12.449  12.209  63.568  1.00  0.00    -0.555 C  
HETATM    2  O   UNL     1     -12.962  12.812  64.750  1.00  0.00    -0.768 OA 
ENDROOT
BRANCH   2   3
HETATM    3  C   UNL     1     -12.220  13.822  65.298  1.00  0.00    -0.439 A  
HETATM    4  C   UNL     1     -11.563  14.832  64.593  1.00  0.00    -0.401 A  
HETATM    5  C   UNL     1     -10.828  15.806  65.277  1.00  0.00    -0.409 A  
HETATM    6  C   UNL     1     -10.755  15.763  66.665  1.00  0.00    -0.287 A  
HETATM    7  C   UNL     1     -11.412  14.771  67.380  1.00  0.00    -0.376 A  
HETATM    8  O   UNL     1     -10.040  16.686  67.369  1.00  0.00    -0.261 OA 
HETATM    9  H   UNL     1      -9.990  16.657  68.317  1.00  0.00     0.000 HD 
HETATM   10  C   UNL     1     -12.145  13.800  66.694  1.00  0.00    -0.471 A  
ENDBRANCH   2   3
TORSDOF 1
ENDMDL
MODEL       21
REMARK 921   NORMALIZED FREE ENERGY PREDICTED BY IDOCK:   -3.73 KCAL/MOL
REMARK 922        TOTAL FREE ENERGY PREDICTED BY IDOCK:   -3.98 KCAL/MOL
REMARK 923 INTER-LIGAND FREE ENERGY PREDICTED BY IDOCK:   -3.94 KCAL/MOL
REMARK 924 INTRA-LIGAND FREE ENERGY PREDICTED BY IDOCK:   -0.04 KCAL/MOL
REMARK 927      BINDING AFFINITY PREDICTED BY RF-SCORE:    0.00 PKD
ROOT
HETATM    1  C   UNL     1      -9.297   9.350  65.727  1.00  0.00    -0.239 C  
HETATM    2  O   UNL     1      -9.594  10.040  64.519  1.00  0.00    -0.293 OA 
ENDROOT
BRANCH   2   3
HETATM    3  C   UNL     1     -10.520  11.044  64.594  1.00  0.00    -0.329 A  
HETATM    4  C   UNL     1     -11.085  11.721  63.510  1.00  0.00    -0.503 A  
HETATM    5  C   UNL     1     -12.020  12.739  63.725  1.00  0.00    -0.585 A  
HETATM    6  C   UNL     1     -12.387  13.072  65.025  1.00  0.00    -0.473 A  
HETATM    7  C   UNL     1     -11.841  12.401  66.110  1.00  0.00    -0.442 A  
HETATM    8  O   UNL     1     -13.286  14.066  65.277  1.00  0.00    -0.782 OA 
HETATM    9  H   UNL     1     -13.536  14.294  66.165  1.00  0.00     0.000 HD 
HETATM   10  C   UNL     1     -10.907  11.386  65.893  1.00  0.00    -0.292 A  
ENDBRANCH   2   3
TORSDOF 1
ENDMDL
MODEL       22
REMARK 921   NORMALIZED FREE ENERGY PREDICTED BY IDOCK:   -3.70 KCAL/MOL
REMARK 922        TOTAL FREE ENERGY PREDICTED BY IDOCK:   -3.95 KCAL/MOL
REMARK 923 INTER-LIGAND FREE ENERGY PREDICTED BY IDOCK:   -3.91 KCAL/MOL
REMARK 924 INTRA-LIGAND FREE ENERGY PREDICTED BY IDOCK:   -0.04 KCAL/MOL
REMARK 927      BINDING AFFINITY PREDICTED BY RF-SCORE:    0.00 PKD
ROOT
HETATM    1  C   UNL     1      -9.298  15.374  65.982  1.00  0.00    -0.329 C  
HETATM    2  O   UNL     1     -10.471  14.745  66.484  1.00  0.00    -0.280 OA 
ENDROOT
BRANCH   2   3
HETATM    3  C   UNL     1     -11.124  13.894  65.636  1.00  0.00    -0.298 A  
HETATM    4  C   UNL     1     -12.465  13.510  65.730  1.00  0.00    -0.514 A  
HETATM    5  C   UNL     1     -13.011  12.622  64.797  1.00  0.00    -0.191 A  
HETATM    6  C   UNL     1     -12.212  12.123  63.773  1.00  0.00    -0.531 A  
HETATM    7  C   UNL     1     -10.882  12.504  63.662  1.00  0.00    -0.486 A  
HETATM    8  O   UNL     1     -12.703  11.247  62.851  1.00  0.00    -0.876 OA 
HETATM    9  H   UNL     1     -12.158  10.906  62.152  1.00  0.00     0.000 HD 
HETATM   10  C   UNL     1     -10.339  13.390  64.594  1.00  0.00    -0.400 A  
ENDBRANCH   2   3
TORSDOF 1
ENDMDL
MODEL       23
REMARK 921   NORMALIZED FREE ENERGY PREDICTED BY IDOCK:   -3.69 KCAL/MOL
REMARK 922        TOTAL FREE ENERGY PREDICTED BY IDOCK:   -3.93 KCAL/MOL
REMARK 923 INTER-LIGAND FREE ENERGY PREDICTED BY IDOCK:   -3.91 KCAL/MOL
REMARK 924 INTRA-LIGAND FREE ENERGY PREDICTED BY IDOCK:   -0.02 KCAL/MOL
REMARK 927      BINDING AFFINITY PREDICTED BY RF-SCORE:    0.00 PKD
ROOT
HETATM    1  C   UNL     1     -10.851  15.773  67.862  1.00  0.00    -0.314 C  
HETATM    2  O   UNL     1     -11.129  17.059  68.404  1.00  0.00    -0.320 OA 
ENDROOT
BRANCH   2   3
HETATM    3  C   UNL     1     -10.236  18.054  68.118  1.00  0.00    -0.384 A  
HETATM    4  C   UNL     1      -8.881  18.064  68.460  1.00  0.00    -0.304 A  
HETATM    5  C   UNL     1      -8.074  19.153  68.112  1.00  0.00    -0.351 A  
HETATM    6  C   UNL     1      -8.627  20.226  67.422  1.00  0.00    -0.343 A  
HETATM    7  C   UNL     1      -9.969  20.225  67.066  1.00  0.00    -0.601 A  
HETATM    8  O   UNL     1      -7.878  21.311  67.075  1.00  0.00    -0.717 OA 
HETATM    9  H   UNL     1      -8.255  22.044  66.604  1.00  0.00     0.000 HD 
HETATM   10  C   UNL     1     -10.773  19.138  67.415  1.00  0.00    -0.578 A  
ENDBRANCH   2   3
TORSDOF 1
ENDMDL
MODEL       24
REMARK 921   NORMALIZED FREE ENERGY PREDICTED BY IDOCK:   -3.69 KCAL/MOL
REMARK 922        TOTAL FREE ENERGY PREDICTED BY IDOCK:   -3.93 KCAL/MOL
REMARK 923 INTER-LIGAND FREE ENERGY PREDICTED BY IDOCK:   -3.91 KCAL/MOL
REMARK 924 INTRA-LIGAND FREE ENERGY PREDICTED BY IDOCK:   -0.02 KCAL/MOL
REMARK 927      BINDING AFFINITY PREDICTED BY RF-SCORE:    0.00 PKD
ROOT
HETATM    1  C   UNL     1     -12.335  12.336  63.403  1.00  0.00    -0.517 C  
HETATM    2  O   UNL     1     -13.017  12.502  64.640  1.00  0.00    -0.803 OA 
ENDROOT
BRANCH   2   3
HETATM    3  C   UNL     1     -12.243  12.748  65.741  1.00  0.00    -0.408 A  
HETATM    4  C   UNL     1     -11.404  11.828  66.376  1.00  0.00    -0.361 A  
HETATM    5  C   UNL     1     -10.668  12.207  67.504  1.00  0.00    -0.265 A  
HETATM    6  C   UNL     1     -10.775  13.505  67.990  1.00  0.00    -0.251 A  
HETATM    7  C   UNL     1     -11.597  14.432  67.364  1.00  0.00    -0.398 A  
HETATM    8  O   UNL     1     -10.084  13.910  69.094  1.00  0.00    -0.424 OA 
HETATM    9  H   UNL     1     -10.157  14.797  69.426  1.00  0.00     0.000 HD 
HETATM   10  C   UNL     1     -12.330  14.052  66.238  1.00  0.00    -0.482 A  
ENDBRANCH   2   3
TORSDOF 1
ENDMDL
MODEL       25
REMARK 921   NORMALIZED FREE ENERGY PREDICTED BY IDOCK:   -3.66 KCAL/MOL
REMARK 922        TOTAL FREE ENERGY PREDICTED BY IDOCK:   -3.90 KCAL/MOL
REMARK 923 INTER-LIGAND FREE ENERGY PREDICTED BY IDOCK:   -3.87 KCAL/MOL
REMARK 924 INTRA-LIGAND FREE ENERGY PREDICTED BY IDOCK:   -0.03 KCAL/MOL
REMARK 927      BINDING AFFINITY PREDICTED BY RF-SCORE:    0.00 PKD
ROOT
HETATM    1  C   UNL     1     -12.017  12.226  63.464  1.00  0.00    -0.533 C  
HETATM    2  O   UNL     1     -12.858  12.591  64.551  1.00  0.00    -0.701 OA 
ENDROOT
BRANCH   2   3
HETATM    3  C   UNL     1     -12.237  12.987  65.704  1.00  0.00    -0.466 A  
HETATM    4  C   UNL     1     -12.293  14.263  66.269  1.00  0.00    -0.399 A  
HETATM    5  C   UNL     1     -11.603  14.541  67.454  1.00  0.00    -0.406 A  
HETATM    6  C   UNL     1     -10.861  13.538  68.068  1.00  0.00    -0.250 A  
HETATM    7  C   UNL     1     -10.805  12.262  67.524  1.00  0.00    -0.271 A  
HETATM    8  O   UNL     1     -10.164  13.771  69.217  1.00  0.00    -0.432 OA 
HETATM    9  H   UNL     1      -9.657  13.086  69.637  1.00  0.00     0.000 HD 
HETATM   10  C   UNL     1     -11.494  11.988  66.341  1.00  0.00    -0.417 A  
ENDBRANCH   2   3
TORSDOF 1
ENDMDL
MODEL       26
REMARK 921   NORMALIZED FREE ENERGY PREDICTED BY IDOCK:   -3.61 KCAL/MOL
REMARK 922        TOTAL FREE ENERGY PREDICTED BY IDOCK:   -3.85 KCAL/MOL
REMARK 923 INTER-LIGAND FREE ENERGY PREDICTED BY IDOCK:   -3.82 KCAL/MOL
REMARK 924 INTRA-LIGAND FREE ENERGY PREDICTED BY IDOCK:   -0.03 KCAL/MOL
REMARK 927      BINDING AFFINITY PREDICTED BY RF-SCORE:    0.00 PKD
ROOT
HETATM    1  C   UNL     1      -9.257  17.389  66.657  1.00  0.00    -0.261 C  
HETATM    2  O   UNL     1     -10.069  16.481  67.391  1.00  0.00    -0.265 OA 
ENDROOT
BRANCH   2   3
HETATM    3  C   UNL     1     -10.782  15.566  66.666  1.00  0.00    -0.306 A  
HETATM    4  C   UNL     1     -10.911  15.544  65.275  1.00  0.00    -0.425 A  
HETATM    5  C   UNL     1     -11.679  14.554  64.653  1.00  0.00    -0.438 A  
HETATM    6  C   UNL     1     -12.314  13.589  65.428  1.00  0.00    -0.478 A  
HETATM    7  C   UNL     1     -12.186  13.593  66.811  1.00  0.00    -0.416 A  
HETATM    8  O   UNL     1     -13.081  12.614  64.863  1.00  0.00    -0.850 OA 
HETATM    9  H   UNL     1     -13.514  11.955  65.392  1.00  0.00     0.000 HD 
HETATM   10  C   UNL     1     -11.419  14.583  67.428  1.00  0.00    -0.385 A  
ENDBRANCH   2   3
TORSDOF 1
ENDMDL
MODEL       27
REMARK 921   NORMALIZED FREE ENERGY PREDICTED BY IDOCK:   -3.61 KCAL/MOL
REMARK 922        TOTAL FREE ENERGY PREDICTED BY IDOCK:   -3.85 KCAL/MOL
REMARK 923 INTER-LIGAND FREE ENERGY PREDICTED BY IDOCK:   -3.81 KCAL/MOL
REMARK 924 INTRA-LIGAND FREE ENERGY PREDICTED BY IDOCK:   -0.04 KCAL/MOL
REMARK 927      BINDING AFFINITY PREDICTED BY RF-SCORE:    0.00 PKD
ROOT
HETATM    1  C   UNL     1     -12.394  15.711  74.135  1.00  0.00    -0.662 C  
HETATM    2  O   UNL     1     -12.045  16.414  72.948  1.00  0.00    -0.516 OA 
ENDROOT
BRANCH   2   3
HETATM    3  C   UNL     1     -11.979  15.682  71.795  1.00  0.00    -0.440 A  
HETATM    4  C   UNL     1     -11.320  16.057  70.622  1.00  0.00    -0.424 A  
HETATM    5  C   UNL     1     -11.336  15.215  69.504  1.00  0.00    -0.301 A  
HETATM    6  C   UNL     1     -12.010  14.001  69.568  1.00  0.00    -0.339 A  
HETATM    7  C   UNL     1     -12.660  13.611  70.731  1.00  0.00    -0.397 A  
HETATM    8  O   UNL     1     -12.059  13.158  68.498  1.00  0.00    -0.317 OA 
HETATM    9  H   UNL     1     -12.520  12.328  68.541  1.00  0.00     0.000 HD 
HETATM   10  C   UNL     1     -12.644  14.453  71.844  1.00  0.00    -0.413 A  
ENDBRANCH   2   3
TORSDOF 1
ENDMDL
MODEL       28
REMARK 921   NORMALIZED FREE ENERGY PREDICTED BY IDOCK:   -3.61 KCAL/MOL
REMARK 922        TOTAL FREE ENERGY PREDICTED BY IDOCK:   -3.85 KCAL/MOL
REMARK 923 INTER-LIGAND FREE ENERGY PREDICTED BY IDOCK:   -3.81 KCAL/MOL
REMARK 924 INTRA-LIGAND FREE ENERGY PREDICTED BY IDOCK:   -0.04 KCAL/MOL
REMARK 927      BINDING AFFINITY PREDICTED BY RF-SCORE:    0.00 PKD
ROOT
HETATM    1  C   UNL     1     -10.851  17.339  65.089  1.00  0.00     0.058 C  
HETATM    2  O   UNL     1     -11.247  16.243  64.273  1.00  0.00    -0.770 OA 
ENDROOT
BRANCH   2   3
HETATM    3  C   UNL     1     -11.463  15.050  64.906  1.00  0.00    -0.399 A  
HETATM    4  C   UNL     1     -12.142  13.951  64.375  1.00  0.00    -0.477 A  
HETATM    5  C   UNL     1     -12.302  12.787  65.134  1.00  0.00    -0.555 A  
HETATM    6  C   UNL     1     -11.781  12.729  66.422  1.00  0.00    -0.403 A  
HETATM    7  C   UNL     1     -11.095  13.810  66.959  1.00  0.00    -0.313 A  
HETATM    8  O   UNL     1     -11.925  11.618  67.199  1.00  0.00    -0.614 OA 
HETATM    9  H   UNL     1     -11.569  11.578  68.078  1.00  0.00     0.000 HD 
HETATM   10  C   UNL     1     -10.937  14.971  66.199  1.00  0.00    -0.334 A  
ENDBRANCH   2   3
TORSDOF 1
ENDMDL
MODEL       29
REMARK 921   NORMALIZED FREE ENERGY PREDICTED BY IDOCK:   -3.59 KCAL/MOL
REMARK 922        TOTAL FREE ENERGY PREDICTED BY IDOCK:   -3.83 KCAL/MOL
REMARK 923 INTER-LIGAND FREE ENERGY PREDICTED BY IDOCK:   -3.80 KCAL/MOL
REMARK 924 INTRA-LIGAND FREE ENERGY PREDICTED BY IDOCK:   -0.03 KCAL/MOL
REMARK 927      BINDING AFFINITY PREDICTED BY RF-SCORE:    0.00 PKD
ROOT
HETATM    1  C   UNL     1     -13.680  14.381  72.320  1.00  0.00    -0.471 C  
HETATM    2  O   UNL     1     -13.758  12.984  72.580  1.00  0.00    -0.621 OA 
ENDROOT
BRANCH   2   3
HETATM    3  C   UNL     1     -13.048  12.163  71.748  1.00  0.00    -0.352 A  
HETATM    4  C   UNL     1     -12.223  12.573  70.698  1.00  0.00    -0.365 A  
HETATM    5  C   UNL     1     -11.556  11.626  69.914  1.00  0.00    -0.366 A  
HETATM    6  C   UNL     1     -11.717  10.272  70.186  1.00  0.00    -0.284 A  
HETATM    7  C   UNL     1     -12.525   9.850  71.233  1.00  0.00    -0.479 A  
HETATM    8  O   UNL     1     -11.093   9.317  69.439  1.00  0.00    -0.397 OA 
HETATM    9  H   UNL     1     -11.203   8.392  69.624  1.00  0.00     0.000 HD 
HETATM   10  C   UNL     1     -13.190  10.797  72.014  1.00  0.00    -0.466 A  
ENDBRANCH   2   3
TORSDOF 1
ENDMDL
MODEL       30
REMARK 921   NORMALIZED FREE ENERGY PREDICTED BY IDOCK:   -3.59 KCAL/MOL
REMARK 922        TOTAL FREE ENERGY PREDICTED BY IDOCK:   -3.82 KCAL/MOL
REMARK 923 INTER-LIGAND FREE ENERGY PREDICTED BY IDOCK:   -3.78 KCAL/MOL
REMARK 924 INTRA-LIGAND FREE ENERGY PREDICTED BY IDOCK:   -0.04 KCAL/MOL
REMARK 927      BINDING AFFINITY PREDICTED BY RF-SCORE:    0.00 PKD
ROOT
HETATM    1  C   UNL     1     -10.699   6.634  68.495  1.00  0.00    -0.256 C  
HETATM    2  O   UNL     1     -10.411   7.857  69.163  1.00  0.00    -0.213 OA 
ENDROOT
BRANCH   2   3
HETATM    3  C   UNL     1     -11.278   8.240  70.149  1.00  0.00    -0.132 A  
HETATM    4  C   UNL     1     -11.491   9.547  70.592  1.00  0.00    -0.362 A  
HETATM    5  C   UNL     1     -12.405   9.803  71.620  1.00  0.00    -0.495 A  
HETATM    6  C   UNL     1     -13.102   8.748  72.198  1.00  0.00    -0.406 A  
HETATM    7  C   UNL     1     -12.908   7.445  71.761  1.00  0.00    -0.365 A  
HETATM    8  O   UNL     1     -13.993   8.954  73.210  1.00  0.00    -1.203 OA 
HETATM    9  H   UNL     1     -14.470   8.233  73.605  1.00  0.00     0.000 HD 
HETATM   10  C   UNL     1     -11.995   7.192  70.736  1.00  0.00    -0.352 A  
ENDBRANCH   2   3
TORSDOF 1
ENDMDL
MODEL       31
REMARK 921   NORMALIZED FREE ENERGY PREDICTED BY IDOCK:   -3.58 KCAL/MOL
REMARK 922        TOTAL FREE ENERGY PREDICTED BY IDOCK:   -3.81 KCAL/MOL
REMARK 923 INTER-LIGAND FREE ENERGY PREDICTED BY IDOCK:   -3.78 KCAL/MOL
REMARK 924 INTRA-LIGAND FREE ENERGY PREDICTED BY IDOCK:   -0.03 KCAL/MOL
REMARK 927      BINDING AFFINITY PREDICTED BY RF-SCORE:    0.00 PKD
ROOT
HETATM    1  C   UNL     1      -9.806  10.999  63.402  1.00  0.00    -0.363 C  
HETATM    2  O   UNL     1     -11.172  11.390  63.464  1.00  0.00    -0.391 OA 
ENDROOT
BRANCH   2   3
HETATM    3  C   UNL     1     -11.523  12.245  64.473  1.00  0.00    -0.341 A  
HETATM    4  C   UNL     1     -12.195  13.460  64.321  1.00  0.00    -0.450 A  
HETATM    5  C   UNL     1     -12.488  14.248  65.440  1.00  0.00    -0.434 A  
HETATM    6  C   UNL     1     -12.108  13.814  66.705  1.00  0.00    -0.429 A  
HETATM    7  C   UNL     1     -11.449  12.604  66.871  1.00  0.00    -0.402 A  
HETATM    8  O   UNL     1     -12.365  14.558  67.818  1.00  0.00    -0.619 OA 
HETATM    9  H   UNL     1     -12.105  14.262  68.683  1.00  0.00     0.000 HD 
HETATM   10  C   UNL     1     -11.157  11.820  65.754  1.00  0.00    -0.351 A  
ENDBRANCH   2   3
TORSDOF 1
ENDMDL
MODEL       32
REMARK 921   NORMALIZED FREE ENERGY PREDICTED BY IDOCK:   -3.54 KCAL/MOL
REMARK 922        TOTAL FREE ENERGY PREDICTED BY IDOCK:   -3.78 KCAL/MOL
REMARK 923 INTER-LIGAND FREE ENERGY PREDICTED BY IDOCK:   -3.75 KCAL/MOL
REMARK 924 INTRA-LIGAND FREE ENERGY PREDICTED BY IDOCK:   -0.02 KCAL/MOL
REMARK 927      BINDING AFFINITY PREDICTED BY RF-SCORE:    0.00 PKD
ROOT
HETATM    1  C   UNL     1     -11.306  11.171  67.812  1.00  0.00    -0.293 C  
HETATM    2  O   UNL     1     -11.256  10.835  69.194  1.00  0.00    -0.223 OA 
ENDROOT
BRANCH   2   3
HETATM    3  C   UNL     1     -11.911  11.671  70.056  1.00  0.00    -0.351 A  
HETATM    4  C   UNL     1     -11.964  13.064  69.965  1.00  0.00    -0.383 A  
HETATM    5  C   UNL     1     -12.666  13.807  70.920  1.00  0.00    -0.394 A  
HETATM    6  C   UNL     1     -13.313  13.150  71.962  1.00  0.00    -0.493 A  
HETATM    7  C   UNL     1     -13.277  11.766  72.059  1.00  0.00    -0.460 A  
HETATM    8  O   UNL     1     -13.997  13.838  72.920  1.00  0.00    -0.635 OA 
HETATM    9  H   UNL     1     -14.439  13.390  73.631  1.00  0.00     0.000 HD 
HETATM   10  C   UNL     1     -12.576  11.027  71.104  1.00  0.00    -0.522 A  
ENDBRANCH   2   3
TORSDOF 1
ENDMDL
MODEL       33
REMARK 921   NORMALIZED FREE ENERGY PREDICTED BY IDOCK:   -3.54 KCAL/MOL
REMARK 922        TOTAL FREE ENERGY PREDICTED BY IDOCK:   -3.78 KCAL/MOL
REMARK 923 INTER-LIGAND FREE ENERGY PREDICTED BY IDOCK:   -3.74 KCAL/MOL
REMARK 924 INTRA-LIGAND FREE ENERGY PREDICTED BY IDOCK:   -0.03 KCAL/MOL
REMARK 927      BINDING AFFINITY PREDICTED BY RF-SCORE:    0.00 PKD
ROOT
HETATM    1  C   UNL     1     -11.622  11.759  68.529  1.00  0.00    -0.321 C  
HETATM    2  O   UNL     1     -11.891  11.979  69.909  1.00  0.00    -0.320 OA 
ENDROOT
BRANCH   2   3
HETATM    3  C   UNL     1     -12.001  10.867  70.699  1.00  0.00    -0.368 A  
HETATM    4  C   UNL     1     -13.066  10.570  71.552  1.00  0.00    -0.532 A  
HETATM    5  C   UNL     1     -13.052   9.397  72.315  1.00  0.00    -0.509 A  
HETATM    6  C   UNL     1     -11.971   8.528  72.219  1.00  0.00    -0.385 A  
HETATM    7  C   UNL     1     -10.910   8.806  71.368  1.00  0.00    -0.359 A  
HETATM    8  O   UNL     1     -11.914   7.381  72.955  1.00  0.00    -0.557 OA 
HETATM    9  H   UNL     1     -11.175   6.787  72.890  1.00  0.00     0.000 HD 
HETATM   10  C   UNL     1     -10.927   9.977  70.608  1.00  0.00    -0.392 A  
ENDBRANCH   2   3
TORSDOF 1
ENDMDL
MODEL       34
REMARK 921   NORMALIZED FREE ENERGY PREDICTED BY IDOCK:   -3.53 KCAL/MOL
REMARK 922        TOTAL FREE ENERGY PREDICTED BY IDOCK:   -3.77 KCAL/MOL
REMARK 923 INTER-LIGAND FREE ENERGY PREDICTED BY IDOCK:   -3.74 KCAL/MOL
REMARK 924 INTRA-LIGAND FREE ENERGY PREDICTED BY IDOCK:   -0.03 KCAL/MOL
REMARK 927      BINDING AFFINITY PREDICTED BY RF-SCORE:    0.00 PKD
ROOT
HETATM    1  C   UNL     1     -12.025  15.186  64.431  1.00  0.00    -0.310 C  
HETATM    2  O   UNL     1     -12.662  13.983  64.843  1.00  0.00    -0.647 OA 
ENDROOT
BRANCH   2   3
HETATM    3  C   UNL     1     -11.884  12.859  64.888  1.00  0.00    -0.366 A  
HETATM    4  C   UNL     1     -11.530  12.152  66.041  1.00  0.00    -0.427 A  
HETATM    5  C   UNL     1     -10.718  11.017  65.950  1.00  0.00    -0.226 A  
HETATM    6  C   UNL     1     -10.265  10.593  64.705  1.00  0.00    -0.334 A  
HETATM    7  C   UNL     1     -10.617  11.280  63.551  1.00  0.00    -0.436 A  
HETATM    8  O   UNL     1      -9.463   9.499  64.575  1.00  0.00    -0.427 OA 
HETATM    9  H   UNL     1      -9.153   9.209  63.725  1.00  0.00     0.000 HD 
HETATM   10  C   UNL     1     -11.427  12.413  63.644  1.00  0.00    -0.568 A  
ENDBRANCH   2   3
TORSDOF 1
ENDMDL
MODEL       35
REMARK 921   NORMALIZED FREE ENERGY PREDICTED BY IDOCK:   -3.51 KCAL/MOL
REMARK 922        TOTAL FREE ENERGY PREDICTED BY IDOCK:   -3.74 KCAL/MOL
REMARK 923 INTER-LIGAND FREE ENERGY PREDICTED BY IDOCK:   -3.72 KCAL/MOL
REMARK 924 INTRA-LIGAND FREE ENERGY PREDICTED BY IDOCK:   -0.02 KCAL/MOL
REMARK 927      BINDING AFFINITY PREDICTED BY RF-SCORE:    0.00 PKD
ROOT
HETATM    1  C   UNL     1     -11.646  15.305  67.949  1.00  0.00    -0.289 C  
HETATM    2  O   UNL     1     -10.572  15.862  67.202  1.00  0.00    -0.310 OA 
ENDROOT
BRANCH   2   3
HETATM    3  C   UNL     1     -10.355  17.206  67.343  1.00  0.00    -0.333 A  
HETATM    4  C   UNL     1     -10.181  17.886  68.550  1.00  0.00    -0.393 A  
HETATM    5  C   UNL     1      -9.974  19.269  68.557  1.00  0.00    -0.513 A  
HETATM    6  C   UNL     1      -9.941  19.965  67.353  1.00  0.00    -0.423 A  
HETATM    7  C   UNL     1     -10.102  19.300  66.145  1.00  0.00    -0.517 A  
HETATM    8  O   UNL     1      -9.753  21.315  67.316  1.00  0.00    -0.590 OA 
HETATM    9  H   UNL     1      -9.731  21.790  66.494  1.00  0.00     0.000 HD 
HETATM   10  C   UNL     1     -10.309  17.920  66.141  1.00  0.00    -0.352 A  
ENDBRANCH   2   3
TORSDOF 1
ENDMDL
MODEL       36
REMARK 921   NORMALIZED FREE ENERGY PREDICTED BY IDOCK:   -3.50 KCAL/MOL
REMARK 922        TOTAL FREE ENERGY PREDICTED BY IDOCK:   -3.73 KCAL/MOL
REMARK 923 INTER-LIGAND FREE ENERGY PREDICTED BY IDOCK:   -3.71 KCAL/MOL
REMARK 924 INTRA-LIGAND FREE ENERGY PREDICTED BY IDOCK:   -0.02 KCAL/MOL
REMARK 927      BINDING AFFINITY PREDICTED BY RF-SCORE:    0.00 PKD
ROOT
HETATM    1  C   UNL     1      -6.609  20.093  68.706  1.00  0.00    -0.303 C  
HETATM    2  O   UNL     1      -7.886  19.592  69.083  1.00  0.00    -0.348 OA 
ENDROOT
BRANCH   2   3
HETATM    3  C   UNL     1      -8.658  19.062  68.085  1.00  0.00    -0.320 A  
HETATM    4  C   UNL     1      -8.825  17.703  67.811  1.00  0.00    -0.240 A  
HETATM    5  C   UNL     1      -9.641  17.292  66.752  1.00  0.00    -0.279 A  
HETATM    6  C   UNL     1     -10.288  18.245  65.973  1.00  0.00    -0.363 A  
HETATM    7  C   UNL     1     -10.140  19.599  66.241  1.00  0.00    -0.578 A  
HETATM    8  O   UNL     1     -11.082  17.886  64.925  1.00  0.00    -0.782 OA 
HETATM    9  H   UNL     1     -11.524  18.537  64.392  1.00  0.00     0.000 HD 
HETATM   10  C   UNL     1      -9.324  20.006  67.298  1.00  0.00    -0.496 A  
ENDBRANCH   2   3
TORSDOF 1
ENDMDL
MODEL       37
REMARK 921   NORMALIZED FREE ENERGY PREDICTED BY IDOCK:   -3.46 KCAL/MOL
REMARK 922        TOTAL FREE ENERGY PREDICTED BY IDOCK:   -3.69 KCAL/MOL
REMARK 923 INTER-LIGAND FREE ENERGY PREDICTED BY IDOCK:   -3.66 KCAL/MOL
REMARK 924 INTRA-LIGAND FREE ENERGY PREDICTED BY IDOCK:   -0.03 KCAL/MOL
REMARK 927      BINDING AFFINITY PREDICTED BY RF-SCORE:    0.00 PKD
ROOT
HETATM    1  C   UNL     1      -9.932  15.225  68.229  1.00  0.00    -0.222 C  
HETATM    2  O   UNL     1     -10.818  15.987  67.417  1.00  0.00    -0.319 OA 
ENDROOT
BRANCH   2   3
HETATM    3  C   UNL     1     -10.515  17.310  67.249  1.00  0.00    -0.319 A  
HETATM    4  C   UNL     1     -10.459  17.991  66.030  1.00  0.00    -0.317 A  
HETATM    5  C   UNL     1     -10.128  19.349  65.996  1.00  0.00    -0.488 A  
HETATM    6  C   UNL     1      -9.855  20.021  67.183  1.00  0.00    -0.426 A  
HETATM    7  C   UNL     1      -9.917  19.360  68.402  1.00  0.00    -0.527 A  
HETATM    8  O   UNL     1      -9.517  21.342  67.191  1.00  0.00    -0.642 OA 
HETATM    9  H   UNL     1      -9.331  21.800  68.001  1.00  0.00     0.000 HD 
HETATM   10  C   UNL     1     -10.247  18.004  68.433  1.00  0.00    -0.399 A  
ENDBRANCH   2   3
TORSDOF 1
ENDMDL
MODEL       38
REMARK 921   NORMALIZED FREE ENERGY PREDICTED BY IDOCK:   -3.44 KCAL/MOL
REMARK 922        TOTAL FREE ENERGY PREDICTED BY IDOCK:   -3.67 KCAL/MOL
REMARK 923 INTER-LIGAND FREE ENERGY PREDICTED BY IDOCK:   -3.64 KCAL/MOL
REMARK 924 INTRA-LIGAND FREE ENERGY PREDICTED BY IDOCK:   -0.02 KCAL/MOL
REMARK 927      BINDING AFFINITY PREDICTED BY RF-SCORE:    0.00 PKD
ROOT
HETATM    1  C   UNL     1     -10.565   5.964  71.078  1.00  0.00    -0.250 C  
HETATM    2  O   UNL     1     -11.869   6.436  70.757  1.00  0.00    -0.361 OA 
ENDROOT
BRANCH   2   3
HETATM    3  C   UNL     1     -12.151   7.734  71.083  1.00  0.00    -0.286 A  
HETATM    4  C   UNL     1     -11.361   8.846  70.781  1.00  0.00    -0.325 A  
HETATM    5  C   UNL     1     -11.762  10.126  71.179  1.00  0.00    -0.453 A  
HETATM    6  C   UNL     1     -12.954  10.286  71.878  1.00  0.00    -0.449 A  
HETATM    7  C   UNL     1     -13.754   9.191  72.175  1.00  0.00    -0.531 A  
HETATM    8  O   UNL     1     -13.375  11.514  72.294  1.00  0.00    -0.624 OA 
HETATM    9  H   UNL     1     -14.188  11.624  72.771  1.00  0.00     0.000 HD 
HETATM   10  C   UNL     1     -13.351   7.915  71.777  1.00  0.00    -0.364 A  
ENDBRANCH   2   3
TORSDOF 1
ENDMDL
MODEL       39
REMARK 921   NORMALIZED FREE ENERGY PREDICTED BY IDOCK:   -3.42 KCAL/MOL
REMARK 922        TOTAL FREE ENERGY PREDICTED BY IDOCK:   -3.65 KCAL/MOL
REMARK 923 INTER-LIGAND FREE ENERGY PREDICTED BY IDOCK:   -3.62 KCAL/MOL
REMARK 924 INTRA-LIGAND FREE ENERGY PREDICTED BY IDOCK:   -0.03 KCAL/MOL
REMARK 927      BINDING AFFINITY PREDICTED BY RF-SCORE:    0.00 PKD
ROOT
HETATM    1  C   UNL     1      -6.195  21.208  67.614  1.00  0.00    -0.364 C  
HETATM    2  O   UNL     1      -7.535  21.222  67.135  1.00  0.00    -0.416 OA 
ENDROOT
BRANCH   2   3
HETATM    3  C   UNL     1      -8.316  20.147  67.460  1.00  0.00    -0.332 A  
HETATM    4  C   UNL     1      -7.892  18.998  68.131  1.00  0.00    -0.334 A  
HETATM    5  C   UNL     1      -8.794  17.962  68.396  1.00  0.00    -0.293 A  
HETATM    6  C   UNL     1     -10.119  18.083  67.989  1.00  0.00    -0.365 A  
HETATM    7  C   UNL     1     -10.557  19.224  67.331  1.00  0.00    -0.594 A  
HETATM    8  O   UNL     1     -11.026  17.092  68.218  1.00  0.00    -0.352 OA 
HETATM    9  H   UNL     1     -11.931  17.175  67.940  1.00  0.00     0.000 HD 
HETATM   10  C   UNL     1      -9.654  20.256  67.067  1.00  0.00    -0.572 A  
ENDBRANCH   2   3
TORSDOF 1
ENDMDL
MODEL       40
REMARK 921   NORMALIZED FREE ENERGY PREDICTED BY IDOCK:   -3.41 KCAL/MOL
REMARK 922        TOTAL FREE ENERGY PREDICTED BY IDOCK:   -3.64 KCAL/MOL
REMARK 923 INTER-LIGAND FREE ENERGY PREDICTED BY IDOCK:   -3.61 KCAL/MOL
REMARK 924 INTRA-LIGAND FREE ENERGY PREDICTED BY IDOCK:   -0.02 KCAL/MOL
REMARK 927      BINDING AFFINITY PREDICTED BY RF-SCORE:    0.00 PKD
ROOT
HETATM    1  C   UNL     1     -11.160  16.436  70.142  1.00  0.00    -0.277 C  
HETATM    2  O   UNL     1     -12.241  15.520  70.262  1.00  0.00    -0.365 OA 
ENDROOT
BRANCH   2   3
HETATM    3  C   UNL     1     -12.121  14.334  69.591  1.00  0.00    -0.346 A  
HETATM    4  C   UNL     1     -11.988  14.184  68.209  1.00  0.00    -0.367 A  
HETATM    5  C   UNL     1     -11.881  12.908  67.645  1.00  0.00    -0.400 A  
HETATM    6  C   UNL     1     -11.907  11.788  68.469  1.00  0.00    -0.303 A  
HETATM    7  C   UNL     1     -12.029  11.923  69.845  1.00  0.00    -0.398 A  
HETATM    8  O   UNL     1     -11.818  10.527  67.958  1.00  0.00    -0.765 OA 
HETATM    9  H   UNL     1     -11.835   9.762  68.521  1.00  0.00     0.000 HD 
HETATM   10  C   UNL     1     -12.136  13.197  70.405  1.00  0.00    -0.392 A  
ENDBRANCH   2   3
TORSDOF 1
ENDMDL
MODEL       41
REMARK 921   NORMALIZED FREE ENERGY PREDICTED BY IDOCK:   -3.41 KCAL/MOL
REMARK 922        TOTAL FREE ENERGY PREDICTED BY IDOCK:   -3.63 KCAL/MOL
REMARK 923 INTER-LIGAND FREE ENERGY PREDICTED BY IDOCK:   -3.61 KCAL/MOL
REMARK 924 INTRA-LIGAND FREE ENERGY PREDICTED BY IDOCK:   -0.02 KCAL/MOL
REMARK 927      BINDING AFFINITY PREDICTED BY RF-SCORE:    0.00 PKD
ROOT
HETATM    1  C   UNL     1     -11.018  15.708  65.047  1.00  0.00    -0.431 C  
HETATM    2  O   UNL     1     -11.892  14.634  65.374  1.00  0.00    -0.350 OA 
ENDROOT
BRANCH   2   3
HETATM    3  C   UNL     1     -11.834  14.162  66.656  1.00  0.00    -0.424 A  
HETATM    4  C   UNL     1     -11.776  14.940  67.815  1.00  0.00    -0.340 A  
HETATM    5  C   UNL     1     -11.712  14.329  69.072  1.00  0.00    -0.352 A  
HETATM    6  C   UNL     1     -11.709  12.941  69.162  1.00  0.00    -0.324 A  
HETATM    7  C   UNL     1     -11.778  12.156  68.019  1.00  0.00    -0.409 A  
HETATM    8  O   UNL     1     -11.636  12.307  70.367  1.00  0.00    -0.528 OA 
HETATM    9  H   UNL     1     -11.634  11.359  70.429  1.00  0.00     0.000 HD 
HETATM   10  C   UNL     1     -11.840  12.768  66.766  1.00  0.00    -0.452 A  
ENDBRANCH   2   3
TORSDOF 1
ENDMDL
MODEL       42
REMARK 921   NORMALIZED FREE ENERGY PREDICTED BY IDOCK:   -3.37 KCAL/MOL
REMARK 922        TOTAL FREE ENERGY PREDICTED BY IDOCK:   -3.59 KCAL/MOL
REMARK 923 INTER-LIGAND FREE ENERGY PREDICTED BY IDOCK:   -3.56 KCAL/MOL
REMARK 924 INTRA-LIGAND FREE ENERGY PREDICTED BY IDOCK:   -0.04 KCAL/MOL
REMARK 927      BINDING AFFINITY PREDICTED BY RF-SCORE:    0.00 PKD
ROOT
HETATM    1  C   UNL     1     -11.614   8.997  71.846  1.00  0.00    -0.370 C  
HETATM    2  O   UNL     1     -11.923   9.659  70.625  1.00  0.00    -0.272 OA 
ENDROOT
BRANCH   2   3
HETATM    3  C   UNL     1     -12.161  11.004  70.698  1.00  0.00    -0.373 A  
HETATM    4  C   UNL     1     -11.694  11.969  69.801  1.00  0.00    -0.390 A  
HETATM    5  C   UNL     1     -12.005  13.319  69.994  1.00  0.00    -0.399 A  
HETATM    6  C   UNL     1     -12.783  13.697  71.084  1.00  0.00    -0.353 A  
HETATM    7  C   UNL     1     -13.262  12.748  71.976  1.00  0.00    -0.538 A  
HETATM    8  O   UNL     1     -13.098  15.004  71.313  1.00  0.00    -0.343 OA 
HETATM    9  H   UNL     1     -13.629  15.262  72.057  1.00  0.00     0.000 HD 
HETATM   10  C   UNL     1     -12.950  11.401  71.781  1.00  0.00    -0.519 A  
ENDBRANCH   2   3
TORSDOF 1
ENDMDL
MODEL       43
REMARK 921   NORMALIZED FREE ENERGY PREDICTED BY IDOCK:   -3.35 KCAL/MOL
REMARK 922        TOTAL FREE ENERGY PREDICTED BY IDOCK:   -3.58 KCAL/MOL
REMARK 923 INTER-LIGAND FREE ENERGY PREDICTED BY IDOCK:   -3.55 KCAL/MOL
REMARK 924 INTRA-LIGAND FREE ENERGY PREDICTED BY IDOCK:   -0.02 KCAL/MOL
REMARK 927      BINDING AFFINITY PREDICTED BY RF-SCORE:    0.00 PKD
ROOT
HETATM    1  C   UNL     1      -8.951  11.096  66.348  1.00  0.00    -0.182 C  
HETATM    2  O   UNL     1     -10.256  11.518  66.726  1.00  0.00    -0.210 OA 
ENDROOT
BRANCH   2   3
HETATM    3  C   UNL     1     -10.848  12.468  65.939  1.00  0.00    -0.269 A  
HETATM    4  C   UNL     1     -11.431  12.250  64.689  1.00  0.00    -0.392 A  
HETATM    5  C   UNL     1     -11.998  13.315  63.980  1.00  0.00    -0.525 A  
HETATM    6  C   UNL     1     -11.979  14.593  64.528  1.00  0.00    -0.460 A  
HETATM    7  C   UNL     1     -11.413  14.822  65.775  1.00  0.00    -0.322 A  
HETATM    8  O   UNL     1     -12.511  15.659  63.865  1.00  0.00    -0.907 OA 
HETATM    9  H   UNL     1     -12.498  16.532  64.239  1.00  0.00     0.000 HD 
HETATM   10  C   UNL     1     -10.847  13.757  66.479  1.00  0.00    -0.287 A  
ENDBRANCH   2   3
TORSDOF 1
ENDMDL
MODEL       44
REMARK 921   NORMALIZED FREE ENERGY PREDICTED BY IDOCK:   -3.35 KCAL/MOL
REMARK 922        TOTAL FREE ENERGY PREDICTED BY IDOCK:   -3.57 KCAL/MOL
REMARK 923 INTER-LIGAND FREE ENERGY PREDICTED BY IDOCK:   -3.53 KCAL/MOL
REMARK 924 INTRA-LIGAND FREE ENERGY PREDICTED BY IDOCK:   -0.04 KCAL/MOL
REMARK 927      BINDING AFFINITY PREDICTED BY RF-SCORE:    0.00 PKD
ROOT
HETATM    1  C   UNL     1     -11.472   6.465  70.570  1.00  0.00    -0.379 C  
HETATM    2  O   UNL     1     -12.467   7.175  71.297  1.00  0.00    -0.356 OA 
ENDROOT
BRANCH   2   3
HETATM    3  C   UNL     1     -12.438   8.540  71.209  1.00  0.00    -0.249 A  
HETATM    4  C   UNL     1     -13.270   9.424  71.900  1.00  0.00    -0.507 A  
HETATM    5  C   UNL     1     -13.142  10.804  71.713  1.00  0.00    -0.573 A  
HETATM    6  C   UNL     1     -12.180  11.293  70.835  1.00  0.00    -0.356 A  
HETATM    7  C   UNL     1     -11.339  10.426  70.150  1.00  0.00    -0.397 A  
HETATM    8  O   UNL     1     -12.031  12.630  70.617  1.00  0.00    -0.510 OA 
HETATM    9  H   UNL     1     -11.374  12.964  70.017  1.00  0.00     0.000 HD 
HETATM   10  C   UNL     1     -11.470   9.049  70.338  1.00  0.00    -0.202 A  
ENDBRANCH   2   3
TORSDOF 1
ENDMDL
MODEL       45
REMARK 921   NORMALIZED FREE ENERGY PREDICTED BY IDOCK:   -3.30 KCAL/MOL
REMARK 922        TOTAL FREE ENERGY PREDICTED BY IDOCK:   -3.52 KCAL/MOL
REMARK 923 INTER-LIGAND FREE ENERGY PREDICTED BY IDOCK:   -3.49 KCAL/MOL
REMARK 924 INTRA-LIGAND FREE ENERGY PREDICTED BY IDOCK:   -0.02 KCAL/MOL
REMARK 927      BINDING AFFINITY PREDICTED BY RF-SCORE:    0.00 PKD
ROOT
HETATM    1  C   UNL     1      -9.511  12.581  68.156  1.00  0.00    -0.214 C  
HETATM    2  O   UNL     1     -10.929  12.513  68.052  1.00  0.00    -0.214 OA 
ENDROOT
BRANCH   2   3
HETATM    3  C   UNL     1     -11.631  12.482  69.225  1.00  0.00    -0.319 A  
HETATM    4  C   UNL     1     -11.961  11.337  69.954  1.00  0.00    -0.440 A  
HETATM    5  C   UNL     1     -12.694  11.443  71.141  1.00  0.00    -0.479 A  
HETATM    6  C   UNL     1     -13.093  12.696  71.593  1.00  0.00    -0.323 A  
HETATM    7  C   UNL     1     -12.764  13.844  70.884  1.00  0.00    -0.410 A  
HETATM    8  O   UNL     1     -13.819  12.841  72.738  1.00  0.00    -0.696 OA 
HETATM    9  H   UNL     1     -14.091  13.697  73.046  1.00  0.00     0.000 HD 
HETATM   10  C   UNL     1     -12.033  13.735  69.700  1.00  0.00    -0.399 A  
ENDBRANCH   2   3
TORSDOF 1
ENDMDL
MODEL       46
REMARK 921   NORMALIZED FREE ENERGY PREDICTED BY IDOCK:   -3.28 KCAL/MOL
REMARK 922        TOTAL FREE ENERGY PREDICTED BY IDOCK:   -3.50 KCAL/MOL
REMARK 923 INTER-LIGAND FREE ENERGY PREDICTED BY IDOCK:   -3.47 KCAL/MOL
REMARK 924 INTRA-LIGAND FREE ENERGY PREDICTED BY IDOCK:   -0.03 KCAL/MOL
REMARK 927      BINDING AFFINITY PREDICTED BY RF-SCORE:    0.00 PKD
ROOT
HETATM    1  C   UNL     1      -9.494  15.374  68.926  1.00  0.00    -0.219 C  
HETATM    2  O   UNL     1     -10.339  16.473  69.245  1.00  0.00    -0.283 OA 
ENDROOT
BRANCH   2   3
HETATM    3  C   UNL     1     -10.262  17.567  68.427  1.00  0.00    -0.372 A  
HETATM    4  C   UNL     1     -10.058  18.886  68.840  1.00  0.00    -0.372 A  
HETATM    5  C   UNL     1     -10.006  19.919  67.897  1.00  0.00    -0.552 A  
HETATM    6  C   UNL     1     -10.158  19.625  66.546  1.00  0.00    -0.461 A  
HETATM    7  C   UNL     1     -10.351  18.318  66.122  1.00  0.00    -0.414 A  
HETATM    8  O   UNL     1     -10.125  20.604  65.598  1.00  0.00    -0.478 OA 
HETATM    9  H   UNL     1     -10.229  20.404  64.675  1.00  0.00     0.000 HD 
HETATM   10  C   UNL     1     -10.402  17.289  67.064  1.00  0.00    -0.318 A  
ENDBRANCH   2   3
TORSDOF 1
ENDMDL
MODEL       47
REMARK 921   NORMALIZED FREE ENERGY PREDICTED BY IDOCK:   -3.27 KCAL/MOL
REMARK 922        TOTAL FREE ENERGY PREDICTED BY IDOCK:   -3.49 KCAL/MOL
REMARK 923 INTER-LIGAND FREE ENERGY PREDICTED BY IDOCK:   -3.46 KCAL/MOL
REMARK 924 INTRA-LIGAND FREE ENERGY PREDICTED BY IDOCK:   -0.03 KCAL/MOL
REMARK 927      BINDING AFFINITY PREDICTED BY RF-SCORE:    0.00 PKD
ROOT
HETATM    1  C   UNL     1     -11.686  15.542  69.540  1.00  0.00    -0.365 C  
HETATM    2  O   UNL     1     -12.137  14.428  68.778  1.00  0.00    -0.308 OA 
ENDROOT
BRANCH   2   3
HETATM    3  C   UNL     1     -11.495  14.193  67.593  1.00  0.00    -0.338 A  
HETATM    4  C   UNL     1     -10.167  14.514  67.302  1.00  0.00    -0.255 A  
HETATM    5  C   UNL     1      -9.631  14.225  66.042  1.00  0.00    -0.271 A  
HETATM    6  C   UNL     1     -10.429  13.615  65.080  1.00  0.00    -0.391 A  
HETATM    7  C   UNL     1     -11.747  13.282  65.358  1.00  0.00    -0.370 A  
HETATM    8  O   UNL     1      -9.949  13.328  63.836  1.00  0.00    -0.753 OA 
HETATM    9  H   UNL     1     -10.493  12.912  63.179  1.00  0.00     0.000 HD 
HETATM   10  C   UNL     1     -12.279  13.572  66.616  1.00  0.00    -0.411 A  
ENDBRANCH   2   3
TORSDOF 1
ENDMDL
MODEL       48
REMARK 921   NORMALIZED FREE ENERGY PREDICTED BY IDOCK:   -3.19 KCAL/MOL
REMARK 922        TOTAL FREE ENERGY PREDICTED BY IDOCK:   -3.41 KCAL/MOL
REMARK 923 INTER-LIGAND FREE ENERGY PREDICTED BY IDOCK:   -3.38 KCAL/MOL
REMARK 924 INTRA-LIGAND FREE ENERGY PREDICTED BY IDOCK:   -0.02 KCAL/MOL
REMARK 927      BINDING AFFINITY PREDICTED BY RF-SCORE:    0.00 PKD
ROOT
HETATM    1  C   UNL     1     -11.147  10.615  67.729  1.00  0.00    -0.321 C  
HETATM    2  O   UNL     1     -12.158  11.128  68.588  1.00  0.00    -0.556 OA 
ENDROOT
BRANCH   2   3
HETATM    3  C   UNL     1     -12.031  12.433  68.978  1.00  0.00    -0.241 A  
HETATM    4  C   UNL     1     -11.827  13.525  68.132  1.00  0.00    -0.400 A  
HETATM    5  C   UNL     1     -11.706  14.814  68.661  1.00  0.00    -0.356 A  
HETATM    6  C   UNL     1     -11.791  15.004  70.036  1.00  0.00    -0.319 A  
HETATM    7  C   UNL     1     -12.005  13.929  70.888  1.00  0.00    -0.310 A  
HETATM    8  O   UNL     1     -11.667  16.242  70.593  1.00  0.00    -0.500 OA 
HETATM    9  H   UNL     1     -11.726  16.372  71.532  1.00  0.00     0.000 HD 
HETATM   10  C   UNL     1     -12.125  12.643  70.357  1.00  0.00    -0.381 A  
ENDBRANCH   2   3
TORSDOF 1
ENDMDL
MODEL       49
REMARK 921   NORMALIZED FREE ENERGY PREDICTED BY IDOCK:   -3.18 KCAL/MOL
REMARK 922        TOTAL FREE ENERGY PREDICTED BY IDOCK:   -3.39 KCAL/MOL
REMARK 923 INTER-LIGAND FREE ENERGY PREDICTED BY IDOCK:   -3.35 KCAL/MOL
REMARK 924 INTRA-LIGAND FREE ENERGY PREDICTED BY IDOCK:   -0.04 KCAL/MOL
REMARK 927      BINDING AFFINITY PREDICTED BY RF-SCORE:    0.00 PKD
ROOT
HETATM    1  C   UNL     1      -6.389  19.224  65.179  1.00  0.00    -0.278 C  
HETATM    2  O   UNL     1      -7.627  19.908  65.334  1.00  0.00    -0.366 OA 
ENDROOT
BRANCH   2   3
HETATM    3  C   UNL     1      -8.483  19.424  66.284  1.00  0.00    -0.334 A  
HETATM    4  C   UNL     1      -9.856  19.674  66.355  1.00  0.00    -0.536 A  
HETATM    5  C   UNL     1     -10.621  19.122  67.387  1.00  0.00    -0.577 A  
HETATM    6  C   UNL     1     -10.007  18.321  68.345  1.00  0.00    -0.382 A  
HETATM    7  C   UNL     1      -8.646  18.056  68.281  1.00  0.00    -0.293 A  
HETATM    8  O   UNL     1     -10.715  17.773  69.373  1.00  0.00    -0.347 OA 
HETATM    9  H   UNL     1     -10.296  17.226  70.028  1.00  0.00     0.000 HD 
HETATM   10  C   UNL     1      -7.885  18.609  67.250  1.00  0.00    -0.240 A  
ENDBRANCH   2   3
TORSDOF 1
ENDMDL
MODEL       50
REMARK 921   NORMALIZED FREE ENERGY PREDICTED BY IDOCK:   -3.15 KCAL/MOL
REMARK 922        TOTAL FREE ENERGY PREDICTED BY IDOCK:   -3.36 KCAL/MOL
REMARK 923 INTER-LIGAND FREE ENERGY PREDICTED BY IDOCK:   -3.34 KCAL/MOL
REMARK 924 INTRA-LIGAND FREE ENERGY PREDICTED BY IDOCK:   -0.02 KCAL/MOL
REMARK 927      BINDING AFFINITY PREDICTED BY RF-SCORE:    0.00 PKD
ROOT
HETATM    1  C   UNL     1      -6.330  20.094  68.850  1.00  0.00    -0.323 C  
HETATM    2  O   UNL     1      -7.390  19.209  69.195  1.00  0.00    -0.337 OA 
ENDROOT
BRANCH   2   3
HETATM    3  C   UNL     1      -8.263  18.875  68.196  1.00  0.00    -0.311 A  
HETATM    4  C   UNL     1      -9.284  19.686  67.694  1.00  0.00    -0.416 A  
HETATM    5  C   UNL     1     -10.116  19.220  66.671  1.00  0.00    -0.487 A  
HETATM    6  C   UNL     1      -9.920  17.944  66.153  1.00  0.00    -0.283 A  
HETATM    7  C   UNL     1      -8.903  17.131  66.635  1.00  0.00    -0.279 A  
HETATM    8  O   UNL     1     -10.716  17.448  65.164  1.00  0.00    -0.684 OA 
HETATM    9  H   UNL     1     -10.583  16.576  64.811  1.00  0.00     0.000 HD 
HETATM   10  C   UNL     1      -8.074  17.599  67.657  1.00  0.00    -0.218 A  
ENDBRANCH   2   3
TORSDOF 1
ENDMDL
MODEL       51
REMARK 921   NORMALIZED FREE ENERGY PREDICTED BY IDOCK:   -3.13 KCAL/MOL
REMARK 922        TOTAL FREE ENERGY PREDICTED BY IDOCK:   -3.35 KCAL/MOL
REMARK 923 INTER-LIGAND FREE ENERGY PREDICTED BY IDOCK:   -3.30 KCAL/MOL
REMARK 924 INTRA-LIGAND FREE ENERGY PREDICTED BY IDOCK:   -0.04 KCAL/MOL
REMARK 927      BINDING AFFINITY PREDICTED BY RF-SCORE:    0.00 PKD
ROOT
HETATM    1  C   UNL     1      -8.185  18.471  66.843  1.00  0.00    -0.258 C  
HETATM    2  O   UNL     1      -8.621  17.537  65.862  1.00  0.00    -0.528 OA 
ENDROOT
BRANCH   2   3
HETATM    3  C   UNL     1      -9.571  16.633  66.251  1.00  0.00    -0.299 A  
HETATM    4  C   UNL     1     -10.060  15.575  65.482  1.00  0.00    -0.406 A  
HETATM    5  C   UNL     1     -11.042  14.723  65.998  1.00  0.00    -0.330 A  
HETATM    6  C   UNL     1     -11.529  14.934  67.283  1.00  0.00    -0.340 A  
HETATM    7  C   UNL     1     -11.045  15.976  68.063  1.00  0.00    -0.334 A  
HETATM    8  O   UNL     1     -12.494  14.134  67.819  1.00  0.00    -0.535 OA 
HETATM    9  H   UNL     1     -12.828  14.278  68.696  1.00  0.00     0.000 HD 
HETATM   10  C   UNL     1     -10.065  16.825  67.545  1.00  0.00    -0.276 A  
ENDBRANCH   2   3
TORSDOF 1
ENDMDL
MODEL       52
REMARK 921   NORMALIZED FREE ENERGY PREDICTED BY IDOCK:   -3.13 KCAL/MOL
REMARK 922        TOTAL FREE ENERGY PREDICTED BY IDOCK:   -3.35 KCAL/MOL
REMARK 923 INTER-LIGAND FREE ENERGY PREDICTED BY IDOCK:   -3.32 KCAL/MOL
REMARK 924 INTRA-LIGAND FREE ENERGY PREDICTED BY IDOCK:   -0.03 KCAL/MOL
REMARK 927      BINDING AFFINITY PREDICTED BY RF-SCORE:    0.00 PKD
ROOT
HETATM    1  C   UNL     1      -9.523   5.397  69.583  1.00  0.00    -0.144 C  
HETATM    2  O   UNL     1      -9.569   6.790  69.870  1.00  0.00    -0.156 OA 
ENDROOT
BRANCH   2   3
HETATM    3  C   UNL     1     -10.603   7.222  70.655  1.00  0.00    -0.226 A  
HETATM    4  C   UNL     1     -11.846   6.600  70.791  1.00  0.00    -0.441 A  
HETATM    5  C   UNL     1     -12.824   7.152  71.624  1.00  0.00    -0.420 A  
HETATM    6  C   UNL     1     -12.552   8.326  72.319  1.00  0.00    -0.311 A  
HETATM    7  C   UNL     1     -11.317   8.950  72.202  1.00  0.00    -0.369 A  
HETATM    8  O   UNL     1     -13.482   8.903  73.133  1.00  0.00    -0.968 OA 
HETATM    9  H   UNL     1     -13.297   9.704  73.607  1.00  0.00     0.000 HD 
HETATM   10  C   UNL     1     -10.343   8.396  71.369  1.00  0.00    -0.285 A  
ENDBRANCH   2   3
TORSDOF 1
ENDMDL
MODEL       53
REMARK 921   NORMALIZED FREE ENERGY PREDICTED BY IDOCK:   -3.10 KCAL/MOL
REMARK 922        TOTAL FREE ENERGY PREDICTED BY IDOCK:   -3.31 KCAL/MOL
REMARK 923 INTER-LIGAND FREE ENERGY PREDICTED BY IDOCK:   -3.29 KCAL/MOL
REMARK 924 INTRA-LIGAND FREE ENERGY PREDICTED BY IDOCK:   -0.02 KCAL/MOL
REMARK 927      BINDING AFFINITY PREDICTED BY RF-SCORE:    0.00 PKD
ROOT
HETATM    1  C   UNL     1     -10.450   6.749  72.816  1.00  0.00    -0.220 C  
HETATM    2  O   UNL     1     -10.794   8.116  73.009  1.00  0.00    -0.331 OA 
ENDROOT
BRANCH   2   3
HETATM    3  C   UNL     1     -11.070   8.846  71.885  1.00  0.00    -0.372 A  
HETATM    4  C   UNL     1     -10.179   9.116  70.843  1.00  0.00    -0.351 A  
HETATM    5  C   UNL     1     -10.587   9.886  69.749  1.00  0.00    -0.296 A  
HETATM    6  C   UNL     1     -11.885  10.381  69.702  1.00  0.00    -0.180 A  
HETATM    7  C   UNL     1     -12.784  10.112  70.725  1.00  0.00    -0.397 A  
HETATM    8  O   UNL     1     -12.318  11.145  68.659  1.00  0.00    -0.670 OA 
HETATM    9  H   UNL     1     -13.205  11.484  68.627  1.00  0.00     0.000 HD 
HETATM   10  C   UNL     1     -12.375   9.344  71.817  1.00  0.00    -0.471 A  
ENDBRANCH   2   3
TORSDOF 1
ENDMDL
MODEL       54
REMARK 921   NORMALIZED FREE ENERGY PREDICTED BY IDOCK:   -3.08 KCAL/MOL
REMARK 922        TOTAL FREE ENERGY PREDICTED BY IDOCK:   -3.29 KCAL/MOL
REMARK 923 INTER-LIGAND FREE ENERGY PREDICTED BY IDOCK:   -3.25 KCAL/MOL
REMARK 924 INTRA-LIGAND FREE ENERGY PREDICTED BY IDOCK:   -0.03 KCAL/MOL
REMARK 927      BINDING AFFINITY PREDICTED BY RF-SCORE:    0.00 PKD
ROOT
HETATM    1  C   UNL     1      -9.132  17.628  68.420  1.00  0.00    -0.277 C  
HETATM    2  O   UNL     1     -10.504  17.324  68.648  1.00  0.00    -0.335 OA 
ENDROOT
BRANCH   2   3
HETATM    3  C   UNL     1     -10.919  16.065  68.310  1.00  0.00    -0.335 A  
HETATM    4  C   UNL     1     -11.612  15.180  69.140  1.00  0.00    -0.343 A  
HETATM    5  C   UNL     1     -11.974  13.912  68.672  1.00  0.00    -0.401 A  
HETATM    6  C   UNL     1     -11.641  13.537  67.375  1.00  0.00    -0.356 A  
HETATM    7  C   UNL     1     -10.962  14.411  66.536  1.00  0.00    -0.316 A  
HETATM    8  O   UNL     1     -11.965  12.307  66.885  1.00  0.00    -0.578 OA 
HETATM    9  H   UNL     1     -11.738  12.050  65.999  1.00  0.00     0.000 HD 
HETATM   10  C   UNL     1     -10.602  15.675  67.006  1.00  0.00    -0.311 A  
ENDBRANCH   2   3
TORSDOF 1
ENDMDL
MODEL       55
REMARK 921   NORMALIZED FREE ENERGY PREDICTED BY IDOCK:   -3.05 KCAL/MOL
REMARK 922        TOTAL FREE ENERGY PREDICTED BY IDOCK:   -3.26 KCAL/MOL
REMARK 923 INTER-LIGAND FREE ENERGY PREDICTED BY IDOCK:   -3.22 KCAL/MOL
REMARK 924 INTRA-LIGAND FREE ENERGY PREDICTED BY IDOCK:   -0.04 KCAL/MOL
REMARK 927      BINDING AFFINITY PREDICTED BY RF-SCORE:    0.00 PKD
ROOT
HETATM    1  C   UNL     1     -11.665   9.752  71.378  1.00  0.00    -0.398 C  
HETATM    2  O   UNL     1     -11.910   9.813  69.977  1.00  0.00    -0.148 OA 
ENDROOT
BRANCH   2   3
HETATM    3  C   UNL     1     -11.910  11.056  69.406  1.00  0.00    -0.335 A  
HETATM    4  C   UNL     1     -11.783  11.332  68.043  1.00  0.00    -0.305 A  
HETATM    5  C   UNL     1     -11.791  12.655  67.588  1.00  0.00    -0.390 A  
HETATM    6  C   UNL     1     -11.928  13.696  68.501  1.00  0.00    -0.361 A  
HETATM    7  C   UNL     1     -12.066  13.435  69.857  1.00  0.00    -0.389 A  
HETATM    8  O   UNL     1     -11.929  14.998  68.099  1.00  0.00    -0.505 OA 
HETATM    9  H   UNL     1     -12.023  15.709  68.722  1.00  0.00     0.000 HD 
HETATM   10  C   UNL     1     -12.057  12.114  70.309  1.00  0.00    -0.385 A  
ENDBRANCH   2   3
TORSDOF 1
ENDMDL
MODEL       56
REMARK 921   NORMALIZED FREE ENERGY PREDICTED BY IDOCK:   -3.04 KCAL/MOL
REMARK 922        TOTAL FREE ENERGY PREDICTED BY IDOCK:   -3.25 KCAL/MOL
REMARK 923 INTER-LIGAND FREE ENERGY PREDICTED BY IDOCK:   -3.23 KCAL/MOL
REMARK 924 INTRA-LIGAND FREE ENERGY PREDICTED BY IDOCK:   -0.02 KCAL/MOL
REMARK 927      BINDING AFFINITY PREDICTED BY RF-SCORE:    0.00 PKD
ROOT
HETATM    1  C   UNL     1      -8.191   8.129  73.728  1.00  0.00    -0.242 C  
HETATM    2  O   UNL     1      -8.665   7.840  72.418  1.00  0.00    -0.118 OA 
ENDROOT
BRANCH   2   3
HETATM    3  C   UNL     1      -9.918   8.288  72.104  1.00  0.00    -0.273 A  
HETATM    4  C   UNL     1     -11.109   7.886  72.713  1.00  0.00    -0.462 A  
HETATM    5  C   UNL     1     -12.332   8.418  72.290  1.00  0.00    -0.436 A  
HETATM    6  C   UNL     1     -12.356   9.351  71.259  1.00  0.00    -0.341 A  
HETATM    7  C   UNL     1     -11.180   9.767  70.652  1.00  0.00    -0.402 A  
HETATM    8  O   UNL     1     -13.528   9.885  70.810  1.00  0.00    -0.590 OA 
HETATM    9  H   UNL     1     -13.545  10.522  70.106  1.00  0.00     0.000 HD 
HETATM   10  C   UNL     1      -9.961   9.234  71.075  1.00  0.00    -0.364 A  
ENDBRANCH   2   3
TORSDOF 1
ENDMDL
MODEL       57
REMARK 921   NORMALIZED FREE ENERGY PREDICTED BY IDOCK:   -3.04 KCAL/MOL
REMARK 922        TOTAL FREE ENERGY PREDICTED BY IDOCK:   -3.25 KCAL/MOL
REMARK 923 INTER-LIGAND FREE ENERGY PREDICTED BY IDOCK:   -3.22 KCAL/MOL
REMARK 924 INTRA-LIGAND FREE ENERGY PREDICTED BY IDOCK:   -0.03 KCAL/MOL
REMARK 927      BINDING AFFINITY PREDICTED BY RF-SCORE:    0.00 PKD
ROOT
HETATM    1  C   UNL     1     -11.701  15.356  70.942  1.00  0.00    -0.354 C  
HETATM    2  O   UNL     1     -12.227  14.834  69.727  1.00  0.00    -0.311 OA 
ENDROOT
BRANCH   2   3
HETATM    3  C   UNL     1     -11.673  15.298  68.566  1.00  0.00    -0.332 A  
HETATM    4  C   UNL     1     -10.964  16.493  68.416  1.00  0.00    -0.348 A  
HETATM    5  C   UNL     1     -10.453  16.857  67.166  1.00  0.00    -0.296 A  
HETATM    6  C   UNL     1     -10.653  16.022  66.072  1.00  0.00    -0.316 A  
HETATM    7  C   UNL     1     -11.347  14.828  66.208  1.00  0.00    -0.334 A  
HETATM    8  O   UNL     1     -10.181  16.347  64.834  1.00  0.00    -0.509 OA 
HETATM    9  H   UNL     1     -10.318  15.777  64.087  1.00  0.00     0.000 HD 
HETATM   10  C   UNL     1     -11.856  14.467  67.457  1.00  0.00    -0.418 A  
ENDBRANCH   2   3
TORSDOF 1
ENDMDL
MODEL       58
REMARK 921   NORMALIZED FREE ENERGY PREDICTED BY IDOCK:   -3.02 KCAL/MOL
REMARK 922        TOTAL FREE ENERGY PREDICTED BY IDOCK:   -3.23 KCAL/MOL
REMARK 923 INTER-LIGAND FREE ENERGY PREDICTED BY IDOCK:   -3.19 KCAL/MOL
REMARK 924 INTRA-LIGAND FREE ENERGY PREDICTED BY IDOCK:   -0.04 KCAL/MOL
REMARK 927      BINDING AFFINITY PREDICTED BY RF-SCORE:    0.00 PKD
ROOT
HETATM    1  C   UNL     1     -11.857  10.981  69.929  1.00  0.00    -0.353 C  
HETATM    2  O   UNL     1     -10.589  10.379  70.157  1.00  0.00    -0.273 OA 
ENDROOT
BRANCH   2   3
HETATM    3  C   UNL     1     -10.535   9.401  71.112  1.00  0.00    -0.322 A  
HETATM    4  C   UNL     1      -9.373   8.821  71.628  1.00  0.00    -0.345 A  
HETATM    5  C   UNL     1      -9.456   7.820  72.601  1.00  0.00    -0.251 A  
HETATM    6  C   UNL     1     -10.704   7.404  73.055  1.00  0.00    -0.364 A  
HETATM    7  C   UNL     1     -11.866   7.979  72.559  1.00  0.00    -0.419 A  
HETATM    8  O   UNL     1     -10.829   6.423  73.993  1.00  0.00    -0.428 OA 
HETATM    9  H   UNL     1     -11.680   6.139  74.303  1.00  0.00     0.000 HD 
HETATM   10  C   UNL     1     -11.780   8.977  71.587  1.00  0.00    -0.431 A  
ENDBRANCH   2   3
TORSDOF 1
ENDMDL
MODEL       59
REMARK 921   NORMALIZED FREE ENERGY PREDICTED BY IDOCK:   -3.00 KCAL/MOL
REMARK 922        TOTAL FREE ENERGY PREDICTED BY IDOCK:   -3.20 KCAL/MOL
REMARK 923 INTER-LIGAND FREE ENERGY PREDICTED BY IDOCK:   -3.16 KCAL/MOL
REMARK 924 INTRA-LIGAND FREE ENERGY PREDICTED BY IDOCK:   -0.04 KCAL/MOL
REMARK 927      BINDING AFFINITY PREDICTED BY RF-SCORE:    0.00 PKD
ROOT
HETATM    1  C   UNL     1     -12.447  10.667  70.870  1.00  0.00    -0.397 C  
HETATM    2  O   UNL     1     -12.472  12.085  70.978  1.00  0.00    -0.368 OA 
ENDROOT
BRANCH   2   3
HETATM    3  C   UNL     1     -12.151  12.794  69.853  1.00  0.00    -0.259 A  
HETATM    4  C   UNL     1     -12.030  14.183  69.766  1.00  0.00    -0.396 A  
HETATM    5  C   UNL     1     -11.702  14.787  68.548  1.00  0.00    -0.347 A  
HETATM    6  C   UNL     1     -11.496  13.997  67.422  1.00  0.00    -0.348 A  
HETATM    7  C   UNL     1     -11.603  12.615  67.496  1.00  0.00    -0.418 A  
HETATM    8  O   UNL     1     -11.187  14.547  66.214  1.00  0.00    -0.330 OA 
HETATM    9  H   UNL     1     -11.047  14.007  65.445  1.00  0.00     0.000 HD 
HETATM   10  C   UNL     1     -11.931  12.014  68.714  1.00  0.00    -0.299 A  
ENDBRANCH   2   3
TORSDOF 1
ENDMDL
MODEL       60
REMARK 921   NORMALIZED FREE ENERGY PREDICTED BY IDOCK:   -2.99 KCAL/MOL
REMARK 922        TOTAL FREE ENERGY PREDICTED BY IDOCK:   -3.20 KCAL/MOL
REMARK 923 INTER-LIGAND FREE ENERGY PREDICTED BY IDOCK:   -3.16 KCAL/MOL
REMARK 924 INTRA-LIGAND FREE ENERGY PREDICTED BY IDOCK:   -0.04 KCAL/MOL
REMARK 927      BINDING AFFINITY PREDICTED BY RF-SCORE:    0.00 PKD
ROOT
HETATM    1  C   UNL     1      -8.382   8.004  73.252  1.00  0.00    -0.211 C  
HETATM    2  O   UNL     1      -8.912   8.754  72.165  1.00  0.00    -0.336 OA 
ENDROOT
BRANCH   2   3
HETATM    3  C   UNL     1     -10.248   8.605  71.909  1.00  0.00    -0.334 A  
HETATM    4  C   UNL     1     -11.090   9.575  71.361  1.00  0.00    -0.438 A  
HETATM    5  C   UNL     1     -12.446   9.297  71.156  1.00  0.00    -0.341 A  
HETATM    6  C   UNL     1     -12.951   8.048  71.500  1.00  0.00    -0.303 A  
HETATM    7  C   UNL     1     -12.123   7.071  72.036  1.00  0.00    -0.329 A  
HETATM    8  O   UNL     1     -14.268   7.741  71.327  1.00  0.00    -0.591 OA 
HETATM    9  H   UNL     1     -14.614   6.888  71.562  1.00  0.00     0.000 HD 
HETATM   10  C   UNL     1     -10.771   7.351  72.240  1.00  0.00    -0.275 A  
ENDBRANCH   2   3
TORSDOF 1
ENDMDL
MODEL       61
REMARK 921   NORMALIZED FREE ENERGY PREDICTED BY IDOCK:   -2.99 KCAL/MOL
REMARK 922        TOTAL FREE ENERGY PREDICTED BY IDOCK:   -3.19 KCAL/MOL
REMARK 923 INTER-LIGAND FREE ENERGY PREDICTED BY IDOCK:   -3.17 KCAL/MOL
REMARK 924 INTRA-LIGAND FREE ENERGY PREDICTED BY IDOCK:   -0.02 KCAL/MOL
REMARK 927      BINDING AFFINITY PREDICTED BY RF-SCORE:    0.00 PKD
ROOT
HETATM    1  C   UNL     1     -10.550  14.968  67.062  1.00  0.00    -0.293 C  
HETATM    2  O   UNL     1     -11.800  14.426  67.470  1.00  0.00    -0.373 OA 
ENDROOT
BRANCH   2   3
HETATM    3  C   UNL     1     -11.762  13.265  68.193  1.00  0.00    -0.362 A  
HETATM    4  C   UNL     1     -11.482  11.993  67.688  1.00  0.00    -0.392 A  
HETATM    5  C   UNL     1     -11.482  10.882  68.538  1.00  0.00    -0.380 A  
HETATM    6  C   UNL     1     -11.762  11.050  69.890  1.00  0.00    -0.346 A  
HETATM    7  C   UNL     1     -12.032  12.309  70.407  1.00  0.00    -0.349 A  
HETATM    8  O   UNL     1     -11.783   9.991  70.748  1.00  0.00    -0.297 OA 
HETATM    9  H   UNL     1     -11.975  10.105  71.672  1.00  0.00     0.000 HD 
HETATM   10  C   UNL     1     -12.031  13.417  69.557  1.00  0.00    -0.377 A  
ENDBRANCH   2   3
TORSDOF 1
ENDMDL
MODEL       62
REMARK 921   NORMALIZED FREE ENERGY PREDICTED BY IDOCK:   -2.95 KCAL/MOL
REMARK 922        TOTAL FREE ENERGY PREDICTED BY IDOCK:   -3.15 KCAL/MOL
REMARK 923 INTER-LIGAND FREE ENERGY PREDICTED BY IDOCK:   -3.12 KCAL/MOL
REMARK 924 INTRA-LIGAND FREE ENERGY PREDICTED BY IDOCK:   -0.03 KCAL/MOL
REMARK 927      BINDING AFFINITY PREDICTED BY RF-SCORE:    0.00 PKD
ROOT
HETATM    1  C   UNL     1     -10.632   4.809  74.258  1.00  0.00    -0.278 C  
HETATM    2  O   UNL     1     -10.514   6.225  74.183  1.00  0.00    -0.301 OA 
ENDROOT
BRANCH   2   3
HETATM    3  C   UNL     1     -10.786   6.802  72.973  1.00  0.00    -0.283 A  
HETATM    4  C   UNL     1     -11.574   6.250  71.960  1.00  0.00    -0.372 A  
HETATM    5  C   UNL     1     -11.767   6.944  70.760  1.00  0.00    -0.417 A  
HETATM    6  C   UNL     1     -11.172   8.188  70.582  1.00  0.00    -0.260 A  
HETATM    7  C   UNL     1     -10.395   8.753  71.585  1.00  0.00    -0.391 A  
HETATM    8  O   UNL     1     -11.326   8.890  69.424  1.00  0.00    -0.434 OA 
HETATM    9  H   UNL     1     -10.919   9.740  69.302  1.00  0.00     0.000 HD 
HETATM   10  C   UNL     1     -10.203   8.058  72.780  1.00  0.00    -0.389 A  
ENDBRANCH   2   3
TORSDOF 1
ENDMDL
MODEL       63
REMARK 921   NORMALIZED FREE ENERGY PREDICTED BY IDOCK:   -2.95 KCAL/MOL
REMARK 922        TOTAL FREE ENERGY PREDICTED BY IDOCK:   -3.15 KCAL/MOL
REMARK 923 INTER-LIGAND FREE ENERGY PREDICTED BY IDOCK:   -3.11 KCAL/MOL
REMARK 924 INTRA-LIGAND FREE ENERGY PREDICTED BY IDOCK:   -0.04 KCAL/MOL
REMARK 927      BINDING AFFINITY PREDICTED BY RF-SCORE:    0.00 PKD
ROOT
HETATM    1  C   UNL     1     -10.994  10.599  68.205  1.00  0.00    -0.269 C  
HETATM    2  O   UNL     1     -10.997  10.788  69.615  1.00  0.00    -0.243 OA 
ENDROOT
BRANCH   2   3
HETATM    3  C   UNL     1     -11.443   9.742  70.375  1.00  0.00    -0.280 A  
HETATM    4  C   UNL     1     -12.293   9.835  71.480  1.00  0.00    -0.495 A  
HETATM    5  C   UNL     1     -12.670   8.683  72.179  1.00  0.00    -0.447 A  
HETATM    6  C   UNL     1     -12.194   7.443  71.767  1.00  0.00    -0.326 A  
HETATM    7  C   UNL     1     -11.357   7.334  70.665  1.00  0.00    -0.311 A  
HETATM    8  O   UNL     1     -12.528   6.298  72.428  1.00  0.00    -0.546 OA 
HETATM    9  H   UNL     1     -12.203   5.451  72.147  1.00  0.00     0.000 HD 
HETATM   10  C   UNL     1     -10.983   8.486  69.969  1.00  0.00    -0.197 A  
ENDBRANCH   2   3
TORSDOF 1
ENDMDL
MODEL       64
REMARK 921   NORMALIZED FREE ENERGY PREDICTED BY IDOCK:   -2.95 KCAL/MOL
REMARK 922        TOTAL FREE ENERGY PREDICTED BY IDOCK:   -3.15 KCAL/MOL
REMARK 923 INTER-LIGAND FREE ENERGY PREDICTED BY IDOCK:   -3.12 KCAL/MOL
REMARK 924 INTRA-LIGAND FREE ENERGY PREDICTED BY IDOCK:   -0.03 KCAL/MOL
REMARK 927      BINDING AFFINITY PREDICTED BY RF-SCORE:    0.00 PKD
ROOT
HETATM    1  C   UNL     1     -10.966   6.852  67.119  1.00  0.00    -0.357 C  
HETATM    2  O   UNL     1     -10.449   7.832  68.012  1.00  0.00    -0.207 OA 
ENDROOT
BRANCH   2   3
HETATM    3  C   UNL     1     -10.760   7.683  69.336  1.00  0.00    -0.184 A  
HETATM    4  C   UNL     1     -11.360   6.562  69.916  1.00  0.00    -0.469 A  
HETATM    5  C   UNL     1     -11.633   6.540  71.288  1.00  0.00    -0.381 A  
HETATM    6  C   UNL     1     -11.302   7.640  72.073  1.00  0.00    -0.278 A  
HETATM    7  C   UNL     1     -10.696   8.755  71.511  1.00  0.00    -0.371 A  
HETATM    8  O   UNL     1     -11.562   7.662  73.411  1.00  0.00    -0.641 OA 
HETATM    9  H   UNL     1     -11.336   8.413  73.947  1.00  0.00     0.000 HD 
HETATM   10  C   UNL     1     -10.425   8.775  70.142  1.00  0.00    -0.230 A  
ENDBRANCH   2   3
TORSDOF 1
ENDMDL
MODEL       65
REMARK 921   NORMALIZED FREE ENERGY PREDICTED BY IDOCK:   -2.94 KCAL/MOL
REMARK 922        TOTAL FREE ENERGY PREDICTED BY IDOCK:   -3.14 KCAL/MOL
REMARK 923 INTER-LIGAND FREE ENERGY PREDICTED BY IDOCK:   -3.10 KCAL/MOL
REMARK 924 INTRA-LIGAND FREE ENERGY PREDICTED BY IDOCK:   -0.04 KCAL/MOL
REMARK 927      BINDING AFFINITY PREDICTED BY RF-SCORE:    0.00 PKD
ROOT
HETATM    1  C   UNL     1     -12.964  10.876  71.604  1.00  0.00    -0.464 C  
HETATM    2  O   UNL     1     -13.310   9.547  71.233  1.00  0.00    -0.363 OA 
ENDROOT
BRANCH   2   3
HETATM    3  C   UNL     1     -12.444   8.557  71.611  1.00  0.00    -0.330 A  
HETATM    4  C   UNL     1     -12.737   7.193  71.676  1.00  0.00    -0.415 A  
HETATM    5  C   UNL     1     -11.758   6.281  72.088  1.00  0.00    -0.368 A  
HETATM    6  C   UNL     1     -10.491   6.741  72.430  1.00  0.00    -0.204 A  
HETATM    7  C   UNL     1     -10.184   8.092  72.359  1.00  0.00    -0.368 A  
HETATM    8  O   UNL     1      -9.514   5.886  72.847  1.00  0.00    -0.151 OA 
HETATM    9  H   UNL     1      -8.648   6.200  73.081  1.00  0.00     0.000 HD 
HETATM   10  C   UNL     1     -11.162   9.000  71.949  1.00  0.00    -0.438 A  
ENDBRANCH   2   3
TORSDOF 1
ENDMDL
MODEL       66
REMARK 921   NORMALIZED FREE ENERGY PREDICTED BY IDOCK:   -2.94 KCAL/MOL
REMARK 922        TOTAL FREE ENERGY PREDICTED BY IDOCK:   -3.14 KCAL/MOL
REMARK 923 INTER-LIGAND FREE ENERGY PREDICTED BY IDOCK:   -3.10 KCAL/MOL
REMARK 924 INTRA-LIGAND FREE ENERGY PREDICTED BY IDOCK:   -0.04 KCAL/MOL
REMARK 927      BINDING AFFINITY PREDICTED BY RF-SCORE:    0.00 PKD
ROOT
HETATM    1  C   UNL     1     -11.970  15.749  70.955  1.00  0.00    -0.413 C  
HETATM    2  O   UNL     1     -12.653  14.943  70.003  1.00  0.00    -0.294 OA 
ENDROOT
BRANCH   2   3
HETATM    3  C   UNL     1     -12.021  14.728  68.809  1.00  0.00    -0.257 A  
HETATM    4  C   UNL     1     -12.131  13.583  68.017  1.00  0.00    -0.298 A  
HETATM    5  C   UNL     1     -11.421  13.487  66.815  1.00  0.00    -0.374 A  
HETATM    6  C   UNL     1     -10.604  14.538  66.412  1.00  0.00    -0.302 A  
HETATM    7  C   UNL     1     -10.494  15.686  67.185  1.00  0.00    -0.303 A  
HETATM    8  O   UNL     1      -9.887  14.479  65.255  1.00  0.00    -0.499 OA 
HETATM    9  H   UNL     1      -9.330  15.197  64.979  1.00  0.00     0.000 HD 
HETATM   10  C   UNL     1     -11.203  15.780  68.384  1.00  0.00    -0.362 A  
ENDBRANCH   2   3
TORSDOF 1
ENDMDL
MODEL       67
REMARK 921   NORMALIZED FREE ENERGY PREDICTED BY IDOCK:   -2.94 KCAL/MOL
REMARK 922        TOTAL FREE ENERGY PREDICTED BY IDOCK:   -3.14 KCAL/MOL
REMARK 923 INTER-LIGAND FREE ENERGY PREDICTED BY IDOCK:   -3.11 KCAL/MOL
REMARK 924 INTRA-LIGAND FREE ENERGY PREDICTED BY IDOCK:   -0.03 KCAL/MOL
REMARK 927      BINDING AFFINITY PREDICTED BY RF-SCORE:    0.00 PKD
ROOT
HETATM    1  C   UNL     1     -11.597  12.273  67.759  1.00  0.00    -0.351 C  
HETATM    2  O   UNL     1     -11.955  13.148  66.695  1.00  0.00    -0.391 OA 
ENDROOT
BRANCH   2   3
HETATM    3  C   UNL     1     -11.429  14.410  66.733  1.00  0.00    -0.370 A  
HETATM    4  C   UNL     1     -11.157  15.152  67.885  1.00  0.00    -0.322 A  
HETATM    5  C   UNL     1     -10.624  16.441  67.784  1.00  0.00    -0.321 A  
HETATM    6  C   UNL     1     -10.364  16.982  66.529  1.00  0.00    -0.298 A  
HETATM    7  C   UNL     1     -10.619  16.252  65.376  1.00  0.00    -0.371 A  
HETATM    8  O   UNL     1      -9.855  18.239  66.388  1.00  0.00    -0.336 OA 
HETATM    9  H   UNL     1      -9.678  18.608  65.531  1.00  0.00     0.000 HD 
HETATM   10  C   UNL     1     -11.152  14.966  65.480  1.00  0.00    -0.353 A  
ENDBRANCH   2   3
TORSDOF 1
ENDMDL
MODEL       68
REMARK 921   NORMALIZED FREE ENERGY PREDICTED BY IDOCK:   -2.92 KCAL/MOL
REMARK 922        TOTAL FREE ENERGY PREDICTED BY IDOCK:   -3.12 KCAL/MOL
REMARK 923 INTER-LIGAND FREE ENERGY PREDICTED BY IDOCK:   -3.08 KCAL/MOL
REMARK 924 INTRA-LIGAND FREE ENERGY PREDICTED BY IDOCK:   -0.04 KCAL/MOL
REMARK 927      BINDING AFFINITY PREDICTED BY RF-SCORE:    0.00 PKD
ROOT
HETATM    1  C   UNL     1      -8.468  19.169  68.438  1.00  0.00    -0.349 C  
HETATM    2  O   UNL     1      -8.375  18.236  67.367  1.00  0.00    -0.240 OA 
ENDROOT
BRANCH   2   3
HETATM    3  C   UNL     1      -9.305  17.233  67.342  1.00  0.00    -0.236 A  
HETATM    4  C   UNL     1      -9.378  16.206  66.398  1.00  0.00    -0.329 A  
HETATM    5  C   UNL     1     -10.388  15.242  66.482  1.00  0.00    -0.289 A  
HETATM    6  C   UNL     1     -11.318  15.309  67.513  1.00  0.00    -0.297 A  
HETATM    7  C   UNL     1     -11.251  16.317  68.465  1.00  0.00    -0.359 A  
HETATM    8  O   UNL     1     -12.324  14.395  67.624  1.00  0.00    -0.619 OA 
HETATM    9  H   UNL     1     -12.960  14.440  68.328  1.00  0.00     0.000 HD 
HETATM   10  C   UNL     1     -10.243  17.279  68.378  1.00  0.00    -0.358 A  
ENDBRANCH   2   3
TORSDOF 1
ENDMDL
MODEL       69
REMARK 921   NORMALIZED FREE ENERGY PREDICTED BY IDOCK:   -2.92 KCAL/MOL
REMARK 922        TOTAL FREE ENERGY PREDICTED BY IDOCK:   -3.12 KCAL/MOL
REMARK 923 INTER-LIGAND FREE ENERGY PREDICTED BY IDOCK:   -3.10 KCAL/MOL
REMARK 924 INTRA-LIGAND FREE ENERGY PREDICTED BY IDOCK:   -0.02 KCAL/MOL
REMARK 927      BINDING AFFINITY PREDICTED BY RF-SCORE:    0.00 PKD
ROOT
HETATM    1  C   UNL     1     -11.458  13.234  63.978  1.00  0.00    -0.388 C  
HETATM    2  O   UNL     1     -11.448  14.533  64.560  1.00  0.00    -0.378 OA 
ENDROOT
BRANCH   2   3
HETATM    3  C   UNL     1     -11.073  14.617  65.872  1.00  0.00    -0.338 A  
HETATM    4  C   UNL     1     -11.899  14.392  66.977  1.00  0.00    -0.437 A  
HETATM    5  C   UNL     1     -11.390  14.519  68.274  1.00  0.00    -0.319 A  
HETATM    6  C   UNL     1     -10.057  14.869  68.459  1.00  0.00    -0.232 A  
HETATM    7  C   UNL     1      -9.223  15.085  67.371  1.00  0.00    -0.200 A  
HETATM    8  O   UNL     1      -9.527  15.015  69.706  1.00  0.00    -0.444 OA 
HETATM    9  H   UNL     1      -8.616  15.254  69.833  1.00  0.00     0.000 HD 
HETATM   10  C   UNL     1      -9.733  14.958  66.077  1.00  0.00    -0.358 A  
ENDBRANCH   2   3
TORSDOF 1
ENDMDL
MODEL       70
REMARK 921   NORMALIZED FREE ENERGY PREDICTED BY IDOCK:   -2.91 KCAL/MOL
REMARK 922        TOTAL FREE ENERGY PREDICTED BY IDOCK:   -3.11 KCAL/MOL
REMARK 923 INTER-LIGAND FREE ENERGY PREDICTED BY IDOCK:   -3.08 KCAL/MOL
REMARK 924 INTRA-LIGAND FREE ENERGY PREDICTED BY IDOCK:   -0.03 KCAL/MOL
REMARK 927      BINDING AFFINITY PREDICTED BY RF-SCORE:    0.00 PKD
ROOT
HETATM    1  C   UNL     1     -12.358  12.789  64.304  1.00  0.00    -0.416 C  
HETATM    2  O   UNL     1     -12.534  12.581  65.700  1.00  0.00    -0.648 OA 
ENDROOT
BRANCH   2   3
HETATM    3  C   UNL     1     -11.398  12.438  66.449  1.00  0.00    -0.342 A  
HETATM    4  C   UNL     1     -10.106  12.796  66.056  1.00  0.00    -0.277 A  
HETATM    5  C   UNL     1      -9.024  12.589  66.919  1.00  0.00    -0.212 A  
HETATM    6  C   UNL     1      -9.242  12.027  68.172  1.00  0.00    -0.195 A  
HETATM    7  C   UNL     1     -10.522  11.677  68.580  1.00  0.00    -0.236 A  
HETATM    8  O   UNL     1      -8.213  11.799  69.037  1.00  0.00    -0.359 OA 
HETATM    9  H   UNL     1      -8.361  11.415  69.893  1.00  0.00     0.000 HD 
HETATM   10  C   UNL     1     -11.600  11.884  67.717  1.00  0.00    -0.393 A  
ENDBRANCH   2   3
TORSDOF 1
ENDMDL
MODEL       71
REMARK 921   NORMALIZED FREE ENERGY PREDICTED BY IDOCK:   -2.90 KCAL/MOL
REMARK 922        TOTAL FREE ENERGY PREDICTED BY IDOCK:   -3.10 KCAL/MOL
REMARK 923 INTER-LIGAND FREE ENERGY PREDICTED BY IDOCK:   -3.07 KCAL/MOL
REMARK 924 INTRA-LIGAND FREE ENERGY PREDICTED BY IDOCK:   -0.02 KCAL/MOL
REMARK 927      BINDING AFFINITY PREDICTED BY RF-SCORE:    0.00 PKD
ROOT
HETATM    1  C   UNL     1      -9.309   9.184  68.575  1.00  0.00    -0.135 C  
HETATM    2  O   UNL     1     -10.712   9.416  68.636  1.00  0.00    -0.213 OA 
ENDROOT
BRANCH   2   3
HETATM    3  C   UNL     1     -11.125  10.717  68.550  1.00  0.00    -0.263 A  
HETATM    4  C   UNL     1     -11.451  11.546  69.626  1.00  0.00    -0.373 A  
HETATM    5  C   UNL     1     -11.869  12.862  69.400  1.00  0.00    -0.371 A  
HETATM    6  C   UNL     1     -11.959  13.341  68.098  1.00  0.00    -0.304 A  
HETATM    7  C   UNL     1     -11.629  12.531  67.020  1.00  0.00    -0.437 A  
HETATM    8  O   UNL     1     -12.374  14.613  67.835  1.00  0.00    -0.614 OA 
HETATM    9  H   UNL     1     -12.435  14.941  66.946  1.00  0.00     0.000 HD 
HETATM   10  C   UNL     1     -11.211  11.219  67.248  1.00  0.00    -0.364 A  
ENDBRANCH   2   3
TORSDOF 1
ENDMDL
MODEL       72
REMARK 921   NORMALIZED FREE ENERGY PREDICTED BY IDOCK:   -2.89 KCAL/MOL
REMARK 922        TOTAL FREE ENERGY PREDICTED BY IDOCK:   -3.08 KCAL/MOL
REMARK 923 INTER-LIGAND FREE ENERGY PREDICTED BY IDOCK:   -3.06 KCAL/MOL
REMARK 924 INTRA-LIGAND FREE ENERGY PREDICTED BY IDOCK:   -0.03 KCAL/MOL
REMARK 927      BINDING AFFINITY PREDICTED BY RF-SCORE:    0.00 PKD
ROOT
HETATM    1  C   UNL     1      -8.976   8.100  68.562  1.00  0.00    -0.137 C  
HETATM    2  O   UNL     1      -9.769   9.268  68.740  1.00  0.00    -0.153 OA 
ENDROOT
BRANCH   2   3
HETATM    3  C   UNL     1     -10.723   9.221  69.719  1.00  0.00    -0.231 A  
HETATM    4  C   UNL     1     -11.155   8.074  70.390  1.00  0.00    -0.238 A  
HETATM    5  C   UNL     1     -12.148   8.162  71.371  1.00  0.00    -0.326 A  
HETATM    6  C   UNL     1     -12.703   9.400  71.677  1.00  0.00    -0.374 A  
HETATM    7  C   UNL     1     -12.277  10.549  71.026  1.00  0.00    -0.505 A  
HETATM    8  O   UNL     1     -13.681   9.527  72.618  1.00  0.00    -0.706 OA 
HETATM    9  H   UNL     1     -14.061  10.372  72.827  1.00  0.00     0.000 HD 
HETATM   10  C   UNL     1     -11.286  10.458  70.047  1.00  0.00    -0.385 A  
ENDBRANCH   2   3
TORSDOF 1
ENDMDL
MODEL       73
REMARK 921   NORMALIZED FREE ENERGY PREDICTED BY IDOCK:   -2.88 KCAL/MOL
REMARK 922        TOTAL FREE ENERGY PREDICTED BY IDOCK:   -3.08 KCAL/MOL
REMARK 923 INTER-LIGAND FREE ENERGY PREDICTED BY IDOCK:   -3.05 KCAL/MOL
REMARK 924 INTRA-LIGAND FREE ENERGY PREDICTED BY IDOCK:   -0.02 KCAL/MOL
REMARK 927      BINDING AFFINITY PREDICTED BY RF-SCORE:    0.00 PKD
ROOT
HETATM    1  C   UNL     1     -11.040  14.447  67.670  1.00  0.00    -0.300 C  
HETATM    2  O   UNL     1     -11.921  13.383  67.330  1.00  0.00    -0.362 OA 
ENDROOT
BRANCH   2   3
HETATM    3  C   UNL     1     -11.344  12.218  66.906  1.00  0.00    -0.333 A  
HETATM    4  C   UNL     1     -11.078  11.099  67.698  1.00  0.00    -0.348 A  
HETATM    5  C   UNL     1     -10.474   9.967  67.140  1.00  0.00    -0.305 A  
HETATM    6  C   UNL     1     -10.141   9.961  65.790  1.00  0.00    -0.247 A  
HETATM    7  C   UNL     1     -10.410  11.062  64.988  1.00  0.00    -0.360 A  
HETATM    8  O   UNL     1      -9.541   8.883  65.210  1.00  0.00    -0.454 OA 
HETATM    9  H   UNL     1      -9.313   8.878  64.288  1.00  0.00     0.000 HD 
HETATM   10  C   UNL     1     -11.012  12.190  65.548  1.00  0.00    -0.343 A  
ENDBRANCH   2   3
TORSDOF 1
ENDMDL
MODEL       74
REMARK 921   NORMALIZED FREE ENERGY PREDICTED BY IDOCK:   -2.88 KCAL/MOL
REMARK 922        TOTAL FREE ENERGY PREDICTED BY IDOCK:   -3.08 KCAL/MOL
REMARK 923 INTER-LIGAND FREE ENERGY PREDICTED BY IDOCK:   -3.05 KCAL/MOL
REMARK 924 INTRA-LIGAND FREE ENERGY PREDICTED BY IDOCK:   -0.03 KCAL/MOL
REMARK 927      BINDING AFFINITY PREDICTED BY RF-SCORE:    0.00 PKD
ROOT
HETATM    1  C   UNL     1     -10.333   9.271  66.422  1.00  0.00    -0.168 C  
HETATM    2  O   UNL     1     -10.321  10.627  65.992  1.00  0.00    -0.250 OA 
ENDROOT
BRANCH   2   3
HETATM    3  C   UNL     1     -10.855  11.550  66.849  1.00  0.00    -0.284 A  
HETATM    4  C   UNL     1     -11.236  11.316  68.172  1.00  0.00    -0.351 A  
HETATM    5  C   UNL     1     -11.780  12.349  68.943  1.00  0.00    -0.372 A  
HETATM    6  C   UNL     1     -11.938  13.613  68.384  1.00  0.00    -0.356 A  
HETATM    7  C   UNL     1     -11.554  13.863  67.074  1.00  0.00    -0.394 A  
HETATM    8  O   UNL     1     -12.474  14.644  69.098  1.00  0.00    -0.567 OA 
HETATM    9  H   UNL     1     -12.582  15.507  68.717  1.00  0.00     0.000 HD 
HETATM   10  C   UNL     1     -11.012  12.829  66.307  1.00  0.00    -0.307 A  
ENDBRANCH   2   3
TORSDOF 1
ENDMDL
MODEL       75
REMARK 921   NORMALIZED FREE ENERGY PREDICTED BY IDOCK:   -2.87 KCAL/MOL
REMARK 922        TOTAL FREE ENERGY PREDICTED BY IDOCK:   -3.07 KCAL/MOL
REMARK 923 INTER-LIGAND FREE ENERGY PREDICTED BY IDOCK:   -3.05 KCAL/MOL
REMARK 924 INTRA-LIGAND FREE ENERGY PREDICTED BY IDOCK:   -0.02 KCAL/MOL
REMARK 927      BINDING AFFINITY PREDICTED BY RF-SCORE:    0.00 PKD
ROOT
HETATM    1  C   UNL     1     -10.129   9.657  67.555  1.00  0.00    -0.197 C  
HETATM    2  O   UNL     1     -11.308  10.450  67.487  1.00  0.00    -0.374 OA 
ENDROOT
BRANCH   2   3
HETATM    3  C   UNL     1     -11.206  11.649  66.837  1.00  0.00    -0.313 A  
HETATM    4  C   UNL     1     -10.516  11.879  65.644  1.00  0.00    -0.302 A  
HETATM    5  C   UNL     1     -10.483  13.161  65.085  1.00  0.00    -0.339 A  
HETATM    6  C   UNL     1     -11.143  14.207  65.722  1.00  0.00    -0.309 A  
HETATM    7  C   UNL     1     -11.842  13.990  66.902  1.00  0.00    -0.458 A  
HETATM    8  O   UNL     1     -11.126  15.472  65.216  1.00  0.00    -0.357 OA 
HETATM    9  H   UNL     1     -11.577  16.186  65.651  1.00  0.00     0.000 HD 
HETATM   10  C   UNL     1     -11.872  12.710  67.458  1.00  0.00    -0.396 A  
ENDBRANCH   2   3
TORSDOF 1
ENDMDL
MODEL       76
REMARK 921   NORMALIZED FREE ENERGY PREDICTED BY IDOCK:   -2.86 KCAL/MOL
REMARK 922        TOTAL FREE ENERGY PREDICTED BY IDOCK:   -3.06 KCAL/MOL
REMARK 923 INTER-LIGAND FREE ENERGY PREDICTED BY IDOCK:   -3.03 KCAL/MOL
REMARK 924 INTRA-LIGAND FREE ENERGY PREDICTED BY IDOCK:   -0.03 KCAL/MOL
REMARK 927      BINDING AFFINITY PREDICTED BY RF-SCORE:    0.00 PKD
ROOT
HETATM    1  C   UNL     1      -8.155  19.469  68.335  1.00  0.00    -0.342 C  
HETATM    2  O   UNL     1      -9.531  19.173  68.545  1.00  0.00    -0.347 OA 
ENDROOT
BRANCH   2   3
HETATM    3  C   UNL     1      -9.993  17.994  68.028  1.00  0.00    -0.343 A  
HETATM    4  C   UNL     1     -10.575  16.952  68.755  1.00  0.00    -0.355 A  
HETATM    5  C   UNL     1     -11.001  15.790  68.103  1.00  0.00    -0.330 A  
HETATM    6  C   UNL     1     -10.843  15.677  66.726  1.00  0.00    -0.277 A  
HETATM    7  C   UNL     1     -10.276  16.708  65.990  1.00  0.00    -0.366 A  
HETATM    8  O   UNL     1     -11.234  14.556  66.055  1.00  0.00    -0.326 OA 
HETATM    9  H   UNL     1     -11.126  14.478  65.114  1.00  0.00     0.000 HD 
HETATM   10  C   UNL     1      -9.851  17.867  66.643  1.00  0.00    -0.342 A  
ENDBRANCH   2   3
TORSDOF 1
ENDMDL
MODEL       77
REMARK 921   NORMALIZED FREE ENERGY PREDICTED BY IDOCK:   -2.84 KCAL/MOL
REMARK 922        TOTAL FREE ENERGY PREDICTED BY IDOCK:   -3.03 KCAL/MOL
REMARK 923 INTER-LIGAND FREE ENERGY PREDICTED BY IDOCK:   -3.01 KCAL/MOL
REMARK 924 INTRA-LIGAND FREE ENERGY PREDICTED BY IDOCK:   -0.02 KCAL/MOL
REMARK 927      BINDING AFFINITY PREDICTED BY RF-SCORE:    0.00 PKD
ROOT
HETATM    1  C   UNL     1     -12.842  13.662  65.288  1.00  0.00    -0.369 C  
HETATM    2  O   UNL     1     -12.432  12.318  65.512  1.00  0.00    -0.597 OA 
ENDROOT
BRANCH   2   3
HETATM    3  C   UNL     1     -11.497  12.115  66.490  1.00  0.00    -0.369 A  
HETATM    4  C   UNL     1     -11.733  12.134  67.867  1.00  0.00    -0.403 A  
HETATM    5  C   UNL     1     -10.683  11.917  68.766  1.00  0.00    -0.257 A  
HETATM    6  C   UNL     1      -9.401  11.681  68.281  1.00  0.00    -0.191 A  
HETATM    7  C   UNL     1      -9.154  11.648  66.915  1.00  0.00    -0.188 A  
HETATM    8  O   UNL     1      -8.349  11.477  69.123  1.00  0.00    -0.370 OA 
HETATM    9  H   UNL     1      -7.473  11.315  68.793  1.00  0.00     0.000 HD 
HETATM   10  C   UNL     1     -10.204  11.865  66.021  1.00  0.00    -0.262 A  
ENDBRANCH   2   3
TORSDOF 1
ENDMDL
MODEL       78
REMARK 921   NORMALIZED FREE ENERGY PREDICTED BY IDOCK:   -2.82 KCAL/MOL
REMARK 922        TOTAL FREE ENERGY PREDICTED BY IDOCK:   -3.01 KCAL/MOL
REMARK 923 INTER-LIGAND FREE ENERGY PREDICTED BY IDOCK:   -2.97 KCAL/MOL
REMARK 924 INTRA-LIGAND FREE ENERGY PREDICTED BY IDOCK:   -0.04 KCAL/MOL
REMARK 927      BINDING AFFINITY PREDICTED BY RF-SCORE:    0.00 PKD
ROOT
HETATM    1  C   UNL     1      -8.418   9.444  63.766  1.00  0.00    -0.195 C  
HETATM    2  O   UNL     1      -9.112  10.674  63.939  1.00  0.00    -0.198 OA 
ENDROOT
BRANCH   2   3
HETATM    3  C   UNL     1      -9.891  10.791  65.057  1.00  0.00    -0.288 A  
HETATM    4  C   UNL     1     -10.692  11.886  65.389  1.00  0.00    -0.330 A  
HETATM    5  C   UNL     1     -11.437  11.882  66.573  1.00  0.00    -0.381 A  
HETATM    6  C   UNL     1     -11.378  10.780  67.419  1.00  0.00    -0.160 A  
HETATM    7  C   UNL     1     -10.594   9.680  67.097  1.00  0.00    -0.298 A  
HETATM    8  O   UNL     1     -12.079  10.741  68.587  1.00  0.00    -0.763 OA 
HETATM    9  H   UNL     1     -12.039   9.989  69.165  1.00  0.00     0.000 HD 
HETATM   10  C   UNL     1      -9.851   9.687  65.915  1.00  0.00    -0.358 A  
ENDBRANCH   2   3
TORSDOF 1
ENDMDL
MODEL       79
REMARK 921   NORMALIZED FREE ENERGY PREDICTED BY IDOCK:   -2.80 KCAL/MOL
REMARK 922        TOTAL FREE ENERGY PREDICTED BY IDOCK:   -3.00 KCAL/MOL
REMARK 923 INTER-LIGAND FREE ENERGY PREDICTED BY IDOCK:   -2.96 KCAL/MOL
REMARK 924 INTRA-LIGAND FREE ENERGY PREDICTED BY IDOCK:   -0.04 KCAL/MOL
REMARK 927      BINDING AFFINITY PREDICTED BY RF-SCORE:    0.00 PKD
ROOT
HETATM    1  C   UNL     1      -9.684   7.805  67.014  1.00  0.00    -0.197 C  
HETATM    2  O   UNL     1     -10.669   8.802  67.257  1.00  0.00    -0.276 OA 
ENDROOT
BRANCH   2   3
HETATM    3  C   UNL     1     -10.529   9.984  66.583  1.00  0.00    -0.174 A  
HETATM    4  C   UNL     1     -10.948  11.239  67.031  1.00  0.00    -0.352 A  
HETATM    5  C   UNL     1     -10.750  12.373  66.237  1.00  0.00    -0.287 A  
HETATM    6  C   UNL     1     -10.133  12.246  64.997  1.00  0.00    -0.253 A  
HETATM    7  C   UNL     1      -9.702  11.007  64.544  1.00  0.00    -0.323 A  
HETATM    8  O   UNL     1      -9.932  13.325  64.188  1.00  0.00    -0.711 OA 
HETATM    9  H   UNL     1      -9.511  13.238  63.342  1.00  0.00     0.000 HD 
HETATM   10  C   UNL     1      -9.901   9.876  65.338  1.00  0.00    -0.384 A  
ENDBRANCH   2   3
TORSDOF 1
ENDMDL
MODEL       80
REMARK 921   NORMALIZED FREE ENERGY PREDICTED BY IDOCK:   -2.80 KCAL/MOL
REMARK 922        TOTAL FREE ENERGY PREDICTED BY IDOCK:   -2.99 KCAL/MOL
REMARK 923 INTER-LIGAND FREE ENERGY PREDICTED BY IDOCK:   -2.95 KCAL/MOL
REMARK 924 INTRA-LIGAND FREE ENERGY PREDICTED BY IDOCK:   -0.04 KCAL/MOL
REMARK 927      BINDING AFFINITY PREDICTED BY RF-SCORE:    0.00 PKD
ROOT
HETATM    1  C   UNL     1      -8.447  15.556  69.287  1.00  0.00    -0.265 C  
HETATM    2  O   UNL     1      -7.269  16.334  69.465  1.00  0.00    -0.219 OA 
ENDROOT
BRANCH   2   3
HETATM    3  C   UNL     1      -7.282  17.600  68.947  1.00  0.00    -0.256 A  
HETATM    4  C   UNL     1      -6.428  18.643  69.311  1.00  0.00    -0.289 A  
HETATM    5  C   UNL     1      -6.552  19.899  68.707  1.00  0.00    -0.355 A  
HETATM    6  C   UNL     1      -7.531  20.103  67.740  1.00  0.00    -0.292 A  
HETATM    7  C   UNL     1      -8.380  19.072  67.362  1.00  0.00    -0.299 A  
HETATM    8  O   UNL     1      -7.693  21.315  67.137  1.00  0.00    -0.732 OA 
HETATM    9  H   UNL     1      -8.361  21.455  66.477  1.00  0.00     0.000 HD 
HETATM   10  C   UNL     1      -8.254  17.820  67.966  1.00  0.00    -0.248 A  
ENDBRANCH   2   3
TORSDOF 1
ENDMDL
MODEL       81
REMARK 921   NORMALIZED FREE ENERGY PREDICTED BY IDOCK:   -2.80 KCAL/MOL
REMARK 922        TOTAL FREE ENERGY PREDICTED BY IDOCK:   -2.99 KCAL/MOL
REMARK 923 INTER-LIGAND FREE ENERGY PREDICTED BY IDOCK:   -2.97 KCAL/MOL
REMARK 924 INTRA-LIGAND FREE ENERGY PREDICTED BY IDOCK:   -0.02 KCAL/MOL
REMARK 927      BINDING AFFINITY PREDICTED BY RF-SCORE:    0.00 PKD
ROOT
HETATM    1  C   UNL     1     -10.376  11.439  65.260  1.00  0.00    -0.282 C  
HETATM    2  O   UNL     1     -11.280  12.537  65.232  1.00  0.00    -0.288 OA 
ENDROOT
BRANCH   2   3
HETATM    3  C   UNL     1     -11.407  13.260  66.387  1.00  0.00    -0.312 A  
HETATM    4  C   UNL     1     -11.834  12.765  67.621  1.00  0.00    -0.396 A  
HETATM    5  C   UNL     1     -11.928  13.615  68.728  1.00  0.00    -0.394 A  
HETATM    6  C   UNL     1     -11.592  14.958  68.593  1.00  0.00    -0.318 A  
HETATM    7  C   UNL     1     -11.156  15.462  67.375  1.00  0.00    -0.311 A  
HETATM    8  O   UNL     1     -11.681  15.822  69.644  1.00  0.00    -0.334 OA 
HETATM    9  H   UNL     1     -11.452  16.740  69.552  1.00  0.00     0.000 HD 
HETATM   10  C   UNL     1     -11.064  14.611  66.272  1.00  0.00    -0.336 A  
ENDBRANCH   2   3
TORSDOF 1
ENDMDL
MODEL       82
REMARK 921   NORMALIZED FREE ENERGY PREDICTED BY IDOCK:   -2.79 KCAL/MOL
REMARK 922        TOTAL FREE ENERGY PREDICTED BY IDOCK:   -2.98 KCAL/MOL
REMARK 923 INTER-LIGAND FREE ENERGY PREDICTED BY IDOCK:   -2.95 KCAL/MOL
REMARK 924 INTRA-LIGAND FREE ENERGY PREDICTED BY IDOCK:   -0.03 KCAL/MOL
REMARK 927      BINDING AFFINITY PREDICTED BY RF-SCORE:    0.00 PKD
ROOT
HETATM    1  C   UNL     1      -9.013   9.605  68.905  1.00  0.00    -0.144 C  
HETATM    2  O   UNL     1      -9.458   9.724  70.251  1.00  0.00    -0.249 OA 
ENDROOT
BRANCH   2   3
HETATM    3  C   UNL     1     -10.291   8.742  70.713  1.00  0.00    -0.213 A  
HETATM    4  C   UNL     1     -10.874   7.732  69.945  1.00  0.00    -0.228 A  
HETATM    5  C   UNL     1     -11.716   6.789  70.543  1.00  0.00    -0.430 A  
HETATM    6  C   UNL     1     -11.970   6.861  71.908  1.00  0.00    -0.327 A  
HETATM    7  C   UNL     1     -11.389   7.853  72.686  1.00  0.00    -0.468 A  
HETATM    8  O   UNL     1     -12.794   5.968  72.527  1.00  0.00    -0.507 OA 
HETATM    9  H   UNL     1     -12.968   6.017  73.459  1.00  0.00     0.000 HD 
HETATM   10  C   UNL     1     -10.549   8.794  72.087  1.00  0.00    -0.386 A  
ENDBRANCH   2   3
TORSDOF 1
ENDMDL
MODEL       83
REMARK 921   NORMALIZED FREE ENERGY PREDICTED BY IDOCK:   -2.78 KCAL/MOL
REMARK 922        TOTAL FREE ENERGY PREDICTED BY IDOCK:   -2.97 KCAL/MOL
REMARK 923 INTER-LIGAND FREE ENERGY PREDICTED BY IDOCK:   -2.93 KCAL/MOL
REMARK 924 INTRA-LIGAND FREE ENERGY PREDICTED BY IDOCK:   -0.04 KCAL/MOL
REMARK 927      BINDING AFFINITY PREDICTED BY RF-SCORE:    0.00 PKD
ROOT
HETATM    1  C   UNL     1     -12.795  12.726  71.872  1.00  0.00    -0.201 C  
HETATM    2  O   UNL     1     -13.440  11.459  71.838  1.00  0.00    -0.360 OA 
ENDROOT
BRANCH   2   3
HETATM    3  C   UNL     1     -12.703  10.404  71.373  1.00  0.00    -0.446 A  
HETATM    4  C   UNL     1     -12.847   9.069  71.758  1.00  0.00    -0.437 A  
HETATM    5  C   UNL     1     -12.020   8.084  71.209  1.00  0.00    -0.321 A  
HETATM    6  C   UNL     1     -11.054   8.440  70.274  1.00  0.00    -0.213 A  
HETATM    7  C   UNL     1     -10.907   9.761  69.874  1.00  0.00    -0.306 A  
HETATM    8  O   UNL     1     -10.221   7.512  69.724  1.00  0.00    -0.201 OA 
HETATM    9  H   UNL     1      -9.561   7.755  69.085  1.00  0.00     0.000 HD 
HETATM   10  C   UNL     1     -11.733  10.743  70.424  1.00  0.00    -0.445 A  
ENDBRANCH   2   3
TORSDOF 1
ENDMDL
MODEL       84
REMARK 921   NORMALIZED FREE ENERGY PREDICTED BY IDOCK:   -2.77 KCAL/MOL
REMARK 922        TOTAL FREE ENERGY PREDICTED BY IDOCK:   -2.96 KCAL/MOL
REMARK 923 INTER-LIGAND FREE ENERGY PREDICTED BY IDOCK:   -2.92 KCAL/MOL
REMARK 924 INTRA-LIGAND FREE ENERGY PREDICTED BY IDOCK:   -0.04 KCAL/MOL
REMARK 927      BINDING AFFINITY PREDICTED BY RF-SCORE:    0.00 PKD
ROOT
HETATM    1  C   UNL     1      -7.122  16.239  69.122  1.00  0.00    -0.214 C  
HETATM    2  O   UNL     1      -7.457  15.112  68.319  1.00  0.00    -0.103 OA 
ENDROOT
BRANCH   2   3
HETATM    3  C   UNL     1      -8.381  15.313  67.331  1.00  0.00    -0.181 A  
HETATM    4  C   UNL     1      -9.061  14.314  66.629  1.00  0.00    -0.249 A  
HETATM    5  C   UNL     1      -9.980  14.655  65.631  1.00  0.00    -0.381 A  
HETATM    6  C   UNL     1     -10.214  15.995  65.341  1.00  0.00    -0.302 A  
HETATM    7  C   UNL     1      -9.554  16.998  66.038  1.00  0.00    -0.215 A  
HETATM    8  O   UNL     1     -11.093  16.369  64.368  1.00  0.00    -1.052 OA 
HETATM    9  H   UNL     1     -11.254  17.284  64.170  1.00  0.00     0.000 HD 
HETATM   10  C   UNL     1      -8.637  16.655  67.033  1.00  0.00    -0.220 A  
ENDBRANCH   2   3
TORSDOF 1
ENDMDL
MODEL       85
REMARK 921   NORMALIZED FREE ENERGY PREDICTED BY IDOCK:   -2.76 KCAL/MOL
REMARK 922        TOTAL FREE ENERGY PREDICTED BY IDOCK:   -2.95 KCAL/MOL
REMARK 923 INTER-LIGAND FREE ENERGY PREDICTED BY IDOCK:   -2.92 KCAL/MOL
REMARK 924 INTRA-LIGAND FREE ENERGY PREDICTED BY IDOCK:   -0.03 KCAL/MOL
REMARK 927      BINDING AFFINITY PREDICTED BY RF-SCORE:    0.00 PKD
ROOT
HETATM    1  C   UNL     1      -7.856  15.003  68.376  1.00  0.00    -0.125 C  
HETATM    2  O   UNL     1      -8.736  15.936  68.992  1.00  0.00    -0.206 OA 
ENDROOT
BRANCH   2   3
HETATM    3  C   UNL     1      -8.876  17.150  68.376  1.00  0.00    -0.255 A  
HETATM    4  C   UNL     1      -7.932  17.762  67.548  1.00  0.00    -0.217 A  
HETATM    5  C   UNL     1      -8.196  19.015  66.983  1.00  0.00    -0.285 A  
HETATM    6  C   UNL     1      -9.405  19.648  67.251  1.00  0.00    -0.332 A  
HETATM    7  C   UNL     1     -10.356  19.046  68.064  1.00  0.00    -0.472 A  
HETATM    8  O   UNL     1      -9.696  20.874  66.730  1.00  0.00    -0.646 OA 
HETATM    9  H   UNL     1     -10.522  21.306  66.913  1.00  0.00     0.000 HD 
HETATM   10  C   UNL     1     -10.090  17.796  68.626  1.00  0.00    -0.384 A  
ENDBRANCH   2   3
TORSDOF 1
ENDMDL
MODEL       86
REMARK 921   NORMALIZED FREE ENERGY PREDICTED BY IDOCK:   -2.76 KCAL/MOL
REMARK 922        TOTAL FREE ENERGY PREDICTED BY IDOCK:   -2.94 KCAL/MOL
REMARK 923 INTER-LIGAND FREE ENERGY PREDICTED BY IDOCK:   -2.91 KCAL/MOL
REMARK 924 INTRA-LIGAND FREE ENERGY PREDICTED BY IDOCK:   -0.04 KCAL/MOL
REMARK 927      BINDING AFFINITY PREDICTED BY RF-SCORE:    0.00 PKD
ROOT
HETATM    1  C   UNL     1     -10.217  12.545  64.277  1.00  0.00    -0.333 C  
HETATM    2  O   UNL     1     -10.982  13.743  64.332  1.00  0.00    -0.390 OA 
ENDROOT
BRANCH   2   3
HETATM    3  C   UNL     1     -10.548  14.711  65.195  1.00  0.00    -0.421 A  
HETATM    4  C   UNL     1     -10.786  16.083  65.076  1.00  0.00    -0.421 A  
HETATM    5  C   UNL     1     -10.277  16.972  66.028  1.00  0.00    -0.337 A  
HETATM    6  C   UNL     1      -9.532  16.484  67.096  1.00  0.00    -0.239 A  
HETATM    7  C   UNL     1      -9.296  15.123  67.233  1.00  0.00    -0.210 A  
HETATM    8  O   UNL     1      -9.009  17.318  68.039  1.00  0.00    -0.231 OA 
HETATM    9  H   UNL     1      -8.500  16.985  68.768  1.00  0.00     0.000 HD 
HETATM   10  C   UNL     1      -9.805  14.237  66.281  1.00  0.00    -0.323 A  
ENDBRANCH   2   3
TORSDOF 1
ENDMDL
MODEL       87
REMARK 921   NORMALIZED FREE ENERGY PREDICTED BY IDOCK:   -2.74 KCAL/MOL
REMARK 922        TOTAL FREE ENERGY PREDICTED BY IDOCK:   -2.93 KCAL/MOL
REMARK 923 INTER-LIGAND FREE ENERGY PREDICTED BY IDOCK:   -2.90 KCAL/MOL
REMARK 924 INTRA-LIGAND FREE ENERGY PREDICTED BY IDOCK:   -0.03 KCAL/MOL
REMARK 927      BINDING AFFINITY PREDICTED BY RF-SCORE:    0.00 PKD
ROOT
HETATM    1  C   UNL     1     -10.984   3.165  73.495  1.00  0.00    -0.226 C  
HETATM    2  O   UNL     1     -10.583   4.526  73.378  1.00  0.00    -0.181 OA 
ENDROOT
BRANCH   2   3
HETATM    3  C   UNL     1     -10.855   5.148  72.191  1.00  0.00    -0.151 A  
HETATM    4  C   UNL     1     -11.837   6.119  71.980  1.00  0.00    -0.336 A  
HETATM    5  C   UNL     1     -12.018   6.674  70.709  1.00  0.00    -0.412 A  
HETATM    6  C   UNL     1     -11.214   6.255  69.655  1.00  0.00    -0.437 A  
HETATM    7  C   UNL     1     -10.227   5.299  69.852  1.00  0.00    -0.364 A  
HETATM    8  O   UNL     1     -11.367   6.762  68.398  1.00  0.00    -0.538 OA 
HETATM    9  H   UNL     1     -10.817   6.476  67.678  1.00  0.00     0.000 HD 
HETATM   10  C   UNL     1     -10.048   4.746  71.122  1.00  0.00    -0.261 A  
ENDBRANCH   2   3
TORSDOF 1
ENDMDL
MODEL       88
REMARK 921   NORMALIZED FREE ENERGY PREDICTED BY IDOCK:   -2.73 KCAL/MOL
REMARK 922        TOTAL FREE ENERGY PREDICTED BY IDOCK:   -2.91 KCAL/MOL
REMARK 923 INTER-LIGAND FREE ENERGY PREDICTED BY IDOCK:   -2.87 KCAL/MOL
REMARK 924 INTRA-LIGAND FREE ENERGY PREDICTED BY IDOCK:   -0.04 KCAL/MOL
REMARK 927      BINDING AFFINITY PREDICTED BY RF-SCORE:    0.00 PKD
ROOT
HETATM    1  C   UNL     1     -11.905  13.347  67.554  1.00  0.00    -0.366 C  
HETATM    2  O   UNL     1     -10.696  12.645  67.818  1.00  0.00    -0.213 OA 
ENDROOT
BRANCH   2   3
HETATM    3  C   UNL     1     -10.738  11.694  68.800  1.00  0.00    -0.219 A  
HETATM    4  C   UNL     1      -9.754  10.737  69.058  1.00  0.00    -0.201 A  
HETATM    5  C   UNL     1      -9.924   9.812  70.093  1.00  0.00    -0.315 A  
HETATM    6  C   UNL     1     -11.079   9.851  70.868  1.00  0.00    -0.348 A  
HETATM    7  C   UNL     1     -12.060  10.804  70.630  1.00  0.00    -0.467 A  
HETATM    8  O   UNL     1     -11.288   8.960  71.878  1.00  0.00    -0.338 OA 
HETATM    9  H   UNL     1     -12.077   8.987  72.407  1.00  0.00     0.000 HD 
HETATM   10  C   UNL     1     -11.889  11.725  69.595  1.00  0.00    -0.407 A  
ENDBRANCH   2   3
TORSDOF 1
ENDMDL
MODEL       89
REMARK 921   NORMALIZED FREE ENERGY PREDICTED BY IDOCK:   -2.69 KCAL/MOL
REMARK 922        TOTAL FREE ENERGY PREDICTED BY IDOCK:   -2.88 KCAL/MOL
REMARK 923 INTER-LIGAND FREE ENERGY PREDICTED BY IDOCK:   -2.85 KCAL/MOL
REMARK 924 INTRA-LIGAND FREE ENERGY PREDICTED BY IDOCK:   -0.03 KCAL/MOL
REMARK 927      BINDING AFFINITY PREDICTED BY RF-SCORE:    0.00 PKD
ROOT
HETATM    1  C   UNL     1      -7.489  19.267  66.224  1.00  0.00    -0.271 C  
HETATM    2  O   UNL     1      -8.405  18.224  65.914  1.00  0.00    -0.506 OA 
ENDROOT
BRANCH   2   3
HETATM    3  C   UNL     1      -8.919  17.521  66.969  1.00  0.00    -0.240 A  
HETATM    4  C   UNL     1     -10.250  17.531  67.391  1.00  0.00    -0.337 A  
HETATM    5  C   UNL     1     -10.646  16.769  68.495  1.00  0.00    -0.354 A  
HETATM    6  C   UNL     1      -9.705  15.999  69.171  1.00  0.00    -0.251 A  
HETATM    7  C   UNL     1      -8.381  15.971  68.757  1.00  0.00    -0.216 A  
HETATM    8  O   UNL     1     -10.048  15.251  70.259  1.00  0.00    -0.486 OA 
HETATM    9  H   UNL     1      -9.406  14.725  70.721  1.00  0.00     0.000 HD 
HETATM   10  C   UNL     1      -7.989  16.733  67.654  1.00  0.00    -0.189 A  
ENDBRANCH   2   3
TORSDOF 1
ENDMDL
MODEL       90
REMARK 921   NORMALIZED FREE ENERGY PREDICTED BY IDOCK:   -2.64 KCAL/MOL
REMARK 922        TOTAL FREE ENERGY PREDICTED BY IDOCK:   -2.83 KCAL/MOL
REMARK 923 INTER-LIGAND FREE ENERGY PREDICTED BY IDOCK:   -2.79 KCAL/MOL
REMARK 924 INTRA-LIGAND FREE ENERGY PREDICTED BY IDOCK:   -0.04 KCAL/MOL
REMARK 927      BINDING AFFINITY PREDICTED BY RF-SCORE:    0.00 PKD
ROOT
HETATM    1  C   UNL     1      -7.790   8.193  73.676  1.00  0.00    -0.185 C  
HETATM    2  O   UNL     1      -8.058   8.631  72.349  1.00  0.00    -0.328 OA 
ENDROOT
BRANCH   2   3
HETATM    3  C   UNL     1      -9.240   8.224  71.794  1.00  0.00    -0.198 A  
HETATM    4  C   UNL     1      -9.421   7.790  70.478  1.00  0.00    -0.163 A  
HETATM    5  C   UNL     1     -10.690   7.407  70.031  1.00  0.00    -0.258 A  
HETATM    6  C   UNL     1     -11.772   7.460  70.904  1.00  0.00    -0.296 A  
HETATM    7  C   UNL     1     -11.604   7.880  72.216  1.00  0.00    -0.406 A  
HETATM    8  O   UNL     1     -13.026   7.106  70.503  1.00  0.00    -0.581 OA 
HETATM    9  H   UNL     1     -13.765   7.142  71.099  1.00  0.00     0.000 HD 
HETATM   10  C   UNL     1     -10.337   8.262  72.660  1.00  0.00    -0.374 A  
ENDBRANCH   2   3
TORSDOF 1
ENDMDL
MODEL       91
REMARK 921   NORMALIZED FREE ENERGY PREDICTED BY IDOCK:   -2.64 KCAL/MOL
REMARK 922        TOTAL FREE ENERGY PREDICTED BY IDOCK:   -2.82 KCAL/MOL
REMARK 923 INTER-LIGAND FREE ENERGY PREDICTED BY IDOCK:   -2.79 KCAL/MOL
REMARK 924 INTRA-LIGAND FREE ENERGY PREDICTED BY IDOCK:   -0.02 KCAL/MOL
REMARK 927      BINDING AFFINITY PREDICTED BY RF-SCORE:    0.00 PKD
ROOT
HETATM    1  C   UNL     1     -10.270   8.780  71.981  1.00  0.00    -0.331 C  
HETATM    2  O   UNL     1     -10.999   8.567  70.778  1.00  0.00    -0.235 OA 
ENDROOT
BRANCH   2   3
HETATM    3  C   UNL     1     -11.177   9.652  69.965  1.00  0.00    -0.231 A  
HETATM    4  C   UNL     1     -11.695  10.891  70.352  1.00  0.00    -0.444 A  
HETATM    5  C   UNL     1     -11.833  11.921  69.415  1.00  0.00    -0.389 A  
HETATM    6  C   UNL     1     -11.450  11.706  68.096  1.00  0.00    -0.313 A  
HETATM    7  C   UNL     1     -10.925  10.484  67.699  1.00  0.00    -0.375 A  
HETATM    8  O   UNL     1     -11.579  12.680  67.150  1.00  0.00    -0.327 OA 
HETATM    9  H   UNL     1     -11.319  12.534  66.249  1.00  0.00     0.000 HD 
HETATM   10  C   UNL     1     -10.789   9.457  68.636  1.00  0.00    -0.149 A  
ENDBRANCH   2   3
TORSDOF 1
ENDMDL
MODEL       92
REMARK 921   NORMALIZED FREE ENERGY PREDICTED BY IDOCK:   -2.60 KCAL/MOL
REMARK 922        TOTAL FREE ENERGY PREDICTED BY IDOCK:   -2.78 KCAL/MOL
REMARK 923 INTER-LIGAND FREE ENERGY PREDICTED BY IDOCK:   -2.76 KCAL/MOL
REMARK 924 INTRA-LIGAND FREE ENERGY PREDICTED BY IDOCK:   -0.02 KCAL/MOL
REMARK 927      BINDING AFFINITY PREDICTED BY RF-SCORE:    0.00 PKD
ROOT
HETATM    1  C   UNL     1     -11.791  12.436  66.226  1.00  0.00    -0.364 C  
HETATM    2  O   UNL     1     -10.598  12.866  66.872  1.00  0.00    -0.250 OA 
ENDROOT
BRANCH   2   3
HETATM    3  C   UNL     1     -10.593  14.140  67.371  1.00  0.00    -0.279 A  
HETATM    4  C   UNL     1     -10.488  15.314  66.621  1.00  0.00    -0.290 A  
HETATM    5  C   UNL     1     -10.488  16.559  67.258  1.00  0.00    -0.304 A  
HETATM    6  C   UNL     1     -10.593  16.623  68.643  1.00  0.00    -0.337 A  
HETATM    7  C   UNL     1     -10.708  15.465  69.400  1.00  0.00    -0.258 A  
HETATM    8  O   UNL     1     -10.584  17.816  69.303  1.00  0.00    -0.416 OA 
HETATM    9  H   UNL     1     -10.656  17.860  70.249  1.00  0.00     0.000 HD 
HETATM   10  C   UNL     1     -10.708  14.223  68.762  1.00  0.00    -0.262 A  
ENDBRANCH   2   3
TORSDOF 1
ENDMDL
MODEL       93
REMARK 921   NORMALIZED FREE ENERGY PREDICTED BY IDOCK:   -2.60 KCAL/MOL
REMARK 922        TOTAL FREE ENERGY PREDICTED BY IDOCK:   -2.78 KCAL/MOL
REMARK 923 INTER-LIGAND FREE ENERGY PREDICTED BY IDOCK:   -2.74 KCAL/MOL
REMARK 924 INTRA-LIGAND FREE ENERGY PREDICTED BY IDOCK:   -0.04 KCAL/MOL
REMARK 927      BINDING AFFINITY PREDICTED BY RF-SCORE:    0.00 PKD
ROOT
HETATM    1  C   UNL     1     -10.935   6.817  67.319  1.00  0.00    -0.363 C  
HETATM    2  O   UNL     1     -10.348   7.734  68.236  1.00  0.00    -0.197 OA 
ENDROOT
BRANCH   2   3
HETATM    3  C   UNL     1     -10.588   7.515  69.565  1.00  0.00    -0.236 A  
HETATM    4  C   UNL     1     -10.855   8.496  70.523  1.00  0.00    -0.252 A  
HETATM    5  C   UNL     1     -11.076   8.138  71.856  1.00  0.00    -0.346 A  
HETATM    6  C   UNL     1     -11.031   6.797  72.225  1.00  0.00    -0.243 A  
HETATM    7  C   UNL     1     -10.778   5.811  71.281  1.00  0.00    -0.323 A  
HETATM    8  O   UNL     1     -11.230   6.407  73.516  1.00  0.00    -0.454 OA 
HETATM    9  H   UNL     1     -11.199   5.492  73.767  1.00  0.00     0.000 HD 
HETATM   10  C   UNL     1     -10.557   6.172  69.951  1.00  0.00    -0.328 A  
ENDBRANCH   2   3
TORSDOF 1
ENDMDL
MODEL       94
REMARK 921   NORMALIZED FREE ENERGY PREDICTED BY IDOCK:   -2.60 KCAL/MOL
REMARK 922        TOTAL FREE ENERGY PREDICTED BY IDOCK:   -2.78 KCAL/MOL
REMARK 923 INTER-LIGAND FREE ENERGY PREDICTED BY IDOCK:   -2.74 KCAL/MOL
REMARK 924 INTRA-LIGAND FREE ENERGY PREDICTED BY IDOCK:   -0.04 KCAL/MOL
REMARK 927      BINDING AFFINITY PREDICTED BY RF-SCORE:    0.00 PKD
ROOT
HETATM    1  C   UNL     1     -10.274   7.290  67.578  1.00  0.00    -0.221 C  
HETATM    2  O   UNL     1      -9.582   8.084  66.621  1.00  0.00    -0.197 OA 
ENDROOT
BRANCH   2   3
HETATM    3  C   UNL     1     -10.038   9.360  66.434  1.00  0.00    -0.262 A  
HETATM    4  C   UNL     1      -9.892  10.120  65.271  1.00  0.00    -0.388 A  
HETATM    5  C   UNL     1     -10.401  11.422  65.212  1.00  0.00    -0.336 A  
HETATM    6  C   UNL     1     -11.055  11.956  66.317  1.00  0.00    -0.314 A  
HETATM    7  C   UNL     1     -11.216  11.207  67.475  1.00  0.00    -0.369 A  
HETATM    8  O   UNL     1     -11.555  13.224  66.304  1.00  0.00    -0.318 OA 
HETATM    9  H   UNL     1     -12.002  13.589  67.059  1.00  0.00     0.000 HD 
HETATM   10  C   UNL     1     -10.707   9.909  67.532  1.00  0.00    -0.333 A  
ENDBRANCH   2   3
TORSDOF 1
ENDMDL
MODEL       95
REMARK 921   NORMALIZED FREE ENERGY PREDICTED BY IDOCK:   -2.59 KCAL/MOL
REMARK 922        TOTAL FREE ENERGY PREDICTED BY IDOCK:   -2.77 KCAL/MOL
REMARK 923 INTER-LIGAND FREE ENERGY PREDICTED BY IDOCK:   -2.74 KCAL/MOL
REMARK 924 INTRA-LIGAND FREE ENERGY PREDICTED BY IDOCK:   -0.03 KCAL/MOL
REMARK 927      BINDING AFFINITY PREDICTED BY RF-SCORE:    0.00 PKD
ROOT
HETATM    1  C   UNL     1     -11.396  15.004  69.203  1.00  0.00    -0.296 C  
HETATM    2  O   UNL     1     -11.340  16.399  68.933  1.00  0.00    -0.332 OA 
ENDROOT
BRANCH   2   3
HETATM    3  C   UNL     1     -10.096  16.951  68.797  1.00  0.00    -0.295 A  
HETATM    4  C   UNL     1      -8.880  16.277  68.940  1.00  0.00    -0.253 A  
HETATM    5  C   UNL     1      -7.671  16.963  68.782  1.00  0.00    -0.247 A  
HETATM    6  C   UNL     1      -7.686  18.320  68.480  1.00  0.00    -0.305 A  
HETATM    7  C   UNL     1      -8.886  19.000  68.324  1.00  0.00    -0.370 A  
HETATM    8  O   UNL     1      -6.530  19.027  68.329  1.00  0.00    -0.226 OA 
HETATM    9  H   UNL     1      -6.539  19.955  68.123  1.00  0.00     0.000 HD 
HETATM   10  C   UNL     1     -10.091  18.313  68.484  1.00  0.00    -0.419 A  
ENDBRANCH   2   3
TORSDOF 1
ENDMDL
MODEL       96
REMARK 921   NORMALIZED FREE ENERGY PREDICTED BY IDOCK:   -2.58 KCAL/MOL
REMARK 922        TOTAL FREE ENERGY PREDICTED BY IDOCK:   -2.76 KCAL/MOL
REMARK 923 INTER-LIGAND FREE ENERGY PREDICTED BY IDOCK:   -2.72 KCAL/MOL
REMARK 924 INTRA-LIGAND FREE ENERGY PREDICTED BY IDOCK:   -0.04 KCAL/MOL
REMARK 927      BINDING AFFINITY PREDICTED BY RF-SCORE:    0.00 PKD
ROOT
HETATM    1  C   UNL     1      -8.692   2.861  70.395  1.00  0.00    -0.070 C  
HETATM    2  O   UNL     1      -9.006   3.588  71.576  1.00  0.00    -0.094 OA 
ENDROOT
BRANCH   2   3
HETATM    3  C   UNL     1      -9.935   4.585  71.457  1.00  0.00    -0.189 A  
HETATM    4  C   UNL     1     -10.621   5.196  72.509  1.00  0.00    -0.275 A  
HETATM    5  C   UNL     1     -11.556   6.203  72.250  1.00  0.00    -0.362 A  
HETATM    6  C   UNL     1     -11.799   6.595  70.938  1.00  0.00    -0.377 A  
HETATM    7  C   UNL     1     -11.116   6.004  69.884  1.00  0.00    -0.469 A  
HETATM    8  O   UNL     1     -12.710   7.565  70.642  1.00  0.00    -0.554 OA 
HETATM    9  H   UNL     1     -12.876   7.833  69.746  1.00  0.00     0.000 HD 
HETATM   10  C   UNL     1     -10.183   4.999  70.145  1.00  0.00    -0.329 A  
ENDBRANCH   2   3
TORSDOF 1
ENDMDL
MODEL       97
REMARK 921   NORMALIZED FREE ENERGY PREDICTED BY IDOCK:   -2.58 KCAL/MOL
REMARK 922        TOTAL FREE ENERGY PREDICTED BY IDOCK:   -2.75 KCAL/MOL
REMARK 923 INTER-LIGAND FREE ENERGY PREDICTED BY IDOCK:   -2.73 KCAL/MOL
REMARK 924 INTRA-LIGAND FREE ENERGY PREDICTED BY IDOCK:   -0.03 KCAL/MOL
REMARK 927      BINDING AFFINITY PREDICTED BY RF-SCORE:    0.00 PKD
ROOT
HETATM    1  C   UNL     1      -9.749   4.175  67.432  1.00  0.00    -0.154 C  
HETATM    2  O   UNL     1      -9.459   4.036  68.818  1.00  0.00    -0.153 OA 
ENDROOT
BRANCH   2   3
HETATM    3  C   UNL     1     -10.133   4.862  69.675  1.00  0.00    -0.230 A  
HETATM    4  C   UNL     1     -11.033   5.865  69.308  1.00  0.00    -0.397 A  
HETATM    5  C   UNL     1     -11.653   6.649  70.287  1.00  0.00    -0.454 A  
HETATM    6  C   UNL     1     -11.369   6.424  71.629  1.00  0.00    -0.289 A  
HETATM    7  C   UNL     1     -10.485   5.423  72.009  1.00  0.00    -0.278 A  
HETATM    8  O   UNL     1     -11.943   7.173  72.613  1.00  0.00    -0.503 OA 
HETATM    9  H   UNL     1     -11.749   7.019  73.530  1.00  0.00     0.000 HD 
HETATM   10  C   UNL     1      -9.867   4.643  71.030  1.00  0.00    -0.268 A  
ENDBRANCH   2   3
TORSDOF 1
ENDMDL
MODEL       98
REMARK 921   NORMALIZED FREE ENERGY PREDICTED BY IDOCK:   -2.55 KCAL/MOL
REMARK 922        TOTAL FREE ENERGY PREDICTED BY IDOCK:   -2.72 KCAL/MOL
REMARK 923 INTER-LIGAND FREE ENERGY PREDICTED BY IDOCK:   -2.70 KCAL/MOL
REMARK 924 INTRA-LIGAND FREE ENERGY PREDICTED BY IDOCK:   -0.03 KCAL/MOL
REMARK 927      BINDING AFFINITY PREDICTED BY RF-SCORE:    0.00 PKD
ROOT
HETATM    1  C   UNL     1      -9.826  15.040  66.417  1.00  0.00    -0.272 C  
HETATM    2  O   UNL     1      -9.751  13.636  66.194  1.00  0.00    -0.285 OA 
ENDROOT
BRANCH   2   3
HETATM    3  C   UNL     1     -10.320  12.831  67.142  1.00  0.00    -0.233 A  
HETATM    4  C   UNL     1     -10.584  13.185  68.468  1.00  0.00    -0.274 A  
HETATM    5  C   UNL     1     -11.165  12.261  69.342  1.00  0.00    -0.243 A  
HETATM    6  C   UNL     1     -11.481  10.986  68.884  1.00  0.00    -0.296 A  
HETATM    7  C   UNL     1     -11.234  10.624  67.567  1.00  0.00    -0.326 A  
HETATM    8  O   UNL     1     -12.038  10.052  69.707  1.00  0.00    -0.475 OA 
HETATM    9  H   UNL     1     -12.253   9.182  69.394  1.00  0.00     0.000 HD 
HETATM   10  C   UNL     1     -10.653  11.548  66.696  1.00  0.00    -0.294 A  
ENDBRANCH   2   3
TORSDOF 1
ENDMDL
MODEL       99
REMARK 921   NORMALIZED FREE ENERGY PREDICTED BY IDOCK:   -2.54 KCAL/MOL
REMARK 922        TOTAL FREE ENERGY PREDICTED BY IDOCK:   -2.72 KCAL/MOL
REMARK 923 INTER-LIGAND FREE ENERGY PREDICTED BY IDOCK:   -2.69 KCAL/MOL
REMARK 924 INTRA-LIGAND FREE ENERGY PREDICTED BY IDOCK:   -0.03 KCAL/MOL
REMARK 927      BINDING AFFINITY PREDICTED BY RF-SCORE:    0.00 PKD
ROOT
HETATM    1  C   UNL     1      -8.115  15.554  68.519  1.00  0.00    -0.146 C  
HETATM    2  O   UNL     1      -8.865  16.303  67.571  1.00  0.00    -0.184 OA 
ENDROOT
BRANCH   2   3
HETATM    3  C   UNL     1      -8.367  17.527  67.220  1.00  0.00    -0.213 A  
HETATM    4  C   UNL     1      -7.777  17.852  65.996  1.00  0.00    -0.216 A  
HETATM    5  C   UNL     1      -7.299  19.147  65.766  1.00  0.00    -0.247 A  
HETATM    6  C   UNL     1      -7.416  20.110  66.762  1.00  0.00    -0.279 A  
HETATM    7  C   UNL     1      -8.009  19.804  67.979  1.00  0.00    -0.337 A  
HETATM    8  O   UNL     1      -6.952  21.380  66.582  1.00  0.00    -0.732 OA 
HETATM    9  H   UNL     1      -7.031  22.038  67.262  1.00  0.00     0.000 HD 
HETATM   10  C   UNL     1      -8.485  18.511  68.206  1.00  0.00    -0.341 A  
ENDBRANCH   2   3
TORSDOF 1
ENDMDL
MODEL      100
REMARK 921   NORMALIZED FREE ENERGY PREDICTED BY IDOCK:   -2.54 KCAL/MOL
REMARK 922        TOTAL FREE ENERGY PREDICTED BY IDOCK:   -2.72 KCAL/MOL
REMARK 923 INTER-LIGAND FREE ENERGY PREDICTED BY IDOCK:   -2.68 KCAL/MOL
REMARK 924 INTRA-LIGAND FREE ENERGY PREDICTED BY IDOCK:   -0.04 KCAL/MOL
REMARK 927      BINDING AFFINITY PREDICTED BY RF-SCORE:    0.00 PKD
ROOT
HETATM    1  C   UNL     1     -11.211  15.404  68.697  1.00  0.00    -0.308 C  
HETATM    2  O   UNL     1     -10.065  14.624  68.377  1.00  0.00    -0.224 OA 
ENDROOT
BRANCH   2   3
HETATM    3  C   UNL     1     -10.273  13.292  68.142  1.00  0.00    -0.243 A  
HETATM    4  C   UNL     1      -9.600  12.511  67.200  1.00  0.00    -0.208 A  
HETATM    5  C   UNL     1      -9.915  11.156  67.054  1.00  0.00    -0.223 A  
HETATM    6  C   UNL     1     -10.900  10.589  67.855  1.00  0.00    -0.282 A  
HETATM    7  C   UNL     1     -11.569  11.351  68.803  1.00  0.00    -0.378 A  
HETATM    8  O   UNL     1     -11.244   9.275  67.736  1.00  0.00    -0.484 OA 
HETATM    9  H   UNL     1     -11.918   8.887  68.282  1.00  0.00     0.000 HD 
HETATM   10  C   UNL     1     -11.254  12.703  68.946  1.00  0.00    -0.329 A  
ENDBRANCH   2   3
TORSDOF 1
ENDMDL
MODEL      101
REMARK 921   NORMALIZED FREE ENERGY PREDICTED BY IDOCK:   -2.54 KCAL/MOL
REMARK 922        TOTAL FREE ENERGY PREDICTED BY IDOCK:   -2.71 KCAL/MOL
REMARK 923 INTER-LIGAND FREE ENERGY PREDICTED BY IDOCK:   -2.69 KCAL/MOL
REMARK 924 INTRA-LIGAND FREE ENERGY PREDICTED BY IDOCK:   -0.02 KCAL/MOL
REMARK 927      BINDING AFFINITY PREDICTED BY RF-SCORE:    0.00 PKD
ROOT
HETATM    1  C   UNL     1     -10.728   7.220  73.217  1.00  0.00    -0.383 C  
HETATM    2  O   UNL     1     -11.609   6.908  72.144  1.00  0.00    -0.268 OA 
ENDROOT
BRANCH   2   3
HETATM    3  C   UNL     1     -11.182   7.230  70.884  1.00  0.00    -0.272 A  
HETATM    4  C   UNL     1     -10.571   8.428  70.507  1.00  0.00    -0.236 A  
HETATM    5  C   UNL     1     -10.188   8.636  69.177  1.00  0.00    -0.215 A  
HETATM    6  C   UNL     1     -10.418   7.642  68.232  1.00  0.00    -0.174 A  
HETATM    7  C   UNL     1     -11.015   6.442  68.596  1.00  0.00    -0.404 A  
HETATM    8  O   UNL     1     -10.070   7.809  66.925  1.00  0.00    -0.236 OA 
HETATM    9  H   UNL     1     -10.227   7.130  66.279  1.00  0.00     0.000 HD 
HETATM   10  C   UNL     1     -11.397   6.238  69.923  1.00  0.00    -0.504 A  
ENDBRANCH   2   3
TORSDOF 1
ENDMDL
MODEL      102
REMARK 921   NORMALIZED FREE ENERGY PREDICTED BY IDOCK:   -2.53 KCAL/MOL
REMARK 922        TOTAL FREE ENERGY PREDICTED BY IDOCK:   -2.71 KCAL/MOL
REMARK 923 INTER-LIGAND FREE ENERGY PREDICTED BY IDOCK:   -2.67 KCAL/MOL
REMARK 924 INTRA-LIGAND FREE ENERGY PREDICTED BY IDOCK:   -0.04 KCAL/MOL
REMARK 927      BINDING AFFINITY PREDICTED BY RF-SCORE:    0.00 PKD
ROOT
HETATM    1  C   UNL     1     -12.127  10.981  70.429  1.00  0.00    -0.373 C  
HETATM    2  O   UNL     1     -11.749  12.240  69.886  1.00  0.00    -0.309 OA 
ENDROOT
BRANCH   2   3
HETATM    3  C   UNL     1     -11.088  12.221  68.689  1.00  0.00    -0.249 A  
HETATM    4  C   UNL     1     -10.048  13.074  68.312  1.00  0.00    -0.239 A  
HETATM    5  C   UNL     1      -9.459  12.953  67.049  1.00  0.00    -0.235 A  
HETATM    6  C   UNL     1      -9.914  11.977  66.169  1.00  0.00    -0.231 A  
HETATM    7  C   UNL     1     -10.939  11.115  66.534  1.00  0.00    -0.270 A  
HETATM    8  O   UNL     1      -9.374  11.834  64.925  1.00  0.00    -0.417 OA 
HETATM    9  H   UNL     1      -9.685  11.167  64.324  1.00  0.00     0.000 HD 
HETATM   10  C   UNL     1     -11.525  11.238  67.795  1.00  0.00    -0.350 A  
ENDBRANCH   2   3
TORSDOF 1
ENDMDL
MODEL      103
REMARK 921   NORMALIZED FREE ENERGY PREDICTED BY IDOCK:   -2.50 KCAL/MOL
REMARK 922        TOTAL FREE ENERGY PREDICTED BY IDOCK:   -2.68 KCAL/MOL
REMARK 923 INTER-LIGAND FREE ENERGY PREDICTED BY IDOCK:   -2.65 KCAL/MOL
REMARK 924 INTRA-LIGAND FREE ENERGY PREDICTED BY IDOCK:   -0.03 KCAL/MOL
REMARK 927      BINDING AFFINITY PREDICTED BY RF-SCORE:    0.00 PKD
ROOT
HETATM    1  C   UNL     1      -7.664  18.035  68.016  1.00  0.00    -0.250 C  
HETATM    2  O   UNL     1      -8.305  16.984  67.303  1.00  0.00    -0.180 OA 
ENDROOT
BRANCH   2   3
HETATM    3  C   UNL     1      -9.346  16.359  67.933  1.00  0.00    -0.214 A  
HETATM    4  C   UNL     1      -9.513  16.234  69.315  1.00  0.00    -0.202 A  
HETATM    5  C   UNL     1     -10.624  15.560  69.832  1.00  0.00    -0.322 A  
HETATM    6  C   UNL     1     -11.565  15.017  68.964  1.00  0.00    -0.319 A  
HETATM    7  C   UNL     1     -11.418  15.143  67.589  1.00  0.00    -0.319 A  
HETATM    8  O   UNL     1     -12.656  14.343  69.428  1.00  0.00    -0.553 OA 
HETATM    9  H   UNL     1     -13.298  13.972  68.835  1.00  0.00     0.000 HD 
HETATM   10  C   UNL     1     -10.307  15.815  67.075  1.00  0.00    -0.292 A  
ENDBRANCH   2   3
TORSDOF 1
ENDMDL
MODEL      104
REMARK 921   NORMALIZED FREE ENERGY PREDICTED BY IDOCK:   -2.48 KCAL/MOL
REMARK 922        TOTAL FREE ENERGY PREDICTED BY IDOCK:   -2.65 KCAL/MOL
REMARK 923 INTER-LIGAND FREE ENERGY PREDICTED BY IDOCK:   -2.63 KCAL/MOL
REMARK 924 INTRA-LIGAND FREE ENERGY PREDICTED BY IDOCK:   -0.02 KCAL/MOL
REMARK 927      BINDING AFFINITY PREDICTED BY RF-SCORE:    0.00 PKD
ROOT
HETATM    1  C   UNL     1     -11.466  10.962  70.103  1.00  0.00    -0.319 C  
HETATM    2  O   UNL     1     -10.277  10.363  69.601  1.00  0.00    -0.232 OA 
ENDROOT
BRANCH   2   3
HETATM    3  C   UNL     1     -10.426   9.208  68.882  1.00  0.00    -0.218 A  
HETATM    4  C   UNL     1     -10.552   7.922  69.413  1.00  0.00    -0.209 A  
HETATM    5  C   UNL     1     -10.690   6.820  68.563  1.00  0.00    -0.280 A  
HETATM    6  C   UNL     1     -10.703   7.010  67.185  1.00  0.00    -0.363 A  
HETATM    7  C   UNL     1     -10.589   8.284  66.645  1.00  0.00    -0.085 A  
HETATM    8  O   UNL     1     -10.824   5.961  66.323  1.00  0.00    -0.583 OA 
HETATM    9  H   UNL     1     -10.833   6.091  65.383  1.00  0.00     0.000 HD 
HETATM   10  C   UNL     1     -10.451   9.383  67.495  1.00  0.00    -0.343 A  
ENDBRANCH   2   3
TORSDOF 1
ENDMDL
MODEL      105
REMARK 921   NORMALIZED FREE ENERGY PREDICTED BY IDOCK:   -2.48 KCAL/MOL
REMARK 922        TOTAL FREE ENERGY PREDICTED BY IDOCK:   -2.65 KCAL/MOL
REMARK 923 INTER-LIGAND FREE ENERGY PREDICTED BY IDOCK:   -2.62 KCAL/MOL
REMARK 924 INTRA-LIGAND FREE ENERGY PREDICTED BY IDOCK:   -0.04 KCAL/MOL
REMARK 927      BINDING AFFINITY PREDICTED BY RF-SCORE:    0.00 PKD
ROOT
HETATM    1  C   UNL     1     -11.034   6.240  67.947  1.00  0.00    -0.327 C  
HETATM    2  O   UNL     1      -9.984   5.654  68.708  1.00  0.00    -0.144 OA 
ENDROOT
BRANCH   2   3
HETATM    3  C   UNL     1     -10.242   5.411  70.029  1.00  0.00    -0.279 A  
HETATM    4  C   UNL     1      -9.855   4.276  70.745  1.00  0.00    -0.265 A  
HETATM    5  C   UNL     1     -10.191   4.146  72.097  1.00  0.00    -0.220 A  
HETATM    6  C   UNL     1     -10.913   5.155  72.725  1.00  0.00    -0.267 A  
HETATM    7  C   UNL     1     -11.295   6.293  72.029  1.00  0.00    -0.348 A  
HETATM    8  O   UNL     1     -11.270   5.061  74.038  1.00  0.00    -0.410 OA 
HETATM    9  H   UNL     1     -11.764   5.750  74.467  1.00  0.00     0.000 HD 
HETATM   10  C   UNL     1     -10.959   6.420  70.680  1.00  0.00    -0.355 A  
ENDBRANCH   2   3
TORSDOF 1
ENDMDL
MODEL      106
REMARK 921   NORMALIZED FREE ENERGY PREDICTED BY IDOCK:   -2.45 KCAL/MOL
REMARK 922        TOTAL FREE ENERGY PREDICTED BY IDOCK:   -2.62 KCAL/MOL
REMARK 923 INTER-LIGAND FREE ENERGY PREDICTED BY IDOCK:   -2.60 KCAL/MOL
REMARK 924 INTRA-LIGAND FREE ENERGY PREDICTED BY IDOCK:   -0.02 KCAL/MOL
REMARK 927      BINDING AFFINITY PREDICTED BY RF-SCORE:    0.00 PKD
ROOT
HETATM    1  C   UNL     1     -11.842  14.474  69.197  1.00  0.00    -0.319 C  
HETATM    2  O   UNL     1     -10.441  14.357  68.974  1.00  0.00    -0.239 OA 
ENDROOT
BRANCH   2   3
HETATM    3  C   UNL     1      -9.885  15.231  68.081  1.00  0.00    -0.217 A  
HETATM    4  C   UNL     1      -9.656  14.983  66.725  1.00  0.00    -0.260 A  
HETATM    5  C   UNL     1      -9.070  15.964  65.918  1.00  0.00    -0.304 A  
HETATM    6  C   UNL     1      -8.718  17.190  66.473  1.00  0.00    -0.261 A  
HETATM    7  C   UNL     1      -8.949  17.454  67.816  1.00  0.00    -0.236 A  
HETATM    8  O   UNL     1      -8.134  18.168  65.723  1.00  0.00    -0.520 OA 
HETATM    9  H   UNL     1      -7.893  19.005  66.102  1.00  0.00     0.000 HD 
HETATM   10  C   UNL     1      -9.533  16.473  68.619  1.00  0.00    -0.243 A  
ENDBRANCH   2   3
TORSDOF 1
ENDMDL
MODEL      107
REMARK 921   NORMALIZED FREE ENERGY PREDICTED BY IDOCK:   -2.45 KCAL/MOL
REMARK 922        TOTAL FREE ENERGY PREDICTED BY IDOCK:   -2.62 KCAL/MOL
REMARK 923 INTER-LIGAND FREE ENERGY PREDICTED BY IDOCK:   -2.57 KCAL/MOL
REMARK 924 INTRA-LIGAND FREE ENERGY PREDICTED BY IDOCK:   -0.04 KCAL/MOL
REMARK 927      BINDING AFFINITY PREDICTED BY RF-SCORE:    0.00 PKD
ROOT
HETATM    1  C   UNL     1      -9.831  19.439  68.765  1.00  0.00    -0.456 C  
HETATM    2  O   UNL     1      -9.267  18.334  68.068  1.00  0.00    -0.277 OA 
ENDROOT
BRANCH   2   3
HETATM    3  C   UNL     1      -8.268  18.613  67.176  1.00  0.00    -0.252 A  
HETATM    4  C   UNL     1      -7.534  17.675  66.446  1.00  0.00    -0.324 A  
HETATM    5  C   UNL     1      -6.529  18.094  65.569  1.00  0.00    -0.235 A  
HETATM    6  C   UNL     1      -6.264  19.452  65.425  1.00  0.00    -0.246 A  
HETATM    7  C   UNL     1      -6.993  20.396  66.135  1.00  0.00    -0.282 A  
HETATM    8  O   UNL     1      -5.285  19.900  64.588  1.00  0.00    -0.155 OA 
HETATM    9  H   UNL     1      -5.104  20.828  64.490  1.00  0.00     0.000 HD 
HETATM   10  C   UNL     1      -7.995  19.975  67.011  1.00  0.00    -0.350 A  
ENDBRANCH   2   3
TORSDOF 1
ENDMDL
MODEL      108
REMARK 921   NORMALIZED FREE ENERGY PREDICTED BY IDOCK:   -2.44 KCAL/MOL
REMARK 922        TOTAL FREE ENERGY PREDICTED BY IDOCK:   -2.61 KCAL/MOL
REMARK 923 INTER-LIGAND FREE ENERGY PREDICTED BY IDOCK:   -2.59 KCAL/MOL
REMARK 924 INTRA-LIGAND FREE ENERGY PREDICTED BY IDOCK:   -0.02 KCAL/MOL
REMARK 927      BINDING AFFINITY PREDICTED BY RF-SCORE:    0.00 PKD
ROOT
HETATM    1  C   UNL     1     -10.514  15.089  64.895  1.00  0.00    -0.337 C  
HETATM    2  O   UNL     1     -10.407  16.439  65.330  1.00  0.00    -0.581 OA 
ENDROOT
BRANCH   2   3
HETATM    3  C   UNL     1      -9.426  16.716  66.242  1.00  0.00    -0.293 A  
HETATM    4  C   UNL     1      -8.077  16.935  65.955  1.00  0.00    -0.164 A  
HETATM    5  C   UNL     1      -7.171  17.203  66.987  1.00  0.00    -0.219 A  
HETATM    6  C   UNL     1      -7.621  17.251  68.302  1.00  0.00    -0.227 A  
HETATM    7  C   UNL     1      -8.961  17.046  68.601  1.00  0.00    -0.267 A  
HETATM    8  O   UNL     1      -6.769  17.498  69.337  1.00  0.00    -0.246 OA 
HETATM    9  H   UNL     1      -7.076  17.531  70.235  1.00  0.00     0.000 HD 
HETATM   10  C   UNL     1      -9.863  16.779  67.569  1.00  0.00    -0.255 A  
ENDBRANCH   2   3
TORSDOF 1
ENDMDL
MODEL      109
REMARK 921   NORMALIZED FREE ENERGY PREDICTED BY IDOCK:   -2.44 KCAL/MOL
REMARK 922        TOTAL FREE ENERGY PREDICTED BY IDOCK:   -2.61 KCAL/MOL
REMARK 923 INTER-LIGAND FREE ENERGY PREDICTED BY IDOCK:   -2.57 KCAL/MOL
REMARK 924 INTRA-LIGAND FREE ENERGY PREDICTED BY IDOCK:   -0.03 KCAL/MOL
REMARK 927      BINDING AFFINITY PREDICTED BY RF-SCORE:    0.00 PKD
ROOT
HETATM    1  C   UNL     1      -6.382  17.192  69.757  1.00  0.00    -0.152 C  
HETATM    2  O   UNL     1      -7.202  16.508  68.817  1.00  0.00    -0.172 OA 
ENDROOT
BRANCH   2   3
HETATM    3  C   UNL     1      -8.125  17.260  68.143  1.00  0.00    -0.229 A  
HETATM    4  C   UNL     1      -9.492  16.988  68.048  1.00  0.00    -0.256 A  
HETATM    5  C   UNL     1     -10.331  17.838  67.318  1.00  0.00    -0.364 A  
HETATM    6  C   UNL     1      -9.796  18.957  66.688  1.00  0.00    -0.358 A  
HETATM    7  C   UNL     1      -8.441  19.245  66.784  1.00  0.00    -0.321 A  
HETATM    8  O   UNL     1     -10.577  19.803  65.958  1.00  0.00    -0.495 OA 
HETATM    9  H   UNL     1     -10.212  20.567  65.528  1.00  0.00     0.000 HD 
HETATM   10  C   UNL     1      -7.607  18.395  67.512  1.00  0.00    -0.226 A  
ENDBRANCH   2   3
TORSDOF 1
ENDMDL
MODEL      110
REMARK 921   NORMALIZED FREE ENERGY PREDICTED BY IDOCK:   -2.38 KCAL/MOL
REMARK 922        TOTAL FREE ENERGY PREDICTED BY IDOCK:   -2.55 KCAL/MOL
REMARK 923 INTER-LIGAND FREE ENERGY PREDICTED BY IDOCK:   -2.52 KCAL/MOL
REMARK 924 INTRA-LIGAND FREE ENERGY PREDICTED BY IDOCK:   -0.03 KCAL/MOL
REMARK 927      BINDING AFFINITY PREDICTED BY RF-SCORE:    0.00 PKD
ROOT
HETATM    1  C   UNL     1      -9.889  19.502  68.120  1.00  0.00    -0.407 C  
HETATM    2  O   UNL     1      -8.536  19.129  68.353  1.00  0.00    -0.323 OA 
ENDROOT
BRANCH   2   3
HETATM    3  C   UNL     1      -8.304  17.821  68.676  1.00  0.00    -0.273 A  
HETATM    4  C   UNL     1      -9.266  16.810  68.742  1.00  0.00    -0.260 A  
HETATM    5  C   UNL     1      -8.897  15.507  69.095  1.00  0.00    -0.253 A  
HETATM    6  C   UNL     1      -7.565  15.223  69.378  1.00  0.00    -0.219 A  
HETATM    7  C   UNL     1      -6.597  16.215  69.305  1.00  0.00    -0.189 A  
HETATM    8  O   UNL     1      -7.166  13.969  69.736  1.00  0.00    -0.345 OA 
HETATM    9  H   UNL     1      -6.257  13.775  69.929  1.00  0.00     0.000 HD 
HETATM   10  C   UNL     1      -6.969  17.515  68.954  1.00  0.00    -0.252 A  
ENDBRANCH   2   3
TORSDOF 1
ENDMDL
MODEL      111
REMARK 921   NORMALIZED FREE ENERGY PREDICTED BY IDOCK:   -2.38 KCAL/MOL
REMARK 922        TOTAL FREE ENERGY PREDICTED BY IDOCK:   -2.55 KCAL/MOL
REMARK 923 INTER-LIGAND FREE ENERGY PREDICTED BY IDOCK:   -2.52 KCAL/MOL
REMARK 924 INTRA-LIGAND FREE ENERGY PREDICTED BY IDOCK:   -0.02 KCAL/MOL
REMARK 927      BINDING AFFINITY PREDICTED BY RF-SCORE:    0.00 PKD
ROOT
HETATM    1  C   UNL     1      -7.313   4.756  66.128  1.00  0.00    -0.078 C  
HETATM    2  O   UNL     1      -8.626   4.232  66.289  1.00  0.00    -0.112 OA 
ENDROOT
BRANCH   2   3
HETATM    3  C   UNL     1      -9.409   4.818  67.246  1.00  0.00    -0.136 A  
HETATM    4  C   UNL     1      -9.502   4.425  68.583  1.00  0.00    -0.219 A  
HETATM    5  C   UNL     1     -10.351   5.107  69.461  1.00  0.00    -0.292 A  
HETATM    6  C   UNL     1     -11.103   6.180  68.996  1.00  0.00    -0.367 A  
HETATM    7  C   UNL     1     -11.013   6.588  67.672  1.00  0.00    -0.426 A  
HETATM    8  O   UNL     1     -11.951   6.863  69.816  1.00  0.00    -0.625 OA 
HETATM    9  H   UNL     1     -12.465   7.596  69.499  1.00  0.00     0.000 HD 
HETATM   10  C   UNL     1     -10.165   5.905  66.798  1.00  0.00    -0.269 A  
ENDBRANCH   2   3
TORSDOF 1
ENDMDL
MODEL      112
REMARK 921   NORMALIZED FREE ENERGY PREDICTED BY IDOCK:   -2.37 KCAL/MOL
REMARK 922        TOTAL FREE ENERGY PREDICTED BY IDOCK:   -2.53 KCAL/MOL
REMARK 923 INTER-LIGAND FREE ENERGY PREDICTED BY IDOCK:   -2.50 KCAL/MOL
REMARK 924 INTRA-LIGAND FREE ENERGY PREDICTED BY IDOCK:   -0.03 KCAL/MOL
REMARK 927      BINDING AFFINITY PREDICTED BY RF-SCORE:    0.00 PKD
ROOT
HETATM    1  C   UNL     1      -8.294   4.543  65.442  1.00  0.00    -0.117 C  
HETATM    2  O   UNL     1      -8.455   4.177  66.807  1.00  0.00    -0.104 OA 
ENDROOT
BRANCH   2   3
HETATM    3  C   UNL     1      -9.401   4.861  67.521  1.00  0.00    -0.133 A  
HETATM    4  C   UNL     1     -10.336   5.755  66.996  1.00  0.00    -0.303 A  
HETATM    5  C   UNL     1     -11.248   6.397  67.840  1.00  0.00    -0.262 A  
HETATM    6  C   UNL     1     -11.220   6.139  69.206  1.00  0.00    -0.367 A  
HETATM    7  C   UNL     1     -10.303   5.244  69.740  1.00  0.00    -0.369 A  
HETATM    8  O   UNL     1     -12.084   6.753  70.064  1.00  0.00    -0.650 OA 
HETATM    9  H   UNL     1     -12.065   6.577  70.997  1.00  0.00     0.000 HD 
HETATM   10  C   UNL     1      -9.393   4.605  68.896  1.00  0.00    -0.200 A  
ENDBRANCH   2   3
TORSDOF 1
ENDMDL
MODEL      113
REMARK 921   NORMALIZED FREE ENERGY PREDICTED BY IDOCK:   -2.36 KCAL/MOL
REMARK 922        TOTAL FREE ENERGY PREDICTED BY IDOCK:   -2.53 KCAL/MOL
REMARK 923 INTER-LIGAND FREE ENERGY PREDICTED BY IDOCK:   -2.49 KCAL/MOL
REMARK 924 INTRA-LIGAND FREE ENERGY PREDICTED BY IDOCK:   -0.04 KCAL/MOL
REMARK 927      BINDING AFFINITY PREDICTED BY RF-SCORE:    0.00 PKD
ROOT
HETATM    1  C   UNL     1      -6.793  15.441  68.669  1.00  0.00    -0.106 C  
HETATM    2  O   UNL     1      -7.654  14.348  68.372  1.00  0.00    -0.107 OA 
ENDROOT
BRANCH   2   3
HETATM    3  C   UNL     1      -8.977  14.505  68.680  1.00  0.00    -0.181 A  
HETATM    4  C   UNL     1     -10.013  13.643  68.312  1.00  0.00    -0.236 A  
HETATM    5  C   UNL     1     -11.331  13.924  68.687  1.00  0.00    -0.310 A  
HETATM    6  C   UNL     1     -11.606  15.068  69.429  1.00  0.00    -0.315 A  
HETATM    7  C   UNL     1     -10.585  15.928  69.811  1.00  0.00    -0.322 A  
HETATM    8  O   UNL     1     -12.878  15.384  69.804  1.00  0.00    -0.628 OA 
HETATM    9  H   UNL     1     -13.066  16.165  70.311  1.00  0.00     0.000 HD 
HETATM   10  C   UNL     1      -9.271  15.645  69.435  1.00  0.00    -0.279 A  
ENDBRANCH   2   3
TORSDOF 1
ENDMDL
MODEL      114
REMARK 921   NORMALIZED FREE ENERGY PREDICTED BY IDOCK:   -2.33 KCAL/MOL
REMARK 922        TOTAL FREE ENERGY PREDICTED BY IDOCK:   -2.50 KCAL/MOL
REMARK 923 INTER-LIGAND FREE ENERGY PREDICTED BY IDOCK:   -2.48 KCAL/MOL
REMARK 924 INTRA-LIGAND FREE ENERGY PREDICTED BY IDOCK:   -0.02 KCAL/MOL
REMARK 927      BINDING AFFINITY PREDICTED BY RF-SCORE:    0.00 PKD
ROOT
HETATM    1  C   UNL     1     -11.574   8.131  72.304  1.00  0.00    -0.374 C  
HETATM    2  O   UNL     1     -12.176   7.038  71.619  1.00  0.00    -0.319 OA 
ENDROOT
BRANCH   2   3
HETATM    3  C   UNL     1     -11.381   6.346  70.747  1.00  0.00    -0.350 A  
HETATM    4  C   UNL     1     -10.421   5.392  71.092  1.00  0.00    -0.295 A  
HETATM    5  C   UNL     1      -9.667   4.759  70.098  1.00  0.00    -0.288 A  
HETATM    6  C   UNL     1      -9.878   5.084  68.763  1.00  0.00    -0.168 A  
HETATM    7  C   UNL     1     -10.836   6.023  68.405  1.00  0.00    -0.361 A  
HETATM    8  O   UNL     1      -9.156   4.499  67.766  1.00  0.00    -0.112 OA 
HETATM    9  H   UNL     1      -9.300   4.721  66.853  1.00  0.00     0.000 HD 
HETATM   10  C   UNL     1     -11.588   6.653  69.398  1.00  0.00    -0.210 A  
ENDBRANCH   2   3
TORSDOF 1
ENDMDL
MODEL      115
REMARK 921   NORMALIZED FREE ENERGY PREDICTED BY IDOCK:   -2.30 KCAL/MOL
REMARK 922        TOTAL FREE ENERGY PREDICTED BY IDOCK:   -2.47 KCAL/MOL
REMARK 923 INTER-LIGAND FREE ENERGY PREDICTED BY IDOCK:   -2.43 KCAL/MOL
REMARK 924 INTRA-LIGAND FREE ENERGY PREDICTED BY IDOCK:   -0.04 KCAL/MOL
REMARK 927      BINDING AFFINITY PREDICTED BY RF-SCORE:    0.00 PKD
ROOT
HETATM    1  C   UNL     1     -10.976  14.774  68.369  1.00  0.00    -0.252 C  
HETATM    2  O   UNL     1     -11.966  13.754  68.442  1.00  0.00    -0.355 OA 
ENDROOT
BRANCH   2   3
HETATM    3  C   UNL     1     -11.551  12.524  68.873  1.00  0.00    -0.318 A  
HETATM    4  C   UNL     1     -12.224  11.703  69.781  1.00  0.00    -0.285 A  
HETATM    5  C   UNL     1     -11.685  10.464  70.145  1.00  0.00    -0.394 A  
HETATM    6  C   UNL     1     -10.475  10.053  69.596  1.00  0.00    -0.248 A  
HETATM    7  C   UNL     1      -9.801  10.853  68.684  1.00  0.00    -0.194 A  
HETATM    8  O   UNL     1      -9.911   8.858  69.934  1.00  0.00    -0.173 OA 
HETATM    9  H   UNL     1      -9.085   8.577  69.559  1.00  0.00     0.000 HD 
HETATM   10  C   UNL     1     -10.341  12.089  68.323  1.00  0.00    -0.211 A  
ENDBRANCH   2   3
TORSDOF 1
ENDMDL
MODEL      116
REMARK 921   NORMALIZED FREE ENERGY PREDICTED BY IDOCK:   -2.30 KCAL/MOL
REMARK 922        TOTAL FREE ENERGY PREDICTED BY IDOCK:   -2.46 KCAL/MOL
REMARK 923 INTER-LIGAND FREE ENERGY PREDICTED BY IDOCK:   -2.44 KCAL/MOL
REMARK 924 INTRA-LIGAND FREE ENERGY PREDICTED BY IDOCK:   -0.02 KCAL/MOL
REMARK 927      BINDING AFFINITY PREDICTED BY RF-SCORE:    0.00 PKD
ROOT
HETATM    1  C   UNL     1      -9.885   4.246  70.165  1.00  0.00    -0.201 C  
HETATM    2  O   UNL     1     -10.910   5.232  70.125  1.00  0.00    -0.240 OA 
ENDROOT
BRANCH   2   3
HETATM    3  C   UNL     1     -10.751   6.251  69.227  1.00  0.00    -0.305 A  
HETATM    4  C   UNL     1     -10.960   6.169  67.848  1.00  0.00    -0.399 A  
HETATM    5  C   UNL     1     -10.753   7.289  67.035  1.00  0.00    -0.406 A  
HETATM    6  C   UNL     1     -10.337   8.486  67.608  1.00  0.00    -0.253 A  
HETATM    7  C   UNL     1     -10.136   8.585  68.978  1.00  0.00    -0.207 A  
HETATM    8  O   UNL     1     -10.113   9.597  66.849  1.00  0.00    -0.199 OA 
HETATM    9  H   UNL     1      -9.829  10.415  67.240  1.00  0.00     0.000 HD 
HETATM   10  C   UNL     1     -10.343   7.466  69.786  1.00  0.00    -0.226 A  
ENDBRANCH   2   3
TORSDOF 1
ENDMDL
MODEL      117
REMARK 921   NORMALIZED FREE ENERGY PREDICTED BY IDOCK:   -2.27 KCAL/MOL
REMARK 922        TOTAL FREE ENERGY PREDICTED BY IDOCK:   -2.43 KCAL/MOL
REMARK 923 INTER-LIGAND FREE ENERGY PREDICTED BY IDOCK:   -2.40 KCAL/MOL
REMARK 924 INTRA-LIGAND FREE ENERGY PREDICTED BY IDOCK:   -0.03 KCAL/MOL
REMARK 927      BINDING AFFINITY PREDICTED BY RF-SCORE:    0.00 PKD
ROOT
HETATM    1  C   UNL     1     -10.806   9.670  70.284  1.00  0.00    -0.285 C  
HETATM    2  O   UNL     1     -10.761  10.839  69.475  1.00  0.00    -0.227 OA 
ENDROOT
BRANCH   2   3
HETATM    3  C   UNL     1     -10.537  10.655  68.138  1.00  0.00    -0.202 A  
HETATM    4  C   UNL     1     -10.493   9.426  67.476  1.00  0.00    -0.343 A  
HETATM    5  C   UNL     1     -10.246   9.376  66.100  1.00  0.00    -0.264 A  
HETATM    6  C   UNL     1     -10.046  10.557  65.393  1.00  0.00    -0.291 A  
HETATM    7  C   UNL     1     -10.097  11.786  66.037  1.00  0.00    -0.263 A  
HETATM    8  O   UNL     1      -9.791  10.550  64.054  1.00  0.00    -0.302 OA 
HETATM    9  H   UNL     1      -9.654  11.356  63.571  1.00  0.00     0.000 HD 
HETATM   10  C   UNL     1     -10.343  11.833  67.410  1.00  0.00    -0.228 A  
ENDBRANCH   2   3
TORSDOF 1
ENDMDL
MODEL      118
REMARK 921   NORMALIZED FREE ENERGY PREDICTED BY IDOCK:   -2.25 KCAL/MOL
REMARK 922        TOTAL FREE ENERGY PREDICTED BY IDOCK:   -2.41 KCAL/MOL
REMARK 923 INTER-LIGAND FREE ENERGY PREDICTED BY IDOCK:   -2.39 KCAL/MOL
REMARK 924 INTRA-LIGAND FREE ENERGY PREDICTED BY IDOCK:   -0.02 KCAL/MOL
REMARK 927      BINDING AFFINITY PREDICTED BY RF-SCORE:    0.00 PKD
ROOT
HETATM    1  C   UNL     1      -6.320   9.246  70.528  1.00  0.00    -0.062 C  
HETATM    2  O   UNL     1      -7.539   9.525  71.205  1.00  0.00    -0.328 OA 
ENDROOT
BRANCH   2   3
HETATM    3  C   UNL     1      -8.605   8.718  70.912  1.00  0.00    -0.192 A  
HETATM    4  C   UNL     1      -8.601   7.321  70.915  1.00  0.00    -0.136 A  
HETATM    5  C   UNL     1      -9.761   6.612  70.588  1.00  0.00    -0.183 A  
HETATM    6  C   UNL     1     -10.922   7.306  70.261  1.00  0.00    -0.260 A  
HETATM    7  C   UNL     1     -10.943   8.694  70.265  1.00  0.00    -0.251 A  
HETATM    8  O   UNL     1     -12.070   6.653  69.926  1.00  0.00    -0.641 OA 
HETATM    9  H   UNL     1     -12.863   7.126  69.702  1.00  0.00     0.000 HD 
HETATM   10  C   UNL     1      -9.783   9.399  70.591  1.00  0.00    -0.336 A  
ENDBRANCH   2   3
TORSDOF 1
ENDMDL
MODEL      119
REMARK 921   NORMALIZED FREE ENERGY PREDICTED BY IDOCK:   -2.25 KCAL/MOL
REMARK 922        TOTAL FREE ENERGY PREDICTED BY IDOCK:   -2.41 KCAL/MOL
REMARK 923 INTER-LIGAND FREE ENERGY PREDICTED BY IDOCK:   -2.38 KCAL/MOL
REMARK 924 INTRA-LIGAND FREE ENERGY PREDICTED BY IDOCK:   -0.03 KCAL/MOL
REMARK 927      BINDING AFFINITY PREDICTED BY RF-SCORE:    0.00 PKD
ROOT
HETATM    1  C   UNL     1      -9.188   6.413  66.448  1.00  0.00    -0.155 C  
HETATM    2  O   UNL     1     -10.310   6.015  67.226  1.00  0.00    -0.167 OA 
ENDROOT
BRANCH   2   3
HETATM    3  C   UNL     1     -10.611   6.789  68.313  1.00  0.00    -0.230 A  
HETATM    4  C   UNL     1     -10.294   8.140  68.470  1.00  0.00    -0.230 A  
HETATM    5  C   UNL     1     -10.654   8.818  69.640  1.00  0.00    -0.220 A  
HETATM    6  C   UNL     1     -11.333   8.138  70.647  1.00  0.00    -0.249 A  
HETATM    7  C   UNL     1     -11.664   6.798  70.499  1.00  0.00    -0.430 A  
HETATM    8  O   UNL     1     -11.691   8.759  71.806  1.00  0.00    -0.300 OA 
HETATM    9  H   UNL     1     -12.154   8.295  72.494  1.00  0.00     0.000 HD 
HETATM   10  C   UNL     1     -11.302   6.125  69.331  1.00  0.00    -0.401 A  
ENDBRANCH   2   3
TORSDOF 1
ENDMDL
MODEL      120
REMARK 921   NORMALIZED FREE ENERGY PREDICTED BY IDOCK:   -2.24 KCAL/MOL
REMARK 922        TOTAL FREE ENERGY PREDICTED BY IDOCK:   -2.40 KCAL/MOL
REMARK 923 INTER-LIGAND FREE ENERGY PREDICTED BY IDOCK:   -2.38 KCAL/MOL
REMARK 924 INTRA-LIGAND FREE ENERGY PREDICTED BY IDOCK:   -0.02 KCAL/MOL
REMARK 927      BINDING AFFINITY PREDICTED BY RF-SCORE:    0.00 PKD
ROOT
HETATM    1  C   UNL     1      -6.305  11.469  66.831  1.00  0.00    -0.146 C  
HETATM    2  O   UNL     1      -7.239  10.473  66.429  1.00  0.00    -0.114 OA 
ENDROOT
BRANCH   2   3
HETATM    3  C   UNL     1      -8.526  10.624  66.867  1.00  0.00    -0.127 A  
HETATM    4  C   UNL     1      -9.457  11.544  66.378  1.00  0.00    -0.230 A  
HETATM    5  C   UNL     1     -10.745  11.600  66.921  1.00  0.00    -0.295 A  
HETATM    6  C   UNL     1     -11.095  10.734  67.951  1.00  0.00    -0.308 A  
HETATM    7  C   UNL     1     -10.184   9.807  68.439  1.00  0.00    -0.210 A  
HETATM    8  O   UNL     1     -12.336  10.765  68.515  1.00  0.00    -0.825 OA 
HETATM    9  H   UNL     1     -12.575  10.173  69.219  1.00  0.00     0.000 HD 
HETATM   10  C   UNL     1      -8.899   9.753  67.896  1.00  0.00    -0.122 A  
ENDBRANCH   2   3
TORSDOF 1
ENDMDL
MODEL      121
REMARK 921   NORMALIZED FREE ENERGY PREDICTED BY IDOCK:   -2.23 KCAL/MOL
REMARK 922        TOTAL FREE ENERGY PREDICTED BY IDOCK:   -2.39 KCAL/MOL
REMARK 923 INTER-LIGAND FREE ENERGY PREDICTED BY IDOCK:   -2.37 KCAL/MOL
REMARK 924 INTRA-LIGAND FREE ENERGY PREDICTED BY IDOCK:   -0.02 KCAL/MOL
REMARK 927      BINDING AFFINITY PREDICTED BY RF-SCORE:    0.00 PKD
ROOT
HETATM    1  C   UNL     1     -12.222  14.105  64.410  1.00  0.00    -0.439 C  
HETATM    2  O   UNL     1     -11.708  14.201  65.733  1.00  0.00    -0.339 OA 
ENDROOT
BRANCH   2   3
HETATM    3  C   UNL     1     -10.682  13.356  66.057  1.00  0.00    -0.278 A  
HETATM    4  C   UNL     1     -10.589  12.007  65.708  1.00  0.00    -0.301 A  
HETATM    5  C   UNL     1      -9.485  11.249  66.111  1.00  0.00    -0.232 A  
HETATM    6  C   UNL     1      -8.478  11.846  66.863  1.00  0.00    -0.174 A  
HETATM    7  C   UNL     1      -8.553  13.188  67.209  1.00  0.00    -0.210 A  
HETATM    8  O   UNL     1      -7.392  11.139  67.286  1.00  0.00    -0.104 OA 
HETATM    9  H   UNL     1      -6.705  11.546  67.799  1.00  0.00     0.000 HD 
HETATM   10  C   UNL     1      -9.656  13.943  66.805  1.00  0.00    -0.288 A  
ENDBRANCH   2   3
TORSDOF 1
ENDMDL
MODEL      122
REMARK 921   NORMALIZED FREE ENERGY PREDICTED BY IDOCK:   -2.22 KCAL/MOL
REMARK 922        TOTAL FREE ENERGY PREDICTED BY IDOCK:   -2.38 KCAL/MOL
REMARK 923 INTER-LIGAND FREE ENERGY PREDICTED BY IDOCK:   -2.36 KCAL/MOL
REMARK 924 INTRA-LIGAND FREE ENERGY PREDICTED BY IDOCK:   -0.03 KCAL/MOL
REMARK 927      BINDING AFFINITY PREDICTED BY RF-SCORE:    0.00 PKD
ROOT
HETATM    1  C   UNL     1      -6.051  11.158  66.265  1.00  0.00    -0.117 C  
HETATM    2  O   UNL     1      -7.110  10.409  65.681  1.00  0.00    -0.138 OA 
ENDROOT
BRANCH   2   3
HETATM    3  C   UNL     1      -8.360  10.963  65.738  1.00  0.00    -0.133 A  
HETATM    4  C   UNL     1      -8.862  11.748  66.779  1.00  0.00    -0.191 A  
HETATM    5  C   UNL     1     -10.167  12.250  66.717  1.00  0.00    -0.229 A  
HETATM    6  C   UNL     1     -10.961  11.964  65.611  1.00  0.00    -0.304 A  
HETATM    7  C   UNL     1     -10.471  11.195  64.565  1.00  0.00    -0.415 A  
HETATM    8  O   UNL     1     -12.241  12.425  65.518  1.00  0.00    -0.568 OA 
HETATM    9  H   UNL     1     -12.784  12.230  64.763  1.00  0.00     0.000 HD 
HETATM   10  C   UNL     1      -9.169  10.695  64.630  1.00  0.00    -0.262 A  
ENDBRANCH   2   3
TORSDOF 1
ENDMDL
MODEL      123
REMARK 921   NORMALIZED FREE ENERGY PREDICTED BY IDOCK:   -2.22 KCAL/MOL
REMARK 922        TOTAL FREE ENERGY PREDICTED BY IDOCK:   -2.38 KCAL/MOL
REMARK 923 INTER-LIGAND FREE ENERGY PREDICTED BY IDOCK:   -2.36 KCAL/MOL
REMARK 924 INTRA-LIGAND FREE ENERGY PREDICTED BY IDOCK:   -0.02 KCAL/MOL
REMARK 927      BINDING AFFINITY PREDICTED BY RF-SCORE:    0.00 PKD
ROOT
HETATM    1  C   UNL     1     -12.824  11.873  71.886  1.00  0.00    -0.236 C  
HETATM    2  O   UNL     1     -13.549  10.676  71.629  1.00  0.00    -0.208 OA 
ENDROOT
BRANCH   2   3
HETATM    3  C   UNL     1     -12.811   9.553  71.375  1.00  0.00    -0.358 A  
HETATM    4  C   UNL     1     -11.855   9.410  70.366  1.00  0.00    -0.140 A  
HETATM    5  C   UNL     1     -11.173   8.200  70.207  1.00  0.00    -0.182 A  
HETATM    6  C   UNL     1     -11.451   7.137  71.060  1.00  0.00    -0.297 A  
HETATM    7  C   UNL     1     -12.390   7.268  72.073  1.00  0.00    -0.298 A  
HETATM    8  O   UNL     1     -10.817   5.937  70.930  1.00  0.00    -0.265 OA 
HETATM    9  H   UNL     1     -11.006   5.211  71.513  1.00  0.00     0.000 HD 
HETATM   10  C   UNL     1     -13.070   8.477  72.229  1.00  0.00    -0.372 A  
ENDBRANCH   2   3
TORSDOF 1
ENDMDL
MODEL      124
REMARK 921   NORMALIZED FREE ENERGY PREDICTED BY IDOCK:   -2.22 KCAL/MOL
REMARK 922        TOTAL FREE ENERGY PREDICTED BY IDOCK:   -2.37 KCAL/MOL
REMARK 923 INTER-LIGAND FREE ENERGY PREDICTED BY IDOCK:   -2.35 KCAL/MOL
REMARK 924 INTRA-LIGAND FREE ENERGY PREDICTED BY IDOCK:   -0.03 KCAL/MOL
REMARK 927      BINDING AFFINITY PREDICTED BY RF-SCORE:    0.00 PKD
ROOT
HETATM    1  C   UNL     1      -9.164   4.496  70.559  1.00  0.00    -0.124 C  
HETATM    2  O   UNL     1     -10.355   4.848  71.253  1.00  0.00    -0.202 OA 
ENDROOT
BRANCH   2   3
HETATM    3  C   UNL     1     -10.794   6.136  71.109  1.00  0.00    -0.270 A  
HETATM    4  C   UNL     1     -10.276   7.084  70.223  1.00  0.00    -0.206 A  
HETATM    5  C   UNL     1     -10.813   8.375  70.180  1.00  0.00    -0.238 A  
HETATM    6  C   UNL     1     -11.867   8.711  71.023  1.00  0.00    -0.265 A  
HETATM    7  C   UNL     1     -12.398   7.775  71.901  1.00  0.00    -0.342 A  
HETATM    8  O   UNL     1     -12.410   9.961  71.020  1.00  0.00    -0.317 OA 
HETATM    9  H   UNL     1     -13.129  10.190  71.596  1.00  0.00     0.000 HD 
HETATM   10  C   UNL     1     -11.860   6.487  71.942  1.00  0.00    -0.381 A  
ENDBRANCH   2   3
TORSDOF 1
ENDMDL
MODEL      125
REMARK 921   NORMALIZED FREE ENERGY PREDICTED BY IDOCK:   -2.21 KCAL/MOL
REMARK 922        TOTAL FREE ENERGY PREDICTED BY IDOCK:   -2.37 KCAL/MOL
REMARK 923 INTER-LIGAND FREE ENERGY PREDICTED BY IDOCK:   -2.34 KCAL/MOL
REMARK 924 INTRA-LIGAND FREE ENERGY PREDICTED BY IDOCK:   -0.03 KCAL/MOL
REMARK 927      BINDING AFFINITY PREDICTED BY RF-SCORE:    0.00 PKD
ROOT
HETATM    1  C   UNL     1      -5.835  20.389  64.757  1.00  0.00    -0.235 C  
HETATM    2  O   UNL     1      -6.928  19.502  64.967  1.00  0.00    -0.402 OA 
ENDROOT
BRANCH   2   3
HETATM    3  C   UNL     1      -6.959  18.837  66.161  1.00  0.00    -0.253 A  
HETATM    4  C   UNL     1      -6.593  19.362  67.403  1.00  0.00    -0.210 A  
HETATM    5  C   UNL     1      -6.665  18.568  68.553  1.00  0.00    -0.267 A  
HETATM    6  C   UNL     1      -7.105  17.253  68.454  1.00  0.00    -0.209 A  
HETATM    7  C   UNL     1      -7.483  16.721  67.229  1.00  0.00    -0.201 A  
HETATM    8  O   UNL     1      -7.179  16.444  69.549  1.00  0.00    -0.219 OA 
HETATM    9  H   UNL     1      -7.479  15.545  69.482  1.00  0.00     0.000 HD 
HETATM   10  C   UNL     1      -7.409  17.515  66.082  1.00  0.00    -0.347 A  
ENDBRANCH   2   3
TORSDOF 1
ENDMDL
MODEL      126
REMARK 921   NORMALIZED FREE ENERGY PREDICTED BY IDOCK:   -2.19 KCAL/MOL
REMARK 922        TOTAL FREE ENERGY PREDICTED BY IDOCK:   -2.34 KCAL/MOL
REMARK 923 INTER-LIGAND FREE ENERGY PREDICTED BY IDOCK:   -2.30 KCAL/MOL
REMARK 924 INTRA-LIGAND FREE ENERGY PREDICTED BY IDOCK:   -0.04 KCAL/MOL
REMARK 927      BINDING AFFINITY PREDICTED BY RF-SCORE:    0.00 PKD
ROOT
HETATM    1  C   UNL     1      -9.323   9.388  65.027  1.00  0.00    -0.191 C  
HETATM    2  O   UNL     1      -9.555   9.922  66.326  1.00  0.00    -0.182 OA 
ENDROOT
BRANCH   2   3
HETATM    3  C   UNL     1      -9.994   9.048  67.282  1.00  0.00    -0.216 A  
HETATM    4  C   UNL     1     -10.112   9.317  68.647  1.00  0.00    -0.207 A  
HETATM    5  C   UNL     1     -10.569   8.328  69.524  1.00  0.00    -0.216 A  
HETATM    6  C   UNL     1     -10.908   7.073  69.029  1.00  0.00    -0.182 A  
HETATM    7  C   UNL     1     -10.806   6.795  67.673  1.00  0.00    -0.361 A  
HETATM    8  O   UNL     1     -11.347   6.079  69.852  1.00  0.00    -0.400 OA 
HETATM    9  H   UNL     1     -11.578   5.222  69.514  1.00  0.00     0.000 HD 
HETATM   10  C   UNL     1     -10.349   7.784  66.800  1.00  0.00    -0.348 A  
ENDBRANCH   2   3
TORSDOF 1
ENDMDL
MODEL      127
REMARK 921   NORMALIZED FREE ENERGY PREDICTED BY IDOCK:   -2.18 KCAL/MOL
REMARK 922        TOTAL FREE ENERGY PREDICTED BY IDOCK:   -2.33 KCAL/MOL
REMARK 923 INTER-LIGAND FREE ENERGY PREDICTED BY IDOCK:   -2.31 KCAL/MOL
REMARK 924 INTRA-LIGAND FREE ENERGY PREDICTED BY IDOCK:   -0.03 KCAL/MOL
REMARK 927      BINDING AFFINITY PREDICTED BY RF-SCORE:    0.00 PKD
ROOT
HETATM    1  C   UNL     1      -8.967   7.924  68.662  1.00  0.00    -0.134 C  
HETATM    2  O   UNL     1     -10.224   8.055  69.316  1.00  0.00    -0.203 OA 
ENDROOT
BRANCH   2   3
HETATM    3  C   UNL     1     -10.379   7.375  70.493  1.00  0.00    -0.214 A  
HETATM    4  C   UNL     1      -9.367   7.086  71.412  1.00  0.00    -0.155 A  
HETATM    5  C   UNL     1      -9.659   6.374  72.580  1.00  0.00    -0.150 A  
HETATM    6  C   UNL     1     -10.963   5.956  72.823  1.00  0.00    -0.265 A  
HETATM    7  C   UNL     1     -11.980   6.245  71.923  1.00  0.00    -0.342 A  
HETATM    8  O   UNL     1     -11.287   5.249  73.943  1.00  0.00    -0.425 OA 
HETATM    9  H   UNL     1     -12.177   4.963  74.109  1.00  0.00     0.000 HD 
HETATM   10  C   UNL     1     -11.686   6.956  70.758  1.00  0.00    -0.417 A  
ENDBRANCH   2   3
TORSDOF 1
ENDMDL
MODEL      128
REMARK 921   NORMALIZED FREE ENERGY PREDICTED BY IDOCK:   -2.11 KCAL/MOL
REMARK 922        TOTAL FREE ENERGY PREDICTED BY IDOCK:   -2.26 KCAL/MOL
REMARK 923 INTER-LIGAND FREE ENERGY PREDICTED BY IDOCK:   -2.24 KCAL/MOL
REMARK 924 INTRA-LIGAND FREE ENERGY PREDICTED BY IDOCK:   -0.02 KCAL/MOL
REMARK 927      BINDING AFFINITY PREDICTED BY RF-SCORE:    0.00 PKD
ROOT
HETATM    1  C   UNL     1     -11.416   1.498  73.826  1.00  0.00    -0.184 C  
HETATM    2  O   UNL     1     -10.561   2.607  74.076  1.00  0.00    -0.144 OA 
ENDROOT
BRANCH   2   3
HETATM    3  C   UNL     1     -10.539   3.593  73.129  1.00  0.00    -0.180 A  
HETATM    4  C   UNL     1      -9.812   3.568  71.936  1.00  0.00    -0.237 A  
HETATM    5  C   UNL     1      -9.871   4.651  71.052  1.00  0.00    -0.268 A  
HETATM    6  C   UNL     1     -10.659   5.753  71.366  1.00  0.00    -0.253 A  
HETATM    7  C   UNL     1     -11.395   5.787  72.542  1.00  0.00    -0.358 A  
HETATM    8  O   UNL     1     -10.735   6.833  70.537  1.00  0.00    -0.222 OA 
HETATM    9  H   UNL     1     -11.273   7.586  70.751  1.00  0.00     0.000 HD 
HETATM   10  C   UNL     1     -11.334   4.705  73.423  1.00  0.00    -0.394 A  
ENDBRANCH   2   3
TORSDOF 1
ENDMDL
MODEL      129
REMARK 921   NORMALIZED FREE ENERGY PREDICTED BY IDOCK:   -2.08 KCAL/MOL
REMARK 922        TOTAL FREE ENERGY PREDICTED BY IDOCK:   -2.22 KCAL/MOL
REMARK 923 INTER-LIGAND FREE ENERGY PREDICTED BY IDOCK:   -2.19 KCAL/MOL
REMARK 924 INTRA-LIGAND FREE ENERGY PREDICTED BY IDOCK:   -0.04 KCAL/MOL
REMARK 927      BINDING AFFINITY PREDICTED BY RF-SCORE:    0.00 PKD
ROOT
HETATM    1  C   UNL     1     -11.185   9.685  71.185  1.00  0.00    -0.384 C  
HETATM    2  O   UNL     1      -9.907   9.202  70.791  1.00  0.00    -0.225 OA 
ENDROOT
BRANCH   2   3
HETATM    3  C   UNL     1      -9.790   7.852  70.601  1.00  0.00    -0.185 A  
HETATM    4  C   UNL     1      -8.707   7.060  70.989  1.00  0.00    -0.139 A  
HETATM    5  C   UNL     1      -8.709   5.685  70.728  1.00  0.00    -0.135 A  
HETATM    6  C   UNL     1      -9.797   5.110  70.081  1.00  0.00    -0.230 A  
HETATM    7  C   UNL     1     -10.885   5.883  69.700  1.00  0.00    -0.444 A  
HETATM    8  O   UNL     1      -9.833   3.777  69.798  1.00  0.00    -0.176 OA 
HETATM    9  H   UNL     1     -10.576   3.384  69.356  1.00  0.00     0.000 HD 
HETATM   10  C   UNL     1     -10.880   7.255  69.961  1.00  0.00    -0.271 A  
ENDBRANCH   2   3
TORSDOF 1
ENDMDL
MODEL      130
REMARK 921   NORMALIZED FREE ENERGY PREDICTED BY IDOCK:   -2.06 KCAL/MOL
REMARK 922        TOTAL FREE ENERGY PREDICTED BY IDOCK:   -2.21 KCAL/MOL
REMARK 923 INTER-LIGAND FREE ENERGY PREDICTED BY IDOCK:   -2.18 KCAL/MOL
REMARK 924 INTRA-LIGAND FREE ENERGY PREDICTED BY IDOCK:   -0.03 KCAL/MOL
REMARK 927      BINDING AFFINITY PREDICTED BY RF-SCORE:    0.00 PKD
ROOT
HETATM    1  C   UNL     1     -11.793  11.786  69.960  1.00  0.00    -0.342 C  
HETATM    2  O   UNL     1     -10.942  11.007  69.127  1.00  0.00    -0.207 OA 
ENDROOT
BRANCH   2   3
HETATM    3  C   UNL     1     -10.765   9.698  69.482  1.00  0.00    -0.232 A  
HETATM    4  C   UNL     1     -11.033   9.144  70.736  1.00  0.00    -0.332 A  
HETATM    5  C   UNL     1     -10.800   7.785  70.971  1.00  0.00    -0.253 A  
HETATM    6  C   UNL     1     -10.299   6.986  69.948  1.00  0.00    -0.210 A  
HETATM    7  C   UNL     1     -10.038   7.521  68.694  1.00  0.00    -0.194 A  
HETATM    8  O   UNL     1     -10.047   5.660  70.140  1.00  0.00    -0.192 OA 
HETATM    9  H   UNL     1      -9.705   5.114  69.442  1.00  0.00     0.000 HD 
HETATM   10  C   UNL     1     -10.271   8.878  68.462  1.00  0.00    -0.223 A  
ENDBRANCH   2   3
TORSDOF 1
ENDMDL
MODEL      131
REMARK 921   NORMALIZED FREE ENERGY PREDICTED BY IDOCK:   -2.05 KCAL/MOL
REMARK 922        TOTAL FREE ENERGY PREDICTED BY IDOCK:   -2.19 KCAL/MOL
REMARK 923 INTER-LIGAND FREE ENERGY PREDICTED BY IDOCK:   -2.15 KCAL/MOL
REMARK 924 INTRA-LIGAND FREE ENERGY PREDICTED BY IDOCK:   -0.04 KCAL/MOL
REMARK 927      BINDING AFFINITY PREDICTED BY RF-SCORE:    0.00 PKD
ROOT
HETATM    1  C   UNL     1     -10.060   8.249  71.750  1.00  0.00    -0.224 C  
HETATM    2  O   UNL     1      -9.960   9.542  71.164  1.00  0.00    -0.269 OA 
ENDROOT
BRANCH   2   3
HETATM    3  C   UNL     1      -9.951   9.599  69.797  1.00  0.00    -0.227 A  
HETATM    4  C   UNL     1      -9.436  10.642  69.024  1.00  0.00    -0.202 A  
HETATM    5  C   UNL     1      -9.496  10.580  67.628  1.00  0.00    -0.164 A  
HETATM    6  C   UNL     1     -10.070   9.473  67.012  1.00  0.00    -0.234 A  
HETATM    7  C   UNL     1     -10.577   8.425  67.769  1.00  0.00    -0.238 A  
HETATM    8  O   UNL     1     -10.159   9.380  65.655  1.00  0.00    -0.377 OA 
HETATM    9  H   UNL     1     -10.552   8.624  65.235  1.00  0.00     0.000 HD 
HETATM   10  C   UNL     1     -10.516   8.489  69.162  1.00  0.00    -0.217 A  
ENDBRANCH   2   3
TORSDOF 1
ENDMDL
MODEL      132
REMARK 921   NORMALIZED FREE ENERGY PREDICTED BY IDOCK:   -2.04 KCAL/MOL
REMARK 922        TOTAL FREE ENERGY PREDICTED BY IDOCK:   -2.18 KCAL/MOL
REMARK 923 INTER-LIGAND FREE ENERGY PREDICTED BY IDOCK:   -2.15 KCAL/MOL
REMARK 924 INTRA-LIGAND FREE ENERGY PREDICTED BY IDOCK:   -0.03 KCAL/MOL
REMARK 927      BINDING AFFINITY PREDICTED BY RF-SCORE:    0.00 PKD
ROOT
HETATM    1  C   UNL     1      -9.742   3.682  73.976  1.00  0.00    -0.106 C  
HETATM    2  O   UNL     1      -9.879   5.022  74.434  1.00  0.00    -0.153 OA 
ENDROOT
BRANCH   2   3
HETATM    3  C   UNL     1     -10.319   5.943  73.523  1.00  0.00    -0.243 A  
HETATM    4  C   UNL     1      -9.609   7.059  73.077  1.00  0.00    -0.182 A  
HETATM    5  C   UNL     1     -10.180   7.931  72.143  1.00  0.00    -0.286 A  
HETATM    6  C   UNL     1     -11.460   7.679  71.661  1.00  0.00    -0.260 A  
HETATM    7  C   UNL     1     -12.173   6.568  72.088  1.00  0.00    -0.277 A  
HETATM    8  O   UNL     1     -12.056   8.511  70.759  1.00  0.00    -0.464 OA 
HETATM    9  H   UNL     1     -12.930   8.339  70.430  1.00  0.00     0.000 HD 
HETATM   10  C   UNL     1     -11.601   5.700  73.020  1.00  0.00    -0.180 A  
ENDBRANCH   2   3
TORSDOF 1
ENDMDL
MODEL      133
REMARK 921   NORMALIZED FREE ENERGY PREDICTED BY IDOCK:   -2.03 KCAL/MOL
REMARK 922        TOTAL FREE ENERGY PREDICTED BY IDOCK:   -2.18 KCAL/MOL
REMARK 923 INTER-LIGAND FREE ENERGY PREDICTED BY IDOCK:   -2.15 KCAL/MOL
REMARK 924 INTRA-LIGAND FREE ENERGY PREDICTED BY IDOCK:   -0.03 KCAL/MOL
REMARK 927      BINDING AFFINITY PREDICTED BY RF-SCORE:    0.00 PKD
ROOT
HETATM    1  C   UNL     1      -7.411   1.896  65.750  1.00  0.00    -0.061 C  
HETATM    2  O   UNL     1      -8.035   2.296  66.965  1.00  0.00    -0.069 OA 
ENDROOT
BRANCH   2   3
HETATM    3  C   UNL     1      -8.916   3.340  66.890  1.00  0.00    -0.158 A  
HETATM    4  C   UNL     1      -9.611   3.746  65.749  1.00  0.00    -0.165 A  
HETATM    5  C   UNL     1     -10.481   4.841  65.806  1.00  0.00    -0.275 A  
HETATM    6  C   UNL     1     -10.651   5.522  67.006  1.00  0.00    -0.260 A  
HETATM    7  C   UNL     1      -9.974   5.123  68.150  1.00  0.00    -0.203 A  
HETATM    8  O   UNL     1     -11.480   6.600  67.100  1.00  0.00    -0.779 OA 
HETATM    9  H   UNL     1     -11.596   7.066  67.920  1.00  0.00     0.000 HD 
HETATM   10  C   UNL     1      -9.106   4.031  68.091  1.00  0.00    -0.179 A  
ENDBRANCH   2   3
TORSDOF 1
ENDMDL
MODEL      134
REMARK 921   NORMALIZED FREE ENERGY PREDICTED BY IDOCK:   -2.02 KCAL/MOL
REMARK 922        TOTAL FREE ENERGY PREDICTED BY IDOCK:   -2.17 KCAL/MOL
REMARK 923 INTER-LIGAND FREE ENERGY PREDICTED BY IDOCK:   -2.14 KCAL/MOL
REMARK 924 INTRA-LIGAND FREE ENERGY PREDICTED BY IDOCK:   -0.03 KCAL/MOL
REMARK 927      BINDING AFFINITY PREDICTED BY RF-SCORE:    0.00 PKD
ROOT
HETATM    1  C   UNL     1     -10.477   8.534  68.143  1.00  0.00    -0.182 C  
HETATM    2  O   UNL     1     -10.587   7.272  68.792  1.00  0.00    -0.204 OA 
ENDROOT
BRANCH   2   3
HETATM    3  C   UNL     1     -10.344   6.164  68.029  1.00  0.00    -0.199 A  
HETATM    4  C   UNL     1     -10.617   6.031  66.665  1.00  0.00    -0.312 A  
HETATM    5  C   UNL     1     -10.325   4.835  66.001  1.00  0.00    -0.328 A  
HETATM    6  C   UNL     1      -9.762   3.777  66.706  1.00  0.00    -0.120 A  
HETATM    7  C   UNL     1      -9.476   3.898  68.059  1.00  0.00    -0.221 A  
HETATM    8  O   UNL     1      -9.474   2.591  66.098  1.00  0.00    -0.363 OA 
HETATM    9  H   UNL     1      -9.089   1.868  66.579  1.00  0.00     0.000 HD 
HETATM   10  C   UNL     1      -9.768   5.093  68.719  1.00  0.00    -0.215 A  
ENDBRANCH   2   3
TORSDOF 1
ENDMDL
MODEL      135
REMARK 921   NORMALIZED FREE ENERGY PREDICTED BY IDOCK:   -2.02 KCAL/MOL
REMARK 922        TOTAL FREE ENERGY PREDICTED BY IDOCK:   -2.17 KCAL/MOL
REMARK 923 INTER-LIGAND FREE ENERGY PREDICTED BY IDOCK:   -2.13 KCAL/MOL
REMARK 924 INTRA-LIGAND FREE ENERGY PREDICTED BY IDOCK:   -0.04 KCAL/MOL
REMARK 927      BINDING AFFINITY PREDICTED BY RF-SCORE:    0.00 PKD
ROOT
HETATM    1  C   UNL     1     -10.487   9.729  69.032  1.00  0.00    -0.213 C  
HETATM    2  O   UNL     1     -10.269  10.738  68.052  1.00  0.00    -0.169 OA 
ENDROOT
BRANCH   2   3
HETATM    3  C   UNL     1      -9.897  10.316  66.806  1.00  0.00    -0.197 A  
HETATM    4  C   UNL     1     -10.147  10.984  65.605  1.00  0.00    -0.310 A  
HETATM    5  C   UNL     1      -9.718  10.437  64.391  1.00  0.00    -0.396 A  
HETATM    6  C   UNL     1      -9.038   9.224  64.385  1.00  0.00    -0.056 A  
HETATM    7  C   UNL     1      -8.774   8.554  65.572  1.00  0.00    -0.208 A  
HETATM    8  O   UNL     1      -8.614   8.652  63.223  1.00  0.00    -0.384 OA 
HETATM    9  H   UNL     1      -8.150   7.823  63.219  1.00  0.00     0.000 HD 
HETATM   10  C   UNL     1      -9.204   9.101  66.782  1.00  0.00    -0.195 A  
ENDBRANCH   2   3
TORSDOF 1
ENDMDL
MODEL      136
REMARK 921   NORMALIZED FREE ENERGY PREDICTED BY IDOCK:   -2.02 KCAL/MOL
REMARK 922        TOTAL FREE ENERGY PREDICTED BY IDOCK:   -2.16 KCAL/MOL
REMARK 923 INTER-LIGAND FREE ENERGY PREDICTED BY IDOCK:   -2.14 KCAL/MOL
REMARK 924 INTRA-LIGAND FREE ENERGY PREDICTED BY IDOCK:   -0.02 KCAL/MOL
REMARK 927      BINDING AFFINITY PREDICTED BY RF-SCORE:    0.00 PKD
ROOT
HETATM    1  C   UNL     1     -11.428  13.298  68.653  1.00  0.00    -0.304 C  
HETATM    2  O   UNL     1     -11.910  12.009  68.291  1.00  0.00    -0.339 OA 
ENDROOT
BRANCH   2   3
HETATM    3  C   UNL     1     -11.042  10.963  68.441  1.00  0.00    -0.262 A  
HETATM    4  C   UNL     1     -10.354  10.629  69.611  1.00  0.00    -0.185 A  
HETATM    5  C   UNL     1      -9.486   9.533  69.630  1.00  0.00    -0.213 A  
HETATM    6  C   UNL     1      -9.311   8.774  68.477  1.00  0.00    -0.141 A  
HETATM    7  C   UNL     1      -9.996   9.088  67.311  1.00  0.00    -0.275 A  
HETATM    8  O   UNL     1      -8.465   7.706  68.451  1.00  0.00    -0.124 OA 
HETATM    9  H   UNL     1      -8.345   7.188  67.664  1.00  0.00     0.000 HD 
HETATM   10  C   UNL     1     -10.862  10.183  67.295  1.00  0.00    -0.295 A  
ENDBRANCH   2   3
TORSDOF 1
ENDMDL
MODEL      137
REMARK 921   NORMALIZED FREE ENERGY PREDICTED BY IDOCK:   -2.01 KCAL/MOL
REMARK 922        TOTAL FREE ENERGY PREDICTED BY IDOCK:   -2.16 KCAL/MOL
REMARK 923 INTER-LIGAND FREE ENERGY PREDICTED BY IDOCK:   -2.13 KCAL/MOL
REMARK 924 INTRA-LIGAND FREE ENERGY PREDICTED BY IDOCK:   -0.02 KCAL/MOL
REMARK 927      BINDING AFFINITY PREDICTED BY RF-SCORE:    0.00 PKD
ROOT
HETATM    1  C   UNL     1      -6.625   5.835  65.281  1.00  0.00    -0.043 C  
HETATM    2  O   UNL     1      -8.036   5.662  65.341  1.00  0.00    -0.113 OA 
ENDROOT
BRANCH   2   3
HETATM    3  C   UNL     1      -8.761   6.692  65.875  1.00  0.00    -0.137 A  
HETATM    4  C   UNL     1      -8.517   8.054  65.679  1.00  0.00    -0.162 A  
HETATM    5  C   UNL     1      -9.332   9.011  66.291  1.00  0.00    -0.284 A  
HETATM    6  C   UNL     1     -10.390   8.601  67.096  1.00  0.00    -0.299 A  
HETATM    7  C   UNL     1     -10.650   7.251  67.291  1.00  0.00    -0.395 A  
HETATM    8  O   UNL     1     -11.200   9.502  67.720  1.00  0.00    -0.500 OA 
HETATM    9  H   UNL     1     -11.922   9.222  68.270  1.00  0.00     0.000 HD 
HETATM   10  C   UNL     1      -9.834   6.298  66.679  1.00  0.00    -0.201 A  
ENDBRANCH   2   3
TORSDOF 1
ENDMDL
MODEL      138
REMARK 921   NORMALIZED FREE ENERGY PREDICTED BY IDOCK:   -1.98 KCAL/MOL
REMARK 922        TOTAL FREE ENERGY PREDICTED BY IDOCK:   -2.12 KCAL/MOL
REMARK 923 INTER-LIGAND FREE ENERGY PREDICTED BY IDOCK:   -2.08 KCAL/MOL
REMARK 924 INTRA-LIGAND FREE ENERGY PREDICTED BY IDOCK:   -0.04 KCAL/MOL
REMARK 927      BINDING AFFINITY PREDICTED BY RF-SCORE:    0.00 PKD
ROOT
HETATM    1  C   UNL     1      -9.323  11.022  63.066  1.00  0.00    -0.349 C  
HETATM    2  O   UNL     1     -10.200  10.346  63.960  1.00  0.00    -0.269 OA 
ENDROOT
BRANCH   2   3
HETATM    3  C   UNL     1      -9.915  10.446  65.294  1.00  0.00    -0.309 A  
HETATM    4  C   UNL     1     -10.730  10.009  66.341  1.00  0.00    -0.063 A  
HETATM    5  C   UNL     1     -10.323  10.179  67.669  1.00  0.00    -0.265 A  
HETATM    6  C   UNL     1      -9.101  10.784  67.942  1.00  0.00    -0.150 A  
HETATM    7  C   UNL     1      -8.276  11.214  66.911  1.00  0.00    -0.149 A  
HETATM    8  O   UNL     1      -8.673  10.979  69.222  1.00  0.00    -0.364 OA 
HETATM    9  H   UNL     1      -7.839  11.392  69.408  1.00  0.00     0.000 HD 
HETATM   10  C   UNL     1      -8.685  11.044  65.587  1.00  0.00    -0.162 A  
ENDBRANCH   2   3
TORSDOF 1
ENDMDL
MODEL      139
REMARK 921   NORMALIZED FREE ENERGY PREDICTED BY IDOCK:   -1.97 KCAL/MOL
REMARK 922        TOTAL FREE ENERGY PREDICTED BY IDOCK:   -2.12 KCAL/MOL
REMARK 923 INTER-LIGAND FREE ENERGY PREDICTED BY IDOCK:   -2.09 KCAL/MOL
REMARK 924 INTRA-LIGAND FREE ENERGY PREDICTED BY IDOCK:   -0.03 KCAL/MOL
REMARK 927      BINDING AFFINITY PREDICTED BY RF-SCORE:    0.00 PKD
ROOT
HETATM    1  C   UNL     1      -6.506   7.365  71.571  1.00  0.00    -0.039 C  
HETATM    2  O   UNL     1      -7.766   7.824  71.095  1.00  0.00    -0.081 OA 
ENDROOT
BRANCH   2   3
HETATM    3  C   UNL     1      -8.879   7.275  71.671  1.00  0.00    -0.117 A  
HETATM    4  C   UNL     1      -9.854   7.968  72.392  1.00  0.00    -0.313 A  
HETATM    5  C   UNL     1     -10.945   7.283  72.939  1.00  0.00    -0.381 A  
HETATM    6  C   UNL     1     -11.054   5.908  72.759  1.00  0.00    -0.281 A  
HETATM    7  C   UNL     1     -10.098   5.210  72.035  1.00  0.00    -0.253 A  
HETATM    8  O   UNL     1     -12.096   5.203  73.285  1.00  0.00    -0.476 OA 
HETATM    9  H   UNL     1     -12.171   4.264  73.162  1.00  0.00     0.000 HD 
HETATM   10  C   UNL     1      -9.010   5.895  71.491  1.00  0.00    -0.147 A  
ENDBRANCH   2   3
TORSDOF 1
ENDMDL
MODEL      140
REMARK 921   NORMALIZED FREE ENERGY PREDICTED BY IDOCK:   -1.97 KCAL/MOL
REMARK 922        TOTAL FREE ENERGY PREDICTED BY IDOCK:   -2.11 KCAL/MOL
REMARK 923 INTER-LIGAND FREE ENERGY PREDICTED BY IDOCK:   -2.09 KCAL/MOL
REMARK 924 INTRA-LIGAND FREE ENERGY PREDICTED BY IDOCK:   -0.02 KCAL/MOL
REMARK 927      BINDING AFFINITY PREDICTED BY RF-SCORE:    0.00 PKD
ROOT
HETATM    1  C   UNL     1      -9.920  19.068  67.616  1.00  0.00    -0.351 C  
HETATM    2  O   UNL     1     -10.518  17.786  67.470  1.00  0.00    -0.355 OA 
ENDROOT
BRANCH   2   3
HETATM    3  C   UNL     1      -9.687  16.703  67.564  1.00  0.00    -0.247 A  
HETATM    4  C   UNL     1      -8.481  16.534  66.880  1.00  0.00    -0.244 A  
HETATM    5  C   UNL     1      -7.725  15.371  67.060  1.00  0.00    -0.220 A  
HETATM    6  C   UNL     1      -8.181  14.383  67.926  1.00  0.00    -0.156 A  
HETATM    7  C   UNL     1      -9.372  14.542  68.620  1.00  0.00    -0.199 A  
HETATM    8  O   UNL     1      -7.480  13.229  68.120  1.00  0.00    -0.103 OA 
HETATM    9  H   UNL     1      -7.791  12.554  68.711  1.00  0.00     0.000 HD 
HETATM   10  C   UNL     1     -10.124  15.704  68.438  1.00  0.00    -0.214 A  
ENDBRANCH   2   3
TORSDOF 1
ENDMDL
MODEL      141
REMARK 921   NORMALIZED FREE ENERGY PREDICTED BY IDOCK:   -1.91 KCAL/MOL
REMARK 922        TOTAL FREE ENERGY PREDICTED BY IDOCK:   -2.05 KCAL/MOL
REMARK 923 INTER-LIGAND FREE ENERGY PREDICTED BY IDOCK:   -2.03 KCAL/MOL
REMARK 924 INTRA-LIGAND FREE ENERGY PREDICTED BY IDOCK:   -0.02 KCAL/MOL
REMARK 927      BINDING AFFINITY PREDICTED BY RF-SCORE:    0.00 PKD
ROOT
HETATM    1  C   UNL     1      -9.274   7.650  73.788  1.00  0.00    -0.277 C  
HETATM    2  O   UNL     1     -10.278   6.670  73.553  1.00  0.00    -0.221 OA 
ENDROOT
BRANCH   2   3
HETATM    3  C   UNL     1     -10.058   5.798  72.522  1.00  0.00    -0.180 A  
HETATM    4  C   UNL     1      -9.571   4.494  72.642  1.00  0.00    -0.175 A  
HETATM    5  C   UNL     1      -9.383   3.705  71.502  1.00  0.00    -0.207 A  
HETATM    6  C   UNL     1      -9.684   4.225  70.248  1.00  0.00    -0.210 A  
HETATM    7  C   UNL     1     -10.179   5.515  70.116  1.00  0.00    -0.333 A  
HETATM    8  O   UNL     1      -9.504   3.492  69.113  1.00  0.00    -0.169 OA 
HETATM    9  H   UNL     1      -9.710   3.847  68.256  1.00  0.00     0.000 HD 
HETATM   10  C   UNL     1     -10.365   6.301  71.255  1.00  0.00    -0.255 A  
ENDBRANCH   2   3
TORSDOF 1
ENDMDL
MODEL      142
REMARK 921   NORMALIZED FREE ENERGY PREDICTED BY IDOCK:   -1.90 KCAL/MOL
REMARK 922        TOTAL FREE ENERGY PREDICTED BY IDOCK:   -2.04 KCAL/MOL
REMARK 923 INTER-LIGAND FREE ENERGY PREDICTED BY IDOCK:   -2.01 KCAL/MOL
REMARK 924 INTRA-LIGAND FREE ENERGY PREDICTED BY IDOCK:   -0.03 KCAL/MOL
REMARK 927      BINDING AFFINITY PREDICTED BY RF-SCORE:    0.00 PKD
ROOT
HETATM    1  C   UNL     1     -11.376  11.269  68.839  1.00  0.00    -0.275 C  
HETATM    2  O   UNL     1      -9.984  11.025  68.668  1.00  0.00    -0.185 OA 
ENDROOT
BRANCH   2   3
HETATM    3  C   UNL     1      -9.633  10.103  67.721  1.00  0.00    -0.148 A  
HETATM    4  C   UNL     1      -9.134   8.822  67.968  1.00  0.00    -0.144 A  
HETATM    5  C   UNL     1      -8.805   7.975  66.904  1.00  0.00    -0.146 A  
HETATM    6  C   UNL     1      -8.978   8.416  65.596  1.00  0.00    -0.134 A  
HETATM    7  C   UNL     1      -9.483   9.683  65.336  1.00  0.00    -0.343 A  
HETATM    8  O   UNL     1      -8.658   7.627  64.532  1.00  0.00    -0.374 OA 
HETATM    9  H   UNL     1      -8.776   7.927  63.639  1.00  0.00     0.000 HD 
HETATM   10  C   UNL     1      -9.810  10.525  66.399  1.00  0.00    -0.260 A  
ENDBRANCH   2   3
TORSDOF 1
ENDMDL
MODEL      143
REMARK 921   NORMALIZED FREE ENERGY PREDICTED BY IDOCK:   -1.85 KCAL/MOL
REMARK 922        TOTAL FREE ENERGY PREDICTED BY IDOCK:   -1.98 KCAL/MOL
REMARK 923 INTER-LIGAND FREE ENERGY PREDICTED BY IDOCK:   -1.96 KCAL/MOL
REMARK 924 INTRA-LIGAND FREE ENERGY PREDICTED BY IDOCK:   -0.02 KCAL/MOL
REMARK 927      BINDING AFFINITY PREDICTED BY RF-SCORE:    0.00 PKD
ROOT
HETATM    1  C   UNL     1      -8.849   9.649  69.553  1.00  0.00    -0.190 C  
HETATM    2  O   UNL     1      -9.317   9.386  68.236  1.00  0.00    -0.134 OA 
ENDROOT
BRANCH   2   3
HETATM    3  C   UNL     1      -9.456   8.072  67.883  1.00  0.00    -0.145 A  
HETATM    4  C   UNL     1      -8.503   7.067  68.070  1.00  0.00    -0.125 A  
HETATM    5  C   UNL     1      -8.769   5.758  67.655  1.00  0.00    -0.107 A  
HETATM    6  C   UNL     1      -9.988   5.460  67.056  1.00  0.00    -0.179 A  
HETATM    7  C   UNL     1     -10.947   6.446  66.872  1.00  0.00    -0.413 A  
HETATM    8  O   UNL     1     -10.280   4.199  66.627  1.00  0.00    -0.340 OA 
HETATM    9  H   UNL     1     -11.112   3.996  66.217  1.00  0.00     0.000 HD 
HETATM   10  C   UNL     1     -10.680   7.752  67.287  1.00  0.00    -0.326 A  
ENDBRANCH   2   3
TORSDOF 1
ENDMDL
MODEL      144
REMARK 921   NORMALIZED FREE ENERGY PREDICTED BY IDOCK:   -1.82 KCAL/MOL
REMARK 922        TOTAL FREE ENERGY PREDICTED BY IDOCK:   -1.96 KCAL/MOL
REMARK 923 INTER-LIGAND FREE ENERGY PREDICTED BY IDOCK:   -1.93 KCAL/MOL
REMARK 924 INTRA-LIGAND FREE ENERGY PREDICTED BY IDOCK:   -0.02 KCAL/MOL
REMARK 927      BINDING AFFINITY PREDICTED BY RF-SCORE:    0.00 PKD
ROOT
HETATM    1  C   UNL     1     -10.204   6.966  67.472  1.00  0.00    -0.194 C  
HETATM    2  O   UNL     1     -10.760   8.189  67.942  1.00  0.00    -0.177 OA 
ENDROOT
BRANCH   2   3
HETATM    3  C   UNL     1     -10.131   9.340  67.556  1.00  0.00    -0.218 A  
HETATM    4  C   UNL     1     -10.299   9.996  66.334  1.00  0.00    -0.249 A  
HETATM    5  C   UNL     1      -9.586  11.168  66.059  1.00  0.00    -0.248 A  
HETATM    6  C   UNL     1      -8.709  11.678  67.010  1.00  0.00    -0.173 A  
HETATM    7  C   UNL     1      -8.540  11.042  68.233  1.00  0.00    -0.143 A  
HETATM    8  O   UNL     1      -7.987  12.811  66.777  1.00  0.00    -0.396 OA 
HETATM    9  H   UNL     1      -7.387  13.160  67.426  1.00  0.00     0.000 HD 
HETATM   10  C   UNL     1      -9.252   9.873  68.504  1.00  0.00    -0.136 A  
ENDBRANCH   2   3
TORSDOF 1
ENDMDL
MODEL      145
REMARK 921   NORMALIZED FREE ENERGY PREDICTED BY IDOCK:   -1.81 KCAL/MOL
REMARK 922        TOTAL FREE ENERGY PREDICTED BY IDOCK:   -1.94 KCAL/MOL
REMARK 923 INTER-LIGAND FREE ENERGY PREDICTED BY IDOCK:   -1.91 KCAL/MOL
REMARK 924 INTRA-LIGAND FREE ENERGY PREDICTED BY IDOCK:   -0.03 KCAL/MOL
REMARK 927      BINDING AFFINITY PREDICTED BY RF-SCORE:    0.00 PKD
ROOT
HETATM    1  C   UNL     1     -11.476   7.631  70.393  1.00  0.00    -0.174 C  
HETATM    2  O   UNL     1     -11.159   6.679  69.384  1.00  0.00    -0.288 OA 
ENDROOT
BRANCH   2   3
HETATM    3  C   UNL     1     -10.534   7.155  68.264  1.00  0.00    -0.198 A  
HETATM    4  C   UNL     1     -10.728   8.412  67.688  1.00  0.00    -0.191 A  
HETATM    5  C   UNL     1     -10.029   8.774  66.532  1.00  0.00    -0.360 A  
HETATM    6  C   UNL     1      -9.136   7.875  65.959  1.00  0.00    -0.132 A  
HETATM    7  C   UNL     1      -8.925   6.626  66.527  1.00  0.00    -0.155 A  
HETATM    8  O   UNL     1      -8.443   8.185  64.826  1.00  0.00    -0.299 OA 
HETATM    9  H   UNL     1      -7.834   7.571  64.434  1.00  0.00     0.000 HD 
HETATM   10  C   UNL     1      -9.625   6.267  67.680  1.00  0.00    -0.118 A  
ENDBRANCH   2   3
TORSDOF 1
ENDMDL
MODEL      146
REMARK 921   NORMALIZED FREE ENERGY PREDICTED BY IDOCK:   -1.80 KCAL/MOL
REMARK 922        TOTAL FREE ENERGY PREDICTED BY IDOCK:   -1.93 KCAL/MOL
REMARK 923 INTER-LIGAND FREE ENERGY PREDICTED BY IDOCK:   -1.89 KCAL/MOL
REMARK 924 INTRA-LIGAND FREE ENERGY PREDICTED BY IDOCK:   -0.04 KCAL/MOL
REMARK 927      BINDING AFFINITY PREDICTED BY RF-SCORE:    0.00 PKD
ROOT
HETATM    1  C   UNL     1      -8.007  11.276  66.694  1.00  0.00    -0.159 C  
HETATM    2  O   UNL     1      -7.795  10.275  67.683  1.00  0.00    -0.098 OA 
ENDROOT
BRANCH   2   3
HETATM    3  C   UNL     1      -8.864   9.955  68.474  1.00  0.00    -0.122 A  
HETATM    4  C   UNL     1      -8.915   8.911  69.400  1.00  0.00    -0.145 A  
HETATM    5  C   UNL     1     -10.078   8.685  70.145  1.00  0.00    -0.196 A  
HETATM    6  C   UNL     1     -11.184   9.507  69.958  1.00  0.00    -0.209 A  
HETATM    7  C   UNL     1     -11.144  10.555  69.049  1.00  0.00    -0.300 A  
HETATM    8  O   UNL     1     -12.340   9.313  70.655  1.00  0.00    -0.482 OA 
HETATM    9  H   UNL     1     -13.095   9.875  70.528  1.00  0.00     0.000 HD 
HETATM   10  C   UNL     1      -9.982  10.778  68.307  1.00  0.00    -0.182 A  
ENDBRANCH   2   3
TORSDOF 1
ENDMDL
MODEL      147
REMARK 921   NORMALIZED FREE ENERGY PREDICTED BY IDOCK:   -1.79 KCAL/MOL
REMARK 922        TOTAL FREE ENERGY PREDICTED BY IDOCK:   -1.93 KCAL/MOL
REMARK 923 INTER-LIGAND FREE ENERGY PREDICTED BY IDOCK:   -1.90 KCAL/MOL
REMARK 924 INTRA-LIGAND FREE ENERGY PREDICTED BY IDOCK:   -0.03 KCAL/MOL
REMARK 927      BINDING AFFINITY PREDICTED BY RF-SCORE:    0.00 PKD
ROOT
HETATM    1  C   UNL     1     -10.968   6.193  67.833  1.00  0.00    -0.304 C  
HETATM    2  O   UNL     1      -9.872   6.427  66.956  1.00  0.00    -0.139 OA 
ENDROOT
BRANCH   2   3
HETATM    3  C   UNL     1      -9.503   7.730  66.766  1.00  0.00    -0.197 A  
HETATM    4  C   UNL     1     -10.130   8.849  67.320  1.00  0.00    -0.303 A  
HETATM    5  C   UNL     1      -9.655  10.134  67.038  1.00  0.00    -0.209 A  
HETATM    6  C   UNL     1      -8.554  10.293  66.203  1.00  0.00    -0.139 A  
HETATM    7  C   UNL     1      -7.915   9.190  65.655  1.00  0.00    -0.107 A  
HETATM    8  O   UNL     1      -8.067  11.529  65.895  1.00  0.00    -0.369 OA 
HETATM    9  H   UNL     1      -7.315  11.637  65.325  1.00  0.00     0.000 HD 
HETATM   10  C   UNL     1      -8.391   7.908  65.937  1.00  0.00    -0.134 A  
ENDBRANCH   2   3
TORSDOF 1
ENDMDL
MODEL      148
REMARK 921   NORMALIZED FREE ENERGY PREDICTED BY IDOCK:   -1.79 KCAL/MOL
REMARK 922        TOTAL FREE ENERGY PREDICTED BY IDOCK:   -1.92 KCAL/MOL
REMARK 923 INTER-LIGAND FREE ENERGY PREDICTED BY IDOCK:   -1.90 KCAL/MOL
REMARK 924 INTRA-LIGAND FREE ENERGY PREDICTED BY IDOCK:   -0.02 KCAL/MOL
REMARK 927      BINDING AFFINITY PREDICTED BY RF-SCORE:    0.00 PKD
ROOT
HETATM    1  C   UNL     1     -10.321   3.884  64.811  1.00  0.00    -0.173 C  
HETATM    2  O   UNL     1     -10.454   4.350  66.149  1.00  0.00    -0.229 OA 
ENDROOT
BRANCH   2   3
HETATM    3  C   UNL     1     -10.007   5.617  66.407  1.00  0.00    -0.152 A  
HETATM    4  C   UNL     1      -8.844   6.196  65.896  1.00  0.00    -0.151 A  
HETATM    5  C   UNL     1      -8.496   7.505  66.246  1.00  0.00    -0.141 A  
HETATM    6  C   UNL     1      -9.316   8.228  67.106  1.00  0.00    -0.151 A  
HETATM    7  C   UNL     1     -10.481   7.669  67.612  1.00  0.00    -0.313 A  
HETATM    8  O   UNL     1      -9.006   9.502  67.480  1.00  0.00    -0.125 OA 
HETATM    9  H   UNL     1      -9.566   9.996  68.068  1.00  0.00     0.000 HD 
HETATM   10  C   UNL     1     -10.825   6.362  67.262  1.00  0.00    -0.463 A  
ENDBRANCH   2   3
TORSDOF 1
ENDMDL
MODEL      149
REMARK 921   NORMALIZED FREE ENERGY PREDICTED BY IDOCK:   -1.78 KCAL/MOL
REMARK 922        TOTAL FREE ENERGY PREDICTED BY IDOCK:   -1.91 KCAL/MOL
REMARK 923 INTER-LIGAND FREE ENERGY PREDICTED BY IDOCK:   -1.88 KCAL/MOL
REMARK 924 INTRA-LIGAND FREE ENERGY PREDICTED BY IDOCK:   -0.03 KCAL/MOL
REMARK 927      BINDING AFFINITY PREDICTED BY RF-SCORE:    0.00 PKD
ROOT
HETATM    1  C   UNL     1      -9.172   3.191  66.669  1.00  0.00    -0.146 C  
HETATM    2  O   UNL     1      -9.291   4.211  67.654  1.00  0.00    -0.145 OA 
ENDROOT
BRANCH   2   3
HETATM    3  C   UNL     1      -9.501   5.484  67.200  1.00  0.00    -0.122 A  
HETATM    4  C   UNL     1     -10.557   6.322  67.565  1.00  0.00    -0.348 A  
HETATM    5  C   UNL     1     -10.661   7.605  67.019  1.00  0.00    -0.406 A  
HETATM    6  C   UNL     1      -9.705   8.045  66.109  1.00  0.00    -0.046 A  
HETATM    7  C   UNL     1      -8.644   7.227  65.744  1.00  0.00    -0.143 A  
HETATM    8  O   UNL     1      -9.776   9.284  65.545  1.00  0.00    -0.394 OA 
HETATM    9  H   UNL     1      -9.124   9.584  64.923  1.00  0.00     0.000 HD 
HETATM   10  C   UNL     1      -8.543   5.946  66.291  1.00  0.00    -0.132 A  
ENDBRANCH   2   3
TORSDOF 1
ENDMDL
MODEL      150
REMARK 921   NORMALIZED FREE ENERGY PREDICTED BY IDOCK:   -1.73 KCAL/MOL
REMARK 922        TOTAL FREE ENERGY PREDICTED BY IDOCK:   -1.86 KCAL/MOL
REMARK 923 INTER-LIGAND FREE ENERGY PREDICTED BY IDOCK:   -1.84 KCAL/MOL
REMARK 924 INTRA-LIGAND FREE ENERGY PREDICTED BY IDOCK:   -0.02 KCAL/MOL
REMARK 927      BINDING AFFINITY PREDICTED BY RF-SCORE:    0.00 PKD
ROOT
HETATM    1  C   UNL     1      -9.784   3.464  69.835  1.00  0.00    -0.027 C  
HETATM    2  O   UNL     1     -10.245   4.804  69.964  1.00  0.00    -0.251 OA 
ENDROOT
BRANCH   2   3
HETATM    3  C   UNL     1      -9.991   5.431  71.153  1.00  0.00    -0.196 A  
HETATM    4  C   UNL     1     -10.463   5.034  72.406  1.00  0.00    -0.275 A  
HETATM    5  C   UNL     1     -10.135   5.771  73.549  1.00  0.00    -0.202 A  
HETATM    6  C   UNL     1      -9.335   6.902  73.431  1.00  0.00    -0.152 A  
HETATM    7  C   UNL     1      -8.850   7.303  72.193  1.00  0.00    -0.143 A  
HETATM    8  O   UNL     1      -9.002   7.654  74.518  1.00  0.00    -0.434 OA 
HETATM    9  H   UNL     1      -8.455   8.427  74.438  1.00  0.00     0.000 HD 
HETATM   10  C   UNL     1      -9.180   6.566  71.054  1.00  0.00    -0.161 A  
ENDBRANCH   2   3
TORSDOF 1
ENDMDL
MODEL      151
REMARK 921   NORMALIZED FREE ENERGY PREDICTED BY IDOCK:   -1.72 KCAL/MOL
REMARK 922        TOTAL FREE ENERGY PREDICTED BY IDOCK:   -1.85 KCAL/MOL
REMARK 923 INTER-LIGAND FREE ENERGY PREDICTED BY IDOCK:   -1.82 KCAL/MOL
REMARK 924 INTRA-LIGAND FREE ENERGY PREDICTED BY IDOCK:   -0.03 KCAL/MOL
REMARK 927      BINDING AFFINITY PREDICTED BY RF-SCORE:    0.00 PKD
ROOT
HETATM    1  C   UNL     1     -10.687   7.347  66.832  1.00  0.00    -0.254 C  
HETATM    2  O   UNL     1     -10.438   8.737  67.009  1.00  0.00    -0.283 OA 
ENDROOT
BRANCH   2   3
HETATM    3  C   UNL     1      -9.419   9.279  66.276  1.00  0.00    -0.224 A  
HETATM    4  C   UNL     1      -9.559  10.175  65.214  1.00  0.00    -0.338 A  
HETATM    5  C   UNL     1      -8.430  10.651  64.539  1.00  0.00    -0.080 A  
HETATM    6  C   UNL     1      -7.165  10.227  64.932  1.00  0.00    -0.100 A  
HETATM    7  C   UNL     1      -7.010   9.345  65.992  1.00  0.00    -0.090 A  
HETATM    8  O   UNL     1      -6.040  10.658  64.293  1.00  0.00    -0.346 OA 
HETATM    9  H   UNL     1      -5.176  10.368  64.561  1.00  0.00     0.000 HD 
HETATM   10  C   UNL     1      -8.139   8.871  66.664  1.00  0.00    -0.107 A  
ENDBRANCH   2   3
TORSDOF 1
ENDMDL
MODEL      152
REMARK 921   NORMALIZED FREE ENERGY PREDICTED BY IDOCK:   -1.72 KCAL/MOL
REMARK 922        TOTAL FREE ENERGY PREDICTED BY IDOCK:   -1.85 KCAL/MOL
REMARK 923 INTER-LIGAND FREE ENERGY PREDICTED BY IDOCK:   -1.82 KCAL/MOL
REMARK 924 INTRA-LIGAND FREE ENERGY PREDICTED BY IDOCK:   -0.03 KCAL/MOL
REMARK 927      BINDING AFFINITY PREDICTED BY RF-SCORE:    0.00 PKD
ROOT
HETATM    1  C   UNL     1      -9.351   3.917  69.883  1.00  0.00    -0.174 C  
HETATM    2  O   UNL     1      -8.996   3.106  68.770  1.00  0.00    -0.105 OA 
ENDROOT
BRANCH   2   3
HETATM    3  C   UNL     1      -9.438   3.517  67.542  1.00  0.00    -0.186 A  
HETATM    4  C   UNL     1     -10.245   4.630  67.292  1.00  0.00    -0.119 A  
HETATM    5  C   UNL     1     -10.635   4.938  65.984  1.00  0.00    -0.312 A  
HETATM    6  C   UNL     1     -10.214   4.130  64.933  1.00  0.00    -0.204 A  
HETATM    7  C   UNL     1      -9.404   3.028  65.166  1.00  0.00    -0.133 A  
HETATM    8  O   UNL     1     -10.582   4.389  63.646  1.00  0.00    -0.428 OA 
HETATM    9  H   UNL     1     -10.295   3.838  62.928  1.00  0.00     0.000 HD 
HETATM   10  C   UNL     1      -9.016   2.722  66.472  1.00  0.00    -0.159 A  
ENDBRANCH   2   3
TORSDOF 1
ENDMDL
MODEL      153
REMARK 921   NORMALIZED FREE ENERGY PREDICTED BY IDOCK:   -1.72 KCAL/MOL
REMARK 922        TOTAL FREE ENERGY PREDICTED BY IDOCK:   -1.85 KCAL/MOL
REMARK 923 INTER-LIGAND FREE ENERGY PREDICTED BY IDOCK:   -1.81 KCAL/MOL
REMARK 924 INTRA-LIGAND FREE ENERGY PREDICTED BY IDOCK:   -0.03 KCAL/MOL
REMARK 927      BINDING AFFINITY PREDICTED BY RF-SCORE:    0.00 PKD
ROOT
HETATM    1  C   UNL     1      -6.019   8.275  71.221  1.00  0.00    -0.035 C  
HETATM    2  O   UNL     1      -7.064   9.231  71.364  1.00  0.00    -0.273 OA 
ENDROOT
BRANCH   2   3
HETATM    3  C   UNL     1      -8.241   8.781  71.894  1.00  0.00    -0.046 A  
HETATM    4  C   UNL     1      -9.518   9.023  71.380  1.00  0.00    -0.334 A  
HETATM    5  C   UNL     1     -10.647   8.509  72.026  1.00  0.00    -0.408 A  
HETATM    6  C   UNL     1     -10.493   7.753  73.184  1.00  0.00    -0.349 A  
HETATM    7  C   UNL     1      -9.230   7.495  73.699  1.00  0.00    -0.320 A  
HETATM    8  O   UNL     1     -11.568   7.244  73.849  1.00  0.00     0.174 OA 
HETATM    9  H   UNL     1     -11.463   6.728  74.640  1.00  0.00     0.000 HD 
HETATM   10  C   UNL     1      -8.104   8.010  73.053  1.00  0.00    -0.222 A  
ENDBRANCH   2   3
TORSDOF 1
ENDMDL
MODEL      154
REMARK 921   NORMALIZED FREE ENERGY PREDICTED BY IDOCK:   -1.69 KCAL/MOL
REMARK 922        TOTAL FREE ENERGY PREDICTED BY IDOCK:   -1.81 KCAL/MOL
REMARK 923 INTER-LIGAND FREE ENERGY PREDICTED BY IDOCK:   -1.78 KCAL/MOL
REMARK 924 INTRA-LIGAND FREE ENERGY PREDICTED BY IDOCK:   -0.04 KCAL/MOL
REMARK 927      BINDING AFFINITY PREDICTED BY RF-SCORE:    0.00 PKD
ROOT
HETATM    1  C   UNL     1      -9.077   8.540  68.052  1.00  0.00    -0.140 C  
HETATM    2  O   UNL     1      -9.995   8.971  69.049  1.00  0.00    -0.175 OA 
ENDROOT
BRANCH   2   3
HETATM    3  C   UNL     1      -9.873   8.400  70.286  1.00  0.00    -0.181 A  
HETATM    4  C   UNL     1     -10.021   9.057  71.511  1.00  0.00    -0.391 A  
HETATM    5  C   UNL     1      -9.863   8.355  72.710  1.00  0.00    -0.289 A  
HETATM    6  C   UNL     1      -9.558   6.999  72.679  1.00  0.00    -0.143 A  
HETATM    7  C   UNL     1      -9.418   6.331  71.469  1.00  0.00    -0.162 A  
HETATM    8  O   UNL     1      -9.384   6.282  73.825  1.00  0.00    -0.128 OA 
HETATM    9  H   UNL     1      -9.175   5.355  73.803  1.00  0.00     0.000 HD 
HETATM   10  C   UNL     1      -9.577   7.034  70.273  1.00  0.00    -0.168 A  
ENDBRANCH   2   3
TORSDOF 1
ENDMDL
MODEL      155
REMARK 921   NORMALIZED FREE ENERGY PREDICTED BY IDOCK:   -1.64 KCAL/MOL
REMARK 922        TOTAL FREE ENERGY PREDICTED BY IDOCK:   -1.76 KCAL/MOL
REMARK 923 INTER-LIGAND FREE ENERGY PREDICTED BY IDOCK:   -1.73 KCAL/MOL
REMARK 924 INTRA-LIGAND FREE ENERGY PREDICTED BY IDOCK:   -0.04 KCAL/MOL
REMARK 927      BINDING AFFINITY PREDICTED BY RF-SCORE:    0.00 PKD
ROOT
HETATM    1  C   UNL     1      -6.509   9.857  64.655  1.00  0.00    -0.119 C  
HETATM    2  O   UNL     1      -6.786  10.324  65.970  1.00  0.00    -0.098 OA 
ENDROOT
BRANCH   2   3
HETATM    3  C   UNL     1      -7.791   9.691  66.649  1.00  0.00    -0.105 A  
HETATM    4  C   UNL     1      -7.770   9.333  67.999  1.00  0.00    -0.088 A  
HETATM    5  C   UNL     1      -8.866   8.680  68.572  1.00  0.00    -0.142 A  
HETATM    6  C   UNL     1      -9.979   8.389  67.791  1.00  0.00    -0.186 A  
HETATM    7  C   UNL     1     -10.018   8.749  66.450  1.00  0.00    -0.346 A  
HETATM    8  O   UNL     1     -11.063   7.744  68.308  1.00  0.00    -0.427 OA 
HETATM    9  H   UNL     1     -11.823   7.546  67.775  1.00  0.00     0.000 HD 
HETATM   10  C   UNL     1      -8.923   9.400  65.881  1.00  0.00    -0.217 A  
ENDBRANCH   2   3
TORSDOF 1
ENDMDL
MODEL      156
REMARK 921   NORMALIZED FREE ENERGY PREDICTED BY IDOCK:   -1.61 KCAL/MOL
REMARK 922        TOTAL FREE ENERGY PREDICTED BY IDOCK:   -1.73 KCAL/MOL
REMARK 923 INTER-LIGAND FREE ENERGY PREDICTED BY IDOCK:   -1.70 KCAL/MOL
REMARK 924 INTRA-LIGAND FREE ENERGY PREDICTED BY IDOCK:   -0.03 KCAL/MOL
REMARK 927      BINDING AFFINITY PREDICTED BY RF-SCORE:    0.00 PKD
ROOT
HETATM    1  C   UNL     1     -11.426   6.466  69.465  1.00  0.00    -0.343 C  
HETATM    2  O   UNL     1     -10.521   5.422  69.124  1.00  0.00    -0.235 OA 
ENDROOT
BRANCH   2   3
HETATM    3  C   UNL     1      -9.965   4.726  70.162  1.00  0.00    -0.251 A  
HETATM    4  C   UNL     1     -10.204   4.949  71.520  1.00  0.00    -0.264 A  
HETATM    5  C   UNL     1      -9.562   4.167  72.487  1.00  0.00    -0.190 A  
HETATM    6  C   UNL     1      -8.684   3.165  72.088  1.00  0.00    -0.082 A  
HETATM    7  C   UNL     1      -8.445   2.926  70.742  1.00  0.00    -0.095 A  
HETATM    8  O   UNL     1      -8.030   2.390  72.999  1.00  0.00    -0.049 OA 
HETATM    9  H   UNL     1      -7.430   1.705  72.727  1.00  0.00     0.000 HD 
HETATM   10  C   UNL     1      -9.087   3.708  69.779  1.00  0.00    -0.193 A  
ENDBRANCH   2   3
TORSDOF 1
ENDMDL
MODEL      157
REMARK 921   NORMALIZED FREE ENERGY PREDICTED BY IDOCK:   -1.60 KCAL/MOL
REMARK 922        TOTAL FREE ENERGY PREDICTED BY IDOCK:   -1.72 KCAL/MOL
REMARK 923 INTER-LIGAND FREE ENERGY PREDICTED BY IDOCK:   -1.68 KCAL/MOL
REMARK 924 INTRA-LIGAND FREE ENERGY PREDICTED BY IDOCK:   -0.04 KCAL/MOL
REMARK 927      BINDING AFFINITY PREDICTED BY RF-SCORE:    0.00 PKD
ROOT
HETATM    1  C   UNL     1     -10.441   9.523  68.841  1.00  0.00    -0.216 C  
HETATM    2  O   UNL     1      -9.718  10.690  69.215  1.00  0.00    -0.209 OA 
ENDROOT
BRANCH   2   3
HETATM    3  C   UNL     1      -8.641  11.022  68.440  1.00  0.00    -0.149 A  
HETATM    4  C   UNL     1      -7.867  12.179  68.564  1.00  0.00    -0.122 A  
HETATM    5  C   UNL     1      -6.792  12.403  67.698  1.00  0.00    -0.132 A  
HETATM    6  C   UNL     1      -6.496  11.468  66.712  1.00  0.00    -0.128 A  
HETATM    7  C   UNL     1      -7.250  10.310  66.584  1.00  0.00    -0.109 A  
HETATM    8  O   UNL     1      -5.464  11.655  65.841  1.00  0.00    -0.501 OA 
HETATM    9  H   UNL     1      -5.262  11.017  65.168  1.00  0.00     0.000 HD 
HETATM   10  C   UNL     1      -8.323  10.088  67.449  1.00  0.00    -0.118 A  
ENDBRANCH   2   3
TORSDOF 1
ENDMDL
MODEL      158
REMARK 921   NORMALIZED FREE ENERGY PREDICTED BY IDOCK:   -1.55 KCAL/MOL
REMARK 922        TOTAL FREE ENERGY PREDICTED BY IDOCK:   -1.67 KCAL/MOL
REMARK 923 INTER-LIGAND FREE ENERGY PREDICTED BY IDOCK:   -1.62 KCAL/MOL
REMARK 924 INTRA-LIGAND FREE ENERGY PREDICTED BY IDOCK:   -0.04 KCAL/MOL
REMARK 927      BINDING AFFINITY PREDICTED BY RF-SCORE:    0.00 PKD
ROOT
HETATM    1  C   UNL     1     -10.687  15.914  67.848  1.00  0.00    -0.312 C  
HETATM    2  O   UNL     1     -10.824  14.558  67.438  1.00  0.00    -0.281 OA 
ENDROOT
BRANCH   2   3
HETATM    3  C   UNL     1      -9.791  13.715  67.741  1.00  0.00    -0.232 A  
HETATM    4  C   UNL     1      -9.777  12.332  67.545  1.00  0.00    -0.190 A  
HETATM    5  C   UNL     1      -8.653  11.581  67.907  1.00  0.00    -0.143 A  
HETATM    6  C   UNL     1      -7.549  12.218  68.462  1.00  0.00    -0.118 A  
HETATM    7  C   UNL     1      -7.545  13.593  68.652  1.00  0.00    -0.115 A  
HETATM    8  O   UNL     1      -6.440  11.521  68.839  1.00  0.00    -0.054 OA 
HETATM    9  H   UNL     1      -5.686  11.956  69.218  1.00  0.00     0.000 HD 
HETATM   10  C   UNL     1      -8.668  14.341  68.291  1.00  0.00    -0.179 A  
ENDBRANCH   2   3
TORSDOF 1
ENDMDL
MODEL      159
REMARK 921   NORMALIZED FREE ENERGY PREDICTED BY IDOCK:   -1.54 KCAL/MOL
REMARK 922        TOTAL FREE ENERGY PREDICTED BY IDOCK:   -1.66 KCAL/MOL
REMARK 923 INTER-LIGAND FREE ENERGY PREDICTED BY IDOCK:   -1.62 KCAL/MOL
REMARK 924 INTRA-LIGAND FREE ENERGY PREDICTED BY IDOCK:   -0.04 KCAL/MOL
REMARK 927      BINDING AFFINITY PREDICTED BY RF-SCORE:    0.00 PKD
ROOT
HETATM    1  C   UNL     1      -8.699   6.143  66.689  1.00  0.00    -0.124 C  
HETATM    2  O   UNL     1      -9.619   6.772  67.574  1.00  0.00    -0.125 OA 
ENDROOT
BRANCH   2   3
HETATM    3  C   UNL     1      -9.150   7.838  68.293  1.00  0.00    -0.130 A  
HETATM    4  C   UNL     1      -9.788   8.437  69.382  1.00  0.00    -0.185 A  
HETATM    5  C   UNL     1      -9.203   9.531  70.027  1.00  0.00    -0.264 A  
HETATM    6  C   UNL     1      -7.980  10.020  69.579  1.00  0.00    -0.158 A  
HETATM    7  C   UNL     1      -7.330   9.428  68.505  1.00  0.00    -0.079 A  
HETATM    8  O   UNL     1      -7.382  11.092  70.173  1.00  0.00    -0.426 OA 
HETATM    9  H   UNL     1      -6.548  11.426  69.868  1.00  0.00     0.000 HD 
HETATM   10  C   UNL     1      -7.917   8.337  67.862  1.00  0.00    -0.123 A  
ENDBRANCH   2   3
TORSDOF 1
ENDMDL
MODEL      160
REMARK 921   NORMALIZED FREE ENERGY PREDICTED BY IDOCK:   -1.52 KCAL/MOL
REMARK 922        TOTAL FREE ENERGY PREDICTED BY IDOCK:   -1.63 KCAL/MOL
REMARK 923 INTER-LIGAND FREE ENERGY PREDICTED BY IDOCK:   -1.61 KCAL/MOL
REMARK 924 INTRA-LIGAND FREE ENERGY PREDICTED BY IDOCK:   -0.02 KCAL/MOL
REMARK 927      BINDING AFFINITY PREDICTED BY RF-SCORE:    0.00 PKD
ROOT
HETATM    1  C   UNL     1     -11.131   6.698  67.087  1.00  0.00    -0.357 C  
HETATM    2  O   UNL     1     -10.604   7.914  67.606  1.00  0.00    -0.240 OA 
ENDROOT
BRANCH   2   3
HETATM    3  C   UNL     1      -9.782   7.813  68.695  1.00  0.00    -0.157 A  
HETATM    4  C   UNL     1      -8.717   6.921  68.839  1.00  0.00    -0.130 A  
HETATM    5  C   UNL     1      -7.956   6.915  70.013  1.00  0.00    -0.116 A  
HETATM    6  C   UNL     1      -8.264   7.805  71.036  1.00  0.00    -0.103 A  
HETATM    7  C   UNL     1      -9.313   8.704  70.902  1.00  0.00    -0.235 A  
HETATM    8  O   UNL     1      -7.554   7.824  72.200  1.00  0.00    -0.073 OA 
HETATM    9  H   UNL     1      -7.764   8.431  72.899  1.00  0.00     0.000 HD 
HETATM   10  C   UNL     1     -10.072   8.707  69.730  1.00  0.00    -0.199 A  
ENDBRANCH   2   3
TORSDOF 1
ENDMDL
MODEL      161
REMARK 921   NORMALIZED FREE ENERGY PREDICTED BY IDOCK:   -1.50 KCAL/MOL
REMARK 922        TOTAL FREE ENERGY PREDICTED BY IDOCK:   -1.61 KCAL/MOL
REMARK 923 INTER-LIGAND FREE ENERGY PREDICTED BY IDOCK:   -1.58 KCAL/MOL
REMARK 924 INTRA-LIGAND FREE ENERGY PREDICTED BY IDOCK:   -0.03 KCAL/MOL
REMARK 927      BINDING AFFINITY PREDICTED BY RF-SCORE:    0.00 PKD
ROOT
HETATM    1  C   UNL     1      -9.450  10.126  67.082  1.00  0.00    -0.158 C  
HETATM    2  O   UNL     1     -10.052   9.985  68.363  1.00  0.00    -0.156 OA 
ENDROOT
BRANCH   2   3
HETATM    3  C   UNL     1      -9.221   9.673  69.404  1.00  0.00    -0.189 A  
HETATM    4  C   UNL     1      -7.840   9.883  69.442  1.00  0.00    -0.127 A  
HETATM    5  C   UNL     1      -7.101   9.510  70.570  1.00  0.00    -0.130 A  
HETATM    6  C   UNL     1      -7.749   8.930  71.655  1.00  0.00    -0.012 A  
HETATM    7  C   UNL     1      -9.122   8.726  71.636  1.00  0.00    -0.314 A  
HETATM    8  O   UNL     1      -7.064   8.543  72.768  1.00  0.00    -0.214 OA 
HETATM    9  H   UNL     1      -7.506   8.147  73.510  1.00  0.00     0.000 HD 
HETATM   10  C   UNL     1      -9.857   9.098  70.509  1.00  0.00    -0.285 A  
ENDBRANCH   2   3
TORSDOF 1
ENDMDL
MODEL      162
REMARK 921   NORMALIZED FREE ENERGY PREDICTED BY IDOCK:   -1.48 KCAL/MOL
REMARK 922        TOTAL FREE ENERGY PREDICTED BY IDOCK:   -1.59 KCAL/MOL
REMARK 923 INTER-LIGAND FREE ENERGY PREDICTED BY IDOCK:   -1.55 KCAL/MOL
REMARK 924 INTRA-LIGAND FREE ENERGY PREDICTED BY IDOCK:   -0.04 KCAL/MOL
REMARK 927      BINDING AFFINITY PREDICTED BY RF-SCORE:    0.00 PKD
ROOT
HETATM    1  C   UNL     1     -10.883   7.012  66.999  1.00  0.00    -0.343 C  
HETATM    2  O   UNL     1     -10.806   5.905  67.888  1.00  0.00    -0.271 OA 
ENDROOT
BRANCH   2   3
HETATM    3  C   UNL     1      -9.970   4.883  67.528  1.00  0.00    -0.156 A  
HETATM    4  C   UNL     1      -9.443   3.914  68.385  1.00  0.00    -0.210 A  
HETATM    5  C   UNL     1      -8.590   2.923  67.889  1.00  0.00    -0.115 A  
HETATM    6  C   UNL     1      -8.270   2.906  66.536  1.00  0.00    -0.088 A  
HETATM    7  C   UNL     1      -8.795   3.856  65.671  1.00  0.00    -0.124 A  
HETATM    8  O   UNL     1      -7.433   1.964  66.014  1.00  0.00    -0.060 OA 
HETATM    9  H   UNL     1      -7.214   1.952  65.090  1.00  0.00     0.000 HD 
HETATM   10  C   UNL     1      -9.646   4.845  66.169  1.00  0.00    -0.183 A  
ENDBRANCH   2   3
TORSDOF 1
ENDMDL
MODEL      163
REMARK 921   NORMALIZED FREE ENERGY PREDICTED BY IDOCK:   -1.47 KCAL/MOL
REMARK 922        TOTAL FREE ENERGY PREDICTED BY IDOCK:   -1.59 KCAL/MOL
REMARK 923 INTER-LIGAND FREE ENERGY PREDICTED BY IDOCK:   -1.56 KCAL/MOL
REMARK 924 INTRA-LIGAND FREE ENERGY PREDICTED BY IDOCK:   -0.02 KCAL/MOL
REMARK 927      BINDING AFFINITY PREDICTED BY RF-SCORE:    0.00 PKD
ROOT
HETATM    1  C   UNL     1     -10.496   7.090  73.176  1.00  0.00    -0.303 C  
HETATM    2  O   UNL     1     -10.788   6.480  71.925  1.00  0.00    -0.225 OA 
ENDROOT
BRANCH   2   3
HETATM    3  C   UNL     1      -9.975   6.809  70.875  1.00  0.00    -0.186 A  
HETATM    4  C   UNL     1      -8.912   6.044  70.389  1.00  0.00    -0.153 A  
HETATM    5  C   UNL     1      -8.151   6.501  69.307  1.00  0.00    -0.112 A  
HETATM    6  C   UNL     1      -8.459   7.723  68.717  1.00  0.00    -0.129 A  
HETATM    7  C   UNL     1      -9.519   8.488  69.183  1.00  0.00    -0.154 A  
HETATM    8  O   UNL     1      -7.735   8.209  67.670  1.00  0.00    -0.099 OA 
HETATM    9  H   UNL     1      -7.945   9.043  67.267  1.00  0.00     0.000 HD 
HETATM   10  C   UNL     1     -10.277   8.030  70.263  1.00  0.00    -0.200 A  
ENDBRANCH   2   3
TORSDOF 1
ENDMDL
MODEL      164
REMARK 921   NORMALIZED FREE ENERGY PREDICTED BY IDOCK:   -1.40 KCAL/MOL
REMARK 922        TOTAL FREE ENERGY PREDICTED BY IDOCK:   -1.51 KCAL/MOL
REMARK 923 INTER-LIGAND FREE ENERGY PREDICTED BY IDOCK:   -1.48 KCAL/MOL
REMARK 924 INTRA-LIGAND FREE ENERGY PREDICTED BY IDOCK:   -0.03 KCAL/MOL
REMARK 927      BINDING AFFINITY PREDICTED BY RF-SCORE:    0.00 PKD
ROOT
HETATM    1  C   UNL     1      -8.137   7.241  67.239  1.00  0.00    -0.112 C  
HETATM    2  O   UNL     1      -8.355   5.930  67.748  1.00  0.00    -0.108 OA 
ENDROOT
BRANCH   2   3
HETATM    3  C   UNL     1      -8.889   5.838  69.004  1.00  0.00    -0.111 A  
HETATM    4  C   UNL     1     -10.118   5.262  69.332  1.00  0.00    -0.311 A  
HETATM    5  C   UNL     1     -10.553   5.238  70.661  1.00  0.00    -0.263 A  
HETATM    6  C   UNL     1      -9.754   5.791  71.656  1.00  0.00    -0.161 A  
HETATM    7  C   UNL     1      -8.525   6.357  71.346  1.00  0.00    -0.126 A  
HETATM    8  O   UNL     1     -10.147   5.798  72.962  1.00  0.00    -0.171 OA 
HETATM    9  H   UNL     1      -9.601   6.176  73.642  1.00  0.00     0.000 HD 
HETATM   10  C   UNL     1      -8.093   6.379  70.018  1.00  0.00    -0.121 A  
ENDBRANCH   2   3
TORSDOF 1
ENDMDL
MODEL      165
REMARK 921   NORMALIZED FREE ENERGY PREDICTED BY IDOCK:   -1.38 KCAL/MOL
REMARK 922        TOTAL FREE ENERGY PREDICTED BY IDOCK:   -1.49 KCAL/MOL
REMARK 923 INTER-LIGAND FREE ENERGY PREDICTED BY IDOCK:   -1.47 KCAL/MOL
REMARK 924 INTRA-LIGAND FREE ENERGY PREDICTED BY IDOCK:   -0.02 KCAL/MOL
REMARK 927      BINDING AFFINITY PREDICTED BY RF-SCORE:    0.00 PKD
ROOT
HETATM    1  C   UNL     1      -6.392   7.860  71.431  1.00  0.00    -0.035 C  
HETATM    2  O   UNL     1      -6.533   8.295  70.083  1.00  0.00    -0.035 OA 
ENDROOT
BRANCH   2   3
HETATM    3  C   UNL     1      -7.690   7.946  69.442  1.00  0.00    -0.105 A  
HETATM    4  C   UNL     1      -8.129   6.644  69.193  1.00  0.00    -0.116 A  
HETATM    5  C   UNL     1      -9.333   6.423  68.517  1.00  0.00    -0.122 A  
HETATM    6  C   UNL     1     -10.093   7.509  68.094  1.00  0.00    -0.183 A  
HETATM    7  C   UNL     1      -9.674   8.808  68.344  1.00  0.00    -0.175 A  
HETATM    8  O   UNL     1     -11.267   7.336  67.422  1.00  0.00    -0.565 OA 
HETATM    9  H   UNL     1     -11.786   8.077  67.133  1.00  0.00     0.000 HD 
HETATM   10  C   UNL     1      -8.471   9.026  69.018  1.00  0.00    -0.132 A  
ENDBRANCH   2   3
TORSDOF 1
ENDMDL
MODEL      166
REMARK 921   NORMALIZED FREE ENERGY PREDICTED BY IDOCK:   -1.38 KCAL/MOL
REMARK 922        TOTAL FREE ENERGY PREDICTED BY IDOCK:   -1.48 KCAL/MOL
REMARK 923 INTER-LIGAND FREE ENERGY PREDICTED BY IDOCK:   -1.46 KCAL/MOL
REMARK 924 INTRA-LIGAND FREE ENERGY PREDICTED BY IDOCK:   -0.02 KCAL/MOL
REMARK 927      BINDING AFFINITY PREDICTED BY RF-SCORE:    0.00 PKD
ROOT
HETATM    1  C   UNL     1      -9.160   2.359  68.465  1.00  0.00    -0.154 C  
HETATM    2  O   UNL     1      -9.383   3.722  68.121  1.00  0.00    -0.152 OA 
ENDROOT
BRANCH   2   3
HETATM    3  C   UNL     1      -9.365   4.627  69.146  1.00  0.00    -0.142 A  
HETATM    4  C   UNL     1     -10.484   5.155  69.793  1.00  0.00    -0.274 A  
HETATM    5  C   UNL     1     -10.328   6.084  70.827  1.00  0.00    -0.280 A  
HETATM    6  C   UNL     1      -9.050   6.480  71.209  1.00  0.00    -0.148 A  
HETATM    7  C   UNL     1      -7.928   5.955  70.581  1.00  0.00    -0.110 A  
HETATM    8  O   UNL     1      -8.855   7.391  72.203  1.00  0.00    -0.122 OA 
HETATM    9  H   UNL     1      -7.982   7.662  72.464  1.00  0.00     0.000 HD 
HETATM   10  C   UNL     1      -8.088   5.029  69.549  1.00  0.00    -0.078 A  
ENDBRANCH   2   3
TORSDOF 1
ENDMDL
MODEL      167
REMARK 921   NORMALIZED FREE ENERGY PREDICTED BY IDOCK:   -1.35 KCAL/MOL
REMARK 922        TOTAL FREE ENERGY PREDICTED BY IDOCK:   -1.46 KCAL/MOL
REMARK 923 INTER-LIGAND FREE ENERGY PREDICTED BY IDOCK:   -1.44 KCAL/MOL
REMARK 924 INTRA-LIGAND FREE ENERGY PREDICTED BY IDOCK:   -0.02 KCAL/MOL
REMARK 927      BINDING AFFINITY PREDICTED BY RF-SCORE:    0.00 PKD
ROOT
HETATM    1  C   UNL     1     -10.451   8.008  69.021  1.00  0.00    -0.199 C  
HETATM    2  O   UNL     1     -10.186   7.443  70.299  1.00  0.00    -0.196 OA 
ENDROOT
BRANCH   2   3
HETATM    3  C   UNL     1      -9.470   6.277  70.320  1.00  0.00    -0.161 A  
HETATM    4  C   UNL     1      -8.082   6.169  70.434  1.00  0.00    -0.112 A  
HETATM    5  C   UNL     1      -7.471   4.911  70.436  1.00  0.00    -0.058 A  
HETATM    6  C   UNL     1      -8.253   3.766  70.323  1.00  0.00    -0.056 A  
HETATM    7  C   UNL     1      -9.634   3.858  70.220  1.00  0.00    -0.271 A  
HETATM    8  O   UNL     1      -7.695   2.523  70.309  1.00  0.00    -0.043 OA 
HETATM    9  H   UNL     1      -8.228   1.741  70.232  1.00  0.00     0.000 HD 
HETATM   10  C   UNL     1     -10.241   5.115  70.218  1.00  0.00    -0.342 A  
ENDBRANCH   2   3
TORSDOF 1
ENDMDL
MODEL      168
REMARK 921   NORMALIZED FREE ENERGY PREDICTED BY IDOCK:   -1.34 KCAL/MOL
REMARK 922        TOTAL FREE ENERGY PREDICTED BY IDOCK:   -1.45 KCAL/MOL
REMARK 923 INTER-LIGAND FREE ENERGY PREDICTED BY IDOCK:   -1.42 KCAL/MOL
REMARK 924 INTRA-LIGAND FREE ENERGY PREDICTED BY IDOCK:   -0.03 KCAL/MOL
REMARK 927      BINDING AFFINITY PREDICTED BY RF-SCORE:    0.00 PKD
ROOT
HETATM    1  C   UNL     1      -6.804  11.190  67.833  1.00  0.00    -0.068 C  
HETATM    2  O   UNL     1      -6.251  11.334  66.530  1.00  0.00    -0.130 OA 
ENDROOT
BRANCH   2   3
HETATM    3  C   UNL     1      -6.720  10.484  65.565  1.00  0.00    -0.092 A  
HETATM    4  C   UNL     1      -5.938   9.716  64.699  1.00  0.00    -0.084 A  
HETATM    5  C   UNL     1      -6.545   8.889  63.748  1.00  0.00    -0.088 A  
HETATM    6  C   UNL     1      -7.932   8.835  63.669  1.00  0.00    -0.158 A  
HETATM    7  C   UNL     1      -8.721   9.585  64.530  1.00  0.00    -0.232 A  
HETATM    8  O   UNL     1      -8.562   8.051  62.748  1.00  0.00    -0.407 OA 
HETATM    9  H   UNL     1      -9.509   8.014  62.694  1.00  0.00     0.000 HD 
HETATM   10  C   UNL     1      -8.113  10.410  65.479  1.00  0.00    -0.156 A  
ENDBRANCH   2   3
TORSDOF 1
ENDMDL
MODEL      169
REMARK 921   NORMALIZED FREE ENERGY PREDICTED BY IDOCK:   -1.34 KCAL/MOL
REMARK 922        TOTAL FREE ENERGY PREDICTED BY IDOCK:   -1.45 KCAL/MOL
REMARK 923 INTER-LIGAND FREE ENERGY PREDICTED BY IDOCK:   -1.42 KCAL/MOL
REMARK 924 INTRA-LIGAND FREE ENERGY PREDICTED BY IDOCK:   -0.03 KCAL/MOL
REMARK 927      BINDING AFFINITY PREDICTED BY RF-SCORE:    0.00 PKD
ROOT
HETATM    1  C   UNL     1     -11.752  12.051  69.479  1.00  0.00    -0.342 C  
HETATM    2  O   UNL     1     -10.345  11.844  69.478  1.00  0.00     0.167 OA 
ENDROOT
BRANCH   2   3
HETATM    3  C   UNL     1      -9.868  10.858  68.657  1.00  0.00    -0.190 A  
HETATM    4  C   UNL     1     -10.338  10.560  67.376  1.00  0.00    -0.269 A  
HETATM    5  C   UNL     1      -9.765   9.517  66.641  1.00  0.00    -0.270 A  
HETATM    6  C   UNL     1      -8.724   8.778  67.192  1.00  0.00    -0.120 A  
HETATM    7  C   UNL     1      -8.240   9.071  68.459  1.00  0.00    -0.112 A  
HETATM    8  O   UNL     1      -8.146   7.746  66.512  1.00  0.00    -0.106 OA 
HETATM    9  H   UNL     1      -7.435   7.242  66.888  1.00  0.00     0.000 HD 
HETATM   10  C   UNL     1      -8.813  10.112  69.191  1.00  0.00    -0.179 A  
ENDBRANCH   2   3
TORSDOF 1
ENDMDL
MODEL      170
REMARK 921   NORMALIZED FREE ENERGY PREDICTED BY IDOCK:   -1.28 KCAL/MOL
REMARK 922        TOTAL FREE ENERGY PREDICTED BY IDOCK:   -1.38 KCAL/MOL
REMARK 923 INTER-LIGAND FREE ENERGY PREDICTED BY IDOCK:   -1.35 KCAL/MOL
REMARK 924 INTRA-LIGAND FREE ENERGY PREDICTED BY IDOCK:   -0.03 KCAL/MOL
REMARK 927      BINDING AFFINITY PREDICTED BY RF-SCORE:    0.00 PKD
ROOT
HETATM    1  C   UNL     1     -10.047   9.738  68.270  1.00  0.00    -0.163 C  
HETATM    2  O   UNL     1      -8.990  10.448  67.634  1.00  0.00    -0.137 OA 
ENDROOT
BRANCH   2   3
HETATM    3  C   UNL     1      -8.513   9.922  66.464  1.00  0.00    -0.125 A  
HETATM    4  C   UNL     1      -7.308   9.234  66.306  1.00  0.00    -0.092 A  
HETATM    5  C   UNL     1      -6.931   8.752  65.048  1.00  0.00    -0.076 A  
HETATM    6  C   UNL     1      -7.764   8.961  63.954  1.00  0.00    -0.129 A  
HETATM    7  C   UNL     1      -8.970   9.634  64.099  1.00  0.00    -0.269 A  
HETATM    8  O   UNL     1      -7.428   8.517  62.709  1.00  0.00    -0.096 OA 
HETATM    9  H   UNL     1      -7.997   8.660  61.962  1.00  0.00     0.000 HD 
HETATM   10  C   UNL     1      -9.343  10.114  65.356  1.00  0.00    -0.269 A  
ENDBRANCH   2   3
TORSDOF 1
ENDMDL
MODEL      171
REMARK 921   NORMALIZED FREE ENERGY PREDICTED BY IDOCK:   -1.28 KCAL/MOL
REMARK 922        TOTAL FREE ENERGY PREDICTED BY IDOCK:   -1.38 KCAL/MOL
REMARK 923 INTER-LIGAND FREE ENERGY PREDICTED BY IDOCK:   -1.36 KCAL/MOL
REMARK 924 INTRA-LIGAND FREE ENERGY PREDICTED BY IDOCK:   -0.02 KCAL/MOL
REMARK 927      BINDING AFFINITY PREDICTED BY RF-SCORE:    0.00 PKD
ROOT
HETATM    1  C   UNL     1     -10.107   6.676  68.200  1.00  0.00    -0.158 C  
HETATM    2  O   UNL     1      -9.997   5.261  68.100  1.00  0.00    -0.146 OA 
ENDROOT
BRANCH   2   3
HETATM    3  C   UNL     1      -9.642   4.756  66.879  1.00  0.00    -0.172 A  
HETATM    4  C   UNL     1     -10.490   4.595  65.780  1.00  0.00    -0.290 A  
HETATM    5  C   UNL     1     -10.001   4.058  64.585  1.00  0.00    -0.205 A  
HETATM    6  C   UNL     1      -8.665   3.685  64.495  1.00  0.00    -0.105 A  
HETATM    7  C   UNL     1      -7.808   3.849  65.575  1.00  0.00    -0.093 A  
HETATM    8  O   UNL     1      -8.152   3.146  63.352  1.00  0.00    -0.082 OA 
HETATM    9  H   UNL     1      -7.239   2.891  63.290  1.00  0.00     0.000 HD 
HETATM   10  C   UNL     1      -8.299   4.385  66.767  1.00  0.00    -0.105 A  
ENDBRANCH   2   3
TORSDOF 1
ENDMDL
MODEL      172
REMARK 921   NORMALIZED FREE ENERGY PREDICTED BY IDOCK:   -1.23 KCAL/MOL
REMARK 922        TOTAL FREE ENERGY PREDICTED BY IDOCK:   -1.33 KCAL/MOL
REMARK 923 INTER-LIGAND FREE ENERGY PREDICTED BY IDOCK:   -1.30 KCAL/MOL
REMARK 924 INTRA-LIGAND FREE ENERGY PREDICTED BY IDOCK:   -0.04 KCAL/MOL
REMARK 927      BINDING AFFINITY PREDICTED BY RF-SCORE:    0.00 PKD
ROOT
HETATM    1  C   UNL     1      -5.191  10.910  65.778  1.00  0.00    -0.133 C  
HETATM    2  O   UNL     1      -6.450  10.719  66.413  1.00  0.00    -0.105 OA 
ENDROOT
BRANCH   2   3
HETATM    3  C   UNL     1      -6.948  11.777  67.124  1.00  0.00    -0.145 A  
HETATM    4  C   UNL     1      -8.293  12.139  67.221  1.00  0.00    -0.179 A  
HETATM    5  C   UNL     1      -8.670  13.254  67.979  1.00  0.00    -0.186 A  
HETATM    6  C   UNL     1      -7.698  13.999  68.636  1.00  0.00    -0.135 A  
HETATM    7  C   UNL     1      -6.358  13.644  68.557  1.00  0.00    -0.092 A  
HETATM    8  O   UNL     1      -8.022  15.098  69.375  1.00  0.00    -0.202 OA 
HETATM    9  H   UNL     1      -7.358  15.607  69.824  1.00  0.00     0.000 HD 
HETATM   10  C   UNL     1      -5.984  12.532  67.800  1.00  0.00    -0.119 A  
ENDBRANCH   2   3
TORSDOF 1
ENDMDL
MODEL      173
REMARK 921   NORMALIZED FREE ENERGY PREDICTED BY IDOCK:   -1.22 KCAL/MOL
REMARK 922        TOTAL FREE ENERGY PREDICTED BY IDOCK:   -1.32 KCAL/MOL
REMARK 923 INTER-LIGAND FREE ENERGY PREDICTED BY IDOCK:   -1.29 KCAL/MOL
REMARK 924 INTRA-LIGAND FREE ENERGY PREDICTED BY IDOCK:   -0.03 KCAL/MOL
REMARK 927      BINDING AFFINITY PREDICTED BY RF-SCORE:    0.00 PKD
ROOT
HETATM    1  C   UNL     1      -8.810   2.452  67.540  1.00  0.00    -0.136 C  
HETATM    2  O   UNL     1      -9.702   3.319  68.230  1.00  0.00    -0.127 OA 
ENDROOT
BRANCH   2   3
HETATM    3  C   UNL     1      -9.256   4.587  68.484  1.00  0.00    -0.133 A  
HETATM    4  C   UNL     1      -7.981   5.080  68.198  1.00  0.00    -0.087 A  
HETATM    5  C   UNL     1      -7.648   6.400  68.517  1.00  0.00    -0.097 A  
HETATM    6  C   UNL     1      -8.594   7.222  69.120  1.00  0.00    -0.133 A  
HETATM    7  C   UNL     1      -9.868   6.748  69.401  1.00  0.00    -0.162 A  
HETATM    8  O   UNL     1      -8.305   8.511  69.458  1.00  0.00    -0.114 OA 
HETATM    9  H   UNL     1      -8.952   9.072  69.870  1.00  0.00     0.000 HD 
HETATM   10  C   UNL     1     -10.198   5.429  69.082  1.00  0.00    -0.302 A  
ENDBRANCH   2   3
TORSDOF 1
ENDMDL
MODEL      174
REMARK 921   NORMALIZED FREE ENERGY PREDICTED BY IDOCK:   -1.21 KCAL/MOL
REMARK 922        TOTAL FREE ENERGY PREDICTED BY IDOCK:   -1.31 KCAL/MOL
REMARK 923 INTER-LIGAND FREE ENERGY PREDICTED BY IDOCK:   -1.27 KCAL/MOL
REMARK 924 INTRA-LIGAND FREE ENERGY PREDICTED BY IDOCK:   -0.04 KCAL/MOL
REMARK 927      BINDING AFFINITY PREDICTED BY RF-SCORE:    0.00 PKD
ROOT
HETATM    1  C   UNL     1     -10.110   7.021  68.588  1.00  0.00    -0.166 C  
HETATM    2  O   UNL     1      -9.306   6.827  69.746  1.00  0.00    -0.146 OA 
ENDROOT
BRANCH   2   3
HETATM    3  C   UNL     1      -8.439   7.834  70.069  1.00  0.00    -0.135 A  
HETATM    4  C   UNL     1      -7.273   7.701  70.828  1.00  0.00    -0.062 A  
HETATM    5  C   UNL     1      -6.474   8.818  71.094  1.00  0.00    -0.061 A  
HETATM    6  C   UNL     1      -6.845  10.063  70.597  1.00  0.00    -0.047 A  
HETATM    7  C   UNL     1      -7.994  10.208  69.833  1.00  0.00    -0.149 A  
HETATM    8  O   UNL     1      -6.099  11.178  70.844  1.00  0.00    -0.360 OA 
HETATM    9  H   UNL     1      -6.352  12.028  70.505  1.00  0.00     0.000 HD 
HETATM   10  C   UNL     1      -8.791   9.092  69.570  1.00  0.00    -0.146 A  
ENDBRANCH   2   3
TORSDOF 1
ENDMDL
MODEL      175
REMARK 921   NORMALIZED FREE ENERGY PREDICTED BY IDOCK:   -1.20 KCAL/MOL
REMARK 922        TOTAL FREE ENERGY PREDICTED BY IDOCK:   -1.30 KCAL/MOL
REMARK 923 INTER-LIGAND FREE ENERGY PREDICTED BY IDOCK:   -1.27 KCAL/MOL
REMARK 924 INTRA-LIGAND FREE ENERGY PREDICTED BY IDOCK:   -0.03 KCAL/MOL
REMARK 927      BINDING AFFINITY PREDICTED BY RF-SCORE:    0.00 PKD
ROOT
HETATM    1  C   UNL     1      -8.126   4.216  67.243  1.00  0.00    -0.099 C  
HETATM    2  O   UNL     1      -9.286   5.001  67.499  1.00  0.00    -0.114 OA 
ENDROOT
BRANCH   2   3
HETATM    3  C   UNL     1      -9.129   6.359  67.469  1.00  0.00    -0.114 A  
HETATM    4  C   UNL     1      -9.615   7.219  66.482  1.00  0.00    -0.211 A  
HETATM    5  C   UNL     1      -9.378   8.595  66.566  1.00  0.00    -0.257 A  
HETATM    6  C   UNL     1      -8.656   9.104  67.641  1.00  0.00    -0.117 A  
HETATM    7  C   UNL     1      -8.177   8.262  68.635  1.00  0.00    -0.120 A  
HETATM    8  O   UNL     1      -8.394  10.437  67.754  1.00  0.00    -0.113 OA 
HETATM    9  H   UNL     1      -7.901  10.785  68.488  1.00  0.00     0.000 HD 
HETATM   10  C   UNL     1      -8.414   6.889  68.548  1.00  0.00    -0.123 A  
ENDBRANCH   2   3
TORSDOF 1
ENDMDL
MODEL      176
REMARK 921   NORMALIZED FREE ENERGY PREDICTED BY IDOCK:   -1.17 KCAL/MOL
REMARK 922        TOTAL FREE ENERGY PREDICTED BY IDOCK:   -1.26 KCAL/MOL
REMARK 923 INTER-LIGAND FREE ENERGY PREDICTED BY IDOCK:   -1.24 KCAL/MOL
REMARK 924 INTRA-LIGAND FREE ENERGY PREDICTED BY IDOCK:   -0.02 KCAL/MOL
REMARK 927      BINDING AFFINITY PREDICTED BY RF-SCORE:    0.00 PKD
ROOT
HETATM    1  C   UNL     1      -7.256  10.603  69.518  1.00  0.00    -0.140 C  
HETATM    2  O   UNL     1      -7.814  10.112  68.305  1.00  0.00    -0.091 OA 
ENDROOT
BRANCH   2   3
HETATM    3  C   UNL     1      -8.558   8.967  68.389  1.00  0.00    -0.130 A  
HETATM    4  C   UNL     1      -9.908   8.890  68.738  1.00  0.00    -0.182 A  
HETATM    5  C   UNL     1     -10.552   7.649  68.794  1.00  0.00    -0.169 A  
HETATM    6  C   UNL     1      -9.840   6.491  68.499  1.00  0.00    -0.138 A  
HETATM    7  C   UNL     1      -8.501   6.554  68.141  1.00  0.00    -0.116 A  
HETATM    8  O   UNL     1     -10.428   5.262  68.554  1.00  0.00    -0.157 OA 
HETATM    9  H   UNL     1      -9.942   4.471  68.352  1.00  0.00     0.000 HD 
HETATM   10  C   UNL     1      -7.860   7.794  68.086  1.00  0.00    -0.121 A  
ENDBRANCH   2   3
TORSDOF 1
ENDMDL
MODEL      177
REMARK 921   NORMALIZED FREE ENERGY PREDICTED BY IDOCK:   -1.08 KCAL/MOL
REMARK 922        TOTAL FREE ENERGY PREDICTED BY IDOCK:   -1.17 KCAL/MOL
REMARK 923 INTER-LIGAND FREE ENERGY PREDICTED BY IDOCK:   -1.14 KCAL/MOL
REMARK 924 INTRA-LIGAND FREE ENERGY PREDICTED BY IDOCK:   -0.03 KCAL/MOL
REMARK 927      BINDING AFFINITY PREDICTED BY RF-SCORE:    0.00 PKD
ROOT
HETATM    1  C   UNL     1     -10.887   6.767  67.826  1.00  0.00    -0.264 C  
HETATM    2  O   UNL     1     -10.604   8.063  68.339  1.00  0.00    -0.186 OA 
ENDROOT
BRANCH   2   3
HETATM    3  C   UNL     1      -9.326   8.524  68.178  1.00  0.00    -0.137 A  
HETATM    4  C   UNL     1      -8.197   7.740  67.928  1.00  0.00    -0.123 A  
HETATM    5  C   UNL     1      -6.940   8.338  67.790  1.00  0.00    -0.078 A  
HETATM    6  C   UNL     1      -6.820   9.719  67.902  1.00  0.00    -0.073 A  
HETATM    7  C   UNL     1      -7.935  10.511  68.139  1.00  0.00    -0.111 A  
HETATM    8  O   UNL     1      -5.612  10.340  67.785  1.00  0.00    -0.041 OA 
HETATM    9  H   UNL     1      -5.529  11.283  67.861  1.00  0.00     0.000 HD 
HETATM   10  C   UNL     1      -9.188   9.912  68.277  1.00  0.00    -0.130 A  
ENDBRANCH   2   3
TORSDOF 1
ENDMDL
MODEL      178
REMARK 921   NORMALIZED FREE ENERGY PREDICTED BY IDOCK:   -0.80 KCAL/MOL
REMARK 922        TOTAL FREE ENERGY PREDICTED BY IDOCK:   -0.87 KCAL/MOL
REMARK 923 INTER-LIGAND FREE ENERGY PREDICTED BY IDOCK:   -0.83 KCAL/MOL
REMARK 924 INTRA-LIGAND FREE ENERGY PREDICTED BY IDOCK:   -0.04 KCAL/MOL
REMARK 927      BINDING AFFINITY PREDICTED BY RF-SCORE:    0.00 PKD
ROOT
HETATM    1  C   UNL     1      -9.879   9.637  68.241  1.00  0.00    -0.150 C  
HETATM    2  O   UNL     1      -8.566   9.907  67.764  1.00  0.00    -0.121 OA 
ENDROOT
BRANCH   2   3
HETATM    3  C   UNL     1      -8.005   8.969  66.941  1.00  0.00    -0.105 A  
HETATM    4  C   UNL     1      -7.126   9.225  65.886  1.00  0.00    -0.090 A  
HETATM    5  C   UNL     1      -6.627   8.172  65.112  1.00  0.00    -0.052 A  
HETATM    6  C   UNL     1      -7.011   6.866  65.400  1.00  0.00    -0.059 A  
HETATM    7  C   UNL     1      -7.875   6.596  66.452  1.00  0.00    -0.104 A  
HETATM    8  O   UNL     1      -6.557   5.813  64.663  1.00  0.00    -0.040 OA 
HETATM    9  H   UNL     1      -6.819   4.921  64.859  1.00  0.00     0.000 HD 
HETATM   10  C   UNL     1      -8.372   7.650  67.222  1.00  0.00    -0.115 A  
ENDBRANCH   2   3
TORSDOF 1
ENDMDL
MODEL      179
REMARK 921   NORMALIZED FREE ENERGY PREDICTED BY IDOCK:    3.70 KCAL/MOL
REMARK 922        TOTAL FREE ENERGY PREDICTED BY IDOCK:    3.89 KCAL/MOL
REMARK 923 INTER-LIGAND FREE ENERGY PREDICTED BY IDOCK:    3.92 KCAL/MOL
REMARK 924 INTRA-LIGAND FREE ENERGY PREDICTED BY IDOCK:   -0.03 KCAL/MOL
REMARK 927      BINDING AFFINITY PREDICTED BY RF-SCORE:    0.00 PKD
ROOT
HETATM    1  C   UNL     1     -10.288  13.642  71.368  1.00  0.00     5.715 C  
HETATM    2  O   UNL     1     -10.618  15.015  71.191  1.00  0.00     0.005 OA 
ENDROOT
BRANCH   2   3
HETATM    3  C   UNL     1     -10.288  15.577  69.988  1.00  0.00    -0.302 A  
HETATM    4  C   UNL     1     -11.177  16.165  69.086  1.00  0.00    -0.336 A  
HETATM    5  C   UNL     1     -10.708  16.699  67.881  1.00  0.00    -0.344 A  
HETATM    6  C   UNL     1      -9.350  16.643  67.586  1.00  0.00    -0.224 A  
HETATM    7  C   UNL     1      -8.454  16.071  68.478  1.00  0.00    -0.189 A  
HETATM    8  O   UNL     1      -8.855  17.142  66.418  1.00  0.00    -0.245 OA 
HETATM    9  H   UNL     1      -7.928  17.103  66.216  1.00  0.00     0.000 HD 
HETATM   10  C   UNL     1      -8.924  15.538  69.680  1.00  0.00    -0.158 A  
ENDBRANCH   2   3
TORSDOF 1
ENDMDL
MODEL      180
REMARK 921   NORMALIZED FREE ENERGY PREDICTED BY IDOCK:   14.33 KCAL/MOL
REMARK 922        TOTAL FREE ENERGY PREDICTED BY IDOCK:   15.14 KCAL/MOL
REMARK 923 INTER-LIGAND FREE ENERGY PREDICTED BY IDOCK:   15.17 KCAL/MOL
REMARK 924 INTRA-LIGAND FREE ENERGY PREDICTED BY IDOCK:   -0.02 KCAL/MOL
REMARK 927      BINDING AFFINITY PREDICTED BY RF-SCORE:    0.00 PKD
ROOT
HETATM    1  C   UNL     1      -9.187  14.691  74.069  1.00  0.00    10.242 C  
HETATM    2  O   UNL     1      -9.942  15.641  73.325  1.00  0.00     5.083 OA 
ENDROOT
BRANCH   2   3
HETATM    3  C   UNL     1     -11.063  15.178  72.693  1.00  0.00     0.444 A  
HETATM    4  C   UNL     1     -12.025  14.330  73.246  1.00  0.00     0.345 A  
HETATM    5  C   UNL     1     -13.126  13.923  72.486  1.00  0.00    -0.533 A  
HETATM    6  C   UNL     1     -13.259  14.368  71.175  1.00  0.00    -0.350 A  
HETATM    7  C   UNL     1     -12.316  15.219  70.616  1.00  0.00    -0.427 A  
HETATM    8  O   UNL     1     -14.311  13.984  70.397  1.00  0.00     0.756 OA 
HETATM    9  H   UNL     1     -14.402  14.288  69.502  1.00  0.00     0.000 HD 
HETATM   10  C   UNL     1     -11.218  15.624  71.377  1.00  0.00    -0.392 A  
ENDBRANCH   2   3
TORSDOF 1
ENDMDL
