MODEL        1
REMARK 921   NORMALIZED FREE ENERGY PREDICTED BY IDOCK:   -6.59 KCAL/MOL
REMARK 922        TOTAL FREE ENERGY PREDICTED BY IDOCK:   -8.66 KCAL/MOL
REMARK 923 INTER-LIGAND FREE ENERGY PREDICTED BY IDOCK:   -7.75 KCAL/MOL
REMARK 924 INTRA-LIGAND FREE ENERGY PREDICTED BY IDOCK:   -0.92 KCAL/MOL
REMARK 927      BINDING AFFINITY PREDICTED BY RF-SCORE:    0.00 PKD
ROOT
HETATM    1  C   UNL     1      -7.614  20.092  66.634  1.00  0.00    -0.314 C  
HETATM    2  C   UNL     1      -8.942  19.406  67.005  1.00  0.00    -0.350 C  
HETATM    3  C   UNL     1      -8.971  17.913  66.537  1.00  0.00    -0.278 C  
HETATM    4  C   UNL     1     -10.079  20.269  66.447  1.00  0.00    -0.491 C  
HETATM    5  C   UNL     1      -7.868  17.074  67.235  1.00  0.00    -0.198 C  
HETATM    6  C   UNL     1      -8.115  16.926  68.738  1.00  0.00    -0.251 C  
HETATM    7  C   UNL     1      -9.515  16.399  69.093  1.00  0.00    -0.236 C  
HETATM    8  C   UNL     1      -9.550  14.869  69.059  1.00  0.00    -0.204 C  
HETATM    9  C   UNL     1     -10.637  17.022  68.243  1.00  0.00    -0.372 C  
HETATM   10  C   UNL     1     -10.320  17.166  66.750  1.00  0.00    -0.302 C  
ENDROOT
BRANCH  10  11
HETATM   11  O   UNL     1     -10.158  15.885  66.086  1.00  0.00    -0.275 OA 
BRANCH  11  12
HETATM   12  C   UNL     1     -10.892  15.568  64.986  1.00  0.00    -0.450 C  
HETATM   13  O   UNL     1     -11.464  16.346  64.241  1.00  0.00    -0.876 OA 
BRANCH  12  14
HETATM   14  C   UNL     1     -10.861  14.086  64.822  1.00  0.00    -0.430 A  
HETATM   15  C   UNL     1      -9.984  13.336  65.632  1.00  0.00    -0.242 A  
HETATM   16  C   UNL     1      -9.899  11.950  65.505  1.00  0.00    -0.257 A  
HETATM   17  C   UNL     1     -10.702  11.297  64.572  1.00  0.00    -0.390 A  
HETATM   18  C   UNL     1     -11.569  12.035  63.761  1.00  0.00    -0.565 A  
HETATM   19  C   UNL     1     -11.629  13.438  63.834  1.00  0.00    -0.354 A  
HETATM   20  N   UNL     1     -12.624  14.094  63.084  1.00  0.00    -0.911 NA 
HETATM   21  H2  UNL     1     -12.190  14.908  62.647  1.00  0.00     0.000 HD 
HETATM   22  H1  UNL     1     -13.180  13.625  62.369  1.00  0.00     0.000 HD 
ENDBRANCH  12  14
ENDBRANCH  11  12
ENDBRANCH  10  11
TORSDOF 3
ENDMDL
MODEL        2
REMARK 921   NORMALIZED FREE ENERGY PREDICTED BY IDOCK:   -6.52 KCAL/MOL
REMARK 922        TOTAL FREE ENERGY PREDICTED BY IDOCK:   -8.57 KCAL/MOL
REMARK 923 INTER-LIGAND FREE ENERGY PREDICTED BY IDOCK:   -7.61 KCAL/MOL
REMARK 924 INTRA-LIGAND FREE ENERGY PREDICTED BY IDOCK:   -0.96 KCAL/MOL
REMARK 927      BINDING AFFINITY PREDICTED BY RF-SCORE:    0.00 PKD
ROOT
HETATM    1  C   UNL     1     -10.561  11.697  69.067  1.00  0.00    -0.188 C  
HETATM    2  C   UNL     1     -11.501  12.655  68.312  1.00  0.00    -0.356 C  
HETATM    3  C   UNL     1     -10.758  13.397  67.152  1.00  0.00    -0.268 C  
HETATM    4  C   UNL     1     -12.145  13.581  69.349  1.00  0.00    -0.340 C  
HETATM    5  C   UNL     1     -10.239  12.403  66.079  1.00  0.00    -0.267 C  
HETATM    6  C   UNL     1     -11.378  11.719  65.321  1.00  0.00    -0.284 C  
HETATM    7  C   UNL     1     -12.403  12.693  64.719  1.00  0.00    -0.556 C  
HETATM    8  C   UNL     1     -11.948  13.187  63.344  1.00  0.00    -0.552 C  
HETATM    9  C   UNL     1     -12.768  13.856  65.659  1.00  0.00    -0.534 C  
HETATM   10  C   UNL     1     -11.587  14.484  66.407  1.00  0.00    -0.364 C  
ENDROOT
BRANCH  10  11
HETATM   11  O   UNL     1     -10.647  15.142  65.518  1.00  0.00    -0.314 OA 
BRANCH  11  12
HETATM   12  C   UNL     1     -10.776  16.460  65.212  1.00  0.00    -0.295 C  
HETATM   13  O   UNL     1     -11.336  16.931  64.236  1.00  0.00    -1.202 OA 
BRANCH  12  14
HETATM   14  C   UNL     1     -10.132  17.252  66.300  1.00  0.00    -0.323 A  
HETATM   15  C   UNL     1     -10.852  18.318  66.874  1.00  0.00    -0.152 A  
HETATM   16  C   UNL     1     -10.289  19.104  67.880  1.00  0.00    -0.505 A  
HETATM   17  C   UNL     1      -9.002  18.821  68.331  1.00  0.00    -0.367 A  
HETATM   18  C   UNL     1      -8.280  17.769  67.762  1.00  0.00    -0.227 A  
HETATM   19  C   UNL     1      -8.807  17.000  66.708  1.00  0.00    -0.242 A  
HETATM   20  N   UNL     1      -8.074  15.875  66.284  1.00  0.00    -0.279 NA 
HETATM   21  H2  UNL     1      -8.085  15.870  65.264  1.00  0.00     0.000 HD 
HETATM   22  H1  UNL     1      -7.115  15.693  66.580  1.00  0.00     0.000 HD 
ENDBRANCH  12  14
ENDBRANCH  11  12
ENDBRANCH  10  11
TORSDOF 3
ENDMDL
MODEL        3
REMARK 921   NORMALIZED FREE ENERGY PREDICTED BY IDOCK:   -6.41 KCAL/MOL
REMARK 922        TOTAL FREE ENERGY PREDICTED BY IDOCK:   -8.45 KCAL/MOL
REMARK 923 INTER-LIGAND FREE ENERGY PREDICTED BY IDOCK:   -7.62 KCAL/MOL
REMARK 924 INTRA-LIGAND FREE ENERGY PREDICTED BY IDOCK:   -0.83 KCAL/MOL
REMARK 927      BINDING AFFINITY PREDICTED BY RF-SCORE:    0.00 PKD
ROOT
HETATM    1  C   UNL     1     -10.357  18.985  66.358  1.00  0.00    -0.520 C  
HETATM    2  C   UNL     1      -9.943  18.245  67.644  1.00  0.00    -0.348 C  
HETATM    3  C   UNL     1     -10.777  16.938  67.852  1.00  0.00    -0.344 C  
HETATM    4  C   UNL     1     -10.032  19.246  68.801  1.00  0.00    -0.511 C  
HETATM    5  C   UNL     1     -10.543  15.923  66.702  1.00  0.00    -0.305 C  
HETATM    6  C   UNL     1      -9.115  15.373  66.695  1.00  0.00    -0.310 C  
HETATM    7  C   UNL     1      -8.661  14.792  68.044  1.00  0.00    -0.168 C  
HETATM    8  C   UNL     1      -9.093  13.331  68.185  1.00  0.00    -0.207 C  
HETATM    9  C   UNL     1      -9.093  15.642  69.253  1.00  0.00    -0.270 C  
HETATM   10  C   UNL     1     -10.526  16.183  69.190  1.00  0.00    -0.265 C  
ENDROOT
BRANCH  10  11
HETATM   11  O   UNL     1     -11.524  15.130  69.231  1.00  0.00    -0.273 OA 
BRANCH  11  12
HETATM   12  C   UNL     1     -12.391  15.025  70.273  1.00  0.00    -0.342 C  
HETATM   13  O   UNL     1     -12.992  15.937  70.817  1.00  0.00    -0.475 OA 
BRANCH  12  14
HETATM   14  C   UNL     1     -12.510  13.583  70.631  1.00  0.00    -0.405 A  
HETATM   15  C   UNL     1     -11.947  12.624  69.764  1.00  0.00    -0.365 A  
HETATM   16  C   UNL     1     -12.048  11.261  70.041  1.00  0.00    -0.425 A  
HETATM   17  C   UNL     1     -12.704  10.843  71.196  1.00  0.00    -0.530 A  
HETATM   18  C   UNL     1     -13.271  11.787  72.056  1.00  0.00    -0.460 A  
HETATM   19  C   UNL     1     -13.229  13.163  71.768  1.00  0.00    -0.403 A  
HETATM   20  N   UNL     1     -13.700  14.056  72.750  1.00  0.00    -0.691 NA 
HETATM   21  H2  UNL     1     -14.264  14.762  72.276  1.00  0.00     0.000 HD 
HETATM   22  H1  UNL     1     -14.220  13.752  73.573  1.00  0.00     0.000 HD 
ENDBRANCH  12  14
ENDBRANCH  11  12
ENDBRANCH  10  11
TORSDOF 3
ENDMDL
MODEL        4
REMARK 921   NORMALIZED FREE ENERGY PREDICTED BY IDOCK:   -6.35 KCAL/MOL
REMARK 922        TOTAL FREE ENERGY PREDICTED BY IDOCK:   -8.37 KCAL/MOL
REMARK 923 INTER-LIGAND FREE ENERGY PREDICTED BY IDOCK:   -7.46 KCAL/MOL
REMARK 924 INTRA-LIGAND FREE ENERGY PREDICTED BY IDOCK:   -0.92 KCAL/MOL
REMARK 927      BINDING AFFINITY PREDICTED BY RF-SCORE:    0.00 PKD
ROOT
HETATM    1  C   UNL     1     -10.687  11.800  69.164  1.00  0.00    -0.169 C  
HETATM    2  C   UNL     1     -11.570  12.775  68.364  1.00  0.00    -0.365 C  
HETATM    3  C   UNL     1     -10.790  13.408  67.164  1.00  0.00    -0.284 C  
HETATM    4  C   UNL     1     -12.147  13.793  69.354  1.00  0.00    -0.377 C  
HETATM    5  C   UNL     1     -10.342  12.329  66.143  1.00  0.00    -0.269 C  
HETATM    6  C   UNL     1     -11.528  11.681  65.426  1.00  0.00    -0.170 C  
HETATM    7  C   UNL     1     -12.493  12.686  64.777  1.00  0.00    -0.555 C  
HETATM    8  C   UNL     1     -12.017  13.079  63.377  1.00  0.00    -0.592 C  
HETATM    9  C   UNL     1     -12.777  13.917  65.657  1.00  0.00    -0.534 C  
HETATM   10  C   UNL     1     -11.553  14.506  66.368  1.00  0.00    -0.364 C  
ENDROOT
BRANCH  10  11
HETATM   11  O   UNL     1     -10.580  15.056  65.442  1.00  0.00    -0.322 OA 
BRANCH  11  12
HETATM   12  C   UNL     1     -10.505  16.395  65.217  1.00  0.00    -0.261 C  
HETATM   13  O   UNL     1     -11.116  17.028  64.372  1.00  0.00    -1.144 OA 
BRANCH  12  14
HETATM   14  C   UNL     1      -9.556  16.977  66.210  1.00  0.00    -0.289 A  
HETATM   15  C   UNL     1      -8.474  16.190  66.652  1.00  0.00    -0.315 A  
HETATM   16  C   UNL     1      -7.570  16.678  67.595  1.00  0.00    -0.170 A  
HETATM   17  C   UNL     1      -7.733  17.967  68.098  1.00  0.00    -0.256 A  
HETATM   18  C   UNL     1      -8.808  18.751  67.670  1.00  0.00    -0.300 A  
HETATM   19  C   UNL     1      -9.763  18.258  66.762  1.00  0.00    -0.322 A  
HETATM   20  N   UNL     1     -10.734  19.154  66.277  1.00  0.00    -0.401 NA 
HETATM   21  H2  UNL     1     -11.631  18.669  66.289  1.00  0.00     0.000 HD 
HETATM   22  H1  UNL     1     -10.883  20.081  66.676  1.00  0.00     0.000 HD 
ENDBRANCH  12  14
ENDBRANCH  11  12
ENDBRANCH  10  11
TORSDOF 3
ENDMDL
MODEL        5
REMARK 921   NORMALIZED FREE ENERGY PREDICTED BY IDOCK:   -6.34 KCAL/MOL
REMARK 922        TOTAL FREE ENERGY PREDICTED BY IDOCK:   -8.36 KCAL/MOL
REMARK 923 INTER-LIGAND FREE ENERGY PREDICTED BY IDOCK:   -7.56 KCAL/MOL
REMARK 924 INTRA-LIGAND FREE ENERGY PREDICTED BY IDOCK:   -0.80 KCAL/MOL
REMARK 927      BINDING AFFINITY PREDICTED BY RF-SCORE:    0.00 PKD
ROOT
HETATM    1  C   UNL     1     -12.534  12.085  63.660  1.00  0.00    -0.637 C  
HETATM    2  C   UNL     1     -11.229  12.326  64.440  1.00  0.00    -0.389 C  
HETATM    3  C   UNL     1     -11.164  13.776  65.023  1.00  0.00    -0.339 C  
HETATM    4  C   UNL     1     -10.064  11.960  63.515  1.00  0.00    -0.464 C  
HETATM    5  C   UNL     1     -12.305  14.033  66.043  1.00  0.00    -0.504 C  
HETATM    6  C   UNL     1     -12.151  13.190  67.310  1.00  0.00    -0.329 C  
HETATM    7  C   UNL     1     -10.773  13.315  67.981  1.00  0.00    -0.254 C  
HETATM    8  C   UNL     1     -10.729  14.521  68.924  1.00  0.00    -0.259 C  
HETATM    9  C   UNL     1      -9.603  13.320  66.981  1.00  0.00    -0.243 C  
HETATM   10  C   UNL     1      -9.828  14.164  65.721  1.00  0.00    -0.271 C  
ENDROOT
BRANCH  10  11
HETATM   11  O   UNL     1      -9.941  15.582  66.009  1.00  0.00    -0.282 OA 
BRANCH  11  12
HETATM   12  C   UNL     1      -8.862  16.305  66.410  1.00  0.00    -0.311 C  
HETATM   13  O   UNL     1      -7.691  15.971  66.333  1.00  0.00    -0.214 OA 
BRANCH  12  14
HETATM   14  C   UNL     1      -9.353  17.608  66.943  1.00  0.00    -0.268 A  
HETATM   15  C   UNL     1      -8.811  18.089  68.152  1.00  0.00    -0.277 A  
HETATM   16  C   UNL     1      -9.249  19.292  68.706  1.00  0.00    -0.421 A  
HETATM   17  C   UNL     1     -10.227  20.033  68.048  1.00  0.00    -0.538 A  
HETATM   18  C   UNL     1     -10.774  19.559  66.852  1.00  0.00    -0.576 A  
HETATM   19  C   UNL     1     -10.387  18.322  66.306  1.00  0.00    -0.405 A  
HETATM   20  N   UNL     1     -10.881  17.982  65.032  1.00  0.00    -0.583 NA 
HETATM   21  H2  UNL     1     -11.164  17.002  65.066  1.00  0.00     0.000 HD 
HETATM   22  H1  UNL     1     -11.630  18.499  64.570  1.00  0.00     0.000 HD 
ENDBRANCH  12  14
ENDBRANCH  11  12
ENDBRANCH  10  11
TORSDOF 3
ENDMDL
MODEL        6
REMARK 921   NORMALIZED FREE ENERGY PREDICTED BY IDOCK:   -6.31 KCAL/MOL
REMARK 922        TOTAL FREE ENERGY PREDICTED BY IDOCK:   -8.33 KCAL/MOL
REMARK 923 INTER-LIGAND FREE ENERGY PREDICTED BY IDOCK:   -7.52 KCAL/MOL
REMARK 924 INTRA-LIGAND FREE ENERGY PREDICTED BY IDOCK:   -0.80 KCAL/MOL
REMARK 927      BINDING AFFINITY PREDICTED BY RF-SCORE:    0.00 PKD
ROOT
HETATM    1  C   UNL     1      -6.322  16.509  69.434  1.00  0.00    -0.205 C  
HETATM    2  C   UNL     1      -6.772  16.984  68.040  1.00  0.00    -0.155 C  
HETATM    3  C   UNL     1      -8.320  16.853  67.858  1.00  0.00    -0.198 C  
HETATM    4  C   UNL     1      -5.943  16.219  67.003  1.00  0.00    -0.043 C  
HETATM    5  C   UNL     1      -9.091  17.748  68.864  1.00  0.00    -0.129 C  
HETATM    6  C   UNL     1      -8.879  19.239  68.595  1.00  0.00    -0.415 C  
HETATM    7  C   UNL     1      -9.172  19.661  67.145  1.00  0.00    -0.419 C  
HETATM    8  C   UNL     1     -10.660  19.962  66.951  1.00  0.00    -0.534 C  
HETATM    9  C   UNL     1      -8.642  18.665  66.099  1.00  0.00    -0.155 C  
HETATM   10  C   UNL     1      -8.863  17.186  66.437  1.00  0.00    -0.255 C  
ENDROOT
BRANCH  10  11
HETATM   11  O   UNL     1     -10.268  16.823  66.467  1.00  0.00    -0.296 OA 
BRANCH  11  12
HETATM   12  C   UNL     1     -10.876  16.284  65.377  1.00  0.00    -0.273 C  
HETATM   13  O   UNL     1     -11.110  16.846  64.320  1.00  0.00    -1.135 OA 
BRANCH  12  14
HETATM   14  C   UNL     1     -11.192  14.859  65.682  1.00  0.00    -0.347 A  
HETATM   15  C   UNL     1     -10.852  14.350  66.952  1.00  0.00    -0.301 A  
HETATM   16  C   UNL     1     -11.106  13.018  67.281  1.00  0.00    -0.303 A  
HETATM   17  C   UNL     1     -11.716  12.185  66.346  1.00  0.00    -0.394 A  
HETATM   18  C   UNL     1     -12.049  12.681  65.083  1.00  0.00    -0.508 A  
HETATM   19  C   UNL     1     -11.751  14.005  64.711  1.00  0.00    -0.394 A  
HETATM   20  N   UNL     1     -12.242  14.467  63.474  1.00  0.00    -1.066 NA 
HETATM   21  H2  UNL     1     -11.491  14.991  63.024  1.00  0.00     0.000 HD 
HETATM   22  H1  UNL     1     -12.647  13.848  62.771  1.00  0.00     0.000 HD 
ENDBRANCH  12  14
ENDBRANCH  11  12
ENDBRANCH  10  11
TORSDOF 3
ENDMDL
MODEL        7
REMARK 921   NORMALIZED FREE ENERGY PREDICTED BY IDOCK:   -6.23 KCAL/MOL
REMARK 922        TOTAL FREE ENERGY PREDICTED BY IDOCK:   -8.23 KCAL/MOL
REMARK 923 INTER-LIGAND FREE ENERGY PREDICTED BY IDOCK:   -7.17 KCAL/MOL
REMARK 924 INTRA-LIGAND FREE ENERGY PREDICTED BY IDOCK:   -1.06 KCAL/MOL
REMARK 927      BINDING AFFINITY PREDICTED BY RF-SCORE:    0.00 PKD
ROOT
HETATM    1  C   UNL     1      -8.160  17.221  66.364  1.00  0.00    -0.328 C  
HETATM    2  C   UNL     1      -9.590  17.168  66.933  1.00  0.00    -0.268 C  
HETATM    3  C   UNL     1     -10.159  15.711  66.927  1.00  0.00    -0.265 C  
HETATM    4  C   UNL     1     -10.434  18.183  66.155  1.00  0.00    -0.377 C  
HETATM    5  C   UNL     1      -9.323  14.767  67.831  1.00  0.00    -0.193 C  
HETATM    6  C   UNL     1      -9.438  15.131  69.313  1.00  0.00    -0.212 C  
HETATM    7  C   UNL     1     -10.885  15.241  69.820  1.00  0.00    -0.300 C  
HETATM    8  C   UNL     1     -11.424  13.871  70.240  1.00  0.00    -0.122 C  
HETATM    9  C   UNL     1     -11.827  15.956  68.835  1.00  0.00    -0.314 C  
HETATM   10  C   UNL     1     -11.647  15.566  67.363  1.00  0.00    -0.060 C  
ENDROOT
BRANCH  10  11
HETATM   11  O   UNL     1     -11.990  14.179  67.105  1.00  0.00    -0.401 OA 
BRANCH  11  12
HETATM   12  C   UNL     1     -12.586  13.810  65.941  1.00  0.00    -0.447 C  
HETATM   13  O   UNL     1     -13.615  14.267  65.470  1.00  0.00    -0.497 OA 
BRANCH  12  14
HETATM   14  C   UNL     1     -11.746  12.753  65.307  1.00  0.00    -0.403 A  
HETATM   15  C   UNL     1     -11.075  11.835  66.140  1.00  0.00    -0.358 A  
HETATM   16  C   UNL     1     -10.260  10.840  65.600  1.00  0.00    -0.320 A  
HETATM   17  C   UNL     1     -10.116  10.747  64.218  1.00  0.00    -0.427 A  
HETATM   18  C   UNL     1     -10.772  11.658  63.386  1.00  0.00    -0.460 A  
HETATM   19  C   UNL     1     -11.554  12.703  63.912  1.00  0.00    -0.451 A  
HETATM   20  N   UNL     1     -12.291  13.492  63.008  1.00  0.00    -0.968 NA 
HETATM   21  H2  UNL     1     -12.185  14.466  63.296  1.00  0.00     0.000 HD 
HETATM   22  H1  UNL     1     -12.153  13.456  61.998  1.00  0.00     0.000 HD 
ENDBRANCH  12  14
ENDBRANCH  11  12
ENDBRANCH  10  11
TORSDOF 3
ENDMDL
MODEL        8
REMARK 921   NORMALIZED FREE ENERGY PREDICTED BY IDOCK:   -6.22 KCAL/MOL
REMARK 922        TOTAL FREE ENERGY PREDICTED BY IDOCK:   -8.22 KCAL/MOL
REMARK 923 INTER-LIGAND FREE ENERGY PREDICTED BY IDOCK:   -7.60 KCAL/MOL
REMARK 924 INTRA-LIGAND FREE ENERGY PREDICTED BY IDOCK:   -0.62 KCAL/MOL
REMARK 927      BINDING AFFINITY PREDICTED BY RF-SCORE:    0.00 PKD
ROOT
HETATM    1  C   UNL     1     -12.618  12.087  63.732  1.00  0.00    -0.567 C  
HETATM    2  C   UNL     1     -11.800  13.166  64.465  1.00  0.00    -0.427 C  
HETATM    3  C   UNL     1     -11.873  12.989  66.018  1.00  0.00    -0.471 C  
HETATM    4  C   UNL     1     -12.276  14.531  63.958  1.00  0.00    -0.262 C  
HETATM    5  C   UNL     1     -11.262  11.636  66.468  1.00  0.00    -0.356 C  
HETATM    6  C   UNL     1      -9.753  11.571  66.226  1.00  0.00    -0.240 C  
HETATM    7  C   UNL     1      -8.972  12.753  66.823  1.00  0.00    -0.188 C  
HETATM    8  C   UNL     1      -8.624  12.496  68.291  1.00  0.00    -0.173 C  
HETATM    9  C   UNL     1      -9.668  14.111  66.623  1.00  0.00    -0.297 C  
HETATM   10  C   UNL     1     -11.183  14.105  66.856  1.00  0.00    -0.317 C  
ENDROOT
BRANCH  10  11
HETATM   11  O   UNL     1     -11.536  13.823  68.236  1.00  0.00    -0.295 OA 
BRANCH  11  12
HETATM   12  C   UNL     1     -11.479  14.792  69.187  1.00  0.00    -0.299 C  
HETATM   13  O   UNL     1     -10.815  15.815  69.147  1.00  0.00    -0.222 OA 
BRANCH  12  14
HETATM   14  C   UNL     1     -12.399  14.407  70.295  1.00  0.00    -0.410 A  
HETATM   15  C   UNL     1     -13.240  15.393  70.848  1.00  0.00    -0.512 A  
HETATM   16  C   UNL     1     -14.105  15.091  71.899  1.00  0.00    -0.627 A  
HETATM   17  C   UNL     1     -14.146  13.793  72.402  1.00  0.00    -0.593 A  
HETATM   18  C   UNL     1     -13.310  12.811  71.864  1.00  0.00    -0.510 A  
HETATM   19  C   UNL     1     -12.390  13.107  70.841  1.00  0.00    -0.307 A  
HETATM   20  N   UNL     1     -11.684  12.036  70.260  1.00  0.00    -0.530 NA 
HETATM   21  H2  UNL     1     -10.712  12.331  70.158  1.00  0.00     0.000 HD 
HETATM   22  H1  UNL     1     -11.678  11.096  70.655  1.00  0.00     0.000 HD 
ENDBRANCH  12  14
ENDBRANCH  11  12
ENDBRANCH  10  11
TORSDOF 3
ENDMDL
MODEL        9
REMARK 921   NORMALIZED FREE ENERGY PREDICTED BY IDOCK:   -6.18 KCAL/MOL
REMARK 922        TOTAL FREE ENERGY PREDICTED BY IDOCK:   -8.17 KCAL/MOL
REMARK 923 INTER-LIGAND FREE ENERGY PREDICTED BY IDOCK:   -7.16 KCAL/MOL
REMARK 924 INTRA-LIGAND FREE ENERGY PREDICTED BY IDOCK:   -1.01 KCAL/MOL
REMARK 927      BINDING AFFINITY PREDICTED BY RF-SCORE:    0.00 PKD
ROOT
HETATM    1  C   UNL     1     -12.904  12.446  64.153  1.00  0.00    -0.364 C  
HETATM    2  C   UNL     1     -11.812  13.347  64.757  1.00  0.00    -0.415 C  
HETATM    3  C   UNL     1     -11.706  13.164  66.307  1.00  0.00    -0.424 C  
HETATM    4  C   UNL     1     -12.097  14.783  64.305  1.00  0.00    -0.415 C  
HETATM    5  C   UNL     1     -11.296  11.716  66.684  1.00  0.00    -0.338 C  
HETATM    6  C   UNL     1      -9.870  11.382  66.241  1.00  0.00    -0.250 C  
HETATM    7  C   UNL     1      -8.815  12.394  66.715  1.00  0.00    -0.189 C  
HETATM    8  C   UNL     1      -8.325  12.056  68.125  1.00  0.00    -0.165 C  
HETATM    9  C   UNL     1      -9.274  13.858  66.597  1.00  0.00    -0.253 C  
HETATM   10  C   UNL     1     -10.719  14.124  67.034  1.00  0.00    -0.285 C  
ENDROOT
BRANCH  10  11
HETATM   11  O   UNL     1     -10.928  13.890  68.451  1.00  0.00    -0.237 OA 
BRANCH  11  12
HETATM   12  C   UNL     1     -11.783  14.663  69.172  1.00  0.00    -0.309 C  
HETATM   13  O   UNL     1     -12.044  15.839  68.976  1.00  0.00    -0.349 OA 
BRANCH  12  14
HETATM   14  C   UNL     1     -12.380  13.815  70.243  1.00  0.00    -0.407 A  
HETATM   15  C   UNL     1     -12.145  12.426  70.214  1.00  0.00    -0.377 A  
HETATM   16  C   UNL     1     -12.698  11.585  71.180  1.00  0.00    -0.458 A  
HETATM   17  C   UNL     1     -13.483  12.129  72.194  1.00  0.00    -0.383 A  
HETATM   18  C   UNL     1     -13.726  13.505  72.225  1.00  0.00    -0.700 A  
HETATM   19  C   UNL     1     -13.225  14.363  71.230  1.00  0.00    -0.349 A  
HETATM   20  N   UNL     1     -13.398  15.749  71.408  1.00  0.00    -0.495 NA 
HETATM   21  H2  UNL     1     -13.685  16.139  70.510  1.00  0.00     0.000 HD 
HETATM   22  H1  UNL     1     -14.008  16.146  72.122  1.00  0.00     0.000 HD 
ENDBRANCH  12  14
ENDBRANCH  11  12
ENDBRANCH  10  11
TORSDOF 3
ENDMDL
MODEL       10
REMARK 921   NORMALIZED FREE ENERGY PREDICTED BY IDOCK:   -6.17 KCAL/MOL
REMARK 922        TOTAL FREE ENERGY PREDICTED BY IDOCK:   -8.16 KCAL/MOL
REMARK 923 INTER-LIGAND FREE ENERGY PREDICTED BY IDOCK:   -7.24 KCAL/MOL
REMARK 924 INTRA-LIGAND FREE ENERGY PREDICTED BY IDOCK:   -0.92 KCAL/MOL
REMARK 927      BINDING AFFINITY PREDICTED BY RF-SCORE:    0.00 PKD
ROOT
HETATM    1  C   UNL     1     -12.506  12.190  63.466  1.00  0.00    -0.666 C  
HETATM    2  C   UNL     1     -11.268  12.379  64.362  1.00  0.00    -0.384 C  
HETATM    3  C   UNL     1     -11.168  13.843  64.906  1.00  0.00    -0.356 C  
HETATM    4  C   UNL     1     -10.046  11.912  63.565  1.00  0.00    -0.464 C  
HETATM    5  C   UNL     1     -12.381  14.204  65.803  1.00  0.00    -0.481 C  
HETATM    6  C   UNL     1     -12.402  13.398  67.103  1.00  0.00    -0.198 C  
HETATM    7  C   UNL     1     -11.090  13.463  67.901  1.00  0.00    -0.289 C  
HETATM    8  C   UNL     1     -11.059  14.696  68.807  1.00  0.00    -0.274 C  
HETATM    9  C   UNL     1      -9.832  13.363  67.019  1.00  0.00    -0.250 C  
HETATM   10  C   UNL     1      -9.882  14.173  65.719  1.00  0.00    -0.271 C  
ENDROOT
BRANCH  10  11
HETATM   11  O   UNL     1      -9.932  15.605  65.953  1.00  0.00    -0.298 OA 
BRANCH  11  12
HETATM   12  C   UNL     1      -8.838  16.283  66.388  1.00  0.00    -0.311 C  
HETATM   13  O   UNL     1      -7.714  15.834  66.542  1.00  0.00    -0.187 OA 
BRANCH  12  14
HETATM   14  C   UNL     1      -9.237  17.701  66.624  1.00  0.00    -0.284 A  
HETATM   15  C   UNL     1     -10.441  17.957  67.310  1.00  0.00    -0.373 A  
HETATM   16  C   UNL     1     -10.872  19.264  67.538  1.00  0.00    -0.524 A  
HETATM   17  C   UNL     1     -10.094  20.330  67.092  1.00  0.00    -0.556 A  
HETATM   18  C   UNL     1      -8.903  20.083  66.404  1.00  0.00    -0.388 A  
HETATM   19  C   UNL     1      -8.478  18.774  66.114  1.00  0.00    -0.162 A  
HETATM   20  N   UNL     1      -7.203  18.607  65.542  1.00  0.00    -0.525 NA 
HETATM   21  H2  UNL     1      -7.291  17.915  64.797  1.00  0.00     0.000 HD 
HETATM   22  H1  UNL     1      -6.653  19.384  65.173  1.00  0.00     0.000 HD 
ENDBRANCH  12  14
ENDBRANCH  11  12
ENDBRANCH  10  11
TORSDOF 3
ENDMDL
MODEL       11
REMARK 921   NORMALIZED FREE ENERGY PREDICTED BY IDOCK:   -6.16 KCAL/MOL
REMARK 922        TOTAL FREE ENERGY PREDICTED BY IDOCK:   -8.15 KCAL/MOL
REMARK 923 INTER-LIGAND FREE ENERGY PREDICTED BY IDOCK:   -7.22 KCAL/MOL
REMARK 924 INTRA-LIGAND FREE ENERGY PREDICTED BY IDOCK:   -0.93 KCAL/MOL
REMARK 927      BINDING AFFINITY PREDICTED BY RF-SCORE:    0.00 PKD
ROOT
HETATM    1  C   UNL     1     -12.889  12.785  70.961  1.00  0.00    -0.262 C  
HETATM    2  C   UNL     1     -11.716  12.867  69.966  1.00  0.00    -0.284 C  
HETATM    3  C   UNL     1     -11.893  14.055  68.963  1.00  0.00    -0.391 C  
HETATM    4  C   UNL     1     -11.576  11.492  69.305  1.00  0.00    -0.388 C  
HETATM    5  C   UNL     1     -11.905  15.423  69.694  1.00  0.00    -0.368 C  
HETATM    6  C   UNL     1     -10.551  15.756  70.325  1.00  0.00    -0.297 C  
HETATM    7  C   UNL     1      -9.367  15.665  69.349  1.00  0.00    -0.279 C  
HETATM    8  C   UNL     1      -9.192  16.973  68.574  1.00  0.00    -0.266 C  
HETATM    9  C   UNL     1      -9.437  14.444  68.414  1.00  0.00    -0.207 C  
HETATM   10  C   UNL     1     -10.825  14.148  67.834  1.00  0.00    -0.245 C  
ENDROOT
BRANCH  10  11
HETATM   11  O   UNL     1     -11.296  15.194  66.945  1.00  0.00    -0.333 OA 
BRANCH  11  12
HETATM   12  C   UNL     1     -10.831  15.294  65.671  1.00  0.00    -0.363 C  
HETATM   13  O   UNL     1     -10.251  16.248  65.179  1.00  0.00    -0.566 OA 
BRANCH  12  14
HETATM   14  C   UNL     1     -11.129  14.012  64.970  1.00  0.00    -0.364 A  
HETATM   15  C   UNL     1     -10.067  13.317  64.357  1.00  0.00    -0.190 A  
HETATM   16  C   UNL     1     -10.293  12.125  63.669  1.00  0.00    -0.482 A  
HETATM   17  C   UNL     1     -11.585  11.608  63.600  1.00  0.00    -0.435 A  
HETATM   18  C   UNL     1     -12.644  12.296  64.200  1.00  0.00    -0.493 A  
HETATM   19  C   UNL     1     -12.447  13.528  64.849  1.00  0.00    -0.384 A  
HETATM   20  N   UNL     1     -13.536  14.087  65.545  1.00  0.00    -0.627 NA 
HETATM   21  H2  UNL     1     -13.557  15.084  65.329  1.00  0.00     0.000 HD 
HETATM   22  H1  UNL     1     -14.490  13.736  65.458  1.00  0.00     0.000 HD 
ENDBRANCH  12  14
ENDBRANCH  11  12
ENDBRANCH  10  11
TORSDOF 3
ENDMDL
MODEL       12
REMARK 921   NORMALIZED FREE ENERGY PREDICTED BY IDOCK:   -6.15 KCAL/MOL
REMARK 922        TOTAL FREE ENERGY PREDICTED BY IDOCK:   -8.14 KCAL/MOL
REMARK 923 INTER-LIGAND FREE ENERGY PREDICTED BY IDOCK:   -7.48 KCAL/MOL
REMARK 924 INTRA-LIGAND FREE ENERGY PREDICTED BY IDOCK:   -0.66 KCAL/MOL
REMARK 927      BINDING AFFINITY PREDICTED BY RF-SCORE:    0.00 PKD
ROOT
HETATM    1  C   UNL     1     -11.228  15.524  64.679  1.00  0.00    -0.381 C  
HETATM    2  C   UNL     1     -10.474  14.776  65.794  1.00  0.00    -0.348 C  
HETATM    3  C   UNL     1     -11.418  13.806  66.578  1.00  0.00    -0.364 C  
HETATM    4  C   UNL     1      -9.778  15.827  66.665  1.00  0.00    -0.266 C  
HETATM    5  C   UNL     1     -11.990  12.697  65.656  1.00  0.00    -0.507 C  
HETATM    6  C   UNL     1     -10.906  11.735  65.164  1.00  0.00    -0.351 C  
HETATM    7  C   UNL     1     -10.050  11.129  66.288  1.00  0.00    -0.277 C  
HETATM    8  C   UNL     1     -10.718   9.884  66.876  1.00  0.00    -0.195 C  
HETATM    9  C   UNL     1      -9.661  12.145  67.377  1.00  0.00    -0.180 C  
HETATM   10  C   UNL     1     -10.783  13.096  67.810  1.00  0.00    -0.240 C  
ENDROOT
BRANCH  10  11
HETATM   11  O   UNL     1     -11.880  12.407  68.465  1.00  0.00    -0.314 OA 
BRANCH  11  12
HETATM   12  C   UNL     1     -11.791  12.025  69.766  1.00  0.00    -0.331 C  
HETATM   13  O   UNL     1     -11.211  11.042  70.200  1.00  0.00    -0.270 OA 
BRANCH  12  14
HETATM   14  C   UNL     1     -12.506  13.037  70.595  1.00  0.00    -0.347 A  
HETATM   15  C   UNL     1     -12.442  14.391  70.210  1.00  0.00    -0.413 A  
HETATM   16  C   UNL     1     -13.076  15.381  70.961  1.00  0.00    -0.565 A  
HETATM   17  C   UNL     1     -13.792  15.023  72.101  1.00  0.00    -0.584 A  
HETATM   18  C   UNL     1     -13.855  13.683  72.492  1.00  0.00    -0.620 A  
HETATM   19  C   UNL     1     -13.177  12.677  71.781  1.00  0.00    -0.359 A  
HETATM   20  N   UNL     1     -13.401  11.339  72.159  1.00  0.00    -0.569 NA 
HETATM   21  H2  UNL     1     -12.497  10.867  72.164  1.00  0.00     0.000 HD 
HETATM   22  H1  UNL     1     -13.887  11.078  73.017  1.00  0.00     0.000 HD 
ENDBRANCH  12  14
ENDBRANCH  11  12
ENDBRANCH  10  11
TORSDOF 3
ENDMDL
MODEL       13
REMARK 921   NORMALIZED FREE ENERGY PREDICTED BY IDOCK:   -6.13 KCAL/MOL
REMARK 922        TOTAL FREE ENERGY PREDICTED BY IDOCK:   -8.12 KCAL/MOL
REMARK 923 INTER-LIGAND FREE ENERGY PREDICTED BY IDOCK:   -7.22 KCAL/MOL
REMARK 924 INTRA-LIGAND FREE ENERGY PREDICTED BY IDOCK:   -0.90 KCAL/MOL
REMARK 927      BINDING AFFINITY PREDICTED BY RF-SCORE:    0.00 PKD
ROOT
HETATM    1  C   UNL     1      -8.169  16.938  66.695  1.00  0.00    -0.292 C  
HETATM    2  C   UNL     1      -8.359  15.413  66.797  1.00  0.00    -0.285 C  
HETATM    3  C   UNL     1      -9.783  15.044  67.330  1.00  0.00    -0.216 C  
HETATM    4  C   UNL     1      -7.203  14.859  67.636  1.00  0.00    -0.207 C  
HETATM    5  C   UNL     1     -10.897  15.532  66.367  1.00  0.00    -0.277 C  
HETATM    6  C   UNL     1     -10.873  14.791  65.029  1.00  0.00    -0.440 C  
HETATM    7  C   UNL     1     -10.891  13.260  65.161  1.00  0.00    -0.323 C  
HETATM    8  C   UNL     1     -12.324  12.737  65.286  1.00  0.00    -0.546 C  
HETATM    9  C   UNL     1      -9.983  12.731  66.285  1.00  0.00    -0.269 C  
HETATM   10  C   UNL     1     -10.033  13.530  67.593  1.00  0.00    -0.229 C  
ENDROOT
BRANCH  10  11
HETATM   11  O   UNL     1     -11.331  13.462  68.241  1.00  0.00    -0.260 OA 
BRANCH  11  12
HETATM   12  C   UNL     1     -11.542  12.638  69.301  1.00  0.00    -0.318 C  
HETATM   13  O   UNL     1     -11.156  11.487  69.419  1.00  0.00    -0.247 OA 
BRANCH  12  14
HETATM   14  C   UNL     1     -12.315  13.396  70.327  1.00  0.00    -0.354 A  
HETATM   15  C   UNL     1     -12.400  14.798  70.208  1.00  0.00    -0.400 A  
HETATM   16  C   UNL     1     -13.092  15.556  71.152  1.00  0.00    -0.573 A  
HETATM   17  C   UNL     1     -13.718  14.917  72.219  1.00  0.00    -0.564 A  
HETATM   18  C   UNL     1     -13.633  13.528  72.347  1.00  0.00    -0.709 A  
HETATM   19  C   UNL     1     -12.893  12.750  71.438  1.00  0.00    -0.275 A  
HETATM   20  N   UNL     1     -12.970  11.349  71.557  1.00  0.00    -0.440 NA 
HETATM   21  H2  UNL     1     -12.024  10.981  71.448  1.00  0.00     0.000 HD 
HETATM   22  H1  UNL     1     -13.389  10.882  72.361  1.00  0.00     0.000 HD 
ENDBRANCH  12  14
ENDBRANCH  11  12
ENDBRANCH  10  11
TORSDOF 3
ENDMDL
MODEL       14
REMARK 921   NORMALIZED FREE ENERGY PREDICTED BY IDOCK:   -6.08 KCAL/MOL
REMARK 922        TOTAL FREE ENERGY PREDICTED BY IDOCK:   -8.06 KCAL/MOL
REMARK 923 INTER-LIGAND FREE ENERGY PREDICTED BY IDOCK:   -7.58 KCAL/MOL
REMARK 924 INTRA-LIGAND FREE ENERGY PREDICTED BY IDOCK:   -0.48 KCAL/MOL
REMARK 927      BINDING AFFINITY PREDICTED BY RF-SCORE:    0.00 PKD
ROOT
HETATM    1  C   UNL     1     -12.981  15.421  71.204  1.00  0.00    -0.545 C  
HETATM    2  C   UNL     1     -12.022  14.498  70.430  1.00  0.00    -0.386 C  
HETATM    3  C   UNL     1     -11.957  14.876  68.913  1.00  0.00    -0.295 C  
HETATM    4  C   UNL     1     -12.448  13.053  70.707  1.00  0.00    -0.384 C  
HETATM    5  C   UNL     1     -11.402  16.310  68.705  1.00  0.00    -0.329 C  
HETATM    6  C   UNL     1      -9.931  16.428  69.111  1.00  0.00    -0.273 C  
HETATM    7  C   UNL     1      -9.016  15.383  68.454  1.00  0.00    -0.189 C  
HETATM    8  C   UNL     1      -8.547  15.853  67.074  1.00  0.00    -0.245 C  
HETATM    9  C   UNL     1      -9.632  13.973  68.405  1.00  0.00    -0.222 C  
HETATM   10  C   UNL     1     -11.114  13.923  68.016  1.00  0.00    -0.259 C  
ENDROOT
BRANCH  10  11
HETATM   11  O   UNL     1     -11.351  14.367  66.654  1.00  0.00    -0.332 OA 
BRANCH  11  12
HETATM   12  C   UNL     1     -12.219  13.708  65.843  1.00  0.00    -0.461 C  
HETATM   13  O   UNL     1     -13.408  13.944  65.700  1.00  0.00    -0.620 OA 
BRANCH  12  14
HETATM   14  C   UNL     1     -11.460  12.646  65.121  1.00  0.00    -0.363 A  
HETATM   15  C   UNL     1     -10.716  11.718  65.875  1.00  0.00    -0.328 A  
HETATM   16  C   UNL     1      -9.972  10.718  65.249  1.00  0.00    -0.342 A  
HETATM   17  C   UNL     1      -9.975  10.630  63.859  1.00  0.00    -0.390 A  
HETATM   18  C   UNL     1     -10.706  11.552  63.104  1.00  0.00    -0.281 A  
HETATM   19  C   UNL     1     -11.417  12.601  63.713  1.00  0.00    -0.470 A  
HETATM   20  N   UNL     1     -12.237  13.402  62.894  1.00  0.00    -0.866 NA 
HETATM   21  H2  UNL     1     -12.091  14.373  63.173  1.00  0.00     0.000 HD 
HETATM   22  H1  UNL     1     -12.206  13.369  61.875  1.00  0.00     0.000 HD 
ENDBRANCH  12  14
ENDBRANCH  11  12
ENDBRANCH  10  11
TORSDOF 3
ENDMDL
MODEL       15
REMARK 921   NORMALIZED FREE ENERGY PREDICTED BY IDOCK:   -6.03 KCAL/MOL
REMARK 922        TOTAL FREE ENERGY PREDICTED BY IDOCK:   -8.00 KCAL/MOL
REMARK 923 INTER-LIGAND FREE ENERGY PREDICTED BY IDOCK:   -7.06 KCAL/MOL
REMARK 924 INTRA-LIGAND FREE ENERGY PREDICTED BY IDOCK:   -0.93 KCAL/MOL
REMARK 927      BINDING AFFINITY PREDICTED BY RF-SCORE:    0.00 PKD
ROOT
HETATM    1  C   UNL     1     -12.777  11.749  64.044  1.00  0.00    -0.247 C  
HETATM    2  C   UNL     1     -11.466  12.339  64.596  1.00  0.00    -0.392 C  
HETATM    3  C   UNL     1     -11.707  13.709  65.312  1.00  0.00    -0.349 C  
HETATM    4  C   UNL     1     -10.462  12.394  63.440  1.00  0.00    -0.353 C  
HETATM    5  C   UNL     1     -12.636  13.553  66.544  1.00  0.00    -0.181 C  
HETATM    6  C   UNL     1     -11.986  12.736  67.663  1.00  0.00    -0.331 C  
HETATM    7  C   UNL     1     -10.597  13.243  68.082  1.00  0.00    -0.259 C  
HETATM    8  C   UNL     1     -10.711  14.356  69.127  1.00  0.00    -0.254 C  
HETATM    9  C   UNL     1      -9.712  13.656  66.892  1.00  0.00    -0.262 C  
HETATM   10  C   UNL     1     -10.426  14.451  65.794  1.00  0.00    -0.318 C  
ENDROOT
BRANCH  10  11
HETATM   11  O   UNL     1     -10.885  15.751  66.252  1.00  0.00    -0.306 OA 
BRANCH  11  12
HETATM   12  C   UNL     1     -10.701  16.865  65.496  1.00  0.00    -0.163 C  
HETATM   13  O   UNL     1     -11.052  17.028  64.338  1.00  0.00    -1.144 OA 
BRANCH  12  14
HETATM   14  C   UNL     1     -10.013  17.886  66.337  1.00  0.00    -0.358 A  
HETATM   15  C   UNL     1      -9.085  17.448  67.304  1.00  0.00    -0.239 A  
HETATM   16  C   UNL     1      -8.429  18.359  68.132  1.00  0.00    -0.301 A  
HETATM   17  C   UNL     1      -8.686  19.721  67.992  1.00  0.00    -0.353 A  
HETATM   18  C   UNL     1      -9.610  20.161  67.041  1.00  0.00    -0.558 A  
HETATM   19  C   UNL     1     -10.324  19.256  66.234  1.00  0.00    -0.480 A  
HETATM   20  N   UNL     1     -11.132  19.784  65.209  1.00  0.00    -0.217 NA 
HETATM   21  H2  UNL     1     -12.014  19.272  65.220  1.00  0.00     0.000 HD 
HETATM   22  H1  UNL     1     -11.356  20.777  65.134  1.00  0.00     0.000 HD 
ENDBRANCH  12  14
ENDBRANCH  11  12
ENDBRANCH  10  11
TORSDOF 3
ENDMDL
MODEL       16
REMARK 921   NORMALIZED FREE ENERGY PREDICTED BY IDOCK:   -6.01 KCAL/MOL
REMARK 922        TOTAL FREE ENERGY PREDICTED BY IDOCK:   -7.98 KCAL/MOL
REMARK 923 INTER-LIGAND FREE ENERGY PREDICTED BY IDOCK:   -7.25 KCAL/MOL
REMARK 924 INTRA-LIGAND FREE ENERGY PREDICTED BY IDOCK:   -0.73 KCAL/MOL
REMARK 927      BINDING AFFINITY PREDICTED BY RF-SCORE:    0.00 PKD
ROOT
HETATM    1  C   UNL     1     -10.248  12.064  63.823  1.00  0.00    -0.447 C  
HETATM    2  C   UNL     1     -11.214  12.900  64.682  1.00  0.00    -0.353 C  
HETATM    3  C   UNL     1     -10.772  12.932  66.182  1.00  0.00    -0.290 C  
HETATM    4  C   UNL     1     -12.627  12.357  64.447  1.00  0.00    -0.489 C  
HETATM    5  C   UNL     1      -9.385  13.605  66.354  1.00  0.00    -0.203 C  
HETATM    6  C   UNL     1      -9.417  15.097  66.015  1.00  0.00    -0.358 C  
HETATM    7  C   UNL     1     -10.507  15.884  66.760  1.00  0.00    -0.309 C  
HETATM    8  C   UNL     1     -10.015  16.332  68.139  1.00  0.00    -0.239 C  
HETATM    9  C   UNL     1     -11.853  15.141  66.840  1.00  0.00    -0.006 C  
HETATM   10  C   UNL     1     -11.752  13.645  67.159  1.00  0.00    -0.383 C  
ENDROOT
BRANCH  10  11
HETATM   11  O   UNL     1     -11.226  13.390  68.487  1.00  0.00    -0.252 OA 
BRANCH  11  12
HETATM   12  C   UNL     1     -11.879  12.574  69.356  1.00  0.00    -0.308 C  
HETATM   13  O   UNL     1     -11.955  11.357  69.297  1.00  0.00    -0.316 OA 
BRANCH  12  14
HETATM   14  C   UNL     1     -12.475  13.423  70.427  1.00  0.00    -0.322 A  
HETATM   15  C   UNL     1     -12.461  14.823  70.264  1.00  0.00    -0.393 A  
HETATM   16  C   UNL     1     -12.986  15.664  71.245  1.00  0.00    -0.556 A  
HETATM   17  C   UNL     1     -13.542  15.111  72.396  1.00  0.00    -0.575 A  
HETATM   18  C   UNL     1     -13.553  13.724  72.568  1.00  0.00    -0.680 A  
HETATM   19  C   UNL     1     -12.979  12.861  71.617  1.00  0.00    -0.313 A  
HETATM   20  N   UNL     1     -13.153  11.475  71.796  1.00  0.00    -0.459 NA 
HETATM   21  H2  UNL     1     -12.257  11.027  71.603  1.00  0.00     0.000 HD 
HETATM   22  H1  UNL     1     -13.519  11.068  72.657  1.00  0.00     0.000 HD 
ENDBRANCH  12  14
ENDBRANCH  11  12
ENDBRANCH  10  11
TORSDOF 3
ENDMDL
MODEL       17
REMARK 921   NORMALIZED FREE ENERGY PREDICTED BY IDOCK:   -6.00 KCAL/MOL
REMARK 922        TOTAL FREE ENERGY PREDICTED BY IDOCK:   -7.97 KCAL/MOL
REMARK 923 INTER-LIGAND FREE ENERGY PREDICTED BY IDOCK:   -7.06 KCAL/MOL
REMARK 924 INTRA-LIGAND FREE ENERGY PREDICTED BY IDOCK:   -0.91 KCAL/MOL
REMARK 927      BINDING AFFINITY PREDICTED BY RF-SCORE:    0.00 PKD
ROOT
HETATM    1  C   UNL     1      -8.221   9.765  67.601  1.00  0.00    -0.114 C  
HETATM    2  C   UNL     1      -9.658  10.240  67.319  1.00  0.00    -0.186 C  
HETATM    3  C   UNL     1     -10.059  11.440  68.239  1.00  0.00    -0.204 C  
HETATM    4  C   UNL     1     -10.578   9.020  67.428  1.00  0.00    -0.309 C  
HETATM    5  C   UNL     1      -9.161  12.680  67.986  1.00  0.00    -0.208 C  
HETATM    6  C   UNL     1      -9.377  13.279  66.595  1.00  0.00    -0.247 C  
HETATM    7  C   UNL     1     -10.847  13.588  66.268  1.00  0.00    -0.291 C  
HETATM    8  C   UNL     1     -11.247  14.970  66.793  1.00  0.00    -0.322 C  
HETATM    9  C   UNL     1     -11.822  12.490  66.731  1.00  0.00    -0.416 C  
HETATM   10  C   UNL     1     -11.538  11.913  68.123  1.00  0.00    -0.334 C  
ENDROOT
BRANCH  10  11
HETATM   11  O   UNL     1     -11.713  12.892  69.181  1.00  0.00    -0.290 OA 
BRANCH  11  12
HETATM   12  C   UNL     1     -12.251  12.541  70.379  1.00  0.00    -0.286 C  
HETATM   13  O   UNL     1     -12.551  11.415  70.743  1.00  0.00    -0.343 OA 
BRANCH  12  14
HETATM   14  C   UNL     1     -12.391  13.776  71.202  1.00  0.00    -0.428 A  
HETATM   15  C   UNL     1     -11.614  14.903  70.865  1.00  0.00    -0.344 A  
HETATM   16  C   UNL     1     -11.691  16.077  71.614  1.00  0.00    -0.583 A  
HETATM   17  C   UNL     1     -12.557  16.140  72.703  1.00  0.00    -0.499 A  
HETATM   18  C   UNL     1     -13.326  15.024  73.047  1.00  0.00    -0.568 A  
HETATM   19  C   UNL     1     -13.222  13.813  72.339  1.00  0.00    -0.481 A  
HETATM   20  N   UNL     1     -14.128  12.784  72.661  1.00  0.00    -0.603 NA 
HETATM   21  H2  UNL     1     -13.599  11.912  72.698  1.00  0.00     0.000 HD 
HETATM   22  H1  UNL     1     -14.730  12.810  73.484  1.00  0.00     0.000 HD 
ENDBRANCH  12  14
ENDBRANCH  11  12
ENDBRANCH  10  11
TORSDOF 3
ENDMDL
MODEL       18
REMARK 921   NORMALIZED FREE ENERGY PREDICTED BY IDOCK:   -6.00 KCAL/MOL
REMARK 922        TOTAL FREE ENERGY PREDICTED BY IDOCK:   -7.96 KCAL/MOL
REMARK 923 INTER-LIGAND FREE ENERGY PREDICTED BY IDOCK:   -7.45 KCAL/MOL
REMARK 924 INTRA-LIGAND FREE ENERGY PREDICTED BY IDOCK:   -0.52 KCAL/MOL
REMARK 927      BINDING AFFINITY PREDICTED BY RF-SCORE:    0.00 PKD
ROOT
HETATM    1  C   UNL     1     -12.258  15.161  64.408  1.00  0.00    -0.289 C  
HETATM    2  C   UNL     1     -11.243  14.491  65.352  1.00  0.00    -0.342 C  
HETATM    3  C   UNL     1     -11.806  13.162  65.955  1.00  0.00    -0.457 C  
HETATM    4  C   UNL     1     -10.822  15.534  66.393  1.00  0.00    -0.277 C  
HETATM    5  C   UNL     1     -12.095  12.111  64.852  1.00  0.00    -0.342 C  
HETATM    6  C   UNL     1     -10.816  11.617  64.171  1.00  0.00    -0.433 C  
HETATM    7  C   UNL     1      -9.744  11.109  65.149  1.00  0.00    -0.296 C  
HETATM    8  C   UNL     1      -9.978   9.638  65.504  1.00  0.00    -0.279 C  
HETATM    9  C   UNL     1      -9.591  11.989  66.402  1.00  0.00    -0.239 C  
HETATM   10  C   UNL     1     -10.907  12.472  67.023  1.00  0.00    -0.254 C  
ENDROOT
BRANCH  10  11
HETATM   11  O   UNL     1     -11.708  11.384  67.554  1.00  0.00    -0.568 OA 
BRANCH  11  12
HETATM   12  C   UNL     1     -11.366  10.764  68.715  1.00  0.00    -0.288 C  
HETATM   13  O   UNL     1     -10.631   9.797  68.836  1.00  0.00    -0.207 OA 
BRANCH  12  14
HETATM   14  C   UNL     1     -12.027  11.489  69.838  1.00  0.00    -0.426 A  
HETATM   15  C   UNL     1     -11.953  12.896  69.869  1.00  0.00    -0.377 A  
HETATM   16  C   UNL     1     -12.535  13.622  70.908  1.00  0.00    -0.448 A  
HETATM   17  C   UNL     1     -13.210  12.946  71.921  1.00  0.00    -0.521 A  
HETATM   18  C   UNL     1     -13.282  11.550  71.901  1.00  0.00    -0.479 A  
HETATM   19  C   UNL     1     -12.654  10.796  70.893  1.00  0.00    -0.401 A  
HETATM   20  N   UNL     1     -12.889   9.408  70.867  1.00  0.00    -0.523 NA 
HETATM   21  H2  UNL     1     -11.994   8.950  70.691  1.00  0.00     0.000 HD 
HETATM   22  H1  UNL     1     -13.343   8.907  71.631  1.00  0.00     0.000 HD 
ENDBRANCH  12  14
ENDBRANCH  11  12
ENDBRANCH  10  11
TORSDOF 3
ENDMDL
MODEL       19
REMARK 921   NORMALIZED FREE ENERGY PREDICTED BY IDOCK:   -5.99 KCAL/MOL
REMARK 922        TOTAL FREE ENERGY PREDICTED BY IDOCK:   -7.96 KCAL/MOL
REMARK 923 INTER-LIGAND FREE ENERGY PREDICTED BY IDOCK:   -6.96 KCAL/MOL
REMARK 924 INTRA-LIGAND FREE ENERGY PREDICTED BY IDOCK:   -1.00 KCAL/MOL
REMARK 927      BINDING AFFINITY PREDICTED BY RF-SCORE:    0.00 PKD
ROOT
HETATM    1  C   UNL     1     -12.134  12.386  63.699  1.00  0.00    -0.648 C  
HETATM    2  C   UNL     1     -11.683  13.095  64.989  1.00  0.00    -0.369 C  
HETATM    3  C   UNL     1     -11.656  12.113  66.207  1.00  0.00    -0.424 C  
HETATM    4  C   UNL     1     -12.583  14.320  65.180  1.00  0.00    -0.384 C  
HETATM    5  C   UNL     1     -10.634  10.966  65.993  1.00  0.00    -0.254 C  
HETATM    6  C   UNL     1      -9.190  11.470  65.976  1.00  0.00    -0.229 C  
HETATM    7  C   UNL     1      -8.811  12.323  67.198  1.00  0.00    -0.194 C  
HETATM    8  C   UNL     1      -8.362  11.441  68.366  1.00  0.00    -0.153 C  
HETATM    9  C   UNL     1      -9.909  13.318  67.614  1.00  0.00    -0.230 C  
HETATM   10  C   UNL     1     -11.337  12.760  67.587  1.00  0.00    -0.310 C  
ENDROOT
BRANCH  10  11
HETATM   11  O   UNL     1     -11.545  11.706  68.563  1.00  0.00    -0.266 OA 
BRANCH  11  12
HETATM   12  C   UNL     1     -11.866  11.997  69.851  1.00  0.00    -0.331 C  
HETATM   13  O   UNL     1     -12.090  13.103  70.316  1.00  0.00    -0.349 OA 
BRANCH  12  14
HETATM   14  C   UNL     1     -11.926  10.716  70.612  1.00  0.00    -0.466 A  
HETATM   15  C   UNL     1     -11.103   9.648  70.201  1.00  0.00    -0.314 A  
HETATM   16  C   UNL     1     -11.136   8.421  70.865  1.00  0.00    -0.289 A  
HETATM   17  C   UNL     1     -11.986   8.255  71.956  1.00  0.00    -0.405 A  
HETATM   18  C   UNL     1     -12.810   9.307  72.364  1.00  0.00    -0.418 A  
HETATM   19  C   UNL     1     -12.833  10.533  71.675  1.00  0.00    -0.475 A  
HETATM   20  N   UNL     1     -13.586  11.585  72.230  1.00  0.00    -0.453 NA 
HETATM   21  H2  UNL     1     -14.096  12.032  71.467  1.00  0.00     0.000 HD 
HETATM   22  H1  UNL     1     -14.243  11.453  73.000  1.00  0.00     0.000 HD 
ENDBRANCH  12  14
ENDBRANCH  11  12
ENDBRANCH  10  11
TORSDOF 3
ENDMDL
MODEL       20
REMARK 921   NORMALIZED FREE ENERGY PREDICTED BY IDOCK:   -5.97 KCAL/MOL
REMARK 922        TOTAL FREE ENERGY PREDICTED BY IDOCK:   -7.93 KCAL/MOL
REMARK 923 INTER-LIGAND FREE ENERGY PREDICTED BY IDOCK:   -6.86 KCAL/MOL
REMARK 924 INTRA-LIGAND FREE ENERGY PREDICTED BY IDOCK:   -1.07 KCAL/MOL
REMARK 927      BINDING AFFINITY PREDICTED BY RF-SCORE:    0.00 PKD
ROOT
HETATM    1  C   UNL     1      -8.198   8.166  73.701  1.00  0.00    -0.292 C  
HETATM    2  C   UNL     1      -9.354   7.537  72.902  1.00  0.00    -0.232 C  
HETATM    3  C   UNL     1     -10.070   8.592  71.996  1.00  0.00    -0.401 C  
HETATM    4  C   UNL     1     -10.275   6.829  73.902  1.00  0.00    -0.396 C  
HETATM    5  C   UNL     1      -9.107   9.177  70.930  1.00  0.00    -0.316 C  
HETATM    6  C   UNL     1      -8.678   8.131  69.898  1.00  0.00    -0.138 C  
HETATM    7  C   UNL     1      -9.851   7.391  69.234  1.00  0.00    -0.168 C  
HETATM    8  C   UNL     1     -10.387   8.177  68.035  1.00  0.00    -0.267 C  
HETATM    9  C   UNL     1     -10.969   7.006  70.219  1.00  0.00    -0.304 C  
HETATM   10  C   UNL     1     -11.335   8.086  71.243  1.00  0.00    -0.264 C  
ENDROOT
BRANCH  10  11
HETATM   11  O   UNL     1     -11.914   9.267  70.627  1.00  0.00    -0.253 OA 
BRANCH  11  12
HETATM   12  C   UNL     1     -12.660  10.142  71.353  1.00  0.00    -0.422 C  
HETATM   13  O   UNL     1     -13.394   9.873  72.290  1.00  0.00    -0.435 OA 
BRANCH  12  14
HETATM   14  C   UNL     1     -12.406  11.513  70.825  1.00  0.00    -0.472 A  
HETATM   15  C   UNL     1     -11.675  11.650  69.628  1.00  0.00    -0.418 A  
HETATM   16  C   UNL     1     -11.392  12.910  69.101  1.00  0.00    -0.329 A  
HETATM   17  C   UNL     1     -11.849  14.048  69.762  1.00  0.00    -0.385 A  
HETATM   18  C   UNL     1     -12.569  13.920  70.952  1.00  0.00    -0.431 A  
HETATM   19  C   UNL     1     -12.818  12.661  71.530  1.00  0.00    -0.268 A  
HETATM   20  N   UNL     1     -13.666  12.609  72.653  1.00  0.00    -0.670 NA 
HETATM   21  H2  UNL     1     -13.240  11.973  73.328  1.00  0.00     0.000 HD 
HETATM   22  H1  UNL     1     -13.964  13.440  73.164  1.00  0.00     0.000 HD 
ENDBRANCH  12  14
ENDBRANCH  11  12
ENDBRANCH  10  11
TORSDOF 3
ENDMDL
MODEL       21
REMARK 921   NORMALIZED FREE ENERGY PREDICTED BY IDOCK:   -5.97 KCAL/MOL
REMARK 922        TOTAL FREE ENERGY PREDICTED BY IDOCK:   -7.93 KCAL/MOL
REMARK 923 INTER-LIGAND FREE ENERGY PREDICTED BY IDOCK:   -7.07 KCAL/MOL
REMARK 924 INTRA-LIGAND FREE ENERGY PREDICTED BY IDOCK:   -0.86 KCAL/MOL
REMARK 927      BINDING AFFINITY PREDICTED BY RF-SCORE:    0.00 PKD
ROOT
HETATM    1  C   UNL     1     -10.536  12.843  64.435  1.00  0.00    -0.419 C  
HETATM    2  C   UNL     1     -11.087  14.006  65.282  1.00  0.00    -0.325 C  
HETATM    3  C   UNL     1     -10.777  13.808  66.802  1.00  0.00    -0.276 C  
HETATM    4  C   UNL     1     -12.576  14.153  64.950  1.00  0.00    -0.362 C  
HETATM    5  C   UNL     1      -9.251  13.790  67.077  1.00  0.00    -0.256 C  
HETATM    6  C   UNL     1      -8.596  15.147  66.807  1.00  0.00    -0.297 C  
HETATM    7  C   UNL     1      -9.272  16.322  67.532  1.00  0.00    -0.206 C  
HETATM    8  C   UNL     1      -8.726  16.478  68.953  1.00  0.00    -0.247 C  
HETATM    9  C   UNL     1     -10.810  16.254  67.507  1.00  0.00    -0.268 C  
HETATM   10  C   UNL     1     -11.404  14.864  67.760  1.00  0.00    -0.329 C  
ENDROOT
BRANCH  10  11
HETATM   11  O   UNL     1     -11.134  14.375  69.100  1.00  0.00    -0.248 OA 
BRANCH  11  12
HETATM   12  C   UNL     1     -12.094  14.401  70.062  1.00  0.00    -0.343 C  
HETATM   13  O   UNL     1     -12.693  15.383  70.469  1.00  0.00    -0.410 OA 
BRANCH  12  14
HETATM   14  C   UNL     1     -12.318  13.002  70.528  1.00  0.00    -0.365 A  
HETATM   15  C   UNL     1     -11.716  11.948  69.811  1.00  0.00    -0.403 A  
HETATM   16  C   UNL     1     -11.910  10.620  70.191  1.00  0.00    -0.421 A  
HETATM   17  C   UNL     1     -12.701  10.334  71.301  1.00  0.00    -0.523 A  
HETATM   18  C   UNL     1     -13.307  11.373  72.012  1.00  0.00    -0.388 A  
HETATM   19  C   UNL     1     -13.170  12.715  71.613  1.00  0.00    -0.298 A  
HETATM   20  N   UNL     1     -13.696  13.710  72.459  1.00  0.00    -0.687 NA 
HETATM   21  H2  UNL     1     -14.174  14.392  71.869  1.00  0.00     0.000 HD 
HETATM   22  H1  UNL     1     -14.313  13.502  73.245  1.00  0.00     0.000 HD 
ENDBRANCH  12  14
ENDBRANCH  11  12
ENDBRANCH  10  11
TORSDOF 3
ENDMDL
MODEL       22
REMARK 921   NORMALIZED FREE ENERGY PREDICTED BY IDOCK:   -5.96 KCAL/MOL
REMARK 922        TOTAL FREE ENERGY PREDICTED BY IDOCK:   -7.92 KCAL/MOL
REMARK 923 INTER-LIGAND FREE ENERGY PREDICTED BY IDOCK:   -7.00 KCAL/MOL
REMARK 924 INTRA-LIGAND FREE ENERGY PREDICTED BY IDOCK:   -0.92 KCAL/MOL
REMARK 927      BINDING AFFINITY PREDICTED BY RF-SCORE:    0.00 PKD
ROOT
HETATM    1  C   UNL     1     -11.852  15.799  64.320  1.00  0.00    -0.120 C  
HETATM    2  C   UNL     1     -10.858  15.167  65.312  1.00  0.00    -0.414 C  
HETATM    3  C   UNL     1     -11.562  14.136  66.254  1.00  0.00    -0.379 C  
HETATM    4  C   UNL     1     -10.143  16.309  66.040  1.00  0.00    -0.377 C  
HETATM    5  C   UNL     1     -12.157  12.946  65.456  1.00  0.00    -0.507 C  
HETATM    6  C   UNL     1     -11.074  12.078  64.813  1.00  0.00    -0.369 C  
HETATM    7  C   UNL     1      -9.993  11.597  65.794  1.00  0.00    -0.270 C  
HETATM    8  C   UNL     1     -10.428  10.313  66.504  1.00  0.00    -0.241 C  
HETATM    9  C   UNL     1      -9.541  12.682  66.788  1.00  0.00    -0.241 C  
HETATM   10  C   UNL     1     -10.671  13.533  67.380  1.00  0.00    -0.263 C  
ENDROOT
BRANCH  10  11
HETATM   11  O   UNL     1     -11.574  12.763  68.215  1.00  0.00    -0.290 OA 
BRANCH  11  12
HETATM   12  C   UNL     1     -11.780  13.095  69.517  1.00  0.00    -0.319 C  
HETATM   13  O   UNL     1     -11.814  14.220  69.987  1.00  0.00    -0.278 OA 
BRANCH  12  14
HETATM   14  C   UNL     1     -11.990  11.834  70.286  1.00  0.00    -0.429 A  
HETATM   15  C   UNL     1     -11.338  10.662  69.852  1.00  0.00    -0.386 A  
HETATM   16  C   UNL     1     -11.517   9.453  70.523  1.00  0.00    -0.317 A  
HETATM   17  C   UNL     1     -12.341   9.406  71.645  1.00  0.00    -0.465 A  
HETATM   18  C   UNL     1     -12.995  10.563  72.077  1.00  0.00    -0.490 A  
HETATM   19  C   UNL     1     -12.874  11.780  71.383  1.00  0.00    -0.335 A  
HETATM   20  N   UNL     1     -13.452  12.927  71.959  1.00  0.00    -0.507 NA 
HETATM   21  H2  UNL     1     -13.923  13.439  71.213  1.00  0.00     0.000 HD 
HETATM   22  H1  UNL     1     -14.092  12.887  72.753  1.00  0.00     0.000 HD 
ENDBRANCH  12  14
ENDBRANCH  11  12
ENDBRANCH  10  11
TORSDOF 3
ENDMDL
MODEL       23
REMARK 921   NORMALIZED FREE ENERGY PREDICTED BY IDOCK:   -5.90 KCAL/MOL
REMARK 922        TOTAL FREE ENERGY PREDICTED BY IDOCK:   -7.85 KCAL/MOL
REMARK 923 INTER-LIGAND FREE ENERGY PREDICTED BY IDOCK:   -7.00 KCAL/MOL
REMARK 924 INTRA-LIGAND FREE ENERGY PREDICTED BY IDOCK:   -0.84 KCAL/MOL
REMARK 927      BINDING AFFINITY PREDICTED BY RF-SCORE:    0.00 PKD
ROOT
HETATM    1  C   UNL     1     -10.021  20.134  66.320  1.00  0.00    -0.557 C  
HETATM    2  C   UNL     1      -9.783  19.194  67.516  1.00  0.00    -0.386 C  
HETATM    3  C   UNL     1     -10.505  17.820  67.322  1.00  0.00    -0.356 C  
HETATM    4  C   UNL     1     -10.188  19.951  68.785  1.00  0.00    -0.451 C  
HETATM    5  C   UNL     1      -9.958  17.057  66.086  1.00  0.00    -0.314 C  
HETATM    6  C   UNL     1      -8.505  16.613  66.274  1.00  0.00    -0.355 C  
HETATM    7  C   UNL     1      -8.256  15.819  67.567  1.00  0.00    -0.181 C  
HETATM    8  C   UNL     1      -8.557  14.332  67.363  1.00  0.00    -0.223 C  
HETATM    9  C   UNL     1      -8.991  16.395  68.791  1.00  0.00    -0.245 C  
HETATM   10  C   UNL     1     -10.433  16.844  68.533  1.00  0.00    -0.361 C  
ENDROOT
BRANCH  10  11
HETATM   11  O   UNL     1     -11.310  15.739  68.188  1.00  0.00    -0.350 OA 
BRANCH  11  12
HETATM   12  C   UNL     1     -11.993  15.061  69.148  1.00  0.00    -0.275 C  
HETATM   13  O   UNL     1     -12.615  15.543  70.080  1.00  0.00    -0.380 OA 
BRANCH  12  14
HETATM   14  C   UNL     1     -11.880  13.603  68.851  1.00  0.00    -0.402 A  
HETATM   15  C   UNL     1     -11.738  12.705  69.928  1.00  0.00    -0.320 A  
HETATM   16  C   UNL     1     -11.607  11.335  69.706  1.00  0.00    -0.408 A  
HETATM   17  C   UNL     1     -11.629  10.847  68.402  1.00  0.00    -0.346 A  
HETATM   18  C   UNL     1     -11.762  11.732  67.329  1.00  0.00    -0.293 A  
HETATM   19  C   UNL     1     -11.840  13.122  67.527  1.00  0.00    -0.360 A  
HETATM   20  N   UNL     1     -12.111  13.933  66.408  1.00  0.00    -0.439 NA 
HETATM   21  H2  UNL     1     -11.489  14.741  66.458  1.00  0.00     0.000 HD 
HETATM   22  H1  UNL     1     -12.082  13.585  65.450  1.00  0.00     0.000 HD 
ENDBRANCH  12  14
ENDBRANCH  11  12
ENDBRANCH  10  11
TORSDOF 3
ENDMDL
MODEL       24
REMARK 921   NORMALIZED FREE ENERGY PREDICTED BY IDOCK:   -5.83 KCAL/MOL
REMARK 922        TOTAL FREE ENERGY PREDICTED BY IDOCK:   -7.76 KCAL/MOL
REMARK 923 INTER-LIGAND FREE ENERGY PREDICTED BY IDOCK:   -6.92 KCAL/MOL
REMARK 924 INTRA-LIGAND FREE ENERGY PREDICTED BY IDOCK:   -0.84 KCAL/MOL
REMARK 927      BINDING AFFINITY PREDICTED BY RF-SCORE:    0.00 PKD
ROOT
HETATM    1  C   UNL     1     -10.593  16.478  67.192  1.00  0.00    -0.270 C  
HETATM    2  C   UNL     1     -10.040  15.266  66.421  1.00  0.00    -0.287 C  
HETATM    3  C   UNL     1     -10.929  13.995  66.629  1.00  0.00    -0.300 C  
HETATM    4  C   UNL     1      -8.573  15.089  66.829  1.00  0.00    -0.279 C  
HETATM    5  C   UNL     1     -12.365  14.207  66.082  1.00  0.00    -0.463 C  
HETATM    6  C   UNL     1     -12.391  14.350  64.559  1.00  0.00    -0.440 C  
HETATM    7  C   UNL     1     -11.680  13.210  63.812  1.00  0.00    -0.519 C  
HETATM    8  C   UNL     1     -12.623  12.024  63.595  1.00  0.00    -0.605 C  
HETATM    9  C   UNL     1     -10.354  12.782  64.466  1.00  0.00    -0.373 C  
HETATM   10  C   UNL     1     -10.385  12.681  65.995  1.00  0.00    -0.270 C  
ENDROOT
BRANCH  10  11
HETATM   11  O   UNL     1     -11.270  11.632  66.469  1.00  0.00    -0.307 OA 
BRANCH  11  12
HETATM   12  C   UNL     1     -10.777  10.439  66.896  1.00  0.00    -0.207 C  
HETATM   13  O   UNL     1     -10.150   9.629  66.233  1.00  0.00    -0.258 OA 
BRANCH  12  14
HETATM   14  C   UNL     1     -11.110  10.294  68.342  1.00  0.00    -0.302 A  
HETATM   15  C   UNL     1     -11.837  11.322  68.974  1.00  0.00    -0.421 A  
HETATM   16  C   UNL     1     -12.157  11.246  70.329  1.00  0.00    -0.459 A  
HETATM   17  C   UNL     1     -11.761  10.132  71.065  1.00  0.00    -0.470 A  
HETATM   18  C   UNL     1     -11.033   9.111  70.447  1.00  0.00    -0.290 A  
HETATM   19  C   UNL     1     -10.652   9.194  69.096  1.00  0.00    -0.208 A  
HETATM   20  N   UNL     1     -10.042   8.066  68.514  1.00  0.00    -0.194 NA 
HETATM   21  H2  UNL     1      -9.257   8.399  67.953  1.00  0.00     0.000 HD 
HETATM   22  H1  UNL     1      -9.712   7.270  69.059  1.00  0.00     0.000 HD 
ENDBRANCH  12  14
ENDBRANCH  11  12
ENDBRANCH  10  11
TORSDOF 3
ENDMDL
MODEL       25
REMARK 921   NORMALIZED FREE ENERGY PREDICTED BY IDOCK:   -5.76 KCAL/MOL
REMARK 922        TOTAL FREE ENERGY PREDICTED BY IDOCK:   -7.68 KCAL/MOL
REMARK 923 INTER-LIGAND FREE ENERGY PREDICTED BY IDOCK:   -7.04 KCAL/MOL
REMARK 924 INTRA-LIGAND FREE ENERGY PREDICTED BY IDOCK:   -0.65 KCAL/MOL
REMARK 927      BINDING AFFINITY PREDICTED BY RF-SCORE:    0.00 PKD
ROOT
HETATM    1  C   UNL     1      -7.706  17.291  66.086  1.00  0.00    -0.317 C  
HETATM    2  C   UNL     1      -8.184  15.883  66.486  1.00  0.00    -0.307 C  
HETATM    3  C   UNL     1      -9.634  15.911  67.071  1.00  0.00    -0.232 C  
HETATM    4  C   UNL     1      -7.130  15.288  67.425  1.00  0.00    -0.223 C  
HETATM    5  C   UNL     1     -10.664  16.412  66.024  1.00  0.00    -0.194 C  
HETATM    6  C   UNL     1     -10.826  15.435  64.858  1.00  0.00    -0.445 C  
HETATM    7  C   UNL     1     -11.136  13.992  65.289  1.00  0.00    -0.325 C  
HETATM    8  C   UNL     1     -12.638  13.794  65.505  1.00  0.00    -0.551 C  
HETATM    9  C   UNL     1     -10.311  13.524  66.501  1.00  0.00    -0.282 C  
HETATM   10  C   UNL     1     -10.164  14.556  67.625  1.00  0.00    -0.225 C  
ENDROOT
BRANCH  10  11
HETATM   11  O   UNL     1     -11.428  14.871  68.266  1.00  0.00    -0.297 OA 
BRANCH  11  12
HETATM   12  C   UNL     1     -11.471  15.334  69.543  1.00  0.00    -0.305 C  
HETATM   13  O   UNL     1     -11.068  16.414  69.942  1.00  0.00    -0.349 OA 
BRANCH  12  14
HETATM   14  C   UNL     1     -12.131  14.296  70.387  1.00  0.00    -0.409 A  
HETATM   15  C   UNL     1     -11.789  12.944  70.185  1.00  0.00    -0.319 A  
HETATM   16  C   UNL     1     -12.392  11.933  70.933  1.00  0.00    -0.400 A  
HETATM   17  C   UNL     1     -13.335  12.266  71.902  1.00  0.00    -0.431 A  
HETATM   18  C   UNL     1     -13.684  13.604  72.103  1.00  0.00    -0.649 A  
HETATM   19  C   UNL     1     -13.130  14.635  71.322  1.00  0.00    -0.359 A  
HETATM   20  N   UNL     1     -13.429  15.964  71.679  1.00  0.00    -0.420 NA 
HETATM   21  H2  UNL     1     -13.632  16.473  70.818  1.00  0.00     0.000 HD 
HETATM   22  H1  UNL     1     -14.152  16.209  72.355  1.00  0.00     0.000 HD 
ENDBRANCH  12  14
ENDBRANCH  11  12
ENDBRANCH  10  11
TORSDOF 3
ENDMDL
MODEL       26
REMARK 921   NORMALIZED FREE ENERGY PREDICTED BY IDOCK:   -5.72 KCAL/MOL
REMARK 922        TOTAL FREE ENERGY PREDICTED BY IDOCK:   -7.64 KCAL/MOL
REMARK 923 INTER-LIGAND FREE ENERGY PREDICTED BY IDOCK:   -6.66 KCAL/MOL
REMARK 924 INTRA-LIGAND FREE ENERGY PREDICTED BY IDOCK:   -0.98 KCAL/MOL
REMARK 927      BINDING AFFINITY PREDICTED BY RF-SCORE:    0.00 PKD
ROOT
HETATM    1  C   UNL     1     -10.967  10.771  69.135  1.00  0.00    -0.293 C  
HETATM    2  C   UNL     1     -11.488  12.203  68.913  1.00  0.00    -0.350 C  
HETATM    3  C   UNL     1     -10.383  13.131  68.308  1.00  0.00    -0.256 C  
HETATM    4  C   UNL     1     -12.072  12.693  70.242  1.00  0.00    -0.372 C  
HETATM    5  C   UNL     1      -9.927  12.639  66.909  1.00  0.00    -0.232 C  
HETATM    6  C   UNL     1     -11.034  12.763  65.861  1.00  0.00    -0.303 C  
HETATM    7  C   UNL     1     -11.660  14.165  65.775  1.00  0.00    -0.343 C  
HETATM    8  C   UNL     1     -10.848  15.072  64.848  1.00  0.00    -0.430 C  
HETATM    9  C   UNL     1     -11.903  14.812  67.150  1.00  0.00    -0.307 C  
HETATM   10  C   UNL     1     -10.768  14.632  68.164  1.00  0.00    -0.242 C  
ENDROOT
BRANCH  10  11
HETATM   11  O   UNL     1      -9.546  15.305  67.762  1.00  0.00    -0.205 OA 
BRANCH  11  12
HETATM   12  C   UNL     1      -8.966  16.240  68.560  1.00  0.00    -0.219 C  
HETATM   13  O   UNL     1      -8.272  16.033  69.543  1.00  0.00    -0.198 OA 
BRANCH  12  14
HETATM   14  C   UNL     1      -9.298  17.586  68.011  1.00  0.00    -0.272 A  
HETATM   15  C   UNL     1     -10.039  18.478  68.812  1.00  0.00    -0.394 A  
HETATM   16  C   UNL     1     -10.395  19.741  68.339  1.00  0.00    -0.513 A  
HETATM   17  C   UNL     1     -10.001  20.130  67.061  1.00  0.00    -0.596 A  
HETATM   18  C   UNL     1      -9.271  19.249  66.258  1.00  0.00    -0.362 A  
HETATM   19  C   UNL     1      -8.951  17.950  66.694  1.00  0.00    -0.268 A  
HETATM   20  N   UNL     1      -8.098  17.176  65.884  1.00  0.00    -0.507 NA 
HETATM   21  H2  UNL     1      -8.485  16.232  65.847  1.00  0.00     0.000 HD 
HETATM   22  H1  UNL     1      -7.846  17.440  64.931  1.00  0.00     0.000 HD 
ENDBRANCH  12  14
ENDBRANCH  11  12
ENDBRANCH  10  11
TORSDOF 3
ENDMDL
MODEL       27
REMARK 921   NORMALIZED FREE ENERGY PREDICTED BY IDOCK:   -5.69 KCAL/MOL
REMARK 922        TOTAL FREE ENERGY PREDICTED BY IDOCK:   -7.61 KCAL/MOL
REMARK 923 INTER-LIGAND FREE ENERGY PREDICTED BY IDOCK:   -6.69 KCAL/MOL
REMARK 924 INTRA-LIGAND FREE ENERGY PREDICTED BY IDOCK:   -0.92 KCAL/MOL
REMARK 927      BINDING AFFINITY PREDICTED BY RF-SCORE:    0.00 PKD
ROOT
HETATM    1  C   UNL     1      -7.159  15.172  69.770  1.00  0.00    -0.169 C  
HETATM    2  C   UNL     1      -7.477  15.346  68.273  1.00  0.00    -0.112 C  
HETATM    3  C   UNL     1      -9.010  15.536  68.028  1.00  0.00    -0.174 C  
HETATM    4  C   UNL     1      -6.857  14.159  67.529  1.00  0.00    -0.151 C  
HETATM    5  C   UNL     1      -9.543  16.823  68.712  1.00  0.00    -0.260 C  
HETATM    6  C   UNL     1      -8.974  18.095  68.079  1.00  0.00    -0.289 C  
HETATM    7  C   UNL     1      -9.152  18.168  66.553  1.00  0.00    -0.287 C  
HETATM    8  C   UNL     1     -10.522  18.744  66.188  1.00  0.00    -0.499 C  
HETATM    9  C   UNL     1      -8.878  16.831  65.840  1.00  0.00    -0.088 C  
HETATM   10  C   UNL     1      -9.453  15.592  66.536  1.00  0.00    -0.274 C  
ENDROOT
BRANCH  10  11
HETATM   11  O   UNL     1     -10.904  15.589  66.565  1.00  0.00    -0.313 OA 
BRANCH  11  12
HETATM   12  C   UNL     1     -11.596  14.467  66.900  1.00  0.00    -0.385 C  
HETATM   13  O   UNL     1     -12.270  14.298  67.902  1.00  0.00    -0.311 OA 
BRANCH  12  14
HETATM   14  C   UNL     1     -11.415  13.470  65.806  1.00  0.00    -0.331 A  
HETATM   15  C   UNL     1     -10.868  12.211  66.125  1.00  0.00    -0.317 A  
HETATM   16  C   UNL     1     -10.658  11.249  65.137  1.00  0.00    -0.343 A  
HETATM   17  C   UNL     1     -11.006  11.534  63.818  1.00  0.00    -0.485 A  
HETATM   18  C   UNL     1     -11.543  12.783  63.494  1.00  0.00    -0.565 A  
HETATM   19  C   UNL     1     -11.711  13.787  64.465  1.00  0.00    -0.407 A  
HETATM   20  N   UNL     1     -12.383  14.964  64.085  1.00  0.00    -0.925 NA 
HETATM   21  H2  UNL     1     -11.866  15.751  64.477  1.00  0.00     0.000 HD 
HETATM   22  H1  UNL     1     -12.597  15.193  63.114  1.00  0.00     0.000 HD 
ENDBRANCH  12  14
ENDBRANCH  11  12
ENDBRANCH  10  11
TORSDOF 3
ENDMDL
MODEL       28
REMARK 921   NORMALIZED FREE ENERGY PREDICTED BY IDOCK:   -5.69 KCAL/MOL
REMARK 922        TOTAL FREE ENERGY PREDICTED BY IDOCK:   -7.60 KCAL/MOL
REMARK 923 INTER-LIGAND FREE ENERGY PREDICTED BY IDOCK:   -6.85 KCAL/MOL
REMARK 924 INTRA-LIGAND FREE ENERGY PREDICTED BY IDOCK:   -0.75 KCAL/MOL
REMARK 927      BINDING AFFINITY PREDICTED BY RF-SCORE:    0.00 PKD
ROOT
HETATM    1  C   UNL     1     -10.565   6.620  73.524  1.00  0.00    -0.334 C  
HETATM    2  C   UNL     1     -10.971   6.980  72.083  1.00  0.00    -0.267 C  
HETATM    3  C   UNL     1     -10.777   8.505  71.794  1.00  0.00    -0.373 C  
HETATM    4  C   UNL     1     -12.398   6.468  71.864  1.00  0.00    -0.339 C  
HETATM    5  C   UNL     1      -9.289   8.925  71.917  1.00  0.00    -0.275 C  
HETATM    6  C   UNL     1      -8.416   8.297  70.829  1.00  0.00    -0.139 C  
HETATM    7  C   UNL     1      -8.936   8.525  69.400  1.00  0.00    -0.149 C  
HETATM    8  C   UNL     1      -8.449   9.867  68.846  1.00  0.00    -0.127 C  
HETATM    9  C   UNL     1     -10.462   8.367  69.271  1.00  0.00    -0.223 C  
HETATM   10  C   UNL     1     -11.280   8.997  70.404  1.00  0.00    -0.241 C  
ENDROOT
BRANCH  10  11
HETATM   11  O   UNL     1     -11.161  10.444  70.443  1.00  0.00    -0.297 OA 
BRANCH  11  12
HETATM   12  C   UNL     1     -11.950  11.233  69.666  1.00  0.00    -0.353 C  
HETATM   13  O   UNL     1     -12.259  11.035  68.502  1.00  0.00    -0.582 OA 
BRANCH  12  14
HETATM   14  C   UNL     1     -12.406  12.387  70.493  1.00  0.00    -0.346 A  
HETATM   15  C   UNL     1     -12.098  13.691  70.058  1.00  0.00    -0.417 A  
HETATM   16  C   UNL     1     -12.482  14.805  70.805  1.00  0.00    -0.402 A  
HETATM   17  C   UNL     1     -13.191  14.624  71.991  1.00  0.00    -0.439 A  
HETATM   18  C   UNL     1     -13.494  13.333  72.431  1.00  0.00    -0.670 A  
HETATM   19  C   UNL     1     -13.067  12.195  71.723  1.00  0.00    -0.352 A  
HETATM   20  N   UNL     1     -13.529  10.938  72.157  1.00  0.00    -0.527 NA 
HETATM   21  H2  UNL     1     -12.736  10.296  72.134  1.00  0.00     0.000 HD 
HETATM   22  H1  UNL     1     -14.009  10.799  73.047  1.00  0.00     0.000 HD 
ENDBRANCH  12  14
ENDBRANCH  11  12
ENDBRANCH  10  11
TORSDOF 3
ENDMDL
MODEL       29
REMARK 921   NORMALIZED FREE ENERGY PREDICTED BY IDOCK:   -5.68 KCAL/MOL
REMARK 922        TOTAL FREE ENERGY PREDICTED BY IDOCK:   -7.59 KCAL/MOL
REMARK 923 INTER-LIGAND FREE ENERGY PREDICTED BY IDOCK:   -6.56 KCAL/MOL
REMARK 924 INTRA-LIGAND FREE ENERGY PREDICTED BY IDOCK:   -1.03 KCAL/MOL
REMARK 927      BINDING AFFINITY PREDICTED BY RF-SCORE:    0.00 PKD
ROOT
HETATM    1  C   UNL     1      -9.904   9.412  65.985  1.00  0.00    -0.366 C  
HETATM    2  C   UNL     1     -10.529  10.660  66.636  1.00  0.00    -0.296 C  
HETATM    3  C   UNL     1      -9.982  11.979  65.996  1.00  0.00    -0.258 C  
HETATM    4  C   UNL     1     -10.311  10.549  68.148  1.00  0.00    -0.201 C  
HETATM    5  C   UNL     1     -10.346  12.077  64.491  1.00  0.00    -0.334 C  
HETATM    6  C   UNL     1     -11.851  12.232  64.266  1.00  0.00    -0.482 C  
HETATM    7  C   UNL     1     -12.487  13.383  65.063  1.00  0.00    -0.479 C  
HETATM    8  C   UNL     1     -12.361  14.708  64.308  1.00  0.00    -0.375 C  
HETATM    9  C   UNL     1     -11.967  13.489  66.508  1.00  0.00    -0.460 C  
HETATM   10  C   UNL     1     -10.454  13.301  66.670  1.00  0.00    -0.279 C  
ENDROOT
BRANCH  10  11
HETATM   11  O   UNL     1      -9.687  14.354  66.030  1.00  0.00    -0.300 OA 
BRANCH  11  12
HETATM   12  C   UNL     1      -8.800  15.103  66.736  1.00  0.00    -0.271 C  
HETATM   13  O   UNL     1      -7.678  14.772  67.083  1.00  0.00    -0.200 OA 
BRANCH  12  14
HETATM   14  C   UNL     1      -9.424  16.432  66.998  1.00  0.00    -0.240 A  
HETATM   15  C   UNL     1      -9.945  17.159  65.908  1.00  0.00    -0.214 A  
HETATM   16  C   UNL     1     -10.521  18.416  66.095  1.00  0.00    -0.422 A  
HETATM   17  C   UNL     1     -10.592  18.954  67.378  1.00  0.00    -0.534 A  
HETATM   18  C   UNL     1     -10.071  18.242  68.462  1.00  0.00    -0.419 A  
HETATM   19  C   UNL     1      -9.436  16.998  68.288  1.00  0.00    -0.265 A  
HETATM   20  N   UNL     1      -9.062  16.284  69.443  1.00  0.00    -0.169 NA 
HETATM   21  H2  UNL     1      -8.126  15.912  69.282  1.00  0.00     0.000 HD 
HETATM   22  H1  UNL     1      -9.071  16.694  70.377  1.00  0.00     0.000 HD 
ENDBRANCH  12  14
ENDBRANCH  11  12
ENDBRANCH  10  11
TORSDOF 3
ENDMDL
MODEL       30
REMARK 921   NORMALIZED FREE ENERGY PREDICTED BY IDOCK:   -5.65 KCAL/MOL
REMARK 922        TOTAL FREE ENERGY PREDICTED BY IDOCK:   -7.56 KCAL/MOL
REMARK 923 INTER-LIGAND FREE ENERGY PREDICTED BY IDOCK:   -6.72 KCAL/MOL
REMARK 924 INTRA-LIGAND FREE ENERGY PREDICTED BY IDOCK:   -0.84 KCAL/MOL
REMARK 927      BINDING AFFINITY PREDICTED BY RF-SCORE:    0.00 PKD
ROOT
HETATM    1  C   UNL     1     -10.727  16.064  67.769  1.00  0.00    -0.323 C  
HETATM    2  C   UNL     1     -10.121  15.112  66.721  1.00  0.00    -0.261 C  
HETATM    3  C   UNL     1     -10.792  13.700  66.769  1.00  0.00    -0.291 C  
HETATM    4  C   UNL     1      -8.603  15.102  66.931  1.00  0.00    -0.289 C  
HETATM    5  C   UNL     1     -12.304  13.774  66.428  1.00  0.00    -0.460 C  
HETATM    6  C   UNL     1     -12.552  14.180  64.974  1.00  0.00    -0.399 C  
HETATM    7  C   UNL     1     -11.798  13.319  63.947  1.00  0.00    -0.522 C  
HETATM    8  C   UNL     1     -12.591  12.055  63.603  1.00  0.00    -0.605 C  
HETATM    9  C   UNL     1     -10.351  12.999  64.362  1.00  0.00    -0.397 C  
HETATM   10  C   UNL     1     -10.164  12.623  65.836  1.00  0.00    -0.274 C  
ENDROOT
BRANCH  10  11
HETATM   11  O   UNL     1     -10.825  11.379  66.186  1.00  0.00    -0.274 OA 
BRANCH  11  12
HETATM   12  C   UNL     1     -10.128  10.216  66.277  1.00  0.00    -0.238 C  
HETATM   13  O   UNL     1      -9.789   9.494  65.354  1.00  0.00    -0.302 OA 
BRANCH  12  14
HETATM   14  C   UNL     1      -9.815   9.977  67.715  1.00  0.00    -0.185 A  
HETATM   15  C   UNL     1      -8.511   9.570  68.063  1.00  0.00    -0.119 A  
HETATM   16  C   UNL     1      -8.171   9.313  69.392  1.00  0.00    -0.114 A  
HETATM   17  C   UNL     1      -9.131   9.474  70.388  1.00  0.00    -0.296 A  
HETATM   18  C   UNL     1     -10.427   9.871  70.050  1.00  0.00    -0.331 A  
HETATM   19  C   UNL     1     -10.806  10.081  68.712  1.00  0.00    -0.219 A  
HETATM   20  N   UNL     1     -12.088  10.611  68.466  1.00  0.00    -0.819 NA 
HETATM   21  H2  UNL     1     -12.491  10.089  67.688  1.00  0.00     0.000 HD 
HETATM   22  H1  UNL     1     -12.805  10.686  69.187  1.00  0.00     0.000 HD 
ENDBRANCH  12  14
ENDBRANCH  11  12
ENDBRANCH  10  11
TORSDOF 3
ENDMDL
MODEL       31
REMARK 921   NORMALIZED FREE ENERGY PREDICTED BY IDOCK:   -5.63 KCAL/MOL
REMARK 922        TOTAL FREE ENERGY PREDICTED BY IDOCK:   -7.54 KCAL/MOL
REMARK 923 INTER-LIGAND FREE ENERGY PREDICTED BY IDOCK:   -6.58 KCAL/MOL
REMARK 924 INTRA-LIGAND FREE ENERGY PREDICTED BY IDOCK:   -0.96 KCAL/MOL
REMARK 927      BINDING AFFINITY PREDICTED BY RF-SCORE:    0.00 PKD
ROOT
HETATM    1  C   UNL     1      -8.545  16.150  66.207  1.00  0.00    -0.373 C  
HETATM    2  C   UNL     1      -9.984  15.747  66.579  1.00  0.00    -0.283 C  
HETATM    3  C   UNL     1     -10.005  14.564  67.602  1.00  0.00    -0.224 C  
HETATM    4  C   UNL     1     -10.737  15.472  65.274  1.00  0.00    -0.440 C  
HETATM    5  C   UNL     1      -9.331  14.956  68.943  1.00  0.00    -0.197 C  
HETATM    6  C   UNL     1     -10.121  16.026  69.700  1.00  0.00    -0.244 C  
HETATM    7  C   UNL     1     -11.603  15.677  69.910  1.00  0.00    -0.354 C  
HETATM    8  C   UNL     1     -11.793  14.822  71.166  1.00  0.00    -0.387 C  
HETATM    9  C   UNL     1     -12.265  15.042  68.674  1.00  0.00    -0.085 C  
HETATM   10  C   UNL     1     -11.413  13.995  67.946  1.00  0.00    -0.316 C  
ENDROOT
BRANCH  10  11
HETATM   11  O   UNL     1     -11.164  12.815  68.754  1.00  0.00    -0.251 OA 
BRANCH  11  12
HETATM   12  C   UNL     1     -11.615  11.592  68.366  1.00  0.00    -0.312 C  
HETATM   13  O   UNL     1     -11.834  11.224  67.224  1.00  0.00    -0.562 OA 
BRANCH  12  14
HETATM   14  C   UNL     1     -11.773  10.751  69.588  1.00  0.00    -0.395 A  
HETATM   15  C   UNL     1     -12.654  11.187  70.598  1.00  0.00    -0.408 A  
HETATM   16  C   UNL     1     -12.823  10.449  71.769  1.00  0.00    -0.561 A  
HETATM   17  C   UNL     1     -12.120   9.258  71.936  1.00  0.00    -0.440 A  
HETATM   18  C   UNL     1     -11.240   8.823  70.942  1.00  0.00    -0.320 A  
HETATM   19  C   UNL     1     -11.012   9.580  69.778  1.00  0.00    -0.223 A  
HETATM   20  N   UNL     1     -10.219   9.008  68.765  1.00  0.00    -0.203 NA 
HETATM   21  H2  UNL     1      -9.584   9.732  68.429  1.00  0.00     0.000 HD 
HETATM   22  H1  UNL     1      -9.668   8.160  68.903  1.00  0.00     0.000 HD 
ENDBRANCH  12  14
ENDBRANCH  11  12
ENDBRANCH  10  11
TORSDOF 3
ENDMDL
MODEL       32
REMARK 921   NORMALIZED FREE ENERGY PREDICTED BY IDOCK:   -5.61 KCAL/MOL
REMARK 922        TOTAL FREE ENERGY PREDICTED BY IDOCK:   -7.51 KCAL/MOL
REMARK 923 INTER-LIGAND FREE ENERGY PREDICTED BY IDOCK:   -6.80 KCAL/MOL
REMARK 924 INTRA-LIGAND FREE ENERGY PREDICTED BY IDOCK:   -0.71 KCAL/MOL
REMARK 927      BINDING AFFINITY PREDICTED BY RF-SCORE:    0.00 PKD
ROOT
HETATM    1  C   UNL     1     -11.207  15.137  64.928  1.00  0.00    -0.424 C  
HETATM    2  C   UNL     1     -10.258  14.318  65.823  1.00  0.00    -0.351 C  
HETATM    3  C   UNL     1     -11.024  13.198  66.602  1.00  0.00    -0.301 C  
HETATM    4  C   UNL     1      -9.496  15.305  66.713  1.00  0.00    -0.264 C  
HETATM    5  C   UNL     1     -11.668  12.168  65.636  1.00  0.00    -0.385 C  
HETATM    6  C   UNL     1     -10.621  11.349  64.879  1.00  0.00    -0.368 C  
HETATM    7  C   UNL     1      -9.578  10.676  65.786  1.00  0.00    -0.258 C  
HETATM    8  C   UNL     1     -10.086   9.326  66.300  1.00  0.00    -0.322 C  
HETATM    9  C   UNL     1      -9.085  11.581  66.930  1.00  0.00    -0.181 C  
HETATM   10  C   UNL     1     -10.178  12.394  67.633  1.00  0.00    -0.207 C  
ENDROOT
BRANCH  10  11
HETATM   11  O   UNL     1     -11.129  11.558  68.342  1.00  0.00    -0.201 OA 
BRANCH  11  12
HETATM   12  C   UNL     1     -11.667  11.957  69.525  1.00  0.00    -0.345 C  
HETATM   13  O   UNL     1     -12.011  13.088  69.827  1.00  0.00    -0.316 OA 
BRANCH  12  14
HETATM   14  C   UNL     1     -11.796  10.756  70.401  1.00  0.00    -0.450 A  
HETATM   15  C   UNL     1     -13.056  10.463  70.961  1.00  0.00    -0.450 A  
HETATM   16  C   UNL     1     -13.227   9.364  71.803  1.00  0.00    -0.487 A  
HETATM   17  C   UNL     1     -12.140   8.540  72.084  1.00  0.00    -0.449 A  
HETATM   18  C   UNL     1     -10.887   8.829  71.538  1.00  0.00    -0.374 A  
HETATM   19  C   UNL     1     -10.680   9.963  70.732  1.00  0.00    -0.280 A  
HETATM   20  N   UNL     1      -9.425  10.108  70.110  1.00  0.00    -0.387 NA 
HETATM   21  H2  UNL     1      -9.145  11.084  70.209  1.00  0.00     0.000 HD 
HETATM   22  H1  UNL     1      -8.616   9.533  70.349  1.00  0.00     0.000 HD 
ENDBRANCH  12  14
ENDBRANCH  11  12
ENDBRANCH  10  11
TORSDOF 3
ENDMDL
MODEL       33
REMARK 921   NORMALIZED FREE ENERGY PREDICTED BY IDOCK:   -5.61 KCAL/MOL
REMARK 922        TOTAL FREE ENERGY PREDICTED BY IDOCK:   -7.51 KCAL/MOL
REMARK 923 INTER-LIGAND FREE ENERGY PREDICTED BY IDOCK:   -6.85 KCAL/MOL
REMARK 924 INTRA-LIGAND FREE ENERGY PREDICTED BY IDOCK:   -0.66 KCAL/MOL
REMARK 927      BINDING AFFINITY PREDICTED BY RF-SCORE:    0.00 PKD
ROOT
HETATM    1  C   UNL     1      -7.787   7.312  69.777  1.00  0.00    -0.117 C  
HETATM    2  C   UNL     1      -8.674   7.790  70.942  1.00  0.00    -0.137 C  
HETATM    3  C   UNL     1      -9.999   8.445  70.426  1.00  0.00    -0.199 C  
HETATM    4  C   UNL     1      -7.819   8.700  71.830  1.00  0.00    -0.138 C  
HETATM    5  C   UNL     1     -10.868   7.430  69.639  1.00  0.00    -0.222 C  
HETATM    6  C   UNL     1     -11.410   6.312  70.533  1.00  0.00    -0.428 C  
HETATM    7  C   UNL     1     -12.147   6.815  71.785  1.00  0.00    -0.393 C  
HETATM    8  C   UNL     1     -13.616   7.112  71.474  1.00  0.00    -0.408 C  
HETATM    9  C   UNL     1     -11.450   8.003  72.471  1.00  0.00    -0.471 C  
HETATM   10  C   UNL     1     -10.908   9.077  71.520  1.00  0.00    -0.346 C  
ENDROOT
BRANCH  10  11
HETATM   11  O   UNL     1     -11.960   9.765  70.795  1.00  0.00    -0.284 OA 
BRANCH  11  12
HETATM   12  C   UNL     1     -12.790  10.639  71.424  1.00  0.00    -0.451 C  
HETATM   13  O   UNL     1     -13.574  10.382  72.323  1.00  0.00    -0.299 OA 
BRANCH  12  14
HETATM   14  C   UNL     1     -12.560  11.993  70.843  1.00  0.00    -0.347 A  
HETATM   15  C   UNL     1     -11.835  12.097  69.639  1.00  0.00    -0.391 A  
HETATM   16  C   UNL     1     -11.573  13.340  69.065  1.00  0.00    -0.359 A  
HETATM   17  C   UNL     1     -12.047  14.495  69.684  1.00  0.00    -0.369 A  
HETATM   18  C   UNL     1     -12.761  14.400  70.881  1.00  0.00    -0.425 A  
HETATM   19  C   UNL     1     -12.987  13.161  71.507  1.00  0.00    -0.321 A  
HETATM   20  N   UNL     1     -13.830  13.137  72.635  1.00  0.00    -0.746 NA 
HETATM   21  H2  UNL     1     -13.392  12.533  73.331  1.00  0.00     0.000 HD 
HETATM   22  H1  UNL     1     -14.140  13.982  73.115  1.00  0.00     0.000 HD 
ENDBRANCH  12  14
ENDBRANCH  11  12
ENDBRANCH  10  11
TORSDOF 3
ENDMDL
MODEL       34
REMARK 921   NORMALIZED FREE ENERGY PREDICTED BY IDOCK:   -5.61 KCAL/MOL
REMARK 922        TOTAL FREE ENERGY PREDICTED BY IDOCK:   -7.50 KCAL/MOL
REMARK 923 INTER-LIGAND FREE ENERGY PREDICTED BY IDOCK:   -6.63 KCAL/MOL
REMARK 924 INTRA-LIGAND FREE ENERGY PREDICTED BY IDOCK:   -0.87 KCAL/MOL
REMARK 927      BINDING AFFINITY PREDICTED BY RF-SCORE:    0.00 PKD
ROOT
HETATM    1  C   UNL     1      -8.409   8.121  65.373  1.00  0.00    -0.163 C  
HETATM    2  C   UNL     1      -8.514   9.497  66.057  1.00  0.00    -0.132 C  
HETATM    3  C   UNL     1     -10.004   9.939  66.236  1.00  0.00    -0.322 C  
HETATM    4  C   UNL     1      -7.651  10.477  65.257  1.00  0.00    -0.074 C  
HETATM    5  C   UNL     1     -10.784   8.963  67.157  1.00  0.00    -0.203 C  
HETATM    6  C   UNL     1     -10.280   9.001  68.601  1.00  0.00    -0.226 C  
HETATM    7  C   UNL     1     -10.232  10.412  69.210  1.00  0.00    -0.248 C  
HETATM    8  C   UNL     1     -11.589  10.802  69.801  1.00  0.00    -0.393 C  
HETATM    9  C   UNL     1      -9.695  11.480  68.239  1.00  0.00    -0.198 C  
HETATM   10  C   UNL     1     -10.218  11.374  66.802  1.00  0.00    -0.223 C  
ENDROOT
BRANCH  10  11
HETATM   11  O   UNL     1     -11.646  11.616  66.706  1.00  0.00    -0.503 OA 
BRANCH  11  12
HETATM   12  C   UNL     1     -12.138  12.600  65.908  1.00  0.00    -0.396 C  
HETATM   13  O   UNL     1     -12.972  12.476  65.026  1.00  0.00    -0.779 OA 
BRANCH  12  14
HETATM   14  C   UNL     1     -11.501  13.886  66.314  1.00  0.00    -0.347 A  
HETATM   15  C   UNL     1     -11.837  14.440  67.566  1.00  0.00    -0.418 A  
HETATM   16  C   UNL     1     -11.286  15.650  67.985  1.00  0.00    -0.339 A  
HETATM   17  C   UNL     1     -10.382  16.314  67.160  1.00  0.00    -0.285 A  
HETATM   18  C   UNL     1     -10.049  15.775  65.914  1.00  0.00    -0.381 A  
HETATM   19  C   UNL     1     -10.635  14.584  65.448  1.00  0.00    -0.370 A  
HETATM   20  N   UNL     1     -10.146  14.036  64.247  1.00  0.00    -0.632 NA 
HETATM   21  H2  UNL     1     -10.951  13.737  63.697  1.00  0.00     0.000 HD 
HETATM   22  H1  UNL     1      -9.519  14.541  63.621  1.00  0.00     0.000 HD 
ENDBRANCH  12  14
ENDBRANCH  11  12
ENDBRANCH  10  11
TORSDOF 3
ENDMDL
MODEL       35
REMARK 921   NORMALIZED FREE ENERGY PREDICTED BY IDOCK:   -5.58 KCAL/MOL
REMARK 922        TOTAL FREE ENERGY PREDICTED BY IDOCK:   -7.47 KCAL/MOL
REMARK 923 INTER-LIGAND FREE ENERGY PREDICTED BY IDOCK:   -6.57 KCAL/MOL
REMARK 924 INTRA-LIGAND FREE ENERGY PREDICTED BY IDOCK:   -0.90 KCAL/MOL
REMARK 927      BINDING AFFINITY PREDICTED BY RF-SCORE:    0.00 PKD
ROOT
HETATM    1  C   UNL     1     -10.553  16.359  67.031  1.00  0.00    -0.260 C  
HETATM    2  C   UNL     1     -10.038  15.061  66.384  1.00  0.00    -0.289 C  
HETATM    3  C   UNL     1     -11.056  13.886  66.559  1.00  0.00    -0.310 C  
HETATM    4  C   UNL     1      -8.643  14.784  66.954  1.00  0.00    -0.254 C  
HETATM    5  C   UNL     1     -12.404  14.188  65.853  1.00  0.00    -0.486 C  
HETATM    6  C   UNL     1     -12.262  14.243  64.331  1.00  0.00    -0.471 C  
HETATM    7  C   UNL     1     -11.586  13.004  63.720  1.00  0.00    -0.517 C  
HETATM    8  C   UNL     1     -12.607  11.892  63.464  1.00  0.00    -0.579 C  
HETATM    9  C   UNL     1     -10.378  12.503  64.532  1.00  0.00    -0.362 C  
HETATM   10  C   UNL     1     -10.573  12.495  66.052  1.00  0.00    -0.263 C  
ENDROOT
BRANCH  10  11
HETATM   11  O   UNL     1     -11.593  11.555  66.481  1.00  0.00    -0.444 OA 
BRANCH  11  12
HETATM   12  C   UNL     1     -11.461  10.857  67.640  1.00  0.00    -0.200 C  
HETATM   13  O   UNL     1     -12.160  10.957  68.635  1.00  0.00    -0.527 OA 
BRANCH  12  14
HETATM   14  C   UNL     1     -10.318   9.913  67.483  1.00  0.00    -0.289 A  
HETATM   15  C   UNL     1     -10.281   9.081  66.345  1.00  0.00    -0.297 A  
HETATM   16  C   UNL     1      -9.245   8.166  66.160  1.00  0.00    -0.230 A  
HETATM   17  C   UNL     1      -8.227   8.082  67.107  1.00  0.00    -0.117 A  
HETATM   18  C   UNL     1      -8.260   8.898  68.240  1.00  0.00    -0.121 A  
HETATM   19  C   UNL     1      -9.324   9.788  68.475  1.00  0.00    -0.142 A  
HETATM   20  N   UNL     1      -9.215  10.672  69.566  1.00  0.00    -0.411 NA 
HETATM   21  H2  UNL     1     -10.119  10.686  70.039  1.00  0.00     0.000 HD 
HETATM   22  H1  UNL     1      -8.495  10.582  70.284  1.00  0.00     0.000 HD 
ENDBRANCH  12  14
ENDBRANCH  11  12
ENDBRANCH  10  11
TORSDOF 3
ENDMDL
MODEL       36
REMARK 921   NORMALIZED FREE ENERGY PREDICTED BY IDOCK:   -5.56 KCAL/MOL
REMARK 922        TOTAL FREE ENERGY PREDICTED BY IDOCK:   -7.45 KCAL/MOL
REMARK 923 INTER-LIGAND FREE ENERGY PREDICTED BY IDOCK:   -6.36 KCAL/MOL
REMARK 924 INTRA-LIGAND FREE ENERGY PREDICTED BY IDOCK:   -1.08 KCAL/MOL
REMARK 927      BINDING AFFINITY PREDICTED BY RF-SCORE:    0.00 PKD
ROOT
HETATM    1  C   UNL     1     -10.169   8.802  71.975  1.00  0.00    -0.401 C  
HETATM    2  C   UNL     1     -10.893   9.342  70.728  1.00  0.00    -0.349 C  
HETATM    3  C   UNL     1      -9.923  10.143  69.799  1.00  0.00    -0.258 C  
HETATM    4  C   UNL     1     -12.113  10.135  71.209  1.00  0.00    -0.489 C  
HETATM    5  C   UNL     1      -8.782   9.245  69.253  1.00  0.00    -0.141 C  
HETATM    6  C   UNL     1      -9.298   8.169  68.296  1.00  0.00    -0.137 C  
HETATM    7  C   UNL     1     -10.165   8.715  67.150  1.00  0.00    -0.353 C  
HETATM    8  C   UNL     1      -9.297   9.172  65.975  1.00  0.00    -0.300 C  
HETATM    9  C   UNL     1     -11.154   9.806  67.596  1.00  0.00    -0.118 C  
HETATM   10  C   UNL     1     -10.584  10.840  68.574  1.00  0.00    -0.195 C  
ENDROOT
BRANCH  10  11
HETATM   11  O   UNL     1      -9.537  11.653  67.982  1.00  0.00    -0.172 OA 
BRANCH  11  12
HETATM   12  C   UNL     1      -9.719  12.982  67.764  1.00  0.00    -0.218 C  
HETATM   13  O   UNL     1      -9.240  13.900  68.410  1.00  0.00    -0.200 OA 
BRANCH  12  14
HETATM   14  C   UNL     1     -10.594  13.137  66.566  1.00  0.00    -0.290 A  
HETATM   15  C   UNL     1     -10.157  12.604  65.338  1.00  0.00    -0.277 A  
HETATM   16  C   UNL     1     -10.927  12.740  64.182  1.00  0.00    -0.435 A  
HETATM   17  C   UNL     1     -12.150  13.402  64.249  1.00  0.00    -0.479 A  
HETATM   18  C   UNL     1     -12.587  13.939  65.462  1.00  0.00    -0.560 A  
HETATM   19  C   UNL     1     -11.801  13.862  66.626  1.00  0.00    -0.420 A  
HETATM   20  N   UNL     1     -12.371  14.305  67.835  1.00  0.00    -0.570 NA 
HETATM   21  H2  UNL     1     -11.662  14.853  68.325  1.00  0.00     0.000 HD 
HETATM   22  H1  UNL     1     -13.245  14.830  67.878  1.00  0.00     0.000 HD 
ENDBRANCH  12  14
ENDBRANCH  11  12
ENDBRANCH  10  11
TORSDOF 3
ENDMDL
MODEL       37
REMARK 921   NORMALIZED FREE ENERGY PREDICTED BY IDOCK:   -5.53 KCAL/MOL
REMARK 922        TOTAL FREE ENERGY PREDICTED BY IDOCK:   -7.41 KCAL/MOL
REMARK 923 INTER-LIGAND FREE ENERGY PREDICTED BY IDOCK:   -6.62 KCAL/MOL
REMARK 924 INTRA-LIGAND FREE ENERGY PREDICTED BY IDOCK:   -0.79 KCAL/MOL
REMARK 927      BINDING AFFINITY PREDICTED BY RF-SCORE:    0.00 PKD
ROOT
HETATM    1  C   UNL     1      -8.070   7.034  69.586  1.00  0.00    -0.130 C  
HETATM    2  C   UNL     1      -8.844   7.793  70.680  1.00  0.00    -0.144 C  
HETATM    3  C   UNL     1     -10.172   8.407  70.126  1.00  0.00    -0.198 C  
HETATM    4  C   UNL     1      -7.883   8.811  71.302  1.00  0.00    -0.167 C  
HETATM    5  C   UNL     1     -11.144   7.307  69.626  1.00  0.00    -0.161 C  
HETATM    6  C   UNL     1     -11.667   6.431  70.766  1.00  0.00    -0.378 C  
HETATM    7  C   UNL     1     -12.284   7.223  71.931  1.00  0.00    -0.348 C  
HETATM    8  C   UNL     1     -13.757   7.539  71.660  1.00  0.00    -0.465 C  
HETATM    9  C   UNL     1     -11.483   8.482  72.307  1.00  0.00    -0.445 C  
HETATM   10  C   UNL     1     -10.966   9.304  71.121  1.00  0.00    -0.339 C  
ENDROOT
BRANCH  10  11
HETATM   11  O   UNL     1     -12.037   9.892  70.337  1.00  0.00    -0.238 OA 
BRANCH  11  12
HETATM   12  C   UNL     1     -11.846  11.043  69.640  1.00  0.00    -0.342 C  
HETATM   13  O   UNL     1     -11.447  11.142  68.491  1.00  0.00    -0.252 OA 
BRANCH  12  14
HETATM   14  C   UNL     1     -12.236  12.184  70.517  1.00  0.00    -0.392 A  
HETATM   15  C   UNL     1     -13.115  11.939  71.591  1.00  0.00    -0.433 A  
HETATM   16  C   UNL     1     -13.529  12.974  72.429  1.00  0.00    -0.615 A  
HETATM   17  C   UNL     1     -13.057  14.266  72.208  1.00  0.00    -0.493 A  
HETATM   18  C   UNL     1     -12.191  14.517  71.140  1.00  0.00    -0.411 A  
HETATM   19  C   UNL     1     -11.805  13.499  70.250  1.00  0.00    -0.257 A  
HETATM   20  N   UNL     1     -10.825  13.804  69.286  1.00  0.00    -0.407 NA 
HETATM   21  H2  UNL     1     -11.130  13.397  68.401  1.00  0.00     0.000 HD 
HETATM   22  H1  UNL     1     -10.513  14.755  69.093  1.00  0.00     0.000 HD 
ENDBRANCH  12  14
ENDBRANCH  11  12
ENDBRANCH  10  11
TORSDOF 3
ENDMDL
MODEL       38
REMARK 921   NORMALIZED FREE ENERGY PREDICTED BY IDOCK:   -5.52 KCAL/MOL
REMARK 922        TOTAL FREE ENERGY PREDICTED BY IDOCK:   -7.41 KCAL/MOL
REMARK 923 INTER-LIGAND FREE ENERGY PREDICTED BY IDOCK:   -6.33 KCAL/MOL
REMARK 924 INTRA-LIGAND FREE ENERGY PREDICTED BY IDOCK:   -1.07 KCAL/MOL
REMARK 927      BINDING AFFINITY PREDICTED BY RF-SCORE:    0.00 PKD
ROOT
HETATM    1  C   UNL     1     -12.153  13.775  66.209  1.00  0.00    -0.484 C  
HETATM    2  C   UNL     1     -10.936  14.690  65.978  1.00  0.00    -0.325 C  
HETATM    3  C   UNL     1     -10.711  15.666  67.180  1.00  0.00    -0.314 C  
HETATM    4  C   UNL     1     -11.131  15.382  64.625  1.00  0.00    -0.361 C  
HETATM    5  C   UNL     1     -10.401  14.895  68.490  1.00  0.00    -0.237 C  
HETATM    6  C   UNL     1      -9.054  14.170  68.432  1.00  0.00    -0.191 C  
HETATM    7  C   UNL     1      -7.876  15.071  68.030  1.00  0.00    -0.129 C  
HETATM    8  C   UNL     1      -7.296  15.794  69.249  1.00  0.00    -0.216 C  
HETATM    9  C   UNL     1      -8.211  16.045  66.887  1.00  0.00    -0.277 C  
HETATM   10  C   UNL     1      -9.583  16.721  66.989  1.00  0.00    -0.239 C  
ENDROOT
BRANCH  10  11
HETATM   11  O   UNL     1      -9.687  17.606  68.135  1.00  0.00    -0.284 OA 
BRANCH  11  12
HETATM   12  C   UNL     1      -9.812  18.950  67.975  1.00  0.00    -0.352 C  
HETATM   13  O   UNL     1     -10.848  19.572  67.806  1.00  0.00    -0.417 OA 
BRANCH  12  14
HETATM   14  C   UNL     1      -8.451  19.554  68.068  1.00  0.00    -0.358 A  
HETATM   15  C   UNL     1      -7.721  19.391  69.263  1.00  0.00    -0.202 A  
HETATM   16  C   UNL     1      -6.453  19.953  69.410  1.00  0.00    -0.382 A  
HETATM   17  C   UNL     1      -5.897  20.674  68.357  1.00  0.00    -0.355 A  
HETATM   18  C   UNL     1      -6.617  20.846  67.172  1.00  0.00    -0.399 A  
HETATM   19  C   UNL     1      -7.919  20.335  67.022  1.00  0.00    -0.324 A  
HETATM   20  N   UNL     1      -8.522  20.431  65.754  1.00  0.00    -0.487 NA 
HETATM   21  H2  UNL     1      -9.488  20.729  65.896  1.00  0.00     0.000 HD 
HETATM   22  H1  UNL     1      -8.137  20.997  64.997  1.00  0.00     0.000 HD 
ENDBRANCH  12  14
ENDBRANCH  11  12
ENDBRANCH  10  11
TORSDOF 3
ENDMDL
MODEL       39
REMARK 921   NORMALIZED FREE ENERGY PREDICTED BY IDOCK:   -5.50 KCAL/MOL
REMARK 922        TOTAL FREE ENERGY PREDICTED BY IDOCK:   -7.38 KCAL/MOL
REMARK 923 INTER-LIGAND FREE ENERGY PREDICTED BY IDOCK:   -6.67 KCAL/MOL
REMARK 924 INTRA-LIGAND FREE ENERGY PREDICTED BY IDOCK:   -0.72 KCAL/MOL
REMARK 927      BINDING AFFINITY PREDICTED BY RF-SCORE:    0.00 PKD
ROOT
HETATM    1  C   UNL     1      -7.175  13.046  68.565  1.00  0.00    -0.104 C  
HETATM    2  C   UNL     1      -8.384  13.997  68.636  1.00  0.00    -0.104 C  
HETATM    3  C   UNL     1      -8.859  14.434  67.211  1.00  0.00    -0.225 C  
HETATM    4  C   UNL     1      -8.005  15.157  69.563  1.00  0.00    -0.175 C  
HETATM    5  C   UNL     1      -9.341  13.220  66.373  1.00  0.00    -0.185 C  
HETATM    6  C   UNL     1     -10.617  12.594  66.939  1.00  0.00    -0.256 C  
HETATM    7  C   UNL     1     -11.760  13.597  67.163  1.00  0.00    -0.418 C  
HETATM    8  C   UNL     1     -12.572  13.799  65.881  1.00  0.00    -0.494 C  
HETATM    9  C   UNL     1     -11.292  14.934  67.767  1.00  0.00    -0.341 C  
HETATM   10  C   UNL     1      -9.995  15.497  67.175  1.00  0.00    -0.242 C  
ENDROOT
BRANCH  10  11
HETATM   11  O   UNL     1     -10.132  15.867  65.778  1.00  0.00    -0.314 OA 
BRANCH  11  12
HETATM   12  C   UNL     1     -10.533  17.115  65.418  1.00  0.00    -0.080 C  
HETATM   13  O   UNL     1     -11.231  17.410  64.462  1.00  0.00    -1.018 OA 
BRANCH  12  14
HETATM   14  C   UNL     1      -9.994  18.079  66.420  1.00  0.00    -0.362 A  
HETATM   15  C   UNL     1     -10.901  18.762  67.255  1.00  0.00    -0.408 A  
HETATM   16  C   UNL     1     -10.451  19.691  68.194  1.00  0.00    -0.503 A  
HETATM   17  C   UNL     1      -9.085  19.935  68.315  1.00  0.00    -0.318 A  
HETATM   18  C   UNL     1      -8.180  19.266  67.486  1.00  0.00    -0.320 A  
HETATM   19  C   UNL     1      -8.616  18.369  66.495  1.00  0.00    -0.273 A  
HETATM   20  N   UNL     1      -7.639  17.635  65.796  1.00  0.00    -0.527 NA 
HETATM   21  H2  UNL     1      -7.899  17.642  64.809  1.00  0.00     0.000 HD 
HETATM   22  H1  UNL     1      -6.642  17.844  65.851  1.00  0.00     0.000 HD 
ENDBRANCH  12  14
ENDBRANCH  11  12
ENDBRANCH  10  11
TORSDOF 3
ENDMDL
MODEL       40
REMARK 921   NORMALIZED FREE ENERGY PREDICTED BY IDOCK:   -5.49 KCAL/MOL
REMARK 922        TOTAL FREE ENERGY PREDICTED BY IDOCK:   -7.37 KCAL/MOL
REMARK 923 INTER-LIGAND FREE ENERGY PREDICTED BY IDOCK:   -6.59 KCAL/MOL
REMARK 924 INTRA-LIGAND FREE ENERGY PREDICTED BY IDOCK:   -0.78 KCAL/MOL
REMARK 927      BINDING AFFINITY PREDICTED BY RF-SCORE:    0.00 PKD
ROOT
HETATM    1  C   UNL     1     -10.663   6.524  73.438  1.00  0.00    -0.295 C  
HETATM    2  C   UNL     1     -11.055   6.941  72.009  1.00  0.00    -0.279 C  
HETATM    3  C   UNL     1     -10.809   8.466  71.764  1.00  0.00    -0.353 C  
HETATM    4  C   UNL     1     -12.500   6.485  71.776  1.00  0.00    -0.293 C  
HETATM    5  C   UNL     1      -9.306   8.830  71.899  1.00  0.00    -0.343 C  
HETATM    6  C   UNL     1      -8.456   8.204  70.792  1.00  0.00    -0.126 C  
HETATM    7  C   UNL     1      -8.967   8.492  69.371  1.00  0.00    -0.149 C  
HETATM    8  C   UNL     1      -8.433   9.831  68.857  1.00  0.00    -0.129 C  
HETATM    9  C   UNL     1     -10.498   8.391  69.239  1.00  0.00    -0.223 C  
HETATM   10  C   UNL     1     -11.293   9.016  70.391  1.00  0.00    -0.210 C  
ENDROOT
BRANCH  10  11
HETATM   11  O   UNL     1     -11.125  10.455  70.472  1.00  0.00    -0.311 OA 
BRANCH  11  12
HETATM   12  C   UNL     1     -11.872  11.293  69.705  1.00  0.00    -0.360 C  
HETATM   13  O   UNL     1     -12.138  11.156  68.522  1.00  0.00    -0.586 OA 
BRANCH  12  14
HETATM   14  C   UNL     1     -12.344  12.412  70.570  1.00  0.00    -0.346 A  
HETATM   15  C   UNL     1     -13.088  12.103  71.726  1.00  0.00    -0.457 A  
HETATM   16  C   UNL     1     -13.572  13.113  72.558  1.00  0.00    -0.595 A  
HETATM   17  C   UNL     1     -13.305  14.444  72.247  1.00  0.00    -0.512 A  
HETATM   18  C   UNL     1     -12.574  14.758  71.099  1.00  0.00    -0.407 A  
HETATM   19  C   UNL     1     -12.125  13.759  70.216  1.00  0.00    -0.355 A  
HETATM   20  N   UNL     1     -11.280  14.146  69.159  1.00  0.00    -0.262 NA 
HETATM   21  H2  UNL     1     -11.597  13.658  68.320  1.00  0.00     0.000 HD 
HETATM   22  H1  UNL     1     -11.120  15.121  68.903  1.00  0.00     0.000 HD 
ENDBRANCH  12  14
ENDBRANCH  11  12
ENDBRANCH  10  11
TORSDOF 3
ENDMDL
MODEL       41
REMARK 921   NORMALIZED FREE ENERGY PREDICTED BY IDOCK:   -5.41 KCAL/MOL
REMARK 922        TOTAL FREE ENERGY PREDICTED BY IDOCK:   -7.27 KCAL/MOL
REMARK 923 INTER-LIGAND FREE ENERGY PREDICTED BY IDOCK:   -6.27 KCAL/MOL
REMARK 924 INTRA-LIGAND FREE ENERGY PREDICTED BY IDOCK:   -1.01 KCAL/MOL
REMARK 927      BINDING AFFINITY PREDICTED BY RF-SCORE:    0.00 PKD
ROOT
HETATM    1  C   UNL     1     -11.785  15.443  69.012  1.00  0.00    -0.380 C  
HETATM    2  C   UNL     1     -11.024  15.383  67.675  1.00  0.00    -0.315 C  
HETATM    3  C   UNL     1     -10.788  13.908  67.212  1.00  0.00    -0.292 C  
HETATM    4  C   UNL     1      -9.745  16.212  67.835  1.00  0.00    -0.225 C  
HETATM    5  C   UNL     1     -12.128  13.169  66.954  1.00  0.00    -0.377 C  
HETATM    6  C   UNL     1     -12.887  13.745  65.757  1.00  0.00    -0.430 C  
HETATM    7  C   UNL     1     -12.052  13.835  64.470  1.00  0.00    -0.463 C  
HETATM    8  C   UNL     1     -12.085  12.512  63.700  1.00  0.00    -0.642 C  
HETATM    9  C   UNL     1     -10.613  14.329  64.707  1.00  0.00    -0.434 C  
HETATM   10  C   UNL     1      -9.915  13.734  65.935  1.00  0.00    -0.293 C  
ENDROOT
BRANCH  10  11
HETATM   11  O   UNL     1      -9.691  12.304  65.814  1.00  0.00    -0.247 OA 
BRANCH  11  12
HETATM   12  C   UNL     1      -8.796  11.664  66.611  1.00  0.00    -0.187 C  
HETATM   13  O   UNL     1      -7.681  12.056  66.918  1.00  0.00    -0.146 OA 
BRANCH  12  14
HETATM   14  C   UNL     1      -9.421  10.395  67.082  1.00  0.00    -0.183 A  
HETATM   15  C   UNL     1      -9.741  10.267  68.449  1.00  0.00    -0.165 A  
HETATM   16  C   UNL     1     -10.308   9.094  68.946  1.00  0.00    -0.232 A  
HETATM   17  C   UNL     1     -10.573   8.039  68.075  1.00  0.00    -0.190 A  
HETATM   18  C   UNL     1     -10.253   8.156  66.720  1.00  0.00    -0.372 A  
HETATM   19  C   UNL     1      -9.630   9.309  66.209  1.00  0.00    -0.248 A  
HETATM   20  N   UNL     1      -9.466   9.405  64.813  1.00  0.00    -0.446 NA 
HETATM   21  H2  UNL     1      -8.525   9.760  64.640  1.00  0.00     0.000 HD 
HETATM   22  H1  UNL     1      -9.617   8.618  64.181  1.00  0.00     0.000 HD 
ENDBRANCH  12  14
ENDBRANCH  11  12
ENDBRANCH  10  11
TORSDOF 3
ENDMDL
MODEL       42
REMARK 921   NORMALIZED FREE ENERGY PREDICTED BY IDOCK:   -5.40 KCAL/MOL
REMARK 922        TOTAL FREE ENERGY PREDICTED BY IDOCK:   -7.26 KCAL/MOL
REMARK 923 INTER-LIGAND FREE ENERGY PREDICTED BY IDOCK:   -6.88 KCAL/MOL
REMARK 924 INTRA-LIGAND FREE ENERGY PREDICTED BY IDOCK:   -0.38 KCAL/MOL
REMARK 927      BINDING AFFINITY PREDICTED BY RF-SCORE:    0.00 PKD
ROOT
HETATM    1  C   UNL     1     -12.834  15.477  71.086  1.00  0.00    -0.551 C  
HETATM    2  C   UNL     1     -11.886  14.527  70.331  1.00  0.00    -0.378 C  
HETATM    3  C   UNL     1     -11.853  14.843  68.799  1.00  0.00    -0.328 C  
HETATM    4  C   UNL     1     -12.300  13.093  70.676  1.00  0.00    -0.405 C  
HETATM    5  C   UNL     1     -11.309  16.269  68.521  1.00  0.00    -0.330 C  
HETATM    6  C   UNL     1      -9.831  16.409  68.892  1.00  0.00    -0.260 C  
HETATM    7  C   UNL     1      -8.924  15.341  68.260  1.00  0.00    -0.176 C  
HETATM    8  C   UNL     1      -8.486  15.756  66.853  1.00  0.00    -0.281 C  
HETATM    9  C   UNL     1      -9.534  13.928  68.281  1.00  0.00    -0.217 C  
HETATM   10  C   UNL     1     -11.024  13.857  67.925  1.00  0.00    -0.250 C  
ENDROOT
BRANCH  10  11
HETATM   11  O   UNL     1     -11.290  14.244  66.551  1.00  0.00    -0.326 OA 
BRANCH  11  12
HETATM   12  C   UNL     1     -12.071  13.476  65.746  1.00  0.00    -0.433 C  
HETATM   13  O   UNL     1     -13.255  13.644  65.503  1.00  0.00    -0.608 OA 
BRANCH  12  14
HETATM   14  C   UNL     1     -11.220  12.392  65.175  1.00  0.00    -0.356 A  
HETATM   15  C   UNL     1     -10.642  12.587  63.905  1.00  0.00    -0.472 A  
HETATM   16  C   UNL     1      -9.856  11.597  63.316  1.00  0.00    -0.428 A  
HETATM   17  C   UNL     1      -9.630  10.405  63.999  1.00  0.00    -0.376 A  
HETATM   18  C   UNL     1     -10.205  10.202  65.256  1.00  0.00    -0.261 A  
HETATM   19  C   UNL     1     -11.047  11.164  65.843  1.00  0.00    -0.035 A  
HETATM   20  N   UNL     1     -11.475  10.944  67.167  1.00  0.00    -0.406 NA 
HETATM   21  H2  UNL     1     -12.467  11.177  67.210  1.00  0.00     0.000 HD 
HETATM   22  H1  UNL     1     -11.349  10.054  67.651  1.00  0.00     0.000 HD 
ENDBRANCH  12  14
ENDBRANCH  11  12
ENDBRANCH  10  11
TORSDOF 3
ENDMDL
MODEL       43
REMARK 921   NORMALIZED FREE ENERGY PREDICTED BY IDOCK:   -5.40 KCAL/MOL
REMARK 922        TOTAL FREE ENERGY PREDICTED BY IDOCK:   -7.26 KCAL/MOL
REMARK 923 INTER-LIGAND FREE ENERGY PREDICTED BY IDOCK:   -6.42 KCAL/MOL
REMARK 924 INTRA-LIGAND FREE ENERGY PREDICTED BY IDOCK:   -0.84 KCAL/MOL
REMARK 927      BINDING AFFINITY PREDICTED BY RF-SCORE:    0.00 PKD
ROOT
HETATM    1  C   UNL     1      -9.517  10.664  67.564  1.00  0.00    -0.169 C  
HETATM    2  C   UNL     1     -10.863  11.396  67.409  1.00  0.00    -0.301 C  
HETATM    3  C   UNL     1     -10.670  12.947  67.326  1.00  0.00    -0.260 C  
HETATM    4  C   UNL     1     -11.776  10.930  68.548  1.00  0.00    -0.307 C  
HETATM    5  C   UNL     1      -9.838  13.352  66.081  1.00  0.00    -0.289 C  
HETATM    6  C   UNL     1     -10.576  13.067  64.771  1.00  0.00    -0.380 C  
HETATM    7  C   UNL     1     -11.990  13.667  64.707  1.00  0.00    -0.426 C  
HETATM    8  C   UNL     1     -11.949  15.119  64.227  1.00  0.00    -0.276 C  
HETATM    9  C   UNL     1     -12.780  13.513  66.019  1.00  0.00    -0.307 C  
HETATM   10  C   UNL     1     -11.979  13.789  67.297  1.00  0.00    -0.401 C  
ENDROOT
BRANCH  10  11
HETATM   11  O   UNL     1     -11.549  15.171  67.402  1.00  0.00    -0.328 OA 
BRANCH  11  12
HETATM   12  C   UNL     1     -11.426  15.777  68.612  1.00  0.00    -0.386 C  
HETATM   13  O   UNL     1     -12.121  15.589  69.597  1.00  0.00    -0.351 OA 
BRANCH  12  14
HETATM   14  C   UNL     1     -10.262  16.707  68.546  1.00  0.00    -0.282 A  
HETATM   15  C   UNL     1     -10.447  17.980  67.969  1.00  0.00    -0.388 A  
HETATM   16  C   UNL     1      -9.387  18.880  67.863  1.00  0.00    -0.338 A  
HETATM   17  C   UNL     1      -8.131  18.519  68.345  1.00  0.00    -0.346 A  
HETATM   18  C   UNL     1      -7.938  17.257  68.911  1.00  0.00    -0.196 A  
HETATM   19  C   UNL     1      -8.979  16.313  68.978  1.00  0.00    -0.254 A  
HETATM   20  N   UNL     1      -8.741  15.119  69.685  1.00  0.00    -0.439 NA 
HETATM   21  H2  UNL     1      -9.125  14.354  69.130  1.00  0.00     0.000 HD 
HETATM   22  H1  UNL     1      -7.813  14.834  69.998  1.00  0.00     0.000 HD 
ENDBRANCH  12  14
ENDBRANCH  11  12
ENDBRANCH  10  11
TORSDOF 3
ENDMDL
MODEL       44
REMARK 921   NORMALIZED FREE ENERGY PREDICTED BY IDOCK:   -5.40 KCAL/MOL
REMARK 922        TOTAL FREE ENERGY PREDICTED BY IDOCK:   -7.26 KCAL/MOL
REMARK 923 INTER-LIGAND FREE ENERGY PREDICTED BY IDOCK:   -6.53 KCAL/MOL
REMARK 924 INTRA-LIGAND FREE ENERGY PREDICTED BY IDOCK:   -0.73 KCAL/MOL
REMARK 927      BINDING AFFINITY PREDICTED BY RF-SCORE:    0.00 PKD
ROOT
HETATM    1  C   UNL     1     -11.502   7.924  72.308  1.00  0.00    -0.403 C  
HETATM    2  C   UNL     1     -12.210   8.775  71.237  1.00  0.00    -0.332 C  
HETATM    3  C   UNL     1     -11.448  10.114  70.969  1.00  0.00    -0.436 C  
HETATM    4  C   UNL     1     -13.667   8.949  71.676  1.00  0.00    -0.444 C  
HETATM    5  C   UNL     1     -10.022   9.859  70.413  1.00  0.00    -0.222 C  
HETATM    6  C   UNL     1     -10.047   9.239  69.014  1.00  0.00    -0.207 C  
HETATM    7  C   UNL     1     -10.903  10.016  68.001  1.00  0.00    -0.311 C  
HETATM    8  C   UNL     1     -10.097  11.145  67.353  1.00  0.00    -0.213 C  
HETATM    9  C   UNL     1     -12.237  10.518  68.583  1.00  0.00     0.487 C  
HETATM   10  C   UNL     1     -12.150  11.106  69.996  1.00  0.00    -0.359 C  
ENDROOT
BRANCH  10  11
HETATM   11  O   UNL     1     -11.359  12.322  70.049  1.00  0.00    -0.119 OA 
BRANCH  11  12
HETATM   12  C   UNL     1     -11.887  13.519  69.681  1.00  0.00    -0.336 C  
HETATM   13  O   UNL     1     -12.081  13.913  68.543  1.00  0.00    -0.362 OA 
BRANCH  12  14
HETATM   14  C   UNL     1     -12.223  14.275  70.922  1.00  0.00    -0.425 A  
HETATM   15  C   UNL     1     -13.016  13.645  71.902  1.00  0.00    -0.432 A  
HETATM   16  C   UNL     1     -13.377  14.314  73.072  1.00  0.00    -0.437 A  
HETATM   17  C   UNL     1     -12.937  15.619  73.278  1.00  0.00    -0.664 A  
HETATM   18  C   UNL     1     -12.156  16.253  72.308  1.00  0.00    -0.567 A  
HETATM   19  C   UNL     1     -11.827  15.616  71.097  1.00  0.00    -0.408 A  
HETATM   20  N   UNL     1     -10.925  16.268  70.234  1.00  0.00    -0.339 NA 
HETATM   21  H2  UNL     1     -11.291  16.179  69.286  1.00  0.00     0.000 HD 
HETATM   22  H1  UNL     1     -10.638  17.239  70.361  1.00  0.00     0.000 HD 
ENDBRANCH  12  14
ENDBRANCH  11  12
ENDBRANCH  10  11
TORSDOF 3
ENDMDL
MODEL       45
REMARK 921   NORMALIZED FREE ENERGY PREDICTED BY IDOCK:   -5.35 KCAL/MOL
REMARK 922        TOTAL FREE ENERGY PREDICTED BY IDOCK:   -7.20 KCAL/MOL
REMARK 923 INTER-LIGAND FREE ENERGY PREDICTED BY IDOCK:   -6.19 KCAL/MOL
REMARK 924 INTRA-LIGAND FREE ENERGY PREDICTED BY IDOCK:   -1.01 KCAL/MOL
REMARK 927      BINDING AFFINITY PREDICTED BY RF-SCORE:    0.00 PKD
ROOT
HETATM    1  C   UNL     1      -8.171  17.571  67.825  1.00  0.00    -0.219 C  
HETATM    2  C   UNL     1      -9.535  16.940  67.494  1.00  0.00    -0.241 C  
HETATM    3  C   UNL     1      -9.618  15.455  67.981  1.00  0.00    -0.206 C  
HETATM    4  C   UNL     1      -9.780  17.131  65.993  1.00  0.00    -0.213 C  
HETATM    5  C   UNL     1      -9.483  15.352  69.523  1.00  0.00    -0.250 C  
HETATM    6  C   UNL     1     -10.673  15.977  70.253  1.00  0.00    -0.278 C  
HETATM    7  C   UNL     1     -12.041  15.454  69.783  1.00  0.00    -0.373 C  
HETATM    8  C   UNL     1     -12.419  14.168  70.522  1.00  0.00    -0.431 C  
HETATM    9  C   UNL     1     -12.144  15.295  68.256  1.00  0.00    -0.012 C  
HETATM   10  C   UNL     1     -10.911  14.685  67.580  1.00  0.00    -0.286 C  
ENDROOT
BRANCH  10  11
HETATM   11  O   UNL     1     -10.677  13.309  67.978  1.00  0.00    -0.230 OA 
BRANCH  11  12
HETATM   12  C   UNL     1     -11.425  12.295  67.468  1.00  0.00    -0.347 C  
HETATM   13  O   UNL     1     -12.204  11.583  68.080  1.00  0.00    -0.576 OA 
BRANCH  12  14
HETATM   14  C   UNL     1     -11.153  12.213  66.004  1.00  0.00    -0.354 A  
HETATM   15  C   UNL     1     -12.226  12.389  65.108  1.00  0.00    -0.449 A  
HETATM   16  C   UNL     1     -12.031  12.301  63.729  1.00  0.00    -0.609 A  
HETATM   17  C   UNL     1     -10.754  12.047  63.233  1.00  0.00    -0.400 A  
HETATM   18  C   UNL     1      -9.687  11.864  64.116  1.00  0.00    -0.153 A  
HETATM   19  C   UNL     1      -9.872  11.893  65.510  1.00  0.00    -0.232 A  
HETATM   20  N   UNL     1      -8.727  11.838  66.328  1.00  0.00    -0.334 NA 
HETATM   21  H2  UNL     1      -8.928  11.193  67.092  1.00  0.00     0.000 HD 
HETATM   22  H1  UNL     1      -7.800  11.607  65.970  1.00  0.00     0.000 HD 
ENDBRANCH  12  14
ENDBRANCH  11  12
ENDBRANCH  10  11
TORSDOF 3
ENDMDL
MODEL       46
REMARK 921   NORMALIZED FREE ENERGY PREDICTED BY IDOCK:   -5.31 KCAL/MOL
REMARK 922        TOTAL FREE ENERGY PREDICTED BY IDOCK:   -7.16 KCAL/MOL
REMARK 923 INTER-LIGAND FREE ENERGY PREDICTED BY IDOCK:   -6.14 KCAL/MOL
REMARK 924 INTRA-LIGAND FREE ENERGY PREDICTED BY IDOCK:   -1.02 KCAL/MOL
REMARK 927      BINDING AFFINITY PREDICTED BY RF-SCORE:    0.00 PKD
ROOT
HETATM    1  C   UNL     1      -8.665  19.397  66.398  1.00  0.00    -0.376 C  
HETATM    2  C   UNL     1      -9.386  18.307  67.212  1.00  0.00    -0.256 C  
HETATM    3  C   UNL     1      -9.575  16.996  66.379  1.00  0.00    -0.301 C  
HETATM    4  C   UNL     1     -10.687  18.914  67.746  1.00  0.00    -0.426 C  
HETATM    5  C   UNL     1      -8.213  16.373  65.977  1.00  0.00    -0.075 C  
HETATM    6  C   UNL     1      -7.432  15.854  67.186  1.00  0.00    -0.262 C  
HETATM    7  C   UNL     1      -8.233  14.895  68.082  1.00  0.00    -0.139 C  
HETATM    8  C   UNL     1      -8.147  13.458  67.563  1.00  0.00    -0.183 C  
HETATM    9  C   UNL     1      -9.688  15.342  68.311  1.00  0.00    -0.210 C  
HETATM   10  C   UNL     1     -10.408  15.875  67.067  1.00  0.00    -0.297 C  
ENDROOT
BRANCH  10  11
HETATM   11  O   UNL     1     -10.596  14.857  66.049  1.00  0.00    -0.292 OA 
BRANCH  11  12
HETATM   12  C   UNL     1     -11.609  13.955  66.138  1.00  0.00    -0.359 C  
HETATM   13  O   UNL     1     -12.797  14.203  66.268  1.00  0.00    -0.311 OA 
BRANCH  12  14
HETATM   14  C   UNL     1     -11.023  12.589  66.020  1.00  0.00    -0.318 A  
HETATM   15  C   UNL     1     -11.299  11.647  67.032  1.00  0.00    -0.373 A  
HETATM   16  C   UNL     1     -10.759  10.362  66.981  1.00  0.00    -0.298 A  
HETATM   17  C   UNL     1      -9.946  10.002  65.909  1.00  0.00    -0.339 A  
HETATM   18  C   UNL     1      -9.663  10.933  64.905  1.00  0.00    -0.318 A  
HETATM   19  C   UNL     1     -10.151  12.250  64.966  1.00  0.00    -0.253 A  
HETATM   20  N   UNL     1      -9.936  13.084  63.851  1.00  0.00    -0.755 NA 
HETATM   21  H2  UNL     1      -9.648  13.997  64.203  1.00  0.00     0.000 HD 
HETATM   22  H1  UNL     1      -9.305  12.838  63.088  1.00  0.00     0.000 HD 
ENDBRANCH  12  14
ENDBRANCH  11  12
ENDBRANCH  10  11
TORSDOF 3
ENDMDL
MODEL       47
REMARK 921   NORMALIZED FREE ENERGY PREDICTED BY IDOCK:   -5.29 KCAL/MOL
REMARK 922        TOTAL FREE ENERGY PREDICTED BY IDOCK:   -7.14 KCAL/MOL
REMARK 923 INTER-LIGAND FREE ENERGY PREDICTED BY IDOCK:   -6.17 KCAL/MOL
REMARK 924 INTRA-LIGAND FREE ENERGY PREDICTED BY IDOCK:   -0.97 KCAL/MOL
REMARK 927      BINDING AFFINITY PREDICTED BY RF-SCORE:    0.00 PKD
ROOT
HETATM    1  C   UNL     1      -5.907  11.908  67.624  1.00  0.00    -0.083 C  
HETATM    2  C   UNL     1      -7.321  12.004  67.020  1.00  0.00    -0.097 C  
HETATM    3  C   UNL     1      -8.342  12.615  68.035  1.00  0.00    -0.175 C  
HETATM    4  C   UNL     1      -7.695  10.611  66.501  1.00  0.00    -0.137 C  
HETATM    5  C   UNL     1      -7.963  14.069  68.421  1.00  0.00    -0.143 C  
HETATM    6  C   UNL     1      -8.092  15.035  67.242  1.00  0.00    -0.237 C  
HETATM    7  C   UNL     1      -9.461  14.990  66.543  1.00  0.00    -0.306 C  
HETATM    8  C   UNL     1     -10.466  15.905  67.246  1.00  0.00    -0.310 C  
HETATM    9  C   UNL     1     -10.008  13.563  66.360  1.00  0.00    -0.296 C  
HETATM   10  C   UNL     1      -9.827  12.636  67.567  1.00  0.00    -0.203 C  
ENDROOT
BRANCH  10  11
HETATM   11  O   UNL     1     -10.588  13.069  68.725  1.00  0.00    -0.243 OA 
BRANCH  11  12
HETATM   12  C   UNL     1     -11.775  12.487  69.041  1.00  0.00    -0.318 C  
HETATM   13  O   UNL     1     -12.262  11.495  68.525  1.00  0.00    -0.524 OA 
BRANCH  12  14
HETATM   14  C   UNL     1     -12.383  13.259  70.163  1.00  0.00    -0.306 A  
HETATM   15  C   UNL     1     -12.390  14.666  70.088  1.00  0.00    -0.390 A  
HETATM   16  C   UNL     1     -12.927  15.436  71.120  1.00  0.00    -0.545 A  
HETATM   17  C   UNL     1     -13.474  14.804  72.234  1.00  0.00    -0.510 A  
HETATM   18  C   UNL     1     -13.463  13.409  72.319  1.00  0.00    -0.683 A  
HETATM   19  C   UNL     1     -12.877  12.616  71.316  1.00  0.00    -0.250 A  
HETATM   20  N   UNL     1     -13.030  11.219  71.409  1.00  0.00    -0.415 NA 
HETATM   21  H2  UNL     1     -12.127  10.798  71.188  1.00  0.00     0.000 HD 
HETATM   22  H1  UNL     1     -13.388  10.753  72.243  1.00  0.00     0.000 HD 
ENDBRANCH  12  14
ENDBRANCH  11  12
ENDBRANCH  10  11
TORSDOF 3
ENDMDL
MODEL       48
REMARK 921   NORMALIZED FREE ENERGY PREDICTED BY IDOCK:   -5.27 KCAL/MOL
REMARK 922        TOTAL FREE ENERGY PREDICTED BY IDOCK:   -7.11 KCAL/MOL
REMARK 923 INTER-LIGAND FREE ENERGY PREDICTED BY IDOCK:   -6.10 KCAL/MOL
REMARK 924 INTRA-LIGAND FREE ENERGY PREDICTED BY IDOCK:   -1.01 KCAL/MOL
REMARK 927      BINDING AFFINITY PREDICTED BY RF-SCORE:    0.00 PKD
ROOT
HETATM    1  C   UNL     1     -10.289   6.457  73.445  1.00  0.00    -0.267 C  
HETATM    2  C   UNL     1     -10.820   6.901  72.069  1.00  0.00    -0.255 C  
HETATM    3  C   UNL     1     -10.587   8.429  71.827  1.00  0.00    -0.352 C  
HETATM    4  C   UNL     1     -12.284   6.458  71.976  1.00  0.00    -0.320 C  
HETATM    5  C   UNL     1      -9.077   8.781  71.815  1.00  0.00    -0.305 C  
HETATM    6  C   UNL     1      -8.347   8.169  70.618  1.00  0.00    -0.123 C  
HETATM    7  C   UNL     1      -8.997   8.486  69.261  1.00  0.00    -0.146 C  
HETATM    8  C   UNL     1      -8.507   9.830  68.718  1.00  0.00    -0.122 C  
HETATM    9  C   UNL     1     -10.533   8.396  69.282  1.00  0.00    -0.223 C  
HETATM   10  C   UNL     1     -11.204   9.005  70.519  1.00  0.00    -0.260 C  
ENDROOT
BRANCH  10  11
HETATM   11  O   UNL     1     -11.017  10.442  70.607  1.00  0.00    -0.289 OA 
BRANCH  11  12
HETATM   12  C   UNL     1     -12.081  11.284  70.682  1.00  0.00    -0.383 C  
HETATM   13  O   UNL     1     -12.998  11.232  71.485  1.00  0.00    -0.428 OA 
BRANCH  12  14
HETATM   14  C   UNL     1     -11.926  12.319  69.619  1.00  0.00    -0.347 A  
HETATM   15  C   UNL     1     -11.772  11.897  68.284  1.00  0.00    -0.385 A  
HETATM   16  C   UNL     1     -11.602  12.823  67.254  1.00  0.00    -0.420 A  
HETATM   17  C   UNL     1     -11.597  14.184  67.550  1.00  0.00    -0.396 A  
HETATM   18  C   UNL     1     -11.743  14.610  68.873  1.00  0.00    -0.343 A  
HETATM   19  C   UNL     1     -11.859  13.692  69.933  1.00  0.00    -0.320 A  
HETATM   20  N   UNL     1     -12.139  14.200  71.216  1.00  0.00    -0.420 NA 
HETATM   21  H2  UNL     1     -11.540  13.706  71.878  1.00  0.00     0.000 HD 
HETATM   22  H1  UNL     1     -12.091  15.193  71.443  1.00  0.00     0.000 HD 
ENDBRANCH  12  14
ENDBRANCH  11  12
ENDBRANCH  10  11
TORSDOF 3
ENDMDL
MODEL       49
REMARK 921   NORMALIZED FREE ENERGY PREDICTED BY IDOCK:   -5.27 KCAL/MOL
REMARK 922        TOTAL FREE ENERGY PREDICTED BY IDOCK:   -7.11 KCAL/MOL
REMARK 923 INTER-LIGAND FREE ENERGY PREDICTED BY IDOCK:   -6.32 KCAL/MOL
REMARK 924 INTRA-LIGAND FREE ENERGY PREDICTED BY IDOCK:   -0.79 KCAL/MOL
REMARK 927      BINDING AFFINITY PREDICTED BY RF-SCORE:    0.00 PKD
ROOT
HETATM    1  C   UNL     1     -10.400  17.387  66.843  1.00  0.00    -0.317 C  
HETATM    2  C   UNL     1      -9.757  16.032  67.192  1.00  0.00    -0.231 C  
HETATM    3  C   UNL     1     -10.837  14.939  67.487  1.00  0.00    -0.292 C  
HETATM    4  C   UNL     1      -8.767  16.273  68.336  1.00  0.00    -0.205 C  
HETATM    5  C   UNL     1     -11.724  14.663  66.245  1.00  0.00    -0.325 C  
HETATM    6  C   UNL     1     -10.939  14.013  65.103  1.00  0.00    -0.357 C  
HETATM    7  C   UNL     1     -10.163  12.753  65.516  1.00  0.00    -0.293 C  
HETATM    8  C   UNL     1     -11.055  11.511  65.447  1.00  0.00    -0.250 C  
HETATM    9  C   UNL     1      -9.461  12.885  66.880  1.00  0.00    -0.237 C  
HETATM   10  C   UNL     1     -10.290  13.566  67.975  1.00  0.00    -0.241 C  
ENDROOT
BRANCH  10  11
HETATM   11  O   UNL     1     -11.463  12.797  68.350  1.00  0.00    -0.265 OA 
BRANCH  11  12
HETATM   12  C   UNL     1     -11.904  12.772  69.635  1.00  0.00    -0.317 C  
HETATM   13  O   UNL     1     -12.327  13.718  70.279  1.00  0.00    -0.332 OA 
BRANCH  12  14
HETATM   14  C   UNL     1     -11.811  11.368  70.128  1.00  0.00    -0.440 A  
HETATM   15  C   UNL     1     -10.937  10.479  69.472  1.00  0.00    -0.312 A  
HETATM   16  C   UNL     1     -10.827   9.150  69.879  1.00  0.00    -0.242 A  
HETATM   17  C   UNL     1     -11.585   8.699  70.958  1.00  0.00    -0.325 A  
HETATM   18  C   UNL     1     -12.459   9.573  71.609  1.00  0.00    -0.476 A  
HETATM   19  C   UNL     1     -12.626  10.902  71.180  1.00  0.00    -0.428 A  
HETATM   20  N   UNL     1     -13.420  11.754  71.971  1.00  0.00    -0.436 NA 
HETATM   21  H2  UNL     1     -14.015  12.291  71.339  1.00  0.00     0.000 HD 
HETATM   22  H1  UNL     1     -14.010  11.417  72.732  1.00  0.00     0.000 HD 
ENDBRANCH  12  14
ENDBRANCH  11  12
ENDBRANCH  10  11
TORSDOF 3
ENDMDL
MODEL       50
REMARK 921   NORMALIZED FREE ENERGY PREDICTED BY IDOCK:   -5.26 KCAL/MOL
REMARK 922        TOTAL FREE ENERGY PREDICTED BY IDOCK:   -7.10 KCAL/MOL
REMARK 923 INTER-LIGAND FREE ENERGY PREDICTED BY IDOCK:   -6.15 KCAL/MOL
REMARK 924 INTRA-LIGAND FREE ENERGY PREDICTED BY IDOCK:   -0.95 KCAL/MOL
REMARK 927      BINDING AFFINITY PREDICTED BY RF-SCORE:    0.00 PKD
ROOT
HETATM    1  C   UNL     1     -11.467   6.468  70.695  1.00  0.00    -0.433 C  
HETATM    2  C   UNL     1     -10.378   6.776  69.651  1.00  0.00    -0.223 C  
HETATM    3  C   UNL     1     -10.761   8.005  68.763  1.00  0.00    -0.078 C  
HETATM    4  C   UNL     1     -10.111   5.485  68.869  1.00  0.00    -0.266 C  
HETATM    5  C   UNL     1     -10.896   9.300  69.607  1.00  0.00    -0.228 C  
HETATM    6  C   UNL     1      -9.556   9.753  70.192  1.00  0.00    -0.287 C  
HETATM    7  C   UNL     1      -8.434   9.889  69.151  1.00  0.00    -0.148 C  
HETATM    8  C   UNL     1      -8.469  11.265  68.481  1.00  0.00    -0.156 C  
HETATM    9  C   UNL     1      -8.412   8.746  68.120  1.00  0.00    -0.130 C  
HETATM   10  C   UNL     1      -9.786   8.321  67.591  1.00  0.00    -0.169 C  
ENDROOT
BRANCH  10  11
HETATM   11  O   UNL     1     -10.437   9.365  66.820  1.00  0.00    -0.243 OA 
BRANCH  11  12
HETATM   12  C   UNL     1      -9.977   9.718  65.591  1.00  0.00    -0.282 C  
HETATM   13  O   UNL     1      -9.171   9.106  64.909  1.00  0.00    -0.192 OA 
BRANCH  12  14
HETATM   14  C   UNL     1     -10.654  10.986  65.192  1.00  0.00    -0.295 A  
HETATM   15  C   UNL     1     -11.248  11.778  66.196  1.00  0.00    -0.363 A  
HETATM   16  C   UNL     1     -11.912  12.962  65.875  1.00  0.00    -0.504 A  
HETATM   17  C   UNL     1     -11.978  13.372  64.546  1.00  0.00    -0.452 A  
HETATM   18  C   UNL     1     -11.397  12.589  63.545  1.00  0.00    -0.556 A  
HETATM   19  C   UNL     1     -10.772  11.364  63.839  1.00  0.00    -0.397 A  
HETATM   20  N   UNL     1     -10.094  10.704  62.797  1.00  0.00    -0.746 NA 
HETATM   21  H2  UNL     1     -10.330   9.713  62.858  1.00  0.00     0.000 HD 
HETATM   22  H1  UNL     1     -10.179  10.977  61.818  1.00  0.00     0.000 HD 
ENDBRANCH  12  14
ENDBRANCH  11  12
ENDBRANCH  10  11
TORSDOF 3
ENDMDL
MODEL       51
REMARK 921   NORMALIZED FREE ENERGY PREDICTED BY IDOCK:   -5.26 KCAL/MOL
REMARK 922        TOTAL FREE ENERGY PREDICTED BY IDOCK:   -7.10 KCAL/MOL
REMARK 923 INTER-LIGAND FREE ENERGY PREDICTED BY IDOCK:   -6.01 KCAL/MOL
REMARK 924 INTRA-LIGAND FREE ENERGY PREDICTED BY IDOCK:   -1.08 KCAL/MOL
REMARK 927      BINDING AFFINITY PREDICTED BY RF-SCORE:    0.00 PKD
ROOT
HETATM    1  C   UNL     1     -10.295   7.522  69.325  1.00  0.00    -0.209 C  
HETATM    2  C   UNL     1     -10.110   8.379  68.059  1.00  0.00    -0.245 C  
HETATM    3  C   UNL     1     -10.645   9.835  68.265  1.00  0.00    -0.271 C  
HETATM    4  C   UNL     1     -10.754   7.623  66.893  1.00  0.00    -0.271 C  
HETATM    5  C   UNL     1      -9.864  10.578  69.380  1.00  0.00    -0.205 C  
HETATM    6  C   UNL     1      -8.408  10.842  68.992  1.00  0.00    -0.118 C  
HETATM    7  C   UNL     1      -8.240  11.549  67.637  1.00  0.00    -0.131 C  
HETATM    8  C   UNL     1      -8.347  13.068  67.794  1.00  0.00    -0.175 C  
HETATM    9  C   UNL     1      -9.184  11.013  66.546  1.00  0.00    -0.187 C  
HETATM   10  C   UNL     1     -10.622  10.746  67.003  1.00  0.00    -0.260 C  
ENDROOT
BRANCH  10  11
HETATM   11  O   UNL     1     -11.321  11.958  67.391  1.00  0.00    -0.285 OA 
BRANCH  11  12
HETATM   12  C   UNL     1     -11.866  12.782  66.457  1.00  0.00    -0.405 C  
HETATM   13  O   UNL     1     -12.607  12.460  65.543  1.00  0.00    -0.616 OA 
BRANCH  12  14
HETATM   14  C   UNL     1     -11.425  14.174  66.758  1.00  0.00    -0.383 A  
HETATM   15  C   UNL     1     -10.743  14.896  65.758  1.00  0.00    -0.338 A  
HETATM   16  C   UNL     1     -10.290  16.194  65.993  1.00  0.00    -0.372 A  
HETATM   17  C   UNL     1     -10.527  16.789  67.230  1.00  0.00    -0.310 A  
HETATM   18  C   UNL     1     -11.197  16.077  68.229  1.00  0.00    -0.350 A  
HETATM   19  C   UNL     1     -11.612  14.747  68.032  1.00  0.00    -0.343 A  
HETATM   20  N   UNL     1     -12.399  14.148  69.034  1.00  0.00    -0.537 NA 
HETATM   21  H2  UNL     1     -12.047  13.201  69.174  1.00  0.00     0.000 HD 
HETATM   22  H1  UNL     1     -12.535  14.563  69.956  1.00  0.00     0.000 HD 
ENDBRANCH  12  14
ENDBRANCH  11  12
ENDBRANCH  10  11
TORSDOF 3
ENDMDL
MODEL       52
REMARK 921   NORMALIZED FREE ENERGY PREDICTED BY IDOCK:   -5.25 KCAL/MOL
REMARK 922        TOTAL FREE ENERGY PREDICTED BY IDOCK:   -7.08 KCAL/MOL
REMARK 923 INTER-LIGAND FREE ENERGY PREDICTED BY IDOCK:   -6.12 KCAL/MOL
REMARK 924 INTRA-LIGAND FREE ENERGY PREDICTED BY IDOCK:   -0.96 KCAL/MOL
REMARK 927      BINDING AFFINITY PREDICTED BY RF-SCORE:    0.00 PKD
ROOT
HETATM    1  C   UNL     1     -13.566   9.559  72.434  1.00  0.00    -0.459 C  
HETATM    2  C   UNL     1     -13.060   8.177  71.980  1.00  0.00    -0.317 C  
HETATM    3  C   UNL     1     -11.880   8.302  70.961  1.00  0.00    -0.276 C  
HETATM    4  C   UNL     1     -14.268   7.391  71.461  1.00  0.00    -0.571 C  
HETATM    5  C   UNL     1     -10.649   9.001  71.595  1.00  0.00    -0.434 C  
HETATM    6  C   UNL     1     -10.008   8.159  72.699  1.00  0.00    -0.371 C  
HETATM    7  C   UNL     1      -9.666   6.722  72.271  1.00  0.00    -0.156 C  
HETATM    8  C   UNL     1      -8.293   6.663  71.596  1.00  0.00    -0.115 C  
HETATM    9  C   UNL     1     -10.760   6.062  71.414  1.00  0.00    -0.314 C  
HETATM   10  C   UNL     1     -11.380   6.964  70.341  1.00  0.00    -0.328 C  
ENDROOT
BRANCH  10  11
HETATM   11  O   UNL     1     -10.429   7.348  69.314  1.00  0.00    -0.213 OA 
BRANCH  11  12
HETATM   12  C   UNL     1     -10.730   7.215  67.995  1.00  0.00    -0.171 C  
HETATM   13  O   UNL     1     -11.233   6.243  67.455  1.00  0.00    -0.328 OA 
BRANCH  12  14
HETATM   14  C   UNL     1     -10.364   8.487  67.308  1.00  0.00    -0.372 A  
HETATM   15  C   UNL     1     -10.800   9.705  67.867  1.00  0.00    -0.272 A  
HETATM   16  C   UNL     1     -10.503  10.923  67.253  1.00  0.00    -0.275 A  
HETATM   17  C   UNL     1      -9.754  10.933  66.079  1.00  0.00    -0.268 A  
HETATM   18  C   UNL     1      -9.324   9.729  65.516  1.00  0.00    -0.299 A  
HETATM   19  C   UNL     1      -9.659   8.488  66.087  1.00  0.00    -0.206 A  
HETATM   20  N   UNL     1      -9.073   7.331  65.539  1.00  0.00    -0.378 NA 
HETATM   21  H2  UNL     1      -9.804   6.623  65.469  1.00  0.00     0.000 HD 
HETATM   22  H1  UNL     1      -8.563   7.332  64.655  1.00  0.00     0.000 HD 
ENDBRANCH  12  14
ENDBRANCH  11  12
ENDBRANCH  10  11
TORSDOF 3
ENDMDL
MODEL       53
REMARK 921   NORMALIZED FREE ENERGY PREDICTED BY IDOCK:   -5.24 KCAL/MOL
REMARK 922        TOTAL FREE ENERGY PREDICTED BY IDOCK:   -7.08 KCAL/MOL
REMARK 923 INTER-LIGAND FREE ENERGY PREDICTED BY IDOCK:   -6.15 KCAL/MOL
REMARK 924 INTRA-LIGAND FREE ENERGY PREDICTED BY IDOCK:   -0.92 KCAL/MOL
REMARK 927      BINDING AFFINITY PREDICTED BY RF-SCORE:    0.00 PKD
ROOT
HETATM    1  C   UNL     1     -10.207   6.247  74.021  1.00  0.00    -0.327 C  
HETATM    2  C   UNL     1     -10.679   6.564  72.590  1.00  0.00    -0.260 C  
HETATM    3  C   UNL     1     -10.665   8.102  72.306  1.00  0.00    -0.381 C  
HETATM    4  C   UNL     1     -12.042   5.893  72.394  1.00  0.00    -0.135 C  
HETATM    5  C   UNL     1      -9.233   8.689  72.404  1.00  0.00    -0.257 C  
HETATM    6  C   UNL     1      -8.315   8.168  71.297  1.00  0.00    -0.140 C  
HETATM    7  C   UNL     1      -8.884   8.341  69.879  1.00  0.00    -0.138 C  
HETATM    8  C   UNL     1      -8.563   9.731  69.324  1.00  0.00    -0.158 C  
HETATM    9  C   UNL     1     -10.384   8.010  69.777  1.00  0.00    -0.219 C  
HETATM   10  C   UNL     1     -11.247   8.538  70.929  1.00  0.00    -0.266 C  
ENDROOT
BRANCH  10  11
HETATM   11  O   UNL     1     -11.294   9.988  70.974  1.00  0.00    -0.347 OA 
BRANCH  11  12
HETATM   12  C   UNL     1     -12.476  10.655  70.891  1.00  0.00    -0.397 C  
HETATM   13  O   UNL     1     -13.553  10.288  71.332  1.00  0.00    -0.254 OA 
BRANCH  12  14
HETATM   14  C   UNL     1     -12.230  11.945  70.184  1.00  0.00    -0.319 A  
HETATM   15  C   UNL     1     -12.293  13.142  70.925  1.00  0.00    -0.393 A  
HETATM   16  C   UNL     1     -12.092  14.377  70.309  1.00  0.00    -0.396 A  
HETATM   17  C   UNL     1     -11.813  14.426  68.946  1.00  0.00    -0.355 A  
HETATM   18  C   UNL     1     -11.755  13.243  68.204  1.00  0.00    -0.397 A  
HETATM   19  C   UNL     1     -12.010  11.992  68.793  1.00  0.00    -0.244 A  
HETATM   20  N   UNL     1     -11.797  10.840  68.011  1.00  0.00    -0.773 NA 
HETATM   21  H2  UNL     1     -12.584  10.211  68.174  1.00  0.00     0.000 HD 
HETATM   22  H1  UNL     1     -11.638  10.874  67.004  1.00  0.00     0.000 HD 
ENDBRANCH  12  14
ENDBRANCH  11  12
ENDBRANCH  10  11
TORSDOF 3
ENDMDL
MODEL       54
REMARK 921   NORMALIZED FREE ENERGY PREDICTED BY IDOCK:   -5.19 KCAL/MOL
REMARK 922        TOTAL FREE ENERGY PREDICTED BY IDOCK:   -7.02 KCAL/MOL
REMARK 923 INTER-LIGAND FREE ENERGY PREDICTED BY IDOCK:   -6.12 KCAL/MOL
REMARK 924 INTRA-LIGAND FREE ENERGY PREDICTED BY IDOCK:   -0.89 KCAL/MOL
REMARK 927      BINDING AFFINITY PREDICTED BY RF-SCORE:    0.00 PKD
ROOT
HETATM    1  C   UNL     1     -10.139   9.985  67.661  1.00  0.00    -0.232 C  
HETATM    2  C   UNL     1     -11.135  11.159  67.692  1.00  0.00    -0.348 C  
HETATM    3  C   UNL     1     -10.449  12.507  67.295  1.00  0.00    -0.232 C  
HETATM    4  C   UNL     1     -11.797  11.165  69.073  1.00  0.00    -0.418 C  
HETATM    5  C   UNL     1      -9.908  12.467  65.841  1.00  0.00    -0.257 C  
HETATM    6  C   UNL     1     -11.032  12.382  64.806  1.00  0.00    -0.340 C  
HETATM    7  C   UNL     1     -12.111  13.467  64.963  1.00  0.00    -0.436 C  
HETATM    8  C   UNL     1     -11.705  14.753  64.239  1.00  0.00    -0.272 C  
HETATM    9  C   UNL     1     -12.507  13.729  66.427  1.00  0.00    -0.404 C  
HETATM   10  C   UNL     1     -11.339  13.779  67.419  1.00  0.00    -0.324 C  
ENDROOT
BRANCH  10  11
HETATM   11  O   UNL     1     -10.447  14.898  67.178  1.00  0.00    -0.264 OA 
BRANCH  11  12
HETATM   12  C   UNL     1     -10.498  16.015  67.951  1.00  0.00    -0.292 C  
HETATM   13  O   UNL     1     -11.137  16.161  68.980  1.00  0.00    -0.294 OA 
BRANCH  12  14
HETATM   14  C   UNL     1      -9.607  17.041  67.338  1.00  0.00    -0.246 A  
HETATM   15  C   UNL     1      -8.414  16.616  66.719  1.00  0.00    -0.270 A  
HETATM   16  C   UNL     1      -7.535  17.536  66.149  1.00  0.00    -0.334 A  
HETATM   17  C   UNL     1      -7.846  18.894  66.182  1.00  0.00    -0.272 A  
HETATM   18  C   UNL     1      -9.024  19.323  66.800  1.00  0.00    -0.360 A  
HETATM   19  C   UNL     1      -9.897  18.417  67.430  1.00  0.00    -0.313 A  
HETATM   20  N   UNL     1     -11.125  18.912  67.908  1.00  0.00    -0.217 NA 
HETATM   21  H2  UNL     1     -11.280  18.505  68.831  1.00  0.00     0.000 HD 
HETATM   22  H1  UNL     1     -11.335  19.908  67.975  1.00  0.00     0.000 HD 
ENDBRANCH  12  14
ENDBRANCH  11  12
ENDBRANCH  10  11
TORSDOF 3
ENDMDL
MODEL       55
REMARK 921   NORMALIZED FREE ENERGY PREDICTED BY IDOCK:   -5.19 KCAL/MOL
REMARK 922        TOTAL FREE ENERGY PREDICTED BY IDOCK:   -7.02 KCAL/MOL
REMARK 923 INTER-LIGAND FREE ENERGY PREDICTED BY IDOCK:   -6.06 KCAL/MOL
REMARK 924 INTRA-LIGAND FREE ENERGY PREDICTED BY IDOCK:   -0.95 KCAL/MOL
REMARK 927      BINDING AFFINITY PREDICTED BY RF-SCORE:    0.00 PKD
ROOT
HETATM    1  C   UNL     1      -9.960   4.599  70.135  1.00  0.00    -0.304 C  
HETATM    2  C   UNL     1      -9.587   6.030  70.566  1.00  0.00    -0.198 C  
HETATM    3  C   UNL     1     -10.557   7.090  69.947  1.00  0.00    -0.249 C  
HETATM    4  C   UNL     1      -8.109   6.244  70.224  1.00  0.00    -0.116 C  
HETATM    5  C   UNL     1     -12.016   6.883  70.433  1.00  0.00    -0.312 C  
HETATM    6  C   UNL     1     -12.174   7.164  71.929  1.00  0.00    -0.358 C  
HETATM    7  C   UNL     1     -11.637   8.536  72.368  1.00  0.00    -0.425 C  
HETATM    8  C   UNL     1     -12.693   9.627  72.175  1.00  0.00    -0.427 C  
HETATM    9  C   UNL     1     -10.295   8.907  71.710  1.00  0.00    -0.426 C  
HETATM   10  C   UNL     1     -10.190   8.579  70.217  1.00  0.00    -0.193 C  
ENDROOT
BRANCH  10  11
HETATM   11  O   UNL     1     -11.110   9.355  69.406  1.00  0.00    -0.189 OA 
BRANCH  11  12
HETATM   12  C   UNL     1     -10.688   9.998  68.286  1.00  0.00    -0.240 C  
HETATM   13  O   UNL     1     -10.042   9.518  67.369  1.00  0.00    -0.181 OA 
BRANCH  12  14
HETATM   14  C   UNL     1     -11.176  11.406  68.350  1.00  0.00    -0.324 A  
HETATM   15  C   UNL     1     -11.456  11.966  69.612  1.00  0.00    -0.337 A  
HETATM   16  C   UNL     1     -11.935  13.271  69.727  1.00  0.00    -0.391 A  
HETATM   17  C   UNL     1     -12.127  14.034  68.578  1.00  0.00    -0.329 A  
HETATM   18  C   UNL     1     -11.858  13.483  67.323  1.00  0.00    -0.427 A  
HETATM   19  C   UNL     1     -11.428  12.151  67.181  1.00  0.00    -0.346 A  
HETATM   20  N   UNL     1     -11.048  11.716  65.896  1.00  0.00    -0.292 NA 
HETATM   21  H2  UNL     1     -11.447  10.787  65.758  1.00  0.00     0.000 HD 
HETATM   22  H1  UNL     1     -11.230  12.256  65.050  1.00  0.00     0.000 HD 
ENDBRANCH  12  14
ENDBRANCH  11  12
ENDBRANCH  10  11
TORSDOF 3
ENDMDL
MODEL       56
REMARK 921   NORMALIZED FREE ENERGY PREDICTED BY IDOCK:   -5.19 KCAL/MOL
REMARK 922        TOTAL FREE ENERGY PREDICTED BY IDOCK:   -7.01 KCAL/MOL
REMARK 923 INTER-LIGAND FREE ENERGY PREDICTED BY IDOCK:   -6.13 KCAL/MOL
REMARK 924 INTRA-LIGAND FREE ENERGY PREDICTED BY IDOCK:   -0.89 KCAL/MOL
REMARK 927      BINDING AFFINITY PREDICTED BY RF-SCORE:    0.00 PKD
ROOT
HETATM    1  C   UNL     1      -8.189  10.669  69.228  1.00  0.00    -0.122 C  
HETATM    2  C   UNL     1      -9.367  10.512  68.250  1.00  0.00    -0.156 C  
HETATM    3  C   UNL     1      -9.349  11.616  67.142  1.00  0.00    -0.178 C  
HETATM    4  C   UNL     1     -10.654  10.466  69.081  1.00  0.00    -0.255 C  
HETATM    5  C   UNL     1      -8.073  11.524  66.264  1.00  0.00    -0.014 C  
HETATM    6  C   UNL     1      -8.040  10.248  65.421  1.00  0.00    -0.147 C  
HETATM    7  C   UNL     1      -9.306  10.022  64.578  1.00  0.00    -0.345 C  
HETATM    8  C   UNL     1      -9.215  10.763  63.242  1.00  0.00    -0.295 C  
HETATM    9  C   UNL     1     -10.609  10.346  65.331  1.00  0.00    -0.080 C  
HETATM   10  C   UNL     1     -10.571  11.624  66.177  1.00  0.00    -0.262 C  
ENDROOT
BRANCH  10  11
HETATM   11  O   UNL     1     -10.419  12.823  65.374  1.00  0.00    -0.276 OA 
BRANCH  11  12
HETATM   12  C   UNL     1     -11.394  13.770  65.336  1.00  0.00    -0.308 C  
HETATM   13  O   UNL     1     -12.558  13.607  65.007  1.00  0.00    -0.551 OA 
BRANCH  12  14
HETATM   14  C   UNL     1     -10.804  15.059  65.799  1.00  0.00    -0.355 A  
HETATM   15  C   UNL     1     -10.068  15.071  67.001  1.00  0.00    -0.244 A  
HETATM   16  C   UNL     1      -9.513  16.253  67.490  1.00  0.00    -0.227 A  
HETATM   17  C   UNL     1      -9.677  17.436  66.772  1.00  0.00    -0.293 A  
HETATM   18  C   UNL     1     -10.411  17.433  65.583  1.00  0.00    -0.173 A  
HETATM   19  C   UNL     1     -11.027  16.263  65.102  1.00  0.00    -0.274 A  
HETATM   20  N   UNL     1     -11.630  16.313  63.830  1.00  0.00    -1.573 NA 
HETATM   21  H2  UNL     1     -12.526  15.829  63.898  1.00  0.00     0.000 HD 
HETATM   22  H1  UNL     1     -11.792  17.184  63.325  1.00  0.00     0.000 HD 
ENDBRANCH  12  14
ENDBRANCH  11  12
ENDBRANCH  10  11
TORSDOF 3
ENDMDL
MODEL       57
REMARK 921   NORMALIZED FREE ENERGY PREDICTED BY IDOCK:   -5.17 KCAL/MOL
REMARK 922        TOTAL FREE ENERGY PREDICTED BY IDOCK:   -6.99 KCAL/MOL
REMARK 923 INTER-LIGAND FREE ENERGY PREDICTED BY IDOCK:   -6.23 KCAL/MOL
REMARK 924 INTRA-LIGAND FREE ENERGY PREDICTED BY IDOCK:   -0.77 KCAL/MOL
REMARK 927      BINDING AFFINITY PREDICTED BY RF-SCORE:    0.00 PKD
ROOT
HETATM    1  C   UNL     1      -9.610   4.675  70.198  1.00  0.00    -0.266 C  
HETATM    2  C   UNL     1      -9.488   6.136  70.669  1.00  0.00    -0.185 C  
HETATM    3  C   UNL     1     -10.554   7.054  69.984  1.00  0.00    -0.251 C  
HETATM    4  C   UNL     1      -8.037   6.573  70.447  1.00  0.00    -0.117 C  
HETATM    5  C   UNL     1     -11.999   6.624  70.353  1.00  0.00    -0.342 C  
HETATM    6  C   UNL     1     -12.312   6.848  71.833  1.00  0.00    -0.364 C  
HETATM    7  C   UNL     1     -12.020   8.275  72.325  1.00  0.00    -0.448 C  
HETATM    8  C   UNL     1     -13.209   9.201  72.059  1.00  0.00    -0.505 C  
HETATM    9  C   UNL     1     -10.702   8.853  71.779  1.00  0.00    -0.432 C  
HETATM   10  C   UNL     1     -10.435   8.574  70.296  1.00  0.00    -0.220 C  
ENDROOT
BRANCH  10  11
HETATM   11  O   UNL     1     -11.396   9.222  69.422  1.00  0.00    -0.032 OA 
BRANCH  11  12
HETATM   12  C   UNL     1     -11.255  10.528  69.071  1.00  0.00    -0.259 C  
HETATM   13  O   UNL     1     -11.364  11.497  69.805  1.00  0.00    -0.266 OA 
BRANCH  12  14
HETATM   14  C   UNL     1     -10.913  10.582  67.620  1.00  0.00    -0.375 A  
HETATM   15  C   UNL     1     -10.165   9.525  67.064  1.00  0.00    -0.321 A  
HETATM   16  C   UNL     1      -9.801   9.535  65.718  1.00  0.00    -0.363 A  
HETATM   17  C   UNL     1     -10.192  10.601  64.910  1.00  0.00    -0.395 A  
HETATM   18  C   UNL     1     -10.928  11.656  65.456  1.00  0.00    -0.327 A  
HETATM   19  C   UNL     1     -11.258  11.692  66.823  1.00  0.00    -0.308 A  
HETATM   20  N   UNL     1     -12.116  12.717  67.266  1.00  0.00    -0.451 NA 
HETATM   21  H2  UNL     1     -11.736  13.077  68.142  1.00  0.00     0.000 HD 
HETATM   22  H1  UNL     1     -12.366  13.520  66.689  1.00  0.00     0.000 HD 
ENDBRANCH  12  14
ENDBRANCH  11  12
ENDBRANCH  10  11
TORSDOF 3
ENDMDL
MODEL       58
REMARK 921   NORMALIZED FREE ENERGY PREDICTED BY IDOCK:   -5.15 KCAL/MOL
REMARK 922        TOTAL FREE ENERGY PREDICTED BY IDOCK:   -6.97 KCAL/MOL
REMARK 923 INTER-LIGAND FREE ENERGY PREDICTED BY IDOCK:   -6.01 KCAL/MOL
REMARK 924 INTRA-LIGAND FREE ENERGY PREDICTED BY IDOCK:   -0.96 KCAL/MOL
REMARK 927      BINDING AFFINITY PREDICTED BY RF-SCORE:    0.00 PKD
ROOT
HETATM    1  C   UNL     1     -10.166  10.909  67.831  1.00  0.00    -0.205 C  
HETATM    2  C   UNL     1      -9.612  12.257  68.327  1.00  0.00    -0.212 C  
HETATM    3  C   UNL     1     -10.545  13.447  67.926  1.00  0.00    -0.253 C  
HETATM    4  C   UNL     1      -8.172  12.379  67.819  1.00  0.00    -0.163 C  
HETATM    5  C   UNL     1     -11.948  13.317  68.576  1.00  0.00    -0.340 C  
HETATM    6  C   UNL     1     -11.899  13.469  70.098  1.00  0.00    -0.348 C  
HETATM    7  C   UNL     1     -11.187  14.744  70.577  1.00  0.00    -0.192 C  
HETATM    8  C   UNL     1     -12.152  15.932  70.610  1.00  0.00    -0.367 C  
HETATM    9  C   UNL     1      -9.905  15.063  69.786  1.00  0.00    -0.044 C  
HETATM   10  C   UNL     1     -10.010  14.868  68.269  1.00  0.00    -0.222 C  
ENDROOT
BRANCH  10  11
HETATM   11  O   UNL     1     -10.945  15.790  67.650  1.00  0.00    -0.311 OA 
BRANCH  11  12
HETATM   12  C   UNL     1     -10.632  16.435  66.495  1.00  0.00    -0.235 C  
HETATM   13  O   UNL     1     -10.783  16.014  65.360  1.00  0.00    -0.380 OA 
BRANCH  12  14
HETATM   14  C   UNL     1     -10.090  17.779  66.849  1.00  0.00    -0.342 A  
HETATM   15  C   UNL     1     -10.893  18.651  67.610  1.00  0.00    -0.347 A  
HETATM   16  C   UNL     1     -10.443  19.927  67.950  1.00  0.00    -0.505 A  
HETATM   17  C   UNL     1      -9.176  20.338  67.542  1.00  0.00    -0.491 A  
HETATM   18  C   UNL     1      -8.376  19.480  66.782  1.00  0.00    -0.324 A  
HETATM   19  C   UNL     1      -8.833  18.212  66.380  1.00  0.00    -0.236 A  
HETATM   20  N   UNL     1      -7.918  17.357  65.735  1.00  0.00    -0.494 NA 
HETATM   21  H2  UNL     1      -8.405  16.926  64.948  1.00  0.00     0.000 HD 
HETATM   22  H1  UNL     1      -7.009  17.671  65.396  1.00  0.00     0.000 HD 
ENDBRANCH  12  14
ENDBRANCH  11  12
ENDBRANCH  10  11
TORSDOF 3
ENDMDL
MODEL       59
REMARK 921   NORMALIZED FREE ENERGY PREDICTED BY IDOCK:   -5.14 KCAL/MOL
REMARK 922        TOTAL FREE ENERGY PREDICTED BY IDOCK:   -6.95 KCAL/MOL
REMARK 923 INTER-LIGAND FREE ENERGY PREDICTED BY IDOCK:   -6.25 KCAL/MOL
REMARK 924 INTRA-LIGAND FREE ENERGY PREDICTED BY IDOCK:   -0.70 KCAL/MOL
REMARK 927      BINDING AFFINITY PREDICTED BY RF-SCORE:    0.00 PKD
ROOT
HETATM    1  C   UNL     1      -8.103  19.789  65.958  1.00  0.00    -0.334 C  
HETATM    2  C   UNL     1      -8.965  18.986  66.950  1.00  0.00    -0.318 C  
HETATM    3  C   UNL     1      -9.191  17.518  66.461  1.00  0.00    -0.286 C  
HETATM    4  C   UNL     1     -10.253  19.782  67.189  1.00  0.00    -0.574 C  
HETATM    5  C   UNL     1      -7.853  16.738  66.358  1.00  0.00    -0.353 C  
HETATM    6  C   UNL     1      -7.210  16.507  67.727  1.00  0.00    -0.156 C  
HETATM    7  C   UNL     1      -8.148  15.858  68.758  1.00  0.00    -0.190 C  
HETATM    8  C   UNL     1      -8.134  14.333  68.629  1.00  0.00    -0.140 C  
HETATM    9  C   UNL     1      -9.578  16.427  68.728  1.00  0.00    -0.249 C  
HETATM   10  C   UNL     1     -10.157  16.659  67.328  1.00  0.00    -0.279 C  
ENDROOT
BRANCH  10  11
HETATM   11  O   UNL     1     -10.344  15.424  66.588  1.00  0.00    -0.267 OA 
BRANCH  11  12
HETATM   12  C   UNL     1     -11.414  14.620  66.825  1.00  0.00    -0.364 C  
HETATM   13  O   UNL     1     -12.177  14.681  67.775  1.00  0.00    -0.254 OA 
BRANCH  12  14
HETATM   14  C   UNL     1     -11.520  13.649  65.698  1.00  0.00    -0.320 A  
HETATM   15  C   UNL     1     -11.842  14.137  64.416  1.00  0.00    -0.447 A  
HETATM   16  C   UNL     1     -11.974  13.270  63.331  1.00  0.00    -0.491 A  
HETATM   17  C   UNL     1     -11.772  11.904  63.517  1.00  0.00    -0.550 A  
HETATM   18  C   UNL     1     -11.459  11.412  64.787  1.00  0.00    -0.056 A  
HETATM   19  C   UNL     1     -11.376  12.262  65.905  1.00  0.00    -0.360 A  
HETATM   20  N   UNL     1     -10.922  11.711  67.119  1.00  0.00    -0.264 NA 
HETATM   21  H2  UNL     1     -11.524  12.069  67.861  1.00  0.00     0.000 HD 
HETATM   22  H1  UNL     1     -10.818  10.707  67.268  1.00  0.00     0.000 HD 
ENDBRANCH  12  14
ENDBRANCH  11  12
ENDBRANCH  10  11
TORSDOF 3
ENDMDL
MODEL       60
REMARK 921   NORMALIZED FREE ENERGY PREDICTED BY IDOCK:   -5.13 KCAL/MOL
REMARK 922        TOTAL FREE ENERGY PREDICTED BY IDOCK:   -6.95 KCAL/MOL
REMARK 923 INTER-LIGAND FREE ENERGY PREDICTED BY IDOCK:   -5.96 KCAL/MOL
REMARK 924 INTRA-LIGAND FREE ENERGY PREDICTED BY IDOCK:   -0.99 KCAL/MOL
REMARK 927      BINDING AFFINITY PREDICTED BY RF-SCORE:    0.00 PKD
ROOT
HETATM    1  C   UNL     1      -9.401   8.864  71.777  1.00  0.00    -0.304 C  
HETATM    2  C   UNL     1     -10.241   9.138  70.516  1.00  0.00    -0.288 C  
HETATM    3  C   UNL     1      -9.378   9.773  69.375  1.00  0.00    -0.212 C  
HETATM    4  C   UNL     1     -11.451   9.977  70.940  1.00  0.00    -0.452 C  
HETATM    5  C   UNL     1      -8.247   8.817  68.914  1.00  0.00    -0.118 C  
HETATM    6  C   UNL     1      -8.792   7.566  68.222  1.00  0.00    -0.125 C  
HETATM    7  C   UNL     1      -9.766   7.862  67.070  1.00  0.00    -0.269 C  
HETATM    8  C   UNL     1      -9.011   8.109  65.762  1.00  0.00    -0.165 C  
HETATM    9  C   UNL     1     -10.761   8.993  67.386  1.00  0.00    -0.231 C  
HETATM   10  C   UNL     1     -10.160  10.208  68.101  1.00  0.00    -0.152 C  
ENDROOT
BRANCH  10  11
HETATM   11  O   UNL     1      -9.196  10.919  67.282  1.00  0.00    -0.150 OA 
BRANCH  11  12
HETATM   12  C   UNL     1      -9.416  12.204  66.895  1.00  0.00    -0.210 C  
HETATM   13  O   UNL     1      -8.903  13.206  67.365  1.00  0.00    -0.184 OA 
BRANCH  12  14
HETATM   14  C   UNL     1     -10.385  12.184  65.761  1.00  0.00    -0.289 A  
HETATM   15  C   UNL     1     -11.676  12.709  65.969  1.00  0.00    -0.470 A  
HETATM   16  C   UNL     1     -12.628  12.696  64.949  1.00  0.00    -0.525 A  
HETATM   17  C   UNL     1     -12.292  12.167  63.705  1.00  0.00    -0.673 A  
HETATM   18  C   UNL     1     -11.016  11.638  63.494  1.00  0.00    -0.485 A  
HETATM   19  C   UNL     1     -10.060  11.590  64.525  1.00  0.00    -0.278 A  
HETATM   20  N   UNL     1      -8.757  11.169  64.196  1.00  0.00    -0.374 NA 
HETATM   21  H2  UNL     1      -8.447  10.533  64.931  1.00  0.00     0.000 HD 
HETATM   22  H1  UNL     1      -8.522  10.740  63.301  1.00  0.00     0.000 HD 
ENDBRANCH  12  14
ENDBRANCH  11  12
ENDBRANCH  10  11
TORSDOF 3
ENDMDL
MODEL       61
REMARK 921   NORMALIZED FREE ENERGY PREDICTED BY IDOCK:   -5.13 KCAL/MOL
REMARK 922        TOTAL FREE ENERGY PREDICTED BY IDOCK:   -6.94 KCAL/MOL
REMARK 923 INTER-LIGAND FREE ENERGY PREDICTED BY IDOCK:   -6.16 KCAL/MOL
REMARK 924 INTRA-LIGAND FREE ENERGY PREDICTED BY IDOCK:   -0.79 KCAL/MOL
REMARK 927      BINDING AFFINITY PREDICTED BY RF-SCORE:    0.00 PKD
ROOT
HETATM    1  C   UNL     1      -8.389  17.577  67.747  1.00  0.00    -0.220 C  
HETATM    2  C   UNL     1      -9.832  17.081  67.540  1.00  0.00    -0.258 C  
HETATM    3  C   UNL     1      -9.940  15.530  67.714  1.00  0.00    -0.222 C  
HETATM    4  C   UNL     1     -10.308  17.603  66.180  1.00  0.00    -0.334 C  
HETATM    5  C   UNL     1      -9.558  15.088  69.151  1.00  0.00    -0.202 C  
HETATM    6  C   UNL     1     -10.562  15.581  70.196  1.00  0.00    -0.336 C  
HETATM    7  C   UNL     1     -12.022  15.222  69.879  1.00  0.00    -0.373 C  
HETATM    8  C   UNL     1     -12.365  13.819  70.388  1.00  0.00    -0.423 C  
HETATM    9  C   UNL     1     -12.390  15.403  68.395  1.00  0.00     0.318 C  
HETATM   10  C   UNL     1     -11.334  14.912  67.398  1.00  0.00    -0.347 C  
ENDROOT
BRANCH  10  11
HETATM   11  O   UNL     1     -11.138  13.475  67.453  1.00  0.00    -0.270 OA 
BRANCH  11  12
HETATM   12  C   UNL     1     -11.721  12.652  66.541  1.00  0.00    -0.400 C  
HETATM   13  O   UNL     1     -12.649  12.928  65.798  1.00  0.00    -0.538 OA 
BRANCH  12  14
HETATM   14  C   UNL     1     -11.009  11.343  66.579  1.00  0.00    -0.328 A  
HETATM   15  C   UNL     1     -10.095  11.042  65.549  1.00  0.00    -0.316 A  
HETATM   16  C   UNL     1      -9.418   9.823  65.525  1.00  0.00    -0.324 A  
HETATM   17  C   UNL     1      -9.640   8.895  66.540  1.00  0.00    -0.297 A  
HETATM   18  C   UNL     1     -10.550   9.184  67.561  1.00  0.00    -0.317 A  
HETATM   19  C   UNL     1     -11.285  10.383  67.574  1.00  0.00    -0.179 A  
HETATM   20  N   UNL     1     -12.077  10.657  68.705  1.00  0.00    -0.790 NA 
HETATM   21  H2  UNL     1     -12.971  11.017  68.372  1.00  0.00     0.000 HD 
HETATM   22  H1  UNL     1     -12.276   9.963  69.426  1.00  0.00     0.000 HD 
ENDBRANCH  12  14
ENDBRANCH  11  12
ENDBRANCH  10  11
TORSDOF 3
ENDMDL
MODEL       62
REMARK 921   NORMALIZED FREE ENERGY PREDICTED BY IDOCK:   -5.12 KCAL/MOL
REMARK 922        TOTAL FREE ENERGY PREDICTED BY IDOCK:   -6.94 KCAL/MOL
REMARK 923 INTER-LIGAND FREE ENERGY PREDICTED BY IDOCK:   -6.05 KCAL/MOL
REMARK 924 INTRA-LIGAND FREE ENERGY PREDICTED BY IDOCK:   -0.89 KCAL/MOL
REMARK 927      BINDING AFFINITY PREDICTED BY RF-SCORE:    0.00 PKD
ROOT
HETATM    1  C   UNL     1      -8.034   9.192  70.867  1.00  0.00    -0.192 C  
HETATM    2  C   UNL     1      -9.351   9.335  70.082  1.00  0.00    -0.258 C  
HETATM    3  C   UNL     1      -9.329  10.587  69.143  1.00  0.00    -0.200 C  
HETATM    4  C   UNL     1     -10.498   9.323  71.097  1.00  0.00    -0.401 C  
HETATM    5  C   UNL     1      -8.219  10.472  68.064  1.00  0.00    -0.112 C  
HETATM    6  C   UNL     1      -8.495   9.348  67.065  1.00  0.00    -0.127 C  
HETATM    7  C   UNL     1      -9.887   9.414  66.417  1.00  0.00    -0.337 C  
HETATM    8  C   UNL     1      -9.880  10.335  65.194  1.00  0.00    -0.389 C  
HETATM    9  C   UNL     1     -11.007   9.778  67.408  1.00  0.00    -0.176 C  
HETATM   10  C   UNL     1     -10.661  10.895  68.399  1.00  0.00    -0.203 C  
ENDROOT
BRANCH  10  11
HETATM   11  O   UNL     1     -10.451  12.176  67.749  1.00  0.00    -0.198 OA 
BRANCH  11  12
HETATM   12  C   UNL     1     -11.289  13.222  67.974  1.00  0.00    -0.291 C  
HETATM   13  O   UNL     1     -11.920  13.445  68.994  1.00  0.00    -0.319 OA 
BRANCH  12  14
HETATM   14  C   UNL     1     -11.288  14.084  66.757  1.00  0.00    -0.346 A  
HETATM   15  C   UNL     1     -10.586  15.306  66.796  1.00  0.00    -0.304 A  
HETATM   16  C   UNL     1     -10.570  16.159  65.693  1.00  0.00    -0.377 A  
HETATM   17  C   UNL     1     -11.248  15.792  64.533  1.00  0.00    -0.334 A  
HETATM   18  C   UNL     1     -11.951  14.586  64.489  1.00  0.00    -0.482 A  
HETATM   19  C   UNL     1     -12.027  13.737  65.608  1.00  0.00    -0.388 A  
HETATM   20  N   UNL     1     -12.637  12.479  65.440  1.00  0.00    -0.615 NA 
HETATM   21  H2  UNL     1     -13.239  12.321  66.249  1.00  0.00     0.000 HD 
HETATM   22  H1  UNL     1     -13.172  12.228  64.609  1.00  0.00     0.000 HD 
ENDBRANCH  12  14
ENDBRANCH  11  12
ENDBRANCH  10  11
TORSDOF 3
ENDMDL
MODEL       63
REMARK 921   NORMALIZED FREE ENERGY PREDICTED BY IDOCK:   -5.09 KCAL/MOL
REMARK 922        TOTAL FREE ENERGY PREDICTED BY IDOCK:   -6.90 KCAL/MOL
REMARK 923 INTER-LIGAND FREE ENERGY PREDICTED BY IDOCK:   -5.97 KCAL/MOL
REMARK 924 INTRA-LIGAND FREE ENERGY PREDICTED BY IDOCK:   -0.94 KCAL/MOL
REMARK 927      BINDING AFFINITY PREDICTED BY RF-SCORE:    0.00 PKD
ROOT
HETATM    1  C   UNL     1      -9.611   4.044  66.487  1.00  0.00    -0.223 C  
HETATM    2  C   UNL     1      -8.827   5.310  66.878  1.00  0.00    -0.110 C  
HETATM    3  C   UNL     1      -9.624   6.611  66.534  1.00  0.00    -0.187 C  
HETATM    4  C   UNL     1      -7.446   5.218  66.220  1.00  0.00    -0.087 C  
HETATM    5  C   UNL     1     -10.955   6.693  67.328  1.00  0.00    -0.456 C  
HETATM    6  C   UNL     1     -10.724   6.866  68.831  1.00  0.00    -0.254 C  
HETATM    7  C   UNL     1      -9.796   8.037  69.190  1.00  0.00    -0.178 C  
HETATM    8  C   UNL     1     -10.578   9.349  69.282  1.00  0.00    -0.239 C  
HETATM    9  C   UNL     1      -8.573   8.157  68.262  1.00  0.00    -0.130 C  
HETATM   10  C   UNL     1      -8.865   7.949  66.772  1.00  0.00    -0.138 C  
ENDROOT
BRANCH  10  11
HETATM   11  O   UNL     1      -9.724   8.982  66.220  1.00  0.00    -0.235 OA 
BRANCH  11  12
HETATM   12  C   UNL     1      -9.331   9.722  65.149  1.00  0.00    -0.260 C  
HETATM   13  O   UNL     1      -8.363   9.517  64.436  1.00  0.00    -0.148 OA 
BRANCH  12  14
HETATM   14  C   UNL     1     -10.314  10.829  64.969  1.00  0.00    -0.357 A  
HETATM   15  C   UNL     1     -10.901  11.403  66.115  1.00  0.00    -0.310 A  
HETATM   16  C   UNL     1     -11.842  12.427  66.002  1.00  0.00    -0.459 A  
HETATM   17  C   UNL     1     -12.195  12.896  64.739  1.00  0.00    -0.499 A  
HETATM   18  C   UNL     1     -11.622  12.328  63.599  1.00  0.00    -0.581 A  
HETATM   19  C   UNL     1     -10.714  11.257  63.687  1.00  0.00    -0.367 A  
HETATM   20  N   UNL     1     -10.078  10.833  62.504  1.00  0.00    -0.748 NA 
HETATM   21  H2  UNL     1     -10.087   9.813  62.502  1.00  0.00     0.000 HD 
HETATM   22  H1  UNL     1     -10.368  11.143  61.577  1.00  0.00     0.000 HD 
ENDBRANCH  12  14
ENDBRANCH  11  12
ENDBRANCH  10  11
TORSDOF 3
ENDMDL
MODEL       64
REMARK 921   NORMALIZED FREE ENERGY PREDICTED BY IDOCK:   -5.06 KCAL/MOL
REMARK 922        TOTAL FREE ENERGY PREDICTED BY IDOCK:   -6.87 KCAL/MOL
REMARK 923 INTER-LIGAND FREE ENERGY PREDICTED BY IDOCK:   -5.91 KCAL/MOL
REMARK 924 INTRA-LIGAND FREE ENERGY PREDICTED BY IDOCK:   -0.95 KCAL/MOL
REMARK 927      BINDING AFFINITY PREDICTED BY RF-SCORE:    0.00 PKD
ROOT
HETATM    1  C   UNL     1     -10.810   6.343  71.200  1.00  0.00    -0.308 C  
HETATM    2  C   UNL     1     -10.245   7.044  69.951  1.00  0.00    -0.213 C  
HETATM    3  C   UNL     1     -10.326   8.601  70.077  1.00  0.00    -0.213 C  
HETATM    4  C   UNL     1     -10.969   6.466  68.730  1.00  0.00    -0.404 C  
HETATM    5  C   UNL     1      -9.472   9.124  71.262  1.00  0.00    -0.313 C  
HETATM    6  C   UNL     1      -7.973   8.916  71.033  1.00  0.00    -0.183 C  
HETATM    7  C   UNL     1      -7.461   9.476  69.696  1.00  0.00    -0.092 C  
HETATM    8  C   UNL     1      -7.113  10.961  69.819  1.00  0.00    -0.092 C  
HETATM    9  C   UNL     1      -8.409   9.201  68.514  1.00  0.00    -0.123 C  
HETATM   10  C   UNL     1      -9.898   9.403  68.813  1.00  0.00    -0.163 C  
ENDROOT
BRANCH  10  11
HETATM   11  O   UNL     1     -10.228  10.787  69.106  1.00  0.00    -0.208 OA 
BRANCH  11  12
HETATM   12  C   UNL     1     -11.350  11.363  68.598  1.00  0.00    -0.265 C  
HETATM   13  O   UNL     1     -11.806  11.209  67.477  1.00  0.00    -0.591 OA 
BRANCH  12  14
HETATM   14  C   UNL     1     -11.958  12.207  69.667  1.00  0.00    -0.351 A  
HETATM   15  C   UNL     1     -12.458  11.575  70.823  1.00  0.00    -0.444 A  
HETATM   16  C   UNL     1     -13.056  12.316  71.843  1.00  0.00    -0.469 A  
HETATM   17  C   UNL     1     -13.148  13.700  71.720  1.00  0.00    -0.468 A  
HETATM   18  C   UNL     1     -12.660  14.333  70.574  1.00  0.00    -0.418 A  
HETATM   19  C   UNL     1     -12.105  13.600  69.509  1.00  0.00    -0.314 A  
HETATM   20  N   UNL     1     -11.513  14.319  68.453  1.00  0.00    -0.283 NA 
HETATM   21  H2  UNL     1     -11.810  13.881  67.581  1.00  0.00     0.000 HD 
HETATM   22  H1  UNL     1     -11.619  15.328  68.340  1.00  0.00     0.000 HD 
ENDBRANCH  12  14
ENDBRANCH  11  12
ENDBRANCH  10  11
TORSDOF 3
ENDMDL
MODEL       65
REMARK 921   NORMALIZED FREE ENERGY PREDICTED BY IDOCK:   -5.06 KCAL/MOL
REMARK 922        TOTAL FREE ENERGY PREDICTED BY IDOCK:   -6.86 KCAL/MOL
REMARK 923 INTER-LIGAND FREE ENERGY PREDICTED BY IDOCK:   -6.05 KCAL/MOL
REMARK 924 INTRA-LIGAND FREE ENERGY PREDICTED BY IDOCK:   -0.81 KCAL/MOL
REMARK 927      BINDING AFFINITY PREDICTED BY RF-SCORE:    0.00 PKD
ROOT
HETATM    1  C   UNL     1     -11.197  16.200  68.461  1.00  0.00    -0.365 C  
HETATM    2  C   UNL     1     -10.569  15.754  67.128  1.00  0.00    -0.313 C  
HETATM    3  C   UNL     1     -10.533  14.195  67.000  1.00  0.00    -0.271 C  
HETATM    4  C   UNL     1      -9.200  16.433  67.013  1.00  0.00    -0.236 C  
HETATM    5  C   UNL     1     -11.961  13.589  67.003  1.00  0.00    -0.440 C  
HETATM    6  C   UNL     1     -12.759  13.977  65.757  1.00  0.00    -0.487 C  
HETATM    7  C   UNL     1     -12.037  13.679  64.433  1.00  0.00    -0.470 C  
HETATM    8  C   UNL     1     -12.279  12.234  63.989  1.00  0.00    -0.569 C  
HETATM    9  C   UNL     1     -10.539  14.032  64.460  1.00  0.00    -0.332 C  
HETATM   10  C   UNL     1      -9.800  13.639  65.744  1.00  0.00    -0.211 C  
ENDROOT
BRANCH  10  11
HETATM   11  O   UNL     1      -9.741  12.202  65.939  1.00  0.00    -0.241 OA 
BRANCH  11  12
HETATM   12  C   UNL     1      -8.803  11.641  66.748  1.00  0.00    -0.184 C  
HETATM   13  O   UNL     1      -7.728  12.125  67.062  1.00  0.00    -0.160 OA 
BRANCH  12  14
HETATM   14  C   UNL     1      -9.326  10.326  67.218  1.00  0.00    -0.169 A  
HETATM   15  C   UNL     1      -9.214   9.211  66.364  1.00  0.00    -0.233 A  
HETATM   16  C   UNL     1      -9.705   7.963  66.746  1.00  0.00    -0.303 A  
HETATM   17  C   UNL     1     -10.303   7.815  67.995  1.00  0.00    -0.263 A  
HETATM   18  C   UNL     1     -10.423   8.918  68.845  1.00  0.00    -0.225 A  
HETATM   19  C   UNL     1      -9.986  10.197  68.457  1.00  0.00    -0.163 A  
HETATM   20  N   UNL     1     -10.017  11.224  69.420  1.00  0.00    -0.419 NA 
HETATM   21  H2  UNL     1     -10.385  12.059  68.964  1.00  0.00     0.000 HD 
HETATM   22  H1  UNL     1     -10.494  11.130  70.317  1.00  0.00     0.000 HD 
ENDBRANCH  12  14
ENDBRANCH  11  12
ENDBRANCH  10  11
TORSDOF 3
ENDMDL
MODEL       66
REMARK 921   NORMALIZED FREE ENERGY PREDICTED BY IDOCK:   -5.04 KCAL/MOL
REMARK 922        TOTAL FREE ENERGY PREDICTED BY IDOCK:   -6.84 KCAL/MOL
REMARK 923 INTER-LIGAND FREE ENERGY PREDICTED BY IDOCK:   -5.92 KCAL/MOL
REMARK 924 INTRA-LIGAND FREE ENERGY PREDICTED BY IDOCK:   -0.93 KCAL/MOL
REMARK 927      BINDING AFFINITY PREDICTED BY RF-SCORE:    0.00 PKD
ROOT
HETATM    1  C   UNL     1      -7.971  10.586  66.204  1.00  0.00    -0.147 C  
HETATM    2  C   UNL     1      -9.445  10.556  66.647  1.00  0.00    -0.199 C  
HETATM    3  C   UNL     1      -9.596  10.880  68.170  1.00  0.00    -0.169 C  
HETATM    4  C   UNL     1     -10.025   9.202  66.225  1.00  0.00    -0.352 C  
HETATM    5  C   UNL     1      -9.099  12.312  68.501  1.00  0.00    -0.076 C  
HETATM    6  C   UNL     1      -9.980  13.393  67.872  1.00  0.00    -0.236 C  
HETATM    7  C   UNL     1     -11.477  13.242  68.189  1.00  0.00    -0.347 C  
HETATM    8  C   UNL     1     -11.824  13.907  69.524  1.00  0.00    -0.383 C  
HETATM    9  C   UNL     1     -11.974  11.787  68.122  1.00  0.00    -0.214 C  
HETATM   10  C   UNL     1     -11.035  10.749  68.748  1.00  0.00    -0.247 C  
ENDROOT
BRANCH  10  11
HETATM   11  O   UNL     1     -10.891  10.918  70.182  1.00  0.00    -0.186 OA 
BRANCH  11  12
HETATM   12  C   UNL     1     -11.877  10.537  71.036  1.00  0.00    -0.340 C  
HETATM   13  O   UNL     1     -12.832  11.207  71.393  1.00  0.00    -0.413 OA 
BRANCH  12  14
HETATM   14  C   UNL     1     -11.611   9.129  71.451  1.00  0.00    -0.411 A  
HETATM   15  C   UNL     1     -10.315   8.788  71.885  1.00  0.00    -0.414 A  
HETATM   16  C   UNL     1     -10.006   7.481  72.264  1.00  0.00    -0.226 A  
HETATM   17  C   UNL     1     -10.998   6.504  72.224  1.00  0.00    -0.281 A  
HETATM   18  C   UNL     1     -12.284   6.834  71.788  1.00  0.00    -0.402 A  
HETATM   19  C   UNL     1     -12.602   8.132  71.349  1.00  0.00    -0.283 A  
HETATM   20  N   UNL     1     -13.950   8.417  71.057  1.00  0.00    -0.590 NA 
HETATM   21  H2  UNL     1     -13.967   8.954  70.190  1.00  0.00     0.000 HD 
HETATM   22  H1  UNL     1     -14.667   7.695  70.983  1.00  0.00     0.000 HD 
ENDBRANCH  12  14
ENDBRANCH  11  12
ENDBRANCH  10  11
TORSDOF 3
ENDMDL
MODEL       67
REMARK 921   NORMALIZED FREE ENERGY PREDICTED BY IDOCK:   -5.04 KCAL/MOL
REMARK 922        TOTAL FREE ENERGY PREDICTED BY IDOCK:   -6.83 KCAL/MOL
REMARK 923 INTER-LIGAND FREE ENERGY PREDICTED BY IDOCK:   -5.87 KCAL/MOL
REMARK 924 INTRA-LIGAND FREE ENERGY PREDICTED BY IDOCK:   -0.97 KCAL/MOL
REMARK 927      BINDING AFFINITY PREDICTED BY RF-SCORE:    0.00 PKD
ROOT
HETATM    1  C   UNL     1      -6.423   7.513  71.821  1.00  0.00    -0.042 C  
HETATM    2  C   UNL     1      -7.523   6.516  71.411  1.00  0.00    -0.089 C  
HETATM    3  C   UNL     1      -8.811   7.252  70.913  1.00  0.00    -0.149 C  
HETATM    4  C   UNL     1      -7.749   5.568  72.593  1.00  0.00    -0.099 C  
HETATM    5  C   UNL     1      -8.531   8.098  69.643  1.00  0.00    -0.126 C  
HETATM    6  C   UNL     1      -8.189   7.229  68.430  1.00  0.00    -0.125 C  
HETATM    7  C   UNL     1      -9.220   6.126  68.141  1.00  0.00    -0.117 C  
HETATM    8  C   UNL     1     -10.369   6.660  67.282  1.00  0.00    -0.296 C  
HETATM    9  C   UNL     1      -9.728   5.415  69.409  1.00  0.00    -0.226 C  
HETATM   10  C   UNL     1     -10.029   6.337  70.596  1.00  0.00    -0.186 C  
ENDROOT
BRANCH  10  11
HETATM   11  O   UNL     1     -11.133   7.243  70.335  1.00  0.00    -0.257 OA 
BRANCH  11  12
HETATM   12  C   UNL     1     -11.996   7.599  71.323  1.00  0.00    -0.306 C  
HETATM   13  O   UNL     1     -12.481   6.865  72.168  1.00  0.00    -0.263 OA 
BRANCH  12  14
HETATM   14  C   UNL     1     -12.235   9.068  71.219  1.00  0.00    -0.373 A  
HETATM   15  C   UNL     1     -11.535   9.797  70.237  1.00  0.00    -0.317 A  
HETATM   16  C   UNL     1     -11.706  11.176  70.111  1.00  0.00    -0.439 A  
HETATM   17  C   UNL     1     -12.588  11.838  70.960  1.00  0.00    -0.409 A  
HETATM   18  C   UNL     1     -13.280  11.122  71.942  1.00  0.00    -0.488 A  
HETATM   19  C   UNL     1     -13.081   9.742  72.123  1.00  0.00    -0.422 A  
HETATM   20  N   UNL     1     -13.915   9.071  73.038  1.00  0.00    -1.141 NA 
HETATM   21  H2  UNL     1     -13.325   8.442  73.584  1.00  0.00     0.000 HD 
HETATM   22  H1  UNL     1     -14.528   9.559  73.692  1.00  0.00     0.000 HD 
ENDBRANCH  12  14
ENDBRANCH  11  12
ENDBRANCH  10  11
TORSDOF 3
ENDMDL
MODEL       68
REMARK 921   NORMALIZED FREE ENERGY PREDICTED BY IDOCK:   -4.98 KCAL/MOL
REMARK 922        TOTAL FREE ENERGY PREDICTED BY IDOCK:   -6.76 KCAL/MOL
REMARK 923 INTER-LIGAND FREE ENERGY PREDICTED BY IDOCK:   -5.70 KCAL/MOL
REMARK 924 INTRA-LIGAND FREE ENERGY PREDICTED BY IDOCK:   -1.06 KCAL/MOL
REMARK 927      BINDING AFFINITY PREDICTED BY RF-SCORE:    0.00 PKD
ROOT
HETATM    1  C   UNL     1      -7.361   4.230  68.211  1.00  0.00    -0.064 C  
HETATM    2  C   UNL     1      -8.703   4.915  68.528  1.00  0.00    -0.106 C  
HETATM    3  C   UNL     1      -8.501   6.404  68.964  1.00  0.00    -0.124 C  
HETATM    4  C   UNL     1      -9.434   4.045  69.556  1.00  0.00    -0.257 C  
HETATM    5  C   UNL     1      -7.867   7.251  67.830  1.00  0.00    -0.114 C  
HETATM    6  C   UNL     1      -8.805   7.410  66.631  1.00  0.00    -0.157 C  
HETATM    7  C   UNL     1     -10.202   7.937  66.996  1.00  0.00    -0.382 C  
HETATM    8  C   UNL     1     -10.214   9.466  67.054  1.00  0.00    -0.322 C  
HETATM    9  C   UNL     1     -10.780   7.305  68.275  1.00  0.00    -0.174 C  
HETATM   10  C   UNL     1      -9.786   7.150  69.431  1.00  0.00    -0.160 C  
ENDROOT
BRANCH  10  11
HETATM   11  O   UNL     1      -9.324   8.426  69.947  1.00  0.00    -0.154 OA 
BRANCH  11  12
HETATM   12  C   UNL     1      -9.441   8.733  71.266  1.00  0.00    -0.250 C  
HETATM   13  O   UNL     1      -8.547   8.739  72.096  1.00  0.00    -0.355 OA 
BRANCH  12  14
HETATM   14  C   UNL     1     -10.863   9.095  71.530  1.00  0.00    -0.436 A  
HETATM   15  C   UNL     1     -11.422  10.186  70.835  1.00  0.00    -0.444 A  
HETATM   16  C   UNL     1     -12.741  10.580  71.060  1.00  0.00    -0.504 A  
HETATM   17  C   UNL     1     -13.519   9.876  71.976  1.00  0.00    -0.478 A  
HETATM   18  C   UNL     1     -12.970   8.798  72.674  1.00  0.00    -0.305 A  
HETATM   19  C   UNL     1     -11.626   8.419  72.504  1.00  0.00    -0.356 A  
HETATM   20  N   UNL     1     -11.189   7.240  73.138  1.00  0.00    -0.561 NA 
HETATM   21  H2  UNL     1     -10.275   7.435  73.548  1.00  0.00     0.000 HD 
HETATM   22  H1  UNL     1     -11.741   6.751  73.843  1.00  0.00     0.000 HD 
ENDBRANCH  12  14
ENDBRANCH  11  12
ENDBRANCH  10  11
TORSDOF 3
ENDMDL
MODEL       69
REMARK 921   NORMALIZED FREE ENERGY PREDICTED BY IDOCK:   -4.93 KCAL/MOL
REMARK 922        TOTAL FREE ENERGY PREDICTED BY IDOCK:   -6.71 KCAL/MOL
REMARK 923 INTER-LIGAND FREE ENERGY PREDICTED BY IDOCK:   -5.99 KCAL/MOL
REMARK 924 INTRA-LIGAND FREE ENERGY PREDICTED BY IDOCK:   -0.72 KCAL/MOL
REMARK 927      BINDING AFFINITY PREDICTED BY RF-SCORE:    0.00 PKD
ROOT
HETATM    1  C   UNL     1      -7.926  10.230  66.515  1.00  0.00    -0.118 C  
HETATM    2  C   UNL     1      -8.735  11.228  67.365  1.00  0.00    -0.139 C  
HETATM    3  C   UNL     1      -8.965  12.577  66.607  1.00  0.00    -0.174 C  
HETATM    4  C   UNL     1      -8.022  11.369  68.713  1.00  0.00    -0.122 C  
HETATM    5  C   UNL     1      -9.797  12.372  65.314  1.00  0.00    -0.180 C  
HETATM    6  C   UNL     1     -11.235  11.942  65.611  1.00  0.00    -0.360 C  
HETATM    7  C   UNL     1     -11.971  12.862  66.599  1.00  0.00    -0.436 C  
HETATM    8  C   UNL     1     -12.605  14.051  65.874  1.00  0.00    -0.484 C  
HETATM    9  C   UNL     1     -11.099  13.306  67.788  1.00  0.00    -0.289 C  
HETATM   10  C   UNL     1      -9.662  13.701  67.428  1.00  0.00    -0.228 C  
ENDROOT
BRANCH  10  11
HETATM   11  O   UNL     1      -9.599  14.885  66.591  1.00  0.00    -0.240 OA 
BRANCH  11  12
HETATM   12  C   UNL     1      -8.597  15.792  66.732  1.00  0.00    -0.270 C  
HETATM   13  O   UNL     1      -7.399  15.560  66.741  1.00  0.00    -0.139 OA 
BRANCH  12  14
HETATM   14  C   UNL     1      -9.212  17.145  66.849  1.00  0.00    -0.255 A  
HETATM   15  C   UNL     1      -8.776  17.997  67.884  1.00  0.00    -0.258 A  
HETATM   16  C   UNL     1      -9.333  19.265  68.051  1.00  0.00    -0.388 A  
HETATM   17  C   UNL     1     -10.325  19.698  67.175  1.00  0.00    -0.581 A  
HETATM   18  C   UNL     1     -10.767  18.857  66.151  1.00  0.00    -0.364 A  
HETATM   19  C   UNL     1     -10.259  17.554  65.999  1.00  0.00    -0.299 A  
HETATM   20  N   UNL     1     -10.654  16.822  64.863  1.00  0.00    -0.666 NA 
HETATM   21  H2  UNL     1     -10.864  15.871  65.170  1.00  0.00     0.000 HD 
HETATM   22  H1  UNL     1     -11.412  17.118  64.247  1.00  0.00     0.000 HD 
ENDBRANCH  12  14
ENDBRANCH  11  12
ENDBRANCH  10  11
TORSDOF 3
ENDMDL
MODEL       70
REMARK 921   NORMALIZED FREE ENERGY PREDICTED BY IDOCK:   -4.92 KCAL/MOL
REMARK 922        TOTAL FREE ENERGY PREDICTED BY IDOCK:   -6.70 KCAL/MOL
REMARK 923 INTER-LIGAND FREE ENERGY PREDICTED BY IDOCK:   -5.66 KCAL/MOL
REMARK 924 INTRA-LIGAND FREE ENERGY PREDICTED BY IDOCK:   -1.04 KCAL/MOL
REMARK 927      BINDING AFFINITY PREDICTED BY RF-SCORE:    0.00 PKD
ROOT
HETATM    1  C   UNL     1     -10.109  18.388  68.423  1.00  0.00    -0.418 C  
HETATM    2  C   UNL     1     -10.563  17.097  67.717  1.00  0.00    -0.360 C  
HETATM    3  C   UNL     1      -9.886  15.831  68.339  1.00  0.00    -0.206 C  
HETATM    4  C   UNL     1     -10.313  17.279  66.217  1.00  0.00    -0.323 C  
HETATM    5  C   UNL     1     -10.282  15.644  69.828  1.00  0.00    -0.303 C  
HETATM    6  C   UNL     1     -11.765  15.309  69.996  1.00  0.00    -0.344 C  
HETATM    7  C   UNL     1     -12.237  14.117  69.148  1.00  0.00    -0.290 C  
HETATM    8  C   UNL     1     -11.980  12.793  69.870  1.00  0.00    -0.368 C  
HETATM    9  C   UNL     1     -11.663  14.117  67.719  1.00  0.00    -0.408 C  
HETATM   10  C   UNL     1     -10.179  14.485  67.614  1.00  0.00    -0.225 C  
ENDROOT
BRANCH  10  11
HETATM   11  O   UNL     1      -9.314  13.509  68.252  1.00  0.00    -0.204 OA 
BRANCH  11  12
HETATM   12  C   UNL     1      -8.392  12.814  67.534  1.00  0.00    -0.179 C  
HETATM   13  O   UNL     1      -7.262  13.178  67.251  1.00  0.00    -0.136 OA 
BRANCH  12  14
HETATM   14  C   UNL     1      -8.989  11.498  67.166  1.00  0.00    -0.166 A  
HETATM   15  C   UNL     1      -9.252  11.234  65.807  1.00  0.00    -0.236 A  
HETATM   16  C   UNL     1      -9.830  10.027  65.410  1.00  0.00    -0.384 A  
HETATM   17  C   UNL     1     -10.139   9.067  66.370  1.00  0.00    -0.351 A  
HETATM   18  C   UNL     1      -9.888   9.325  67.720  1.00  0.00    -0.210 A  
HETATM   19  C   UNL     1      -9.358  10.557  68.147  1.00  0.00    -0.148 A  
HETATM   20  N   UNL     1      -9.007  10.686  69.505  1.00  0.00    -0.405 NA 
HETATM   21  H2  UNL     1      -9.335  11.600  69.819  1.00  0.00     0.000 HD 
HETATM   22  H1  UNL     1      -9.273  10.005  70.215  1.00  0.00     0.000 HD 
ENDBRANCH  12  14
ENDBRANCH  11  12
ENDBRANCH  10  11
TORSDOF 3
ENDMDL
MODEL       71
REMARK 921   NORMALIZED FREE ENERGY PREDICTED BY IDOCK:   -4.92 KCAL/MOL
REMARK 922        TOTAL FREE ENERGY PREDICTED BY IDOCK:   -6.69 KCAL/MOL
REMARK 923 INTER-LIGAND FREE ENERGY PREDICTED BY IDOCK:   -5.82 KCAL/MOL
REMARK 924 INTRA-LIGAND FREE ENERGY PREDICTED BY IDOCK:   -0.88 KCAL/MOL
REMARK 927      BINDING AFFINITY PREDICTED BY RF-SCORE:    0.00 PKD
ROOT
HETATM    1  C   UNL     1     -11.486  12.013  65.597  1.00  0.00    -0.372 C  
HETATM    2  C   UNL     1     -10.768  11.967  66.958  1.00  0.00    -0.280 C  
HETATM    3  C   UNL     1     -11.027  10.615  67.701  1.00  0.00    -0.370 C  
HETATM    4  C   UNL     1     -11.188  13.214  67.743  1.00  0.00    -0.308 C  
HETATM    5  C   UNL     1     -10.467   9.408  66.903  1.00  0.00    -0.281 C  
HETATM    6  C   UNL     1      -8.939   9.423  66.823  1.00  0.00    -0.152 C  
HETATM    7  C   UNL     1      -8.243   9.551  68.187  1.00  0.00    -0.114 C  
HETATM    8  C   UNL     1      -8.074   8.181  68.847  1.00  0.00    -0.116 C  
HETATM    9  C   UNL     1      -8.918  10.566  69.127  1.00  0.00    -0.171 C  
HETATM   10  C   UNL     1     -10.450  10.518  69.144  1.00  0.00    -0.228 C  
ENDROOT
BRANCH  10  11
HETATM   11  O   UNL     1     -10.965   9.271  69.681  1.00  0.00    -0.234 OA 
BRANCH  11  12
HETATM   12  C   UNL     1     -11.584   9.230  70.890  1.00  0.00    -0.301 C  
HETATM   13  O   UNL     1     -12.305  10.090  71.370  1.00  0.00    -0.355 OA 
BRANCH  12  14
HETATM   14  C   UNL     1     -11.255   7.926  71.533  1.00  0.00    -0.286 A  
HETATM   15  C   UNL     1     -10.827   7.925  72.876  1.00  0.00    -0.451 A  
HETATM   16  C   UNL     1     -10.486   6.735  73.519  1.00  0.00    -0.356 A  
HETATM   17  C   UNL     1     -10.584   5.530  72.827  1.00  0.00    -0.266 A  
HETATM   18  C   UNL     1     -11.001   5.524  71.494  1.00  0.00    -0.220 A  
HETATM   19  C   UNL     1     -11.296   6.717  70.809  1.00  0.00    -0.325 A  
HETATM   20  N   UNL     1     -11.840   6.616  69.515  1.00  0.00    -0.632 NA 
HETATM   21  H2  UNL     1     -11.368   7.306  68.930  1.00  0.00     0.000 HD 
HETATM   22  H1  UNL     1     -11.869   5.741  68.991  1.00  0.00     0.000 HD 
ENDBRANCH  12  14
ENDBRANCH  11  12
ENDBRANCH  10  11
TORSDOF 3
ENDMDL
MODEL       72
REMARK 921   NORMALIZED FREE ENERGY PREDICTED BY IDOCK:   -4.90 KCAL/MOL
REMARK 922        TOTAL FREE ENERGY PREDICTED BY IDOCK:   -6.67 KCAL/MOL
REMARK 923 INTER-LIGAND FREE ENERGY PREDICTED BY IDOCK:   -5.84 KCAL/MOL
REMARK 924 INTRA-LIGAND FREE ENERGY PREDICTED BY IDOCK:   -0.84 KCAL/MOL
REMARK 927      BINDING AFFINITY PREDICTED BY RF-SCORE:    0.00 PKD
ROOT
HETATM    1  C   UNL     1     -13.533  15.316  70.821  1.00  0.00    -0.359 C  
HETATM    2  C   UNL     1     -12.156  14.669  70.582  1.00  0.00    -0.385 C  
HETATM    3  C   UNL     1     -11.743  14.732  69.074  1.00  0.00    -0.343 C  
HETATM    4  C   UNL     1     -12.204  13.254  71.168  1.00  0.00    -0.206 C  
HETATM    5  C   UNL     1     -11.597  16.197  68.583  1.00  0.00    -0.283 C  
HETATM    6  C   UNL     1     -10.424  16.919  69.251  1.00  0.00    -0.319 C  
HETATM    7  C   UNL     1      -9.087  16.168  69.147  1.00  0.00    -0.243 C  
HETATM    8  C   UNL     1      -8.377  16.489  67.829  1.00  0.00    -0.176 C  
HETATM    9  C   UNL     1      -9.217  14.651  69.379  1.00  0.00     0.113 C  
HETATM   10  C   UNL     1     -10.425  13.991  68.705  1.00  0.00    -0.247 C  
ENDROOT
BRANCH  10  11
HETATM   11  O   UNL     1     -10.351  14.036  67.256  1.00  0.00    -0.260 OA 
BRANCH  11  12
HETATM   12  C   UNL     1      -9.727  13.053  66.554  1.00  0.00    -0.266 C  
HETATM   13  O   UNL     1      -8.630  12.573  66.789  1.00  0.00    -0.183 OA 
BRANCH  12  14
HETATM   14  C   UNL     1     -10.631  12.632  65.445  1.00  0.00    -0.307 A  
HETATM   15  C   UNL     1     -11.979  13.041  65.482  1.00  0.00    -0.470 A  
HETATM   16  C   UNL     1     -12.873  12.657  64.482  1.00  0.00    -0.356 A  
HETATM   17  C   UNL     1     -12.421  11.869  63.426  1.00  0.00    -0.582 A  
HETATM   18  C   UNL     1     -11.088  11.454  63.387  1.00  0.00    -0.308 A  
HETATM   19  C   UNL     1     -10.184  11.783  64.413  1.00  0.00    -0.289 A  
HETATM   20  N   UNL     1      -8.830  11.444  64.231  1.00  0.00    -0.367 NA 
HETATM   21  H2  UNL     1      -8.490  11.058  65.113  1.00  0.00     0.000 HD 
HETATM   22  H1  UNL     1      -8.506  10.830  63.484  1.00  0.00     0.000 HD 
ENDBRANCH  12  14
ENDBRANCH  11  12
ENDBRANCH  10  11
TORSDOF 3
ENDMDL
MODEL       73
REMARK 921   NORMALIZED FREE ENERGY PREDICTED BY IDOCK:   -4.90 KCAL/MOL
REMARK 922        TOTAL FREE ENERGY PREDICTED BY IDOCK:   -6.67 KCAL/MOL
REMARK 923 INTER-LIGAND FREE ENERGY PREDICTED BY IDOCK:   -5.98 KCAL/MOL
REMARK 924 INTRA-LIGAND FREE ENERGY PREDICTED BY IDOCK:   -0.69 KCAL/MOL
REMARK 927      BINDING AFFINITY PREDICTED BY RF-SCORE:    0.00 PKD
ROOT
HETATM    1  C   UNL     1      -7.871  17.226  68.526  1.00  0.00    -0.266 C  
HETATM    2  C   UNL     1      -8.036  15.859  67.837  1.00  0.00    -0.149 C  
HETATM    3  C   UNL     1      -9.220  15.042  68.454  1.00  0.00    -0.193 C  
HETATM    4  C   UNL     1      -6.679  15.150  67.888  1.00  0.00    -0.168 C  
HETATM    5  C   UNL     1     -10.578  15.766  68.257  1.00  0.00    -0.271 C  
HETATM    6  C   UNL     1     -10.991  15.835  66.785  1.00  0.00    -0.192 C  
HETATM    7  C   UNL     1     -10.983  14.475  66.069  1.00  0.00    -0.324 C  
HETATM    8  C   UNL     1     -12.307  13.736  66.281  1.00  0.00    -0.479 C  
HETATM    9  C   UNL     1      -9.769  13.600  66.429  1.00  0.00    -0.300 C  
HETATM   10  C   UNL     1      -9.390  13.592  67.915  1.00  0.00    -0.215 C  
ENDROOT
BRANCH  10  11
HETATM   11  O   UNL     1     -10.413  12.989  68.750  1.00  0.00    -0.235 OA 
BRANCH  11  12
HETATM   12  C   UNL     1     -10.681  11.658  68.681  1.00  0.00    -0.212 C  
HETATM   13  O   UNL     1     -10.261  10.871  67.848  1.00  0.00    -0.171 OA 
BRANCH  12  14
HETATM   14  C   UNL     1     -11.566  11.305  69.828  1.00  0.00    -0.408 A  
HETATM   15  C   UNL     1     -12.271  12.338  70.478  1.00  0.00    -0.387 A  
HETATM   16  C   UNL     1     -13.096  12.066  71.570  1.00  0.00    -0.362 A  
HETATM   17  C   UNL     1     -13.234  10.753  72.013  1.00  0.00    -0.466 A  
HETATM   18  C   UNL     1     -12.534   9.725  71.377  1.00  0.00    -0.482 A  
HETATM   19  C   UNL     1     -11.653   9.984  70.311  1.00  0.00    -0.280 A  
HETATM   20  N   UNL     1     -11.093   8.882  69.637  1.00  0.00    -0.423 NA 
HETATM   21  H2  UNL     1     -10.105   9.087  69.486  1.00  0.00     0.000 HD 
HETATM   22  H1  UNL     1     -11.156   7.926  69.988  1.00  0.00     0.000 HD 
ENDBRANCH  12  14
ENDBRANCH  11  12
ENDBRANCH  10  11
TORSDOF 3
ENDMDL
MODEL       74
REMARK 921   NORMALIZED FREE ENERGY PREDICTED BY IDOCK:   -4.88 KCAL/MOL
REMARK 922        TOTAL FREE ENERGY PREDICTED BY IDOCK:   -6.65 KCAL/MOL
REMARK 923 INTER-LIGAND FREE ENERGY PREDICTED BY IDOCK:   -5.74 KCAL/MOL
REMARK 924 INTRA-LIGAND FREE ENERGY PREDICTED BY IDOCK:   -0.91 KCAL/MOL
REMARK 927      BINDING AFFINITY PREDICTED BY RF-SCORE:    0.00 PKD
ROOT
HETATM    1  C   UNL     1      -7.721   8.329  72.227  1.00  0.00    -0.168 C  
HETATM    2  C   UNL     1      -9.046   8.168  71.459  1.00  0.00    -0.203 C  
HETATM    3  C   UNL     1      -9.226   9.286  70.380  1.00  0.00    -0.291 C  
HETATM    4  C   UNL     1     -10.173   8.097  72.495  1.00  0.00    -0.383 C  
HETATM    5  C   UNL     1      -8.116   9.220  69.298  1.00  0.00    -0.106 C  
HETATM    6  C   UNL     1      -8.213   7.954  68.443  1.00  0.00    -0.124 C  
HETATM    7  C   UNL     1      -9.601   7.723  67.823  1.00  0.00    -0.172 C  
HETATM    8  C   UNL     1      -9.744   8.481  66.501  1.00  0.00    -0.330 C  
HETATM    9  C   UNL     1     -10.761   8.022  68.790  1.00  0.00    -0.078 C  
HETATM   10  C   UNL     1     -10.593   9.290  69.635  1.00  0.00    -0.229 C  
ENDROOT
BRANCH  10  11
HETATM   11  O   UNL     1     -10.591  10.501  68.834  1.00  0.00    -0.189 OA 
BRANCH  11  12
HETATM   12  C   UNL     1     -11.540  11.458  69.008  1.00  0.00    -0.317 C  
HETATM   13  O   UNL     1     -12.188  11.668  70.020  1.00  0.00    -0.296 OA 
BRANCH  12  14
HETATM   14  C   UNL     1     -11.641  12.243  67.744  1.00  0.00    -0.416 A  
HETATM   15  C   UNL     1     -11.348  11.599  66.525  1.00  0.00    -0.331 A  
HETATM   16  C   UNL     1     -11.407  12.292  65.316  1.00  0.00    -0.384 A  
HETATM   17  C   UNL     1     -11.772  13.636  65.313  1.00  0.00    -0.349 A  
HETATM   18  C   UNL     1     -12.057  14.283  66.519  1.00  0.00    -0.454 A  
HETATM   19  C   UNL     1     -11.950  13.618  67.754  1.00  0.00    -0.352 A  
HETATM   20  N   UNL     1     -12.386  14.298  68.907  1.00  0.00    -0.570 NA 
HETATM   21  H2  UNL     1     -11.693  14.136  69.638  1.00  0.00     0.000 HD 
HETATM   22  H1  UNL     1     -12.610  15.293  68.914  1.00  0.00     0.000 HD 
ENDBRANCH  12  14
ENDBRANCH  11  12
ENDBRANCH  10  11
TORSDOF 3
ENDMDL
MODEL       75
REMARK 921   NORMALIZED FREE ENERGY PREDICTED BY IDOCK:   -4.88 KCAL/MOL
REMARK 922        TOTAL FREE ENERGY PREDICTED BY IDOCK:   -6.65 KCAL/MOL
REMARK 923 INTER-LIGAND FREE ENERGY PREDICTED BY IDOCK:   -5.66 KCAL/MOL
REMARK 924 INTRA-LIGAND FREE ENERGY PREDICTED BY IDOCK:   -0.99 KCAL/MOL
REMARK 927      BINDING AFFINITY PREDICTED BY RF-SCORE:    0.00 PKD
ROOT
HETATM    1  C   UNL     1      -9.394  18.519  68.239  1.00  0.00    -0.350 C  
HETATM    2  C   UNL     1     -10.293  17.385  67.713  1.00  0.00    -0.358 C  
HETATM    3  C   UNL     1      -9.786  15.981  68.182  1.00  0.00    -0.217 C  
HETATM    4  C   UNL     1     -10.397  17.547  66.193  1.00  0.00    -0.330 C  
HETATM    5  C   UNL     1      -9.823  15.849  69.728  1.00  0.00    -0.173 C  
HETATM    6  C   UNL     1     -11.251  15.855  70.277  1.00  0.00    -0.388 C  
HETATM    7  C   UNL     1     -12.181  14.826  69.614  1.00  0.00    -0.310 C  
HETATM    8  C   UNL     1     -12.057  13.458  70.289  1.00  0.00    -0.419 C  
HETATM    9  C   UNL     1     -12.004  14.735  68.087  1.00  0.00    -0.265 C  
HETATM   10  C   UNL     1     -10.551  14.758  67.598  1.00  0.00    -0.262 C  
ENDROOT
BRANCH  10  11
HETATM   11  O   UNL     1      -9.798  13.593  68.026  1.00  0.00    -0.228 OA 
BRANCH  11  12
HETATM   12  C   UNL     1      -9.922  12.402  67.383  1.00  0.00    -0.202 C  
HETATM   13  O   UNL     1     -10.176  12.234  66.201  1.00  0.00    -0.230 OA 
BRANCH  12  14
HETATM   14  C   UNL     1      -9.664  11.315  68.370  1.00  0.00    -0.194 A  
HETATM   15  C   UNL     1      -8.374  11.200  68.925  1.00  0.00    -0.101 A  
HETATM   16  C   UNL     1      -8.073  10.188  69.837  1.00  0.00    -0.139 A  
HETATM   17  C   UNL     1      -9.067   9.287  70.213  1.00  0.00    -0.271 A  
HETATM   18  C   UNL     1     -10.347   9.391  69.662  1.00  0.00    -0.229 A  
HETATM   19  C   UNL     1     -10.656  10.369  68.699  1.00  0.00    -0.209 A  
HETATM   20  N   UNL     1     -11.999  10.495  68.297  1.00  0.00    -0.784 NA 
HETATM   21  H2  UNL     1     -12.005  10.603  67.282  1.00  0.00     0.000 HD 
HETATM   22  H1  UNL     1     -12.717   9.810  68.535  1.00  0.00     0.000 HD 
ENDBRANCH  12  14
ENDBRANCH  11  12
ENDBRANCH  10  11
TORSDOF 3
ENDMDL
MODEL       76
REMARK 921   NORMALIZED FREE ENERGY PREDICTED BY IDOCK:   -4.87 KCAL/MOL
REMARK 922        TOTAL FREE ENERGY PREDICTED BY IDOCK:   -6.64 KCAL/MOL
REMARK 923 INTER-LIGAND FREE ENERGY PREDICTED BY IDOCK:   -5.87 KCAL/MOL
REMARK 924 INTRA-LIGAND FREE ENERGY PREDICTED BY IDOCK:   -0.77 KCAL/MOL
REMARK 927      BINDING AFFINITY PREDICTED BY RF-SCORE:    0.00 PKD
ROOT
HETATM    1  C   UNL     1     -10.688   5.588  66.991  1.00  0.00    -0.286 C  
HETATM    2  C   UNL     1      -9.789   6.628  67.685  1.00  0.00    -0.150 C  
HETATM    3  C   UNL     1     -10.618   7.588  68.600  1.00  0.00    -0.171 C  
HETATM    4  C   UNL     1      -8.974   7.333  66.596  1.00  0.00    -0.170 C  
HETATM    5  C   UNL     1     -11.318   6.818  69.751  1.00  0.00    -0.350 C  
HETATM    6  C   UNL     1     -10.318   6.235  70.751  1.00  0.00    -0.256 C  
HETATM    7  C   UNL     1      -9.316   7.261  71.305  1.00  0.00    -0.155 C  
HETATM    8  C   UNL     1      -9.900   8.005  72.508  1.00  0.00    -0.330 C  
HETATM    9  C   UNL     1      -8.775   8.227  70.235  1.00  0.00    -0.139 C  
HETATM   10  C   UNL     1      -9.821   8.757  69.249  1.00  0.00    -0.180 C  
ENDROOT
BRANCH  10  11
HETATM   11  O   UNL     1     -10.819   9.596  69.888  1.00  0.00    -0.231 OA 
BRANCH  11  12
HETATM   12  C   UNL     1     -11.386  10.640  69.227  1.00  0.00    -0.282 C  
HETATM   13  O   UNL     1     -11.360  10.842  68.024  1.00  0.00    -0.291 OA 
BRANCH  12  14
HETATM   14  C   UNL     1     -12.081  11.498  70.229  1.00  0.00    -0.444 A  
HETATM   15  C   UNL     1     -11.813  12.882  70.233  1.00  0.00    -0.291 A  
HETATM   16  C   UNL     1     -12.420  13.726  71.162  1.00  0.00    -0.450 A  
HETATM   17  C   UNL     1     -13.312  13.195  72.091  1.00  0.00    -0.621 A  
HETATM   18  C   UNL     1     -13.577  11.823  72.097  1.00  0.00    -0.158 A  
HETATM   19  C   UNL     1     -12.933  10.946  71.206  1.00  0.00    -0.392 A  
HETATM   20  N   UNL     1     -13.356   9.603  71.184  1.00  0.00    -0.525 NA 
HETATM   21  H2  UNL     1     -12.519   9.020  71.145  1.00  0.00     0.000 HD 
HETATM   22  H1  UNL     1     -13.973   9.203  71.891  1.00  0.00     0.000 HD 
ENDBRANCH  12  14
ENDBRANCH  11  12
ENDBRANCH  10  11
TORSDOF 3
ENDMDL
MODEL       77
REMARK 921   NORMALIZED FREE ENERGY PREDICTED BY IDOCK:   -4.84 KCAL/MOL
REMARK 922        TOTAL FREE ENERGY PREDICTED BY IDOCK:   -6.60 KCAL/MOL
REMARK 923 INTER-LIGAND FREE ENERGY PREDICTED BY IDOCK:   -6.19 KCAL/MOL
REMARK 924 INTRA-LIGAND FREE ENERGY PREDICTED BY IDOCK:   -0.41 KCAL/MOL
REMARK 927      BINDING AFFINITY PREDICTED BY RF-SCORE:    0.00 PKD
ROOT
HETATM    1  C   UNL     1     -11.836   6.782  70.766  1.00  0.00    -0.446 C  
HETATM    2  C   UNL     1     -10.773   7.077  69.692  1.00  0.00    -0.265 C  
HETATM    3  C   UNL     1     -10.658   8.610  69.400  1.00  0.00    -0.207 C  
HETATM    4  C   UNL     1     -11.105   6.220  68.467  1.00  0.00    -0.397 C  
HETATM    5  C   UNL     1     -10.201   9.398  70.656  1.00  0.00    -0.353 C  
HETATM    6  C   UNL     1      -8.766   9.058  71.064  1.00  0.00    -0.280 C  
HETATM    7  C   UNL     1      -7.743   9.196  69.925  1.00  0.00    -0.087 C  
HETATM    8  C   UNL     1      -7.240  10.638  69.810  1.00  0.00    -0.135 C  
HETATM    9  C   UNL     1      -8.249   8.652  68.577  1.00  0.00    -0.122 C  
HETATM   10  C   UNL     1      -9.702   9.005  68.237  1.00  0.00    -0.152 C  
ENDROOT
BRANCH  10  11
HETATM   11  O   UNL     1      -9.901  10.430  68.043  1.00  0.00    -0.148 OA 
BRANCH  11  12
HETATM   12  C   UNL     1     -11.046  10.909  67.491  1.00  0.00    -0.310 C  
HETATM   13  O   UNL     1     -12.119  11.063  68.052  1.00  0.00    -0.615 OA 
BRANCH  12  14
HETATM   14  C   UNL     1     -10.764  11.249  66.066  1.00  0.00    -0.301 A  
HETATM   15  C   UNL     1     -10.020  10.339  65.290  1.00  0.00    -0.387 A  
HETATM   16  C   UNL     1      -9.710  10.617  63.959  1.00  0.00    -0.373 A  
HETATM   17  C   UNL     1     -10.154  11.807  63.386  1.00  0.00    -0.470 A  
HETATM   18  C   UNL     1     -10.887  12.718  64.152  1.00  0.00    -0.437 A  
HETATM   19  C   UNL     1     -11.162  12.482  65.511  1.00  0.00    -0.314 A  
HETATM   20  N   UNL     1     -12.021  13.380  66.174  1.00  0.00    -0.391 NA 
HETATM   21  H2  UNL     1     -11.612  13.575  67.088  1.00  0.00     0.000 HD 
HETATM   22  H1  UNL     1     -12.309  14.272  65.772  1.00  0.00     0.000 HD 
ENDBRANCH  12  14
ENDBRANCH  11  12
ENDBRANCH  10  11
TORSDOF 3
ENDMDL
MODEL       78
REMARK 921   NORMALIZED FREE ENERGY PREDICTED BY IDOCK:   -4.82 KCAL/MOL
REMARK 922        TOTAL FREE ENERGY PREDICTED BY IDOCK:   -6.58 KCAL/MOL
REMARK 923 INTER-LIGAND FREE ENERGY PREDICTED BY IDOCK:   -5.48 KCAL/MOL
REMARK 924 INTRA-LIGAND FREE ENERGY PREDICTED BY IDOCK:   -1.10 KCAL/MOL
REMARK 927      BINDING AFFINITY PREDICTED BY RF-SCORE:    0.00 PKD
ROOT
HETATM    1  C   UNL     1     -12.156  15.154  64.365  1.00  0.00    -0.313 C  
HETATM    2  C   UNL     1     -11.120  14.465  65.272  1.00  0.00    -0.344 C  
HETATM    3  C   UNL     1     -11.578  13.025  65.680  1.00  0.00    -0.391 C  
HETATM    4  C   UNL     1     -10.843  15.402  66.452  1.00  0.00    -0.303 C  
HETATM    5  C   UNL     1     -11.720  12.099  64.443  1.00  0.00    -0.430 C  
HETATM    6  C   UNL     1     -10.374  11.812  63.775  1.00  0.00    -0.451 C  
HETATM    7  C   UNL     1      -9.298  11.284  64.737  1.00  0.00    -0.166 C  
HETATM    8  C   UNL     1      -9.404   9.765  64.899  1.00  0.00    -0.327 C  
HETATM    9  C   UNL     1      -9.280  12.010  66.095  1.00  0.00    -0.181 C  
HETATM   10  C   UNL     1     -10.660  12.290  66.700  1.00  0.00    -0.229 C  
ENDROOT
BRANCH  10  11
HETATM   11  O   UNL     1     -11.374  11.077  67.054  1.00  0.00    -0.382 OA 
BRANCH  11  12
HETATM   12  C   UNL     1     -11.352  10.596  68.325  1.00  0.00    -0.289 C  
HETATM   13  O   UNL     1     -12.016  10.994  69.268  1.00  0.00    -0.321 OA 
BRANCH  12  14
HETATM   14  C   UNL     1     -10.386   9.460  68.372  1.00  0.00    -0.238 A  
HETATM   15  C   UNL     1     -10.771   8.223  67.818  1.00  0.00    -0.165 A  
HETATM   16  C   UNL     1      -9.914   7.123  67.854  1.00  0.00    -0.186 A  
HETATM   17  C   UNL     1      -8.656   7.254  68.436  1.00  0.00    -0.124 A  
HETATM   18  C   UNL     1      -8.270   8.476  68.994  1.00  0.00    -0.116 A  
HETATM   19  C   UNL     1      -9.139   9.581  69.018  1.00  0.00    -0.144 A  
HETATM   20  N   UNL     1      -8.627  10.812  69.473  1.00  0.00    -0.383 NA 
HETATM   21  H2  UNL     1      -9.329  11.227  70.085  1.00  0.00     0.000 HD 
HETATM   22  H1  UNL     1      -7.724  10.899  69.940  1.00  0.00     0.000 HD 
ENDBRANCH  12  14
ENDBRANCH  11  12
ENDBRANCH  10  11
TORSDOF 3
ENDMDL
MODEL       79
REMARK 921   NORMALIZED FREE ENERGY PREDICTED BY IDOCK:   -4.81 KCAL/MOL
REMARK 922        TOTAL FREE ENERGY PREDICTED BY IDOCK:   -6.57 KCAL/MOL
REMARK 923 INTER-LIGAND FREE ENERGY PREDICTED BY IDOCK:   -5.59 KCAL/MOL
REMARK 924 INTRA-LIGAND FREE ENERGY PREDICTED BY IDOCK:   -0.98 KCAL/MOL
REMARK 927      BINDING AFFINITY PREDICTED BY RF-SCORE:    0.00 PKD
ROOT
HETATM    1  C   UNL     1      -6.249   9.054  69.331  1.00  0.00    -0.040 C  
HETATM    2  C   UNL     1      -7.700   8.900  68.839  1.00  0.00    -0.095 C  
HETATM    3  C   UNL     1      -8.214  10.204  68.142  1.00  0.00    -0.113 C  
HETATM    4  C   UNL     1      -8.546   8.442  70.032  1.00  0.00    -0.131 C  
HETATM    5  C   UNL     1      -7.385  10.538  66.874  1.00  0.00    -0.110 C  
HETATM    6  C   UNL     1      -7.580   9.503  65.764  1.00  0.00    -0.100 C  
HETATM    7  C   UNL     1      -9.051   9.239  65.406  1.00  0.00    -0.277 C  
HETATM    8  C   UNL     1      -9.558  10.257  64.380  1.00  0.00    -0.378 C  
HETATM    9  C   UNL     1      -9.974   9.149  66.635  1.00  0.00    -0.343 C  
HETATM   10  C   UNL     1      -9.713  10.198  67.723  1.00  0.00    -0.153 C  
ENDROOT
BRANCH  10  11
HETATM   11  O   UNL     1      -9.992  11.550  67.275  1.00  0.00    -0.189 OA 
BRANCH  11  12
HETATM   12  C   UNL     1     -11.270  11.989  67.124  1.00  0.00    -0.316 C  
HETATM   13  O   UNL     1     -12.266  11.534  67.660  1.00  0.00    -0.513 OA 
BRANCH  12  14
HETATM   14  C   UNL     1     -11.249  13.158  66.198  1.00  0.00    -0.320 A  
HETATM   15  C   UNL     1     -10.282  14.163  66.402  1.00  0.00    -0.292 A  
HETATM   16  C   UNL     1     -10.233  15.288  65.579  1.00  0.00    -0.417 A  
HETATM   17  C   UNL     1     -11.144  15.412  64.532  1.00  0.00    -0.272 A  
HETATM   18  C   UNL     1     -12.110  14.423  64.328  1.00  0.00    -0.461 A  
HETATM   19  C   UNL     1     -12.213  13.309  65.181  1.00  0.00    -0.443 A  
HETATM   20  N   UNL     1     -13.120  12.291  64.827  1.00  0.00    -0.627 NA 
HETATM   21  H2  UNL     1     -13.613  12.013  65.676  1.00  0.00     0.000 HD 
HETATM   22  H1  UNL     1     -13.818  12.401  64.091  1.00  0.00     0.000 HD 
ENDBRANCH  12  14
ENDBRANCH  11  12
ENDBRANCH  10  11
TORSDOF 3
ENDMDL
MODEL       80
REMARK 921   NORMALIZED FREE ENERGY PREDICTED BY IDOCK:   -4.81 KCAL/MOL
REMARK 922        TOTAL FREE ENERGY PREDICTED BY IDOCK:   -6.57 KCAL/MOL
REMARK 923 INTER-LIGAND FREE ENERGY PREDICTED BY IDOCK:   -5.63 KCAL/MOL
REMARK 924 INTRA-LIGAND FREE ENERGY PREDICTED BY IDOCK:   -0.94 KCAL/MOL
REMARK 927      BINDING AFFINITY PREDICTED BY RF-SCORE:    0.00 PKD
ROOT
HETATM    1  C   UNL     1     -10.076   7.453  69.406  1.00  0.00    -0.185 C  
HETATM    2  C   UNL     1      -9.883   7.362  67.881  1.00  0.00    -0.177 C  
HETATM    3  C   UNL     1      -9.477   8.742  67.268  1.00  0.00    -0.200 C  
HETATM    4  C   UNL     1     -11.160   6.755  67.291  1.00  0.00    -0.394 C  
HETATM    5  C   UNL     1      -8.115   9.236  67.823  1.00  0.00    -0.104 C  
HETATM    6  C   UNL     1      -6.950   8.350  67.376  1.00  0.00    -0.071 C  
HETATM    7  C   UNL     1      -6.878   8.132  65.856  1.00  0.00    -0.060 C  
HETATM    8  C   UNL     1      -6.116   9.270  65.174  1.00  0.00    -0.064 C  
HETATM    9  C   UNL     1      -8.252   7.886  65.207  1.00  0.00    -0.147 C  
HETATM   10  C   UNL     1      -9.383   8.788  65.714  1.00  0.00    -0.191 C  
ENDROOT
BRANCH  10  11
HETATM   11  O   UNL     1      -9.175  10.186  65.383  1.00  0.00    -0.173 OA 
BRANCH  11  12
HETATM   12  C   UNL     1      -9.866  10.777  64.372  1.00  0.00    -0.315 C  
HETATM   13  O   UNL     1      -9.801  10.502  63.185  1.00  0.00    -0.319 OA 
BRANCH  12  14
HETATM   14  C   UNL     1     -10.753  11.818  64.967  1.00  0.00    -0.344 A  
HETATM   15  C   UNL     1     -10.372  12.412  66.186  1.00  0.00    -0.271 A  
HETATM   16  C   UNL     1     -11.176  13.375  66.796  1.00  0.00    -0.332 A  
HETATM   17  C   UNL     1     -12.365  13.763  66.184  1.00  0.00    -0.496 A  
HETATM   18  C   UNL     1     -12.753  13.173  64.978  1.00  0.00    -0.456 A  
HETATM   19  C   UNL     1     -11.985  12.160  64.375  1.00  0.00    -0.361 A  
HETATM   20  N   UNL     1     -12.371  11.715  63.095  1.00  0.00    -0.966 NA 
HETATM   21  H2  UNL     1     -12.304  10.697  63.092  1.00  0.00     0.000 HD 
HETATM   22  H1  UNL     1     -13.263  11.964  62.667  1.00  0.00     0.000 HD 
ENDBRANCH  12  14
ENDBRANCH  11  12
ENDBRANCH  10  11
TORSDOF 3
ENDMDL
MODEL       81
REMARK 921   NORMALIZED FREE ENERGY PREDICTED BY IDOCK:   -4.79 KCAL/MOL
REMARK 922        TOTAL FREE ENERGY PREDICTED BY IDOCK:   -6.55 KCAL/MOL
REMARK 923 INTER-LIGAND FREE ENERGY PREDICTED BY IDOCK:   -5.90 KCAL/MOL
REMARK 924 INTRA-LIGAND FREE ENERGY PREDICTED BY IDOCK:   -0.64 KCAL/MOL
REMARK 927      BINDING AFFINITY PREDICTED BY RF-SCORE:    0.00 PKD
ROOT
HETATM    1  C   UNL     1      -7.871   9.420  70.426  1.00  0.00    -0.179 C  
HETATM    2  C   UNL     1      -9.233   9.741  69.784  1.00  0.00    -0.248 C  
HETATM    3  C   UNL     1      -9.254  11.178  69.165  1.00  0.00     0.038 C  
HETATM    4  C   UNL     1     -10.312   9.489  70.841  1.00  0.00    -0.372 C  
HETATM    5  C   UNL     1      -8.218  11.322  68.019  1.00  0.00    -0.134 C  
HETATM    6  C   UNL     1      -8.572  10.463  66.804  1.00  0.00    -0.125 C  
HETATM    7  C   UNL     1     -10.002  10.677  66.282  1.00  0.00    -0.274 C  
HETATM    8  C   UNL     1     -10.061  11.859  65.312  1.00  0.00    -0.290 C  
HETATM    9  C   UNL     1     -11.051  10.796  67.402  1.00  0.00    -0.363 C  
HETATM   10  C   UNL     1     -10.628  11.650  68.603  1.00  0.00    -0.209 C  
ENDROOT
BRANCH  10  11
HETATM   11  O   UNL     1     -10.442  13.048  68.258  1.00  0.00    -0.237 OA 
BRANCH  11  12
HETATM   12  C   UNL     1     -11.500  13.900  68.192  1.00  0.00    -0.312 C  
HETATM   13  O   UNL     1     -12.162  14.166  67.203  1.00  0.00    -0.421 OA 
BRANCH  12  14
HETATM   14  C   UNL     1     -11.739  14.444  69.560  1.00  0.00    -0.362 A  
HETATM   15  C   UNL     1     -12.372  13.621  70.512  1.00  0.00    -0.425 A  
HETATM   16  C   UNL     1     -12.639  14.088  71.799  1.00  0.00    -0.376 A  
HETATM   17  C   UNL     1     -12.263  15.382  72.150  1.00  0.00    -0.465 A  
HETATM   18  C   UNL     1     -11.642  16.207  71.209  1.00  0.00    -0.470 A  
HETATM   19  C   UNL     1     -11.414  15.775  69.889  1.00  0.00    -0.346 A  
HETATM   20  N   UNL     1     -10.661  16.613  69.044  1.00  0.00    -0.333 NA 
HETATM   21  H2  UNL     1     -11.127  16.628  68.136  1.00  0.00     0.000 HD 
HETATM   22  H1  UNL     1     -10.425  17.576  69.283  1.00  0.00     0.000 HD 
ENDBRANCH  12  14
ENDBRANCH  11  12
ENDBRANCH  10  11
TORSDOF 3
ENDMDL
MODEL       82
REMARK 921   NORMALIZED FREE ENERGY PREDICTED BY IDOCK:   -4.79 KCAL/MOL
REMARK 922        TOTAL FREE ENERGY PREDICTED BY IDOCK:   -6.54 KCAL/MOL
REMARK 923 INTER-LIGAND FREE ENERGY PREDICTED BY IDOCK:   -5.58 KCAL/MOL
REMARK 924 INTRA-LIGAND FREE ENERGY PREDICTED BY IDOCK:   -0.97 KCAL/MOL
REMARK 927      BINDING AFFINITY PREDICTED BY RF-SCORE:    0.00 PKD
ROOT
HETATM    1  C   UNL     1      -7.797  12.149  67.260  1.00  0.00    -0.176 C  
HETATM    2  C   UNL     1      -7.568  10.656  67.559  1.00  0.00    -0.093 C  
HETATM    3  C   UNL     1      -8.768  10.035  68.347  1.00  0.00    -0.117 C  
HETATM    4  C   UNL     1      -6.212  10.529  68.262  1.00  0.00    -0.054 C  
HETATM    5  C   UNL     1     -10.082  10.091  67.524  1.00  0.00    -0.243 C  
HETATM    6  C   UNL     1     -10.032   9.190  66.288  1.00  0.00    -0.352 C  
HETATM    7  C   UNL     1      -9.632   7.737  66.590  1.00  0.00    -0.286 C  
HETATM    8  C   UNL     1     -10.852   6.906  66.996  1.00  0.00    -0.436 C  
HETATM    9  C   UNL     1      -8.485   7.616  67.609  1.00  0.00    -0.117 C  
HETATM   10  C   UNL     1      -8.580   8.561  68.811  1.00  0.00    -0.131 C  
ENDROOT
BRANCH  10  11
HETATM   11  O   UNL     1      -9.723   8.276  69.659  1.00  0.00    -0.171 OA 
BRANCH  11  12
HETATM   12  C   UNL     1      -9.713   8.595  70.980  1.00  0.00    -0.210 C  
HETATM   13  O   UNL     1      -8.753   8.562  71.732  1.00  0.00    -0.168 OA 
BRANCH  12  14
HETATM   14  C   UNL     1     -11.089   9.027  71.361  1.00  0.00    -0.399 A  
HETATM   15  C   UNL     1     -11.588  10.233  70.830  1.00  0.00    -0.446 A  
HETATM   16  C   UNL     1     -12.860  10.694  71.170  1.00  0.00    -0.518 A  
HETATM   17  C   UNL     1     -13.652   9.944  72.037  1.00  0.00    -0.399 A  
HETATM   18  C   UNL     1     -13.161   8.751  72.573  1.00  0.00    -0.392 A  
HETATM   19  C   UNL     1     -11.860   8.296  72.287  1.00  0.00    -0.388 A  
HETATM   20  N   UNL     1     -11.492   7.020  72.754  1.00  0.00    -0.480 NA 
HETATM   21  H2  UNL     1     -10.548   7.095  73.135  1.00  0.00     0.000 HD 
HETATM   22  H1  UNL     1     -12.050   6.491  73.424  1.00  0.00     0.000 HD 
ENDBRANCH  12  14
ENDBRANCH  11  12
ENDBRANCH  10  11
TORSDOF 3
ENDMDL
MODEL       83
REMARK 921   NORMALIZED FREE ENERGY PREDICTED BY IDOCK:   -4.78 KCAL/MOL
REMARK 922        TOTAL FREE ENERGY PREDICTED BY IDOCK:   -6.53 KCAL/MOL
REMARK 923 INTER-LIGAND FREE ENERGY PREDICTED BY IDOCK:   -5.61 KCAL/MOL
REMARK 924 INTRA-LIGAND FREE ENERGY PREDICTED BY IDOCK:   -0.92 KCAL/MOL
REMARK 927      BINDING AFFINITY PREDICTED BY RF-SCORE:    0.00 PKD
ROOT
HETATM    1  C   UNL     1     -12.416  12.636  65.293  1.00  0.00    -0.483 C  
HETATM    2  C   UNL     1     -11.441  12.967  66.438  1.00  0.00    -0.384 C  
HETATM    3  C   UNL     1     -11.103  11.701  67.292  1.00  0.00    -0.346 C  
HETATM    4  C   UNL     1     -12.042  14.130  67.235  1.00  0.00    -0.407 C  
HETATM    5  C   UNL     1     -10.388  10.615  66.446  1.00  0.00    -0.291 C  
HETATM    6  C   UNL     1      -8.994  11.056  65.994  1.00  0.00    -0.209 C  
HETATM    7  C   UNL     1      -8.092  11.546  67.138  1.00  0.00    -0.159 C  
HETATM    8  C   UNL     1      -7.370  10.374  67.808  1.00  0.00    -0.087 C  
HETATM    9  C   UNL     1      -8.825  12.434  68.159  1.00  0.00    -0.191 C  
HETATM   10  C   UNL     1     -10.226  11.952  68.553  1.00  0.00    -0.215 C  
ENDROOT
BRANCH  10  11
HETATM   11  O   UNL     1     -10.203  10.687  69.264  1.00  0.00    -0.212 OA 
BRANCH  11  12
HETATM   12  C   UNL     1     -11.222  10.327  70.089  1.00  0.00    -0.318 C  
HETATM   13  O   UNL     1     -12.117  11.048  70.501  1.00  0.00    -0.318 OA 
BRANCH  12  14
HETATM   14  C   UNL     1     -11.081   8.874  70.391  1.00  0.00    -0.270 A  
HETATM   15  C   UNL     1      -9.837   8.254  70.156  1.00  0.00    -0.184 A  
HETATM   16  C   UNL     1      -9.657   6.893  70.401  1.00  0.00    -0.171 A  
HETATM   17  C   UNL     1     -10.718   6.139  70.896  1.00  0.00    -0.316 A  
HETATM   18  C   UNL     1     -11.956   6.745  71.125  1.00  0.00    -0.421 A  
HETATM   19  C   UNL     1     -12.176   8.104  70.832  1.00  0.00    -0.099 A  
HETATM   20  N   UNL     1     -13.406   8.670  71.218  1.00  0.00    -0.529 NA 
HETATM   21  H2  UNL     1     -13.732   9.249  70.444  1.00  0.00     0.000 HD 
HETATM   22  H1  UNL     1     -14.198   8.113  71.538  1.00  0.00     0.000 HD 
ENDBRANCH  12  14
ENDBRANCH  11  12
ENDBRANCH  10  11
TORSDOF 3
ENDMDL
MODEL       84
REMARK 921   NORMALIZED FREE ENERGY PREDICTED BY IDOCK:   -4.76 KCAL/MOL
REMARK 922        TOTAL FREE ENERGY PREDICTED BY IDOCK:   -6.51 KCAL/MOL
REMARK 923 INTER-LIGAND FREE ENERGY PREDICTED BY IDOCK:   -5.82 KCAL/MOL
REMARK 924 INTRA-LIGAND FREE ENERGY PREDICTED BY IDOCK:   -0.69 KCAL/MOL
REMARK 927      BINDING AFFINITY PREDICTED BY RF-SCORE:    0.00 PKD
ROOT
HETATM    1  C   UNL     1     -10.540   1.626  73.141  1.00  0.00    -0.216 C  
HETATM    2  C   UNL     1      -9.748   2.653  72.310  1.00  0.00    -0.213 C  
HETATM    3  C   UNL     1     -10.373   4.084  72.415  1.00  0.00    -0.207 C  
HETATM    4  C   UNL     1      -9.643   2.108  70.882  1.00  0.00    -0.184 C  
HETATM    5  C   UNL     1     -10.335   4.618  73.871  1.00  0.00    -0.279 C  
HETATM    6  C   UNL     1      -8.907   4.873  74.359  1.00  0.00    -0.112 C  
HETATM    7  C   UNL     1      -8.077   5.766  73.423  1.00  0.00    -0.113 C  
HETATM    8  C   UNL     1      -8.315   7.248  73.723  1.00  0.00    -0.180 C  
HETATM    9  C   UNL     1      -8.274   5.440  71.931  1.00  0.00    -0.119 C  
HETATM   10  C   UNL     1      -9.722   5.171  71.510  1.00  0.00    -0.166 C  
ENDROOT
BRANCH  10  11
HETATM   11  O   UNL     1     -10.571   6.340  71.643  1.00  0.00    -0.216 OA 
BRANCH  11  12
HETATM   12  C   UNL     1     -11.339   6.772  70.608  1.00  0.00    -0.334 C  
HETATM   13  O   UNL     1     -11.522   6.199  69.546  1.00  0.00    -0.429 OA 
BRANCH  12  14
HETATM   14  C   UNL     1     -11.954   8.073  71.000  1.00  0.00    -0.260 A  
HETATM   15  C   UNL     1     -11.329   9.266  70.587  1.00  0.00    -0.330 A  
HETATM   16  C   UNL     1     -11.850  10.510  70.945  1.00  0.00    -0.455 A  
HETATM   17  C   UNL     1     -13.013  10.571  71.710  1.00  0.00    -0.582 A  
HETATM   18  C   UNL     1     -13.634   9.391  72.129  1.00  0.00    -0.528 A  
HETATM   19  C   UNL     1     -13.094   8.128  71.827  1.00  0.00    -0.345 A  
HETATM   20  N   UNL     1     -13.851   6.990  72.166  1.00  0.00    -0.555 NA 
HETATM   21  H2  UNL     1     -13.212   6.308  72.574  1.00  0.00     0.000 HD 
HETATM   22  H1  UNL     1     -14.677   7.031  72.764  1.00  0.00     0.000 HD 
ENDBRANCH  12  14
ENDBRANCH  11  12
ENDBRANCH  10  11
TORSDOF 3
ENDMDL
MODEL       85
REMARK 921   NORMALIZED FREE ENERGY PREDICTED BY IDOCK:   -4.76 KCAL/MOL
REMARK 922        TOTAL FREE ENERGY PREDICTED BY IDOCK:   -6.51 KCAL/MOL
REMARK 923 INTER-LIGAND FREE ENERGY PREDICTED BY IDOCK:   -5.47 KCAL/MOL
REMARK 924 INTRA-LIGAND FREE ENERGY PREDICTED BY IDOCK:   -1.04 KCAL/MOL
REMARK 927      BINDING AFFINITY PREDICTED BY RF-SCORE:    0.00 PKD
ROOT
HETATM    1  C   UNL     1     -11.271  12.868  68.410  1.00  0.00    -0.305 C  
HETATM    2  C   UNL     1     -11.164  11.837  69.549  1.00  0.00    -0.265 C  
HETATM    3  C   UNL     1     -10.981  10.384  68.997  1.00  0.00    -0.282 C  
HETATM    4  C   UNL     1     -12.384  12.023  70.456  1.00  0.00    -0.369 C  
HETATM    5  C   UNL     1      -9.664  10.241  68.190  1.00  0.00    -0.158 C  
HETATM    6  C   UNL     1      -8.423  10.389  69.073  1.00  0.00    -0.155 C  
HETATM    7  C   UNL     1      -8.418   9.467  70.303  1.00  0.00    -0.237 C  
HETATM    8  C   UNL     1      -7.856   8.087  69.953  1.00  0.00    -0.102 C  
HETATM    9  C   UNL     1      -9.786   9.373  71.003  1.00  0.00    -0.293 C  
HETATM   10  C   UNL     1     -10.991   9.251  70.064  1.00  0.00    -0.229 C  
ENDROOT
BRANCH  10  11
HETATM   11  O   UNL     1     -10.990   8.012  69.309  1.00  0.00    -0.116 OA 
BRANCH  11  12
HETATM   12  C   UNL     1     -11.435   6.853  69.863  1.00  0.00    -0.242 C  
HETATM   13  O   UNL     1     -12.298   6.736  70.718  1.00  0.00    -0.377 OA 
BRANCH  12  14
HETATM   14  C   UNL     1     -10.701   5.724  69.221  1.00  0.00    -0.386 A  
HETATM   15  C   UNL     1     -10.007   4.816  70.046  1.00  0.00    -0.314 A  
HETATM   16  C   UNL     1      -9.287   3.755  69.496  1.00  0.00    -0.249 A  
HETATM   17  C   UNL     1      -9.266   3.584  68.114  1.00  0.00    -0.228 A  
HETATM   18  C   UNL     1      -9.947   4.484  67.290  1.00  0.00    -0.187 A  
HETATM   19  C   UNL     1     -10.632   5.593  67.820  1.00  0.00    -0.200 A  
HETATM   20  N   UNL     1     -11.405   6.371  66.937  1.00  0.00    -0.774 NA 
HETATM   21  H2  UNL     1     -11.229   7.351  67.161  1.00  0.00     0.000 HD 
HETATM   22  H1  UNL     1     -11.355   6.276  65.923  1.00  0.00     0.000 HD 
ENDBRANCH  12  14
ENDBRANCH  11  12
ENDBRANCH  10  11
TORSDOF 3
ENDMDL
MODEL       86
REMARK 921   NORMALIZED FREE ENERGY PREDICTED BY IDOCK:   -4.76 KCAL/MOL
REMARK 922        TOTAL FREE ENERGY PREDICTED BY IDOCK:   -6.51 KCAL/MOL
REMARK 923 INTER-LIGAND FREE ENERGY PREDICTED BY IDOCK:   -5.68 KCAL/MOL
REMARK 924 INTRA-LIGAND FREE ENERGY PREDICTED BY IDOCK:   -0.83 KCAL/MOL
REMARK 927      BINDING AFFINITY PREDICTED BY RF-SCORE:    0.00 PKD
ROOT
HETATM    1  C   UNL     1     -11.036  12.243  65.250  1.00  0.00    -0.359 C  
HETATM    2  C   UNL     1      -9.867  11.966  66.213  1.00  0.00    -0.246 C  
HETATM    3  C   UNL     1     -10.175  10.761  67.162  1.00  0.00    -0.255 C  
HETATM    4  C   UNL     1      -9.544  13.278  66.936  1.00  0.00    -0.249 C  
HETATM    5  C   UNL     1     -10.371   9.443  66.366  1.00  0.00    -0.237 C  
HETATM    6  C   UNL     1      -9.080   8.976  65.691  1.00  0.00    -0.278 C  
HETATM    7  C   UNL     1      -7.878   8.870  66.643  1.00  0.00    -0.100 C  
HETATM    8  C   UNL     1      -7.856   7.513  67.351  1.00  0.00    -0.118 C  
HETATM    9  C   UNL     1      -7.779  10.042  67.636  1.00  0.00    -0.091 C  
HETATM   10  C   UNL     1      -9.109  10.479  68.261  1.00  0.00    -0.146 C  
ENDROOT
BRANCH  10  11
HETATM   11  O   UNL     1      -9.693   9.456  69.109  1.00  0.00    -0.157 OA 
BRANCH  11  12
HETATM   12  C   UNL     1      -9.564   9.509  70.462  1.00  0.00    -0.251 C  
HETATM   13  O   UNL     1      -8.523   9.584  71.094  1.00  0.00    -0.278 OA 
BRANCH  12  14
HETATM   14  C   UNL     1     -10.932   9.488  71.056  1.00  0.00    -0.424 A  
HETATM   15  C   UNL     1     -11.370   8.314  71.700  1.00  0.00    -0.329 A  
HETATM   16  C   UNL     1     -12.648   8.234  72.254  1.00  0.00    -0.357 A  
HETATM   17  C   UNL     1     -13.497   9.336  72.180  1.00  0.00    -0.539 A  
HETATM   18  C   UNL     1     -13.072  10.501  71.537  1.00  0.00    -0.532 A  
HETATM   19  C   UNL     1     -11.809  10.584  70.923  1.00  0.00    -0.355 A  
HETATM   20  N   UNL     1     -11.403  11.834  70.417  1.00  0.00    -0.378 NA 
HETATM   21  H2  UNL     1     -10.978  11.671  69.504  1.00  0.00     0.000 HD 
HETATM   22  H1  UNL     1     -12.038  12.627  70.321  1.00  0.00     0.000 HD 
ENDBRANCH  12  14
ENDBRANCH  11  12
ENDBRANCH  10  11
TORSDOF 3
ENDMDL
MODEL       87
REMARK 921   NORMALIZED FREE ENERGY PREDICTED BY IDOCK:   -4.75 KCAL/MOL
REMARK 922        TOTAL FREE ENERGY PREDICTED BY IDOCK:   -6.50 KCAL/MOL
REMARK 923 INTER-LIGAND FREE ENERGY PREDICTED BY IDOCK:   -5.45 KCAL/MOL
REMARK 924 INTRA-LIGAND FREE ENERGY PREDICTED BY IDOCK:   -1.05 KCAL/MOL
REMARK 927      BINDING AFFINITY PREDICTED BY RF-SCORE:    0.00 PKD
ROOT
HETATM    1  C   UNL     1      -9.765   2.321  71.240  1.00  0.00    -0.201 C  
HETATM    2  C   UNL     1      -9.051   3.641  70.896  1.00  0.00    -0.180 C  
HETATM    3  C   UNL     1     -10.009   4.869  71.044  1.00  0.00    -0.282 C  
HETATM    4  C   UNL     1      -8.432   3.481  69.504  1.00  0.00    -0.095 C  
HETATM    5  C   UNL     1     -10.500   5.038  72.506  1.00  0.00    -0.270 C  
HETATM    6  C   UNL     1      -9.366   5.421  73.459  1.00  0.00    -0.134 C  
HETATM    7  C   UNL     1      -8.555   6.646  73.006  1.00  0.00    -0.125 C  
HETATM    8  C   UNL     1      -9.218   7.945  73.468  1.00  0.00    -0.340 C  
HETATM    9  C   UNL     1      -8.252   6.656  71.497  1.00  0.00    -0.112 C  
HETATM   10  C   UNL     1      -9.421   6.240  70.596  1.00  0.00    -0.168 C  
ENDROOT
BRANCH  10  11
HETATM   11  O   UNL     1     -10.532   7.172  70.654  1.00  0.00    -0.207 OA 
BRANCH  11  12
HETATM   12  C   UNL     1     -10.573   8.266  69.847  1.00  0.00    -0.232 C  
HETATM   13  O   UNL     1     -10.029   8.393  68.763  1.00  0.00    -0.176 OA 
BRANCH  12  14
HETATM   14  C   UNL     1     -11.431   9.292  70.506  1.00  0.00    -0.296 A  
HETATM   15  C   UNL     1     -12.395   8.867  71.442  1.00  0.00    -0.368 A  
HETATM   16  C   UNL     1     -13.237   9.783  72.070  1.00  0.00    -0.557 A  
HETATM   17  C   UNL     1     -13.115  11.140  71.777  1.00  0.00    -0.536 A  
HETATM   18  C   UNL     1     -12.166  11.568  70.845  1.00  0.00    -0.425 A  
HETATM   19  C   UNL     1     -11.345  10.656  70.159  1.00  0.00    -0.323 A  
HETATM   20  N   UNL     1     -10.324  11.176  69.340  1.00  0.00    -0.425 NA 
HETATM   21  H2  UNL     1     -10.325  10.640  68.472  1.00  0.00     0.000 HD 
HETATM   22  H1  UNL     1     -10.261  12.163  69.090  1.00  0.00     0.000 HD 
ENDBRANCH  12  14
ENDBRANCH  11  12
ENDBRANCH  10  11
TORSDOF 3
ENDMDL
MODEL       88
REMARK 921   NORMALIZED FREE ENERGY PREDICTED BY IDOCK:   -4.74 KCAL/MOL
REMARK 922        TOTAL FREE ENERGY PREDICTED BY IDOCK:   -6.49 KCAL/MOL
REMARK 923 INTER-LIGAND FREE ENERGY PREDICTED BY IDOCK:   -5.54 KCAL/MOL
REMARK 924 INTRA-LIGAND FREE ENERGY PREDICTED BY IDOCK:   -0.95 KCAL/MOL
REMARK 927      BINDING AFFINITY PREDICTED BY RF-SCORE:    0.00 PKD
ROOT
HETATM    1  C   UNL     1      -9.669   6.187  71.462  1.00  0.00    -0.182 C  
HETATM    2  C   UNL     1     -10.438   6.390  70.144  1.00  0.00    -0.269 C  
HETATM    3  C   UNL     1      -9.755   7.468  69.238  1.00  0.00    -0.163 C  
HETATM    4  C   UNL     1     -11.897   6.693  70.502  1.00  0.00    -0.430 C  
HETATM    5  C   UNL     1      -8.326   7.037  68.816  1.00  0.00    -0.122 C  
HETATM    6  C   UNL     1      -8.336   5.822  67.886  1.00  0.00    -0.104 C  
HETATM    7  C   UNL     1      -9.248   5.982  66.659  1.00  0.00    -0.151 C  
HETATM    8  C   UNL     1      -8.516   6.695  65.520  1.00  0.00    -0.135 C  
HETATM    9  C   UNL     1     -10.599   6.645  66.982  1.00  0.00    -0.404 C  
HETATM   10  C   UNL     1     -10.525   7.841  67.937  1.00  0.00    -0.201 C  
ENDROOT
BRANCH  10  11
HETATM   11  O   UNL     1      -9.802   8.966  67.372  1.00  0.00    -0.169 OA 
BRANCH  11  12
HETATM   12  C   UNL     1     -10.304  10.227  67.439  1.00  0.00    -0.233 C  
HETATM   13  O   UNL     1     -10.587  10.848  68.451  1.00  0.00    -0.174 OA 
BRANCH  12  14
HETATM   14  C   UNL     1     -10.428  10.749  66.047  1.00  0.00    -0.273 A  
HETATM   15  C   UNL     1      -9.668  10.140  65.028  1.00  0.00    -0.384 A  
HETATM   16  C   UNL     1      -9.730  10.602  63.714  1.00  0.00    -0.382 A  
HETATM   17  C   UNL     1     -10.565  11.673  63.403  1.00  0.00    -0.472 A  
HETATM   18  C   UNL     1     -11.316  12.286  64.409  1.00  0.00    -0.396 A  
HETATM   19  C   UNL     1     -11.225  11.872  65.750  1.00  0.00    -0.312 A  
HETATM   20  N   UNL     1     -12.114  12.448  66.678  1.00  0.00    -0.584 NA 
HETATM   21  H2  UNL     1     -11.579  12.668  67.518  1.00  0.00     0.000 HD 
HETATM   22  H1  UNL     1     -12.692  13.261  66.463  1.00  0.00     0.000 HD 
ENDBRANCH  12  14
ENDBRANCH  11  12
ENDBRANCH  10  11
TORSDOF 3
ENDMDL
MODEL       89
REMARK 921   NORMALIZED FREE ENERGY PREDICTED BY IDOCK:   -4.74 KCAL/MOL
REMARK 922        TOTAL FREE ENERGY PREDICTED BY IDOCK:   -6.49 KCAL/MOL
REMARK 923 INTER-LIGAND FREE ENERGY PREDICTED BY IDOCK:   -5.56 KCAL/MOL
REMARK 924 INTRA-LIGAND FREE ENERGY PREDICTED BY IDOCK:   -0.93 KCAL/MOL
REMARK 927      BINDING AFFINITY PREDICTED BY RF-SCORE:    0.00 PKD
ROOT
HETATM    1  C   UNL     1      -8.243  17.826  68.868  1.00  0.00    -0.147 C  
HETATM    2  C   UNL     1      -8.357  16.594  67.952  1.00  0.00    -0.187 C  
HETATM    3  C   UNL     1      -9.836  16.098  67.834  1.00  0.00    -0.235 C  
HETATM    4  C   UNL     1      -7.373  15.540  68.471  1.00  0.00    -0.120 C  
HETATM    5  C   UNL     1     -10.750  17.173  67.189  1.00  0.00    -0.177 C  
HETATM    6  C   UNL     1     -10.398  17.430  65.722  1.00  0.00    -0.226 C  
HETATM    7  C   UNL     1     -10.350  16.159  64.859  1.00  0.00     0.080 C  
HETATM    8  C   UNL     1     -11.742  15.798  64.336  1.00  0.00    -0.201 C  
HETATM    9  C   UNL     1      -9.669  14.969  65.558  1.00  0.00    -0.294 C  
HETATM   10  C   UNL     1     -10.043  14.779  67.033  1.00  0.00    -0.245 C  
ENDROOT
BRANCH  10  11
HETATM   11  O   UNL     1     -11.442  14.434  67.215  1.00  0.00    -0.326 OA 
BRANCH  11  12
HETATM   12  C   UNL     1     -11.848  13.137  67.227  1.00  0.00    -0.367 C  
HETATM   13  O   UNL     1     -12.019  12.416  66.257  1.00  0.00    -0.553 OA 
BRANCH  12  14
HETATM   14  C   UNL     1     -12.026  12.723  68.649  1.00  0.00    -0.272 A  
HETATM   15  C   UNL     1     -12.363  13.706  69.601  1.00  0.00    -0.257 A  
HETATM   16  C   UNL     1     -12.520  13.376  70.947  1.00  0.00    -0.439 A  
HETATM   17  C   UNL     1     -12.355  12.054  71.353  1.00  0.00    -0.093 A  
HETATM   18  C   UNL     1     -12.015  11.075  70.415  1.00  0.00    -0.459 A  
HETATM   19  C   UNL     1     -11.796  11.395  69.063  1.00  0.00    -0.348 A  
HETATM   20  N   UNL     1     -11.592  10.334  68.160  1.00  0.00    -0.696 NA 
HETATM   21  H2  UNL     1     -10.822  10.600  67.545  1.00  0.00     0.000 HD 
HETATM   22  H1  UNL     1     -11.426   9.373  68.460  1.00  0.00     0.000 HD 
ENDBRANCH  12  14
ENDBRANCH  11  12
ENDBRANCH  10  11
TORSDOF 3
ENDMDL
MODEL       90
REMARK 921   NORMALIZED FREE ENERGY PREDICTED BY IDOCK:   -4.73 KCAL/MOL
REMARK 922        TOTAL FREE ENERGY PREDICTED BY IDOCK:   -6.48 KCAL/MOL
REMARK 923 INTER-LIGAND FREE ENERGY PREDICTED BY IDOCK:   -5.57 KCAL/MOL
REMARK 924 INTRA-LIGAND FREE ENERGY PREDICTED BY IDOCK:   -0.90 KCAL/MOL
REMARK 927      BINDING AFFINITY PREDICTED BY RF-SCORE:    0.00 PKD
ROOT
HETATM    1  C   UNL     1      -8.844  16.839  66.333  1.00  0.00    -0.331 C  
HETATM    2  C   UNL     1     -10.141  16.011  66.264  1.00  0.00    -0.329 C  
HETATM    3  C   UNL     1      -9.847  14.475  66.303  1.00  0.00    -0.322 C  
HETATM    4  C   UNL     1     -10.921  16.479  65.031  1.00  0.00    -0.222 C  
HETATM    5  C   UNL     1      -9.165  14.057  67.632  1.00  0.00    -0.194 C  
HETATM    6  C   UNL     1     -10.094  14.219  68.837  1.00  0.00    -0.179 C  
HETATM    7  C   UNL     1     -11.456  13.524  68.675  1.00  0.00    -0.343 C  
HETATM    8  C   UNL     1     -11.374  12.053  69.088  1.00  0.00    -0.338 C  
HETATM    9  C   UNL     1     -12.068  13.697  67.273  1.00  0.00    -0.385 C  
HETATM   10  C   UNL     1     -11.082  13.548  66.109  1.00  0.00    -0.291 C  
ENDROOT
BRANCH  10  11
HETATM   11  O   UNL     1     -10.541  12.205  66.002  1.00  0.00    -0.243 OA 
BRANCH  11  12
HETATM   12  C   UNL     1     -10.592  11.519  64.829  1.00  0.00    -0.305 C  
HETATM   13  O   UNL     1     -11.166  11.862  63.808  1.00  0.00    -0.375 OA 
BRANCH  12  14
HETATM   14  C   UNL     1      -9.792  10.271  64.989  1.00  0.00    -0.397 A  
HETATM   15  C   UNL     1      -9.885   9.562  66.204  1.00  0.00    -0.343 A  
HETATM   16  C   UNL     1      -9.142   8.400  66.414  1.00  0.00    -0.231 A  
HETATM   17  C   UNL     1      -8.307   7.928  65.404  1.00  0.00    -0.146 A  
HETATM   18  C   UNL     1      -8.204   8.630  64.200  1.00  0.00    -0.156 A  
HETATM   19  C   UNL     1      -8.901   9.834  63.988  1.00  0.00    -0.231 A  
HETATM   20  N   UNL     1      -8.852  10.405  62.702  1.00  0.00    -0.214 NA 
HETATM   21  H2  UNL     1      -8.711  11.409  62.819  1.00  0.00     0.000 HD 
HETATM   22  H1  UNL     1      -8.208  10.089  61.978  1.00  0.00     0.000 HD 
ENDBRANCH  12  14
ENDBRANCH  11  12
ENDBRANCH  10  11
TORSDOF 3
ENDMDL
MODEL       91
REMARK 921   NORMALIZED FREE ENERGY PREDICTED BY IDOCK:   -4.71 KCAL/MOL
REMARK 922        TOTAL FREE ENERGY PREDICTED BY IDOCK:   -6.45 KCAL/MOL
REMARK 923 INTER-LIGAND FREE ENERGY PREDICTED BY IDOCK:   -5.49 KCAL/MOL
REMARK 924 INTRA-LIGAND FREE ENERGY PREDICTED BY IDOCK:   -0.96 KCAL/MOL
REMARK 927      BINDING AFFINITY PREDICTED BY RF-SCORE:    0.00 PKD
ROOT
HETATM    1  C   UNL     1      -6.456   8.263  68.788  1.00  0.00    -0.053 C  
HETATM    2  C   UNL     1      -7.366   8.896  69.858  1.00  0.00    -0.054 C  
HETATM    3  C   UNL     1      -8.861   8.926  69.399  1.00  0.00    -0.143 C  
HETATM    4  C   UNL     1      -6.780  10.267  70.208  1.00  0.00    -0.143 C  
HETATM    5  C   UNL     1      -9.420   7.496  69.179  1.00  0.00    -0.150 C  
HETATM    6  C   UNL     1      -9.520   6.705  70.485  1.00  0.00    -0.171 C  
HETATM    7  C   UNL     1     -10.289   7.432  71.600  1.00  0.00    -0.215 C  
HETATM    8  C   UNL     1     -11.795   7.186  71.478  1.00  0.00    -0.348 C  
HETATM    9  C   UNL     1      -9.955   8.931  71.698  1.00  0.00    -0.397 C  
HETATM   10  C   UNL     1      -9.845   9.662  70.355  1.00  0.00    -0.256 C  
ENDROOT
BRANCH  10  11
HETATM   11  O   UNL     1     -11.108   9.715  69.641  1.00  0.00    -0.236 OA 
BRANCH  11  12
HETATM   12  C   UNL     1     -12.052  10.641  69.953  1.00  0.00    -0.299 C  
HETATM   13  O   UNL     1     -12.878  10.569  70.848  1.00  0.00    -0.363 OA 
BRANCH  12  14
HETATM   14  C   UNL     1     -11.891  11.795  69.022  1.00  0.00    -0.379 A  
HETATM   15  C   UNL     1     -11.785  11.538  67.640  1.00  0.00    -0.283 A  
HETATM   16  C   UNL     1     -11.612  12.579  66.728  1.00  0.00    -0.446 A  
HETATM   17  C   UNL     1     -11.556  13.892  67.190  1.00  0.00    -0.391 A  
HETATM   18  C   UNL     1     -11.653  14.154  68.559  1.00  0.00    -0.351 A  
HETATM   19  C   UNL     1     -11.771  13.116  69.500  1.00  0.00    -0.319 A  
HETATM   20  N   UNL     1     -12.002  13.469  70.844  1.00  0.00    -0.493 NA 
HETATM   21  H2  UNL     1     -11.402  12.879  71.422  1.00  0.00     0.000 HD 
HETATM   22  H1  UNL     1     -11.916  14.424  71.190  1.00  0.00     0.000 HD 
ENDBRANCH  12  14
ENDBRANCH  11  12
ENDBRANCH  10  11
TORSDOF 3
ENDMDL
MODEL       92
REMARK 921   NORMALIZED FREE ENERGY PREDICTED BY IDOCK:   -4.69 KCAL/MOL
REMARK 922        TOTAL FREE ENERGY PREDICTED BY IDOCK:   -6.43 KCAL/MOL
REMARK 923 INTER-LIGAND FREE ENERGY PREDICTED BY IDOCK:   -5.55 KCAL/MOL
REMARK 924 INTRA-LIGAND FREE ENERGY PREDICTED BY IDOCK:   -0.88 KCAL/MOL
REMARK 927      BINDING AFFINITY PREDICTED BY RF-SCORE:    0.00 PKD
ROOT
HETATM    1  C   UNL     1      -9.545   7.016  70.878  1.00  0.00    -0.167 C  
HETATM    2  C   UNL     1      -9.827   7.221  69.378  1.00  0.00    -0.163 C  
HETATM    3  C   UNL     1      -9.756   8.733  68.980  1.00  0.00    -0.172 C  
HETATM    4  C   UNL     1     -11.165   6.544  69.064  1.00  0.00    -0.354 C  
HETATM    5  C   UNL     1      -8.338   9.318  69.213  1.00  0.00    -0.124 C  
HETATM    6  C   UNL     1      -7.296   8.707  68.275  1.00  0.00    -0.087 C  
HETATM    7  C   UNL     1      -7.680   8.771  66.787  1.00  0.00    -0.094 C  
HETATM    8  C   UNL     1      -7.271  10.111  66.172  1.00  0.00    -0.115 C  
HETATM    9  C   UNL     1      -9.160   8.441  66.522  1.00  0.00    -0.217 C  
HETATM   10  C   UNL     1     -10.153   9.062  67.511  1.00  0.00    -0.228 C  
ENDROOT
BRANCH  10  11
HETATM   11  O   UNL     1     -10.183  10.512  67.437  1.00  0.00    -0.191 OA 
BRANCH  11  12
HETATM   12  C   UNL     1     -11.356  11.194  67.525  1.00  0.00    -0.278 C  
HETATM   13  O   UNL     1     -12.172  11.129  68.430  1.00  0.00    -0.610 OA 
BRANCH  12  14
HETATM   14  C   UNL     1     -11.470  12.072  66.325  1.00  0.00    -0.408 A  
HETATM   15  C   UNL     1     -11.206  11.518  65.057  1.00  0.00    -0.226 A  
HETATM   16  C   UNL     1     -11.278  12.300  63.904  1.00  0.00    -0.488 A  
HETATM   17  C   UNL     1     -11.627  13.645  64.009  1.00  0.00    -0.353 A  
HETATM   18  C   UNL     1     -11.883  14.202  65.264  1.00  0.00    -0.367 A  
HETATM   19  C   UNL     1     -11.762  13.446  66.444  1.00  0.00    -0.368 A  
HETATM   20  N   UNL     1     -12.169  14.042  67.653  1.00  0.00    -0.535 NA 
HETATM   21  H2  UNL     1     -11.465  13.818  68.356  1.00  0.00     0.000 HD 
HETATM   22  H1  UNL     1     -12.381  15.036  67.738  1.00  0.00     0.000 HD 
ENDBRANCH  12  14
ENDBRANCH  11  12
ENDBRANCH  10  11
TORSDOF 3
ENDMDL
MODEL       93
REMARK 921   NORMALIZED FREE ENERGY PREDICTED BY IDOCK:   -4.67 KCAL/MOL
REMARK 922        TOTAL FREE ENERGY PREDICTED BY IDOCK:   -6.41 KCAL/MOL
REMARK 923 INTER-LIGAND FREE ENERGY PREDICTED BY IDOCK:   -5.44 KCAL/MOL
REMARK 924 INTRA-LIGAND FREE ENERGY PREDICTED BY IDOCK:   -0.96 KCAL/MOL
REMARK 927      BINDING AFFINITY PREDICTED BY RF-SCORE:    0.00 PKD
ROOT
HETATM    1  C   UNL     1     -11.382  15.621  68.537  1.00  0.00    -0.361 C  
HETATM    2  C   UNL     1     -10.589  15.005  67.370  1.00  0.00    -0.271 C  
HETATM    3  C   UNL     1     -11.018  13.524  67.099  1.00  0.00    -0.302 C  
HETATM    4  C   UNL     1      -9.100  15.189  67.676  1.00  0.00    -0.181 C  
HETATM    5  C   UNL     1     -12.508  13.429  66.678  1.00  0.00    -0.212 C  
HETATM    6  C   UNL     1     -12.768  14.074  65.315  1.00  0.00    -0.468 C  
HETATM    7  C   UNL     1     -11.845  13.565  64.196  1.00  0.00    -0.483 C  
HETATM    8  C   UNL     1     -12.404  12.288  63.562  1.00  0.00    -0.670 C  
HETATM    9  C   UNL     1     -10.381  13.398  64.638  1.00  0.00    -0.400 C  
HETATM   10  C   UNL     1     -10.186  12.768  66.022  1.00  0.00    -0.278 C  
ENDROOT
BRANCH  10  11
HETATM   11  O   UNL     1     -10.644  11.392  66.080  1.00  0.00    -0.251 OA 
BRANCH  11  12
HETATM   12  C   UNL     1      -9.934  10.445  66.749  1.00  0.00    -0.206 C  
HETATM   13  O   UNL     1     -10.283   9.844  67.752  1.00  0.00    -0.173 OA 
BRANCH  12  14
HETATM   14  C   UNL     1      -8.646  10.236  66.026  1.00  0.00    -0.153 A  
HETATM   15  C   UNL     1      -7.440  10.405  66.735  1.00  0.00    -0.110 A  
HETATM   16  C   UNL     1      -6.208  10.243  66.101  1.00  0.00    -0.089 A  
HETATM   17  C   UNL     1      -6.171   9.897  64.752  1.00  0.00    -0.107 A  
HETATM   18  C   UNL     1      -7.363   9.735  64.042  1.00  0.00    -0.128 A  
HETATM   19  C   UNL     1      -8.615   9.948  64.647  1.00  0.00    -0.182 A  
HETATM   20  N   UNL     1      -9.768   9.631  63.903  1.00  0.00    -0.417 NA 
HETATM   21  H2  UNL     1     -10.439  10.388  64.041  1.00  0.00     0.000 HD 
HETATM   22  H1  UNL     1      -9.745   9.422  62.905  1.00  0.00     0.000 HD 
ENDBRANCH  12  14
ENDBRANCH  11  12
ENDBRANCH  10  11
TORSDOF 3
ENDMDL
MODEL       94
REMARK 921   NORMALIZED FREE ENERGY PREDICTED BY IDOCK:   -4.65 KCAL/MOL
REMARK 922        TOTAL FREE ENERGY PREDICTED BY IDOCK:   -6.38 KCAL/MOL
REMARK 923 INTER-LIGAND FREE ENERGY PREDICTED BY IDOCK:   -5.45 KCAL/MOL
REMARK 924 INTRA-LIGAND FREE ENERGY PREDICTED BY IDOCK:   -0.93 KCAL/MOL
REMARK 927      BINDING AFFINITY PREDICTED BY RF-SCORE:    0.00 PKD
ROOT
HETATM    1  C   UNL     1     -12.794  11.029  70.870  1.00  0.00    -0.393 C  
HETATM    2  C   UNL     1     -11.378  10.911  70.277  1.00  0.00    -0.342 C  
HETATM    3  C   UNL     1     -11.408  10.898  68.712  1.00  0.00    -0.357 C  
HETATM    4  C   UNL     1     -10.713   9.685  70.910  1.00  0.00    -0.402 C  
HETATM    5  C   UNL     1     -11.982  12.221  68.141  1.00  0.00    -0.256 C  
HETATM    6  C   UNL     1     -11.069  13.417  68.417  1.00  0.00    -0.301 C  
HETATM    7  C   UNL     1      -9.614  13.210  67.969  1.00  0.00    -0.220 C  
HETATM    8  C   UNL     1      -9.438  13.571  66.492  1.00  0.00    -0.265 C  
HETATM    9  C   UNL     1      -9.068  11.807  68.289  1.00  0.00    -0.187 C  
HETATM   10  C   UNL     1     -10.038  10.653  68.014  1.00  0.00    -0.157 C  
ENDROOT
BRANCH  10  11
HETATM   11  O   UNL     1     -10.347  10.505  66.603  1.00  0.00    -0.228 OA 
BRANCH  11  12
HETATM   12  C   UNL     1      -9.993   9.383  65.922  1.00  0.00    -0.256 C  
HETATM   13  O   UNL     1     -10.266   8.232  66.219  1.00  0.00    -0.189 OA 
BRANCH  12  14
HETATM   14  C   UNL     1      -9.227   9.801  64.712  1.00  0.00    -0.319 A  
HETATM   15  C   UNL     1      -7.948   9.248  64.500  1.00  0.00    -0.128 A  
HETATM   16  C   UNL     1      -7.181   9.620  63.396  1.00  0.00    -0.113 A  
HETATM   17  C   UNL     1      -7.692  10.542  62.486  1.00  0.00    -0.170 A  
HETATM   18  C   UNL     1      -8.956  11.099  62.693  1.00  0.00    -0.347 A  
HETATM   19  C   UNL     1      -9.723  10.781  63.829  1.00  0.00    -0.321 A  
HETATM   20  N   UNL     1     -11.039  11.277  63.894  1.00  0.00    -0.498 NA 
HETATM   21  H2  UNL     1     -11.189  11.619  64.844  1.00  0.00     0.000 HD 
HETATM   22  H1  UNL     1     -11.398  11.986  63.254  1.00  0.00     0.000 HD 
ENDBRANCH  12  14
ENDBRANCH  11  12
ENDBRANCH  10  11
TORSDOF 3
ENDMDL
MODEL       95
REMARK 921   NORMALIZED FREE ENERGY PREDICTED BY IDOCK:   -4.64 KCAL/MOL
REMARK 922        TOTAL FREE ENERGY PREDICTED BY IDOCK:   -6.36 KCAL/MOL
REMARK 923 INTER-LIGAND FREE ENERGY PREDICTED BY IDOCK:   -5.53 KCAL/MOL
REMARK 924 INTRA-LIGAND FREE ENERGY PREDICTED BY IDOCK:   -0.83 KCAL/MOL
REMARK 927      BINDING AFFINITY PREDICTED BY RF-SCORE:    0.00 PKD
ROOT
HETATM    1  C   UNL     1      -9.063  16.588  66.211  1.00  0.00    -0.348 C  
HETATM    2  C   UNL     1     -10.262  15.623  66.243  1.00  0.00    -0.312 C  
HETATM    3  C   UNL     1      -9.923  14.306  67.015  1.00  0.00    -0.258 C  
HETATM    4  C   UNL     1     -10.723  15.412  64.797  1.00  0.00    -0.339 C  
HETATM    5  C   UNL     1      -9.584  14.586  68.503  1.00  0.00    -0.220 C  
HETATM    6  C   UNL     1     -10.794  15.095  69.288  1.00  0.00    -0.255 C  
HETATM    7  C   UNL     1     -12.039  14.201  69.166  1.00  0.00    -0.362 C  
HETATM    8  C   UNL     1     -12.002  13.066  70.193  1.00  0.00    -0.374 C  
HETATM    9  C   UNL     1     -12.282  13.681  67.738  1.00  0.00    -0.201 C  
HETATM   10  C   UNL     1     -11.027  13.209  66.995  1.00  0.00    -0.269 C  
ENDROOT
BRANCH  10  11
HETATM   11  O   UNL     1     -10.420  12.041  67.607  1.00  0.00    -0.200 OA 
BRANCH  11  12
HETATM   12  C   UNL     1     -10.249  10.890  66.904  1.00  0.00    -0.228 C  
HETATM   13  O   UNL     1      -9.949  10.792  65.725  1.00  0.00    -0.228 OA 
BRANCH  12  14
HETATM   14  C   UNL     1     -10.466   9.744  67.834  1.00  0.00    -0.288 A  
HETATM   15  C   UNL     1     -10.840  10.018  69.165  1.00  0.00    -0.253 A  
HETATM   16  C   UNL     1     -11.035   8.985  70.082  1.00  0.00    -0.256 A  
HETATM   17  C   UNL     1     -10.870   7.664  69.671  1.00  0.00    -0.195 A  
HETATM   18  C   UNL     1     -10.493   7.386  68.355  1.00  0.00    -0.220 A  
HETATM   19  C   UNL     1     -10.237   8.414  67.430  1.00  0.00    -0.260 A  
HETATM   20  N   UNL     1      -9.997   8.050  66.091  1.00  0.00    -0.466 NA 
HETATM   21  H2  UNL     1      -9.211   8.610  65.758  1.00  0.00     0.000 HD 
HETATM   22  H1  UNL     1      -9.831   7.087  65.798  1.00  0.00     0.000 HD 
ENDBRANCH  12  14
ENDBRANCH  11  12
ENDBRANCH  10  11
TORSDOF 3
ENDMDL
MODEL       96
REMARK 921   NORMALIZED FREE ENERGY PREDICTED BY IDOCK:   -4.64 KCAL/MOL
REMARK 922        TOTAL FREE ENERGY PREDICTED BY IDOCK:   -6.36 KCAL/MOL
REMARK 923 INTER-LIGAND FREE ENERGY PREDICTED BY IDOCK:   -5.47 KCAL/MOL
REMARK 924 INTRA-LIGAND FREE ENERGY PREDICTED BY IDOCK:   -0.89 KCAL/MOL
REMARK 927      BINDING AFFINITY PREDICTED BY RF-SCORE:    0.00 PKD
ROOT
HETATM    1  C   UNL     1     -11.671   6.699  70.834  1.00  0.00    -0.431 C  
HETATM    2  C   UNL     1     -10.598   7.035  69.782  1.00  0.00    -0.253 C  
HETATM    3  C   UNL     1     -10.481   8.578  69.550  1.00  0.00    -0.222 C  
HETATM    4  C   UNL     1     -10.918   6.225  68.521  1.00  0.00    -0.421 C  
HETATM    5  C   UNL     1     -10.037   9.318  70.839  1.00  0.00    -0.373 C  
HETATM    6  C   UNL     1      -8.605   8.963  71.248  1.00  0.00    -0.259 C  
HETATM    7  C   UNL     1      -7.571   9.144  70.125  1.00  0.00    -0.093 C  
HETATM    8  C   UNL     1      -7.068  10.589  70.069  1.00  0.00    -0.133 C  
HETATM    9  C   UNL     1      -8.065   8.651  68.752  1.00  0.00    -0.116 C  
HETATM   10  C   UNL     1      -9.514   9.017  68.412  1.00  0.00    -0.146 C  
ENDROOT
BRANCH  10  11
HETATM   11  O   UNL     1      -9.711  10.449  68.270  1.00  0.00    -0.146 OA 
BRANCH  11  12
HETATM   12  C   UNL     1     -10.069  10.992  67.077  1.00  0.00    -0.196 C  
HETATM   13  O   UNL     1     -10.055  10.439  65.989  1.00  0.00    -0.230 OA 
BRANCH  12  14
HETATM   14  C   UNL     1     -10.516  12.393  67.324  1.00  0.00    -0.237 A  
HETATM   15  C   UNL     1      -9.826  13.163  68.281  1.00  0.00    -0.227 A  
HETATM   16  C   UNL     1     -10.216  14.472  68.566  1.00  0.00    -0.240 A  
HETATM   17  C   UNL     1     -11.296  15.028  67.885  1.00  0.00    -0.344 A  
HETATM   18  C   UNL     1     -11.990  14.268  66.939  1.00  0.00    -0.467 A  
HETATM   19  C   UNL     1     -11.648  12.929  66.678  1.00  0.00    -0.372 A  
HETATM   20  N   UNL     1     -12.305  12.278  65.616  1.00  0.00    -0.563 NA 
HETATM   21  H2  UNL     1     -12.553  11.342  65.938  1.00  0.00     0.000 HD 
HETATM   22  H1  UNL     1     -13.124  12.666  65.148  1.00  0.00     0.000 HD 
ENDBRANCH  12  14
ENDBRANCH  11  12
ENDBRANCH  10  11
TORSDOF 3
ENDMDL
MODEL       97
REMARK 921   NORMALIZED FREE ENERGY PREDICTED BY IDOCK:   -4.62 KCAL/MOL
REMARK 922        TOTAL FREE ENERGY PREDICTED BY IDOCK:   -6.34 KCAL/MOL
REMARK 923 INTER-LIGAND FREE ENERGY PREDICTED BY IDOCK:   -5.56 KCAL/MOL
REMARK 924 INTRA-LIGAND FREE ENERGY PREDICTED BY IDOCK:   -0.79 KCAL/MOL
REMARK 927      BINDING AFFINITY PREDICTED BY RF-SCORE:    0.00 PKD
ROOT
HETATM    1  C   UNL     1     -10.412  11.073  65.704  1.00  0.00    -0.293 C  
HETATM    2  C   UNL     1     -10.248  12.590  65.914  1.00  0.00    -0.280 C  
HETATM    3  C   UNL     1     -10.414  12.985  67.418  1.00  0.00    -0.235 C  
HETATM    4  C   UNL     1     -11.219  13.295  64.960  1.00  0.00    -0.325 C  
HETATM    5  C   UNL     1      -9.323  12.329  68.305  1.00  0.00    -0.199 C  
HETATM    6  C   UNL     1      -7.925  12.871  68.001  1.00  0.00    -0.158 C  
HETATM    7  C   UNL     1      -7.825  14.405  68.049  1.00  0.00    -0.141 C  
HETATM    8  C   UNL     1      -7.572  14.894  69.477  1.00  0.00    -0.137 C  
HETATM    9  C   UNL     1      -9.024  15.117  67.397  1.00  0.00    -0.193 C  
HETATM   10  C   UNL     1     -10.395  14.512  67.720  1.00  0.00    -0.237 C  
ENDROOT
BRANCH  10  11
HETATM   11  O   UNL     1     -10.742  14.631  69.125  1.00  0.00    -0.245 OA 
BRANCH  11  12
HETATM   12  C   UNL     1     -11.270  15.780  69.622  1.00  0.00    -0.319 C  
HETATM   13  O   UNL     1     -11.283  16.872  69.078  1.00  0.00    -0.177 OA 
BRANCH  12  14
HETATM   14  C   UNL     1     -11.867  15.476  70.954  1.00  0.00    -0.413 A  
HETATM   15  C   UNL     1     -11.539  16.304  72.046  1.00  0.00    -0.427 A  
HETATM   16  C   UNL     1     -12.052  16.051  73.318  1.00  0.00    -0.605 A  
HETATM   17  C   UNL     1     -12.912  14.971  73.507  1.00  0.00    -0.564 A  
HETATM   18  C   UNL     1     -13.237  14.142  72.431  1.00  0.00    -0.566 A  
HETATM   19  C   UNL     1     -12.686  14.346  71.153  1.00  0.00    -0.352 A  
HETATM   20  N   UNL     1     -13.169  13.553  70.094  1.00  0.00     0.310 NA 
HETATM   21  H2  UNL     1     -12.363  13.252  69.545  1.00  0.00     0.000 HD 
HETATM   22  H1  UNL     1     -13.762  12.735  70.238  1.00  0.00     0.000 HD 
ENDBRANCH  12  14
ENDBRANCH  11  12
ENDBRANCH  10  11
TORSDOF 3
ENDMDL
MODEL       98
REMARK 921   NORMALIZED FREE ENERGY PREDICTED BY IDOCK:   -4.59 KCAL/MOL
REMARK 922        TOTAL FREE ENERGY PREDICTED BY IDOCK:   -6.31 KCAL/MOL
REMARK 923 INTER-LIGAND FREE ENERGY PREDICTED BY IDOCK:   -5.34 KCAL/MOL
REMARK 924 INTRA-LIGAND FREE ENERGY PREDICTED BY IDOCK:   -0.97 KCAL/MOL
REMARK 927      BINDING AFFINITY PREDICTED BY RF-SCORE:    0.00 PKD
ROOT
HETATM    1  C   UNL     1     -11.011  16.211  68.201  1.00  0.00    -0.341 C  
HETATM    2  C   UNL     1     -10.411  15.591  66.925  1.00  0.00    -0.290 C  
HETATM    3  C   UNL     1     -10.517  14.030  66.937  1.00  0.00    -0.276 C  
HETATM    4  C   UNL     1      -8.984  16.130  66.778  1.00  0.00    -0.270 C  
HETATM    5  C   UNL     1     -11.995  13.558  66.965  1.00  0.00    -0.440 C  
HETATM    6  C   UNL     1     -12.739  13.903  65.674  1.00  0.00    -0.534 C  
HETATM    7  C   UNL     1     -12.031  13.421  64.397  1.00  0.00    -0.460 C  
HETATM    8  C   UNL     1     -12.400  11.970  64.079  1.00  0.00    -0.504 C  
HETATM    9  C   UNL     1     -10.507  13.638  64.422  1.00  0.00    -0.322 C  
HETATM   10  C   UNL     1      -9.824  13.298  65.751  1.00  0.00    -0.197 C  
ENDROOT
BRANCH  10  11
HETATM   11  O   UNL     1      -9.900  11.885  66.075  1.00  0.00    -0.224 OA 
BRANCH  11  12
HETATM   12  C   UNL     1      -8.878  11.040  65.774  1.00  0.00    -0.191 C  
HETATM   13  O   UNL     1      -8.685  10.477  64.709  1.00  0.00    -0.182 OA 
BRANCH  12  14
HETATM   14  C   UNL     1      -7.998  10.935  66.974  1.00  0.00    -0.132 A  
HETATM   15  C   UNL     1      -8.583  10.601  68.212  1.00  0.00    -0.128 A  
HETATM   16  C   UNL     1      -7.810  10.510  69.369  1.00  0.00    -0.151 A  
HETATM   17  C   UNL     1      -6.438  10.742  69.297  1.00  0.00    -0.067 A  
HETATM   18  C   UNL     1      -5.853  11.080  68.074  1.00  0.00    -0.042 A  
HETATM   19  C   UNL     1      -6.622  11.232  66.907  1.00  0.00    -0.130 A  
HETATM   20  N   UNL     1      -5.941  11.439  65.692  1.00  0.00    -0.460 NA 
HETATM   21  H2  UNL     1      -6.436  12.173  65.185  1.00  0.00     0.000 HD 
HETATM   22  H1  UNL     1      -4.945  11.653  65.643  1.00  0.00     0.000 HD 
ENDBRANCH  12  14
ENDBRANCH  11  12
ENDBRANCH  10  11
TORSDOF 3
ENDMDL
MODEL       99
REMARK 921   NORMALIZED FREE ENERGY PREDICTED BY IDOCK:   -4.56 KCAL/MOL
REMARK 922        TOTAL FREE ENERGY PREDICTED BY IDOCK:   -6.28 KCAL/MOL
REMARK 923 INTER-LIGAND FREE ENERGY PREDICTED BY IDOCK:   -5.57 KCAL/MOL
REMARK 924 INTRA-LIGAND FREE ENERGY PREDICTED BY IDOCK:   -0.71 KCAL/MOL
REMARK 927      BINDING AFFINITY PREDICTED BY RF-SCORE:    0.00 PKD
ROOT
HETATM    1  C   UNL     1      -6.188  14.709  70.291  1.00  0.00    -0.173 C  
HETATM    2  C   UNL     1      -6.610  14.786  68.812  1.00  0.00    -0.088 C  
HETATM    3  C   UNL     1      -8.147  14.552  68.637  1.00  0.00    -0.150 C  
HETATM    4  C   UNL     1      -5.725  13.809  68.029  1.00  0.00    -0.132 C  
HETATM    5  C   UNL     1      -8.976  15.648  69.356  1.00  0.00    -0.265 C  
HETATM    6  C   UNL     1      -8.804  17.024  68.710  1.00  0.00    -0.244 C  
HETATM    7  C   UNL     1      -9.064  17.041  67.195  1.00  0.00    -0.232 C  
HETATM    8  C   UNL     1     -10.554  17.222  66.897  1.00  0.00    -0.213 C  
HETATM    9  C   UNL     1      -8.471  15.827  66.458  1.00  0.00    -0.335 C  
HETATM   10  C   UNL     1      -8.655  14.481  67.167  1.00  0.00    -0.222 C  
ENDROOT
BRANCH  10  11
HETATM   11  O   UNL     1     -10.048  14.083  67.261  1.00  0.00    -0.244 OA 
BRANCH  11  12
HETATM   12  C   UNL     1     -10.406  12.772  67.243  1.00  0.00    -0.232 C  
HETATM   13  O   UNL     1     -10.310  11.977  68.163  1.00  0.00    -0.186 OA 
BRANCH  12  14
HETATM   14  C   UNL     1     -10.973  12.467  65.898  1.00  0.00    -0.314 A  
HETATM   15  C   UNL     1     -12.296  12.864  65.618  1.00  0.00    -0.482 A  
HETATM   16  C   UNL     1     -12.881  12.585  64.383  1.00  0.00    -0.366 A  
HETATM   17  C   UNL     1     -12.143  11.916  63.410  1.00  0.00    -0.539 A  
HETATM   18  C   UNL     1     -10.833  11.513  63.683  1.00  0.00    -0.488 A  
HETATM   19  C   UNL     1     -10.243  11.734  64.941  1.00  0.00    -0.273 A  
HETATM   20  N   UNL     1      -8.878  11.423  65.091  1.00  0.00    -0.394 NA 
HETATM   21  H2  UNL     1      -8.770  10.946  65.987  1.00  0.00     0.000 HD 
HETATM   22  H1  UNL     1      -8.350  10.892  64.398  1.00  0.00     0.000 HD 
ENDBRANCH  12  14
ENDBRANCH  11  12
ENDBRANCH  10  11
TORSDOF 3
ENDMDL
MODEL      100
REMARK 921   NORMALIZED FREE ENERGY PREDICTED BY IDOCK:   -4.56 KCAL/MOL
REMARK 922        TOTAL FREE ENERGY PREDICTED BY IDOCK:   -6.27 KCAL/MOL
REMARK 923 INTER-LIGAND FREE ENERGY PREDICTED BY IDOCK:   -5.32 KCAL/MOL
REMARK 924 INTRA-LIGAND FREE ENERGY PREDICTED BY IDOCK:   -0.95 KCAL/MOL
REMARK 927      BINDING AFFINITY PREDICTED BY RF-SCORE:    0.00 PKD
ROOT
HETATM    1  C   UNL     1     -13.018  13.800  65.601  1.00  0.00    -0.346 C  
HETATM    2  C   UNL     1     -11.673  13.052  65.586  1.00  0.00    -0.418 C  
HETATM    3  C   UNL     1     -10.835  13.345  66.874  1.00  0.00    -0.282 C  
HETATM    4  C   UNL     1     -10.965  13.404  64.273  1.00  0.00    -0.391 C  
HETATM    5  C   UNL     1     -11.562  12.852  68.153  1.00  0.00    -0.378 C  
HETATM    6  C   UNL     1     -11.676  11.327  68.205  1.00  0.00    -0.323 C  
HETATM    7  C   UNL     1     -10.338  10.593  68.015  1.00  0.00    -0.208 C  
HETATM    8  C   UNL     1      -9.591  10.462  69.344  1.00  0.00    -0.213 C  
HETATM    9  C   UNL     1      -9.455  11.206  66.913  1.00  0.00    -0.203 C  
HETATM   10  C   UNL     1      -9.401  12.738  66.898  1.00  0.00    -0.234 C  
ENDROOT
BRANCH  10  11
HETATM   11  O   UNL     1      -8.771  13.287  68.085  1.00  0.00    -0.169 OA 
BRANCH  11  12
HETATM   12  C   UNL     1      -7.774  14.206  67.987  1.00  0.00    -0.147 C  
HETATM   13  O   UNL     1      -6.582  13.979  67.858  1.00  0.00    -0.133 OA 
BRANCH  12  14
HETATM   14  C   UNL     1      -8.391  15.563  68.037  1.00  0.00    -0.142 A  
HETATM   15  C   UNL     1      -8.063  16.490  67.027  1.00  0.00    -0.235 A  
HETATM   16  C   UNL     1      -8.595  17.780  67.038  1.00  0.00    -0.248 A  
HETATM   17  C   UNL     1      -9.472  18.151  68.055  1.00  0.00    -0.290 A  
HETATM   18  C   UNL     1      -9.796  17.239  69.063  1.00  0.00    -0.237 A  
HETATM   19  C   UNL     1      -9.227  15.953  69.102  1.00  0.00    -0.253 A  
HETATM   20  N   UNL     1      -9.709  15.050  70.069  1.00  0.00    -0.470 NA 
HETATM   21  H2  UNL     1      -8.901  14.576  70.474  1.00  0.00     0.000 HD 
HETATM   22  H1  UNL     1     -10.315  15.332  70.840  1.00  0.00     0.000 HD 
ENDBRANCH  12  14
ENDBRANCH  11  12
ENDBRANCH  10  11
TORSDOF 3
ENDMDL
MODEL      101
REMARK 921   NORMALIZED FREE ENERGY PREDICTED BY IDOCK:   -4.55 KCAL/MOL
REMARK 922        TOTAL FREE ENERGY PREDICTED BY IDOCK:   -6.26 KCAL/MOL
REMARK 923 INTER-LIGAND FREE ENERGY PREDICTED BY IDOCK:   -5.48 KCAL/MOL
REMARK 924 INTRA-LIGAND FREE ENERGY PREDICTED BY IDOCK:   -0.78 KCAL/MOL
REMARK 927      BINDING AFFINITY PREDICTED BY RF-SCORE:    0.00 PKD
ROOT
HETATM    1  C   UNL     1     -12.580  12.455  69.588  1.00  0.00     0.333 C  
HETATM    2  C   UNL     1     -11.477  12.903  68.612  1.00  0.00    -0.346 C  
HETATM    3  C   UNL     1     -11.553  14.438  68.320  1.00  0.00    -0.359 C  
HETATM    4  C   UNL     1     -11.573  12.014  67.368  1.00  0.00    -0.388 C  
HETATM    5  C   UNL     1     -11.326  15.276  69.606  1.00  0.00    -0.304 C  
HETATM    6  C   UNL     1      -9.900  15.139  70.144  1.00  0.00     0.092 C  
HETATM    7  C   UNL     1      -8.808  15.426  69.100  1.00  0.00    -0.249 C  
HETATM    8  C   UNL     1      -8.505  16.924  69.020  1.00  0.00    -0.142 C  
HETATM    9  C   UNL     1      -9.110  14.823  67.717  1.00  0.00    -0.186 C  
HETATM   10  C   UNL     1     -10.561  14.970  67.245  1.00  0.00    -0.279 C  
ENDROOT
BRANCH  10  11
HETATM   11  O   UNL     1     -10.940  16.354  67.023  1.00  0.00    -0.203 OA 
BRANCH  11  12
HETATM   12  C   UNL     1     -10.502  17.035  65.931  1.00  0.00    -0.274 C  
HETATM   13  O   UNL     1     -10.574  16.672  64.768  1.00  0.00    -0.685 OA 
BRANCH  12  14
HETATM   14  C   UNL     1      -9.935  18.334  66.394  1.00  0.00    -0.385 A  
HETATM   15  C   UNL     1     -10.805  19.286  66.961  1.00  0.00    -0.515 A  
HETATM   16  C   UNL     1     -10.330  20.525  67.391  1.00  0.00    -0.213 A  
HETATM   17  C   UNL     1      -8.974  20.819  67.268  1.00  0.00    -0.286 A  
HETATM   18  C   UNL     1      -8.106  19.883  66.701  1.00  0.00    -0.351 A  
HETATM   19  C   UNL     1      -8.573  18.650  66.210  1.00  0.00    -0.217 A  
HETATM   20  N   UNL     1      -7.619  17.708  65.780  1.00  0.00    -0.527 NA 
HETATM   21  H2  UNL     1      -7.959  17.305  64.906  1.00  0.00     0.000 HD 
HETATM   22  H1  UNL     1      -6.634  17.937  65.647  1.00  0.00     0.000 HD 
ENDBRANCH  12  14
ENDBRANCH  11  12
ENDBRANCH  10  11
TORSDOF 3
ENDMDL
MODEL      102
REMARK 921   NORMALIZED FREE ENERGY PREDICTED BY IDOCK:   -4.54 KCAL/MOL
REMARK 922        TOTAL FREE ENERGY PREDICTED BY IDOCK:   -6.25 KCAL/MOL
REMARK 923 INTER-LIGAND FREE ENERGY PREDICTED BY IDOCK:   -5.18 KCAL/MOL
REMARK 924 INTRA-LIGAND FREE ENERGY PREDICTED BY IDOCK:   -1.07 KCAL/MOL
REMARK 927      BINDING AFFINITY PREDICTED BY RF-SCORE:    0.00 PKD
ROOT
HETATM    1  C   UNL     1     -12.400  12.122  70.785  1.00  0.00    -0.391 C  
HETATM    2  C   UNL     1     -12.039  10.661  70.459  1.00  0.00    -0.448 C  
HETATM    3  C   UNL     1     -11.950   9.786  71.753  1.00  0.00    -0.388 C  
HETATM    4  C   UNL     1     -10.761  10.679  69.614  1.00  0.00    -0.290 C  
HETATM    5  C   UNL     1     -13.313   9.716  72.490  1.00  0.00    -0.314 C  
HETATM    6  C   UNL     1     -14.370   8.959  71.685  1.00  0.00    -0.318 C  
HETATM    7  C   UNL     1     -13.923   7.563  71.221  1.00  0.00    -0.384 C  
HETATM    8  C   UNL     1     -14.176   6.516  72.308  1.00  0.00     0.134 C  
HETATM    9  C   UNL     1     -12.472   7.524  70.708  1.00  0.00    -0.072 C  
HETATM   10  C   UNL     1     -11.464   8.322  71.544  1.00  0.00    -0.275 C  
ENDROOT
BRANCH  10  11
HETATM   11  O   UNL     1     -11.292   7.780  72.880  1.00  0.00    -0.387 OA 
BRANCH  11  12
HETATM   12  C   UNL     1     -10.089   7.300  73.292  1.00  0.00    -0.295 C  
HETATM   13  O   UNL     1      -9.192   7.937  73.820  1.00  0.00    -0.281 OA 
BRANCH  12  14
HETATM   14  C   UNL     1     -10.055   5.836  73.013  1.00  0.00    -0.198 A  
HETATM   15  C   UNL     1     -11.141   5.044  73.438  1.00  0.00    -0.404 A  
HETATM   16  C   UNL     1     -11.151   3.666  73.221  1.00  0.00    -0.252 A  
HETATM   17  C   UNL     1     -10.077   3.068  72.564  1.00  0.00    -0.232 A  
HETATM   18  C   UNL     1      -8.995   3.846  72.146  1.00  0.00    -0.146 A  
HETATM   19  C   UNL     1      -8.939   5.228  72.405  1.00  0.00    -0.131 A  
HETATM   20  N   UNL     1      -7.883   5.962  71.832  1.00  0.00    -0.105 NA 
HETATM   21  H2  UNL     1      -7.531   6.599  72.547  1.00  0.00     0.000 HD 
HETATM   22  H1  UNL     1      -7.075   5.522  71.391  1.00  0.00     0.000 HD 
ENDBRANCH  12  14
ENDBRANCH  11  12
ENDBRANCH  10  11
TORSDOF 3
ENDMDL
MODEL      103
REMARK 921   NORMALIZED FREE ENERGY PREDICTED BY IDOCK:   -4.53 KCAL/MOL
REMARK 922        TOTAL FREE ENERGY PREDICTED BY IDOCK:   -6.24 KCAL/MOL
REMARK 923 INTER-LIGAND FREE ENERGY PREDICTED BY IDOCK:   -5.59 KCAL/MOL
REMARK 924 INTRA-LIGAND FREE ENERGY PREDICTED BY IDOCK:   -0.66 KCAL/MOL
REMARK 927      BINDING AFFINITY PREDICTED BY RF-SCORE:    0.00 PKD
ROOT
HETATM    1  C   UNL     1      -8.427  18.056  69.182  1.00  0.00     0.108 C  
HETATM    2  C   UNL     1      -8.432  16.846  68.229  1.00  0.00    -0.229 C  
HETATM    3  C   UNL     1      -9.867  16.241  68.073  1.00  0.00    -0.236 C  
HETATM    4  C   UNL     1      -7.377  15.857  68.733  1.00  0.00    -0.159 C  
HETATM    5  C   UNL     1     -10.852  17.262  67.444  1.00  0.00    -0.167 C  
HETATM    6  C   UNL     1     -10.500  17.589  65.991  1.00  0.00    -0.274 C  
HETATM    7  C   UNL     1     -10.342  16.352  65.093  1.00  0.00    -0.107 C  
HETATM    8  C   UNL     1     -11.695  15.900  64.537  1.00  0.00    -0.161 C  
HETATM    9  C   UNL     1      -9.580  15.197  65.769  1.00  0.00    -0.344 C  
HETATM   10  C   UNL     1      -9.960  14.935  67.230  1.00  0.00    -0.230 C  
ENDROOT
BRANCH  10  11
HETATM   11  O   UNL     1     -11.329  14.478  67.380  1.00  0.00    -0.325 OA 
BRANCH  11  12
HETATM   12  C   UNL     1     -11.622  13.152  67.448  1.00  0.00    -0.356 C  
HETATM   13  O   UNL     1     -11.948  12.527  68.445  1.00  0.00    -0.322 OA 
BRANCH  12  14
HETATM   14  C   UNL     1     -11.507  12.583  66.075  1.00  0.00    -0.423 A  
HETATM   15  C   UNL     1     -12.535  12.845  65.147  1.00  0.00    -0.561 A  
HETATM   16  C   UNL     1     -12.486  12.319  63.856  1.00  0.00    -0.586 A  
HETATM   17  C   UNL     1     -11.400  11.535  63.476  1.00  0.00    -0.375 A  
HETATM   18  C   UNL     1     -10.380  11.266  64.392  1.00  0.00    -0.388 A  
HETATM   19  C   UNL     1     -10.436  11.739  65.716  1.00  0.00    -0.260 A  
HETATM   20  N   UNL     1      -9.308  11.541  66.534  1.00  0.00    -0.192 NA 
HETATM   21  H2  UNL     1      -9.643  11.236  67.449  1.00  0.00     0.000 HD 
HETATM   22  H1  UNL     1      -8.533  10.930  66.274  1.00  0.00     0.000 HD 
ENDBRANCH  12  14
ENDBRANCH  11  12
ENDBRANCH  10  11
TORSDOF 3
ENDMDL
MODEL      104
REMARK 921   NORMALIZED FREE ENERGY PREDICTED BY IDOCK:   -4.51 KCAL/MOL
REMARK 922        TOTAL FREE ENERGY PREDICTED BY IDOCK:   -6.21 KCAL/MOL
REMARK 923 INTER-LIGAND FREE ENERGY PREDICTED BY IDOCK:   -5.42 KCAL/MOL
REMARK 924 INTRA-LIGAND FREE ENERGY PREDICTED BY IDOCK:   -0.80 KCAL/MOL
REMARK 927      BINDING AFFINITY PREDICTED BY RF-SCORE:    0.00 PKD
ROOT
HETATM    1  C   UNL     1     -10.657  11.191  65.844  1.00  0.00    -0.294 C  
HETATM    2  C   UNL     1      -9.878  12.516  65.760  1.00  0.00    -0.244 C  
HETATM    3  C   UNL     1     -10.075  13.383  67.047  1.00  0.00    -0.247 C  
HETATM    4  C   UNL     1     -10.287  13.210  64.456  1.00  0.00    -0.389 C  
HETATM    5  C   UNL     1      -9.527  12.666  68.309  1.00  0.00    -0.203 C  
HETATM    6  C   UNL     1      -8.005  12.513  68.275  1.00  0.00    -0.153 C  
HETATM    7  C   UNL     1      -7.250  13.827  68.018  1.00  0.00    -0.137 C  
HETATM    8  C   UNL     1      -7.023  14.594  69.324  1.00  0.00    -0.147 C  
HETATM    9  C   UNL     1      -7.903  14.707  66.937  1.00  0.00     0.090 C  
HETATM   10  C   UNL     1      -9.431  14.801  67.009  1.00  0.00    -0.231 C  
ENDROOT
BRANCH  10  11
HETATM   11  O   UNL     1      -9.896  15.465  68.213  1.00  0.00    -0.210 OA 
BRANCH  11  12
HETATM   12  C   UNL     1     -10.841  16.440  68.156  1.00  0.00    -0.346 C  
HETATM   13  O   UNL     1     -12.034  16.314  68.383  1.00  0.00    -0.095 OA 
BRANCH  12  14
HETATM   14  C   UNL     1     -10.165  17.718  67.792  1.00  0.00    -0.362 A  
HETATM   15  C   UNL     1      -9.448  18.410  68.789  1.00  0.00    -0.317 A  
HETATM   16  C   UNL     1      -8.814  19.620  68.507  1.00  0.00    -0.346 A  
HETATM   17  C   UNL     1      -8.882  20.145  67.218  1.00  0.00    -0.445 A  
HETATM   18  C   UNL     1      -9.597  19.468  66.226  1.00  0.00    -0.466 A  
HETATM   19  C   UNL     1     -10.289  18.276  66.503  1.00  0.00    -0.392 A  
HETATM   20  N   UNL     1     -10.869  17.585  65.422  1.00  0.00    -0.483 NA 
HETATM   21  H2  UNL     1     -11.798  17.283  65.714  1.00  0.00     0.000 HD 
HETATM   22  H1  UNL     1     -10.958  17.988  64.489  1.00  0.00     0.000 HD 
ENDBRANCH  12  14
ENDBRANCH  11  12
ENDBRANCH  10  11
TORSDOF 3
ENDMDL
MODEL      105
REMARK 921   NORMALIZED FREE ENERGY PREDICTED BY IDOCK:   -4.51 KCAL/MOL
REMARK 922        TOTAL FREE ENERGY PREDICTED BY IDOCK:   -6.21 KCAL/MOL
REMARK 923 INTER-LIGAND FREE ENERGY PREDICTED BY IDOCK:   -5.76 KCAL/MOL
REMARK 924 INTRA-LIGAND FREE ENERGY PREDICTED BY IDOCK:   -0.45 KCAL/MOL
REMARK 927      BINDING AFFINITY PREDICTED BY RF-SCORE:    0.00 PKD
ROOT
HETATM    1  C   UNL     1      -6.145  11.258  67.889  1.00  0.00    -0.050 C  
HETATM    2  C   UNL     1      -7.684  11.323  67.888  1.00  0.00    -0.110 C  
HETATM    3  C   UNL     1      -8.292  10.584  66.651  1.00  0.00    -0.131 C  
HETATM    4  C   UNL     1      -8.083  12.798  68.006  1.00  0.00    -0.162 C  
HETATM    5  C   UNL     1      -7.946   9.071  66.663  1.00  0.00    -0.100 C  
HETATM    6  C   UNL     1      -8.620   8.331  67.820  1.00  0.00    -0.131 C  
HETATM    7  C   UNL     1     -10.139   8.549  67.902  1.00  0.00    -0.258 C  
HETATM    8  C   UNL     1     -10.885   7.564  66.998  1.00  0.00    -0.264 C  
HETATM    9  C   UNL     1     -10.564  10.006  67.643  1.00  0.00    -0.323 C  
HETATM   10  C   UNL     1      -9.836  10.701  66.487  1.00  0.00    -0.204 C  
ENDROOT
BRANCH  10  11
HETATM   11  O   UNL     1     -10.132  10.101  65.198  1.00  0.00    -0.326 OA 
BRANCH  11  12
HETATM   12  C   UNL     1      -9.949  10.795  64.044  1.00  0.00    -0.342 C  
HETATM   13  O   UNL     1      -9.364  10.409  63.045  1.00  0.00    -0.266 OA 
BRANCH  12  14
HETATM   14  C   UNL     1     -10.618  12.120  64.191  1.00  0.00    -0.403 A  
HETATM   15  C   UNL     1      -9.923  13.157  64.845  1.00  0.00    -0.152 A  
HETATM   16  C   UNL     1     -10.510  14.409  65.028  1.00  0.00    -0.454 A  
HETATM   17  C   UNL     1     -11.797  14.640  64.546  1.00  0.00    -0.442 A  
HETATM   18  C   UNL     1     -12.494  13.614  63.902  1.00  0.00    -0.276 A  
HETATM   19  C   UNL     1     -11.943  12.328  63.757  1.00  0.00    -0.519 A  
HETATM   20  N   UNL     1     -12.651  11.393  62.978  1.00  0.00    -0.851 NA 
HETATM   21  H2  UNL     1     -12.629  10.502  63.476  1.00  0.00     0.000 HD 
HETATM   22  H1  UNL     1     -13.609  11.544  62.664  1.00  0.00     0.000 HD 
ENDBRANCH  12  14
ENDBRANCH  11  12
ENDBRANCH  10  11
TORSDOF 3
ENDMDL
MODEL      106
REMARK 921   NORMALIZED FREE ENERGY PREDICTED BY IDOCK:   -4.45 KCAL/MOL
REMARK 922        TOTAL FREE ENERGY PREDICTED BY IDOCK:   -6.15 KCAL/MOL
REMARK 923 INTER-LIGAND FREE ENERGY PREDICTED BY IDOCK:   -5.31 KCAL/MOL
REMARK 924 INTRA-LIGAND FREE ENERGY PREDICTED BY IDOCK:   -0.84 KCAL/MOL
REMARK 927      BINDING AFFINITY PREDICTED BY RF-SCORE:    0.00 PKD
ROOT
HETATM    1  C   UNL     1      -7.756   6.894  72.845  1.00  0.00    -0.094 C  
HETATM    2  C   UNL     1      -9.227   6.935  72.390  1.00  0.00    -0.145 C  
HETATM    3  C   UNL     1      -9.410   7.810  71.106  1.00  0.00    -0.164 C  
HETATM    4  C   UNL     1     -10.068   7.383  73.590  1.00  0.00    -0.376 C  
HETATM    5  C   UNL     1      -8.625   7.227  69.901  1.00  0.00    -0.141 C  
HETATM    6  C   UNL     1      -9.190   5.883  69.436  1.00  0.00    -0.144 C  
HETATM    7  C   UNL     1     -10.700   5.904  69.151  1.00  0.00    -0.394 C  
HETATM    8  C   UNL     1     -10.983   6.380  67.724  1.00  0.00    -0.425 C  
HETATM    9  C   UNL     1     -11.509   6.695  70.194  1.00  0.00    -0.444 C  
HETATM   10  C   UNL     1     -10.879   8.021  70.638  1.00  0.00    -0.234 C  
ENDROOT
BRANCH  10  11
HETATM   11  O   UNL     1     -10.805   8.993  69.562  1.00  0.00    -0.229 OA 
BRANCH  11  12
HETATM   12  C   UNL     1     -11.152  10.291  69.765  1.00  0.00    -0.287 C  
HETATM   13  O   UNL     1     -11.677  10.759  70.762  1.00  0.00    -0.328 OA 
BRANCH  12  14
HETATM   14  C   UNL     1     -10.753  11.070  68.557  1.00  0.00    -0.236 A  
HETATM   15  C   UNL     1     -11.764  11.548  67.699  1.00  0.00    -0.283 A  
HETATM   16  C   UNL     1     -11.445  12.263  66.545  1.00  0.00    -0.438 A  
HETATM   17  C   UNL     1     -10.109  12.518  66.244  1.00  0.00    -0.264 A  
HETATM   18  C   UNL     1      -9.102  12.041  67.086  1.00  0.00    -0.186 A  
HETATM   19  C   UNL     1      -9.398  11.270  68.225  1.00  0.00    -0.180 A  
HETATM   20  N   UNL     1      -8.339  10.945  69.094  1.00  0.00    -0.317 NA 
HETATM   21  H2  UNL     1      -8.448   9.965  69.355  1.00  0.00     0.000 HD 
HETATM   22  H1  UNL     1      -7.359  11.091  68.854  1.00  0.00     0.000 HD 
ENDBRANCH  12  14
ENDBRANCH  11  12
ENDBRANCH  10  11
TORSDOF 3
ENDMDL
MODEL      107
REMARK 921   NORMALIZED FREE ENERGY PREDICTED BY IDOCK:   -4.45 KCAL/MOL
REMARK 922        TOTAL FREE ENERGY PREDICTED BY IDOCK:   -6.14 KCAL/MOL
REMARK 923 INTER-LIGAND FREE ENERGY PREDICTED BY IDOCK:   -5.22 KCAL/MOL
REMARK 924 INTRA-LIGAND FREE ENERGY PREDICTED BY IDOCK:   -0.92 KCAL/MOL
REMARK 927      BINDING AFFINITY PREDICTED BY RF-SCORE:    0.00 PKD
ROOT
HETATM    1  C   UNL     1      -6.019  10.578  67.275  1.00  0.00    -0.053 C  
HETATM    2  C   UNL     1      -6.961  10.529  68.492  1.00  0.00    -0.066 C  
HETATM    3  C   UNL     1      -8.424  10.162  68.075  1.00  0.00    -0.118 C  
HETATM    4  C   UNL     1      -6.828  11.864  69.233  1.00  0.00    -0.080 C  
HETATM    5  C   UNL     1      -8.499   8.748  67.442  1.00  0.00    -0.116 C  
HETATM    6  C   UNL     1      -8.186   7.642  68.453  1.00  0.00    -0.125 C  
HETATM    7  C   UNL     1      -9.023   7.715  69.740  1.00  0.00    -0.140 C  
HETATM    8  C   UNL     1     -10.367   7.004  69.562  1.00  0.00    -0.225 C  
HETATM    9  C   UNL     1      -9.195   9.147  70.279  1.00  0.00    -0.249 C  
HETATM   10  C   UNL     1      -9.483  10.213  69.215  1.00  0.00    -0.218 C  
ENDROOT
BRANCH  10  11
HETATM   11  O   UNL     1     -10.763  10.017  68.559  1.00  0.00    -0.211 OA 
BRANCH  11  12
HETATM   12  C   UNL     1     -11.600  11.063  68.328  1.00  0.00    -0.284 C  
HETATM   13  O   UNL     1     -11.920  11.516  67.241  1.00  0.00    -0.605 OA 
BRANCH  12  14
HETATM   14  C   UNL     1     -12.094  11.558  69.646  1.00  0.00    -0.363 A  
HETATM   15  C   UNL     1     -12.622  10.626  70.562  1.00  0.00    -0.433 A  
HETATM   16  C   UNL     1     -13.116  11.038  71.799  1.00  0.00    -0.554 A  
HETATM   17  C   UNL     1     -13.076  12.389  72.138  1.00  0.00    -0.419 A  
HETATM   18  C   UNL     1     -12.561  13.320  71.232  1.00  0.00    -0.398 A  
HETATM   19  C   UNL     1     -12.109  12.933  69.957  1.00  0.00    -0.286 A  
HETATM   20  N   UNL     1     -11.479  13.907  69.159  1.00  0.00    -0.279 NA 
HETATM   21  H2  UNL     1     -11.841  13.805  68.210  1.00  0.00     0.000 HD 
HETATM   22  H1  UNL     1     -11.489  14.902  69.385  1.00  0.00     0.000 HD 
ENDBRANCH  12  14
ENDBRANCH  11  12
ENDBRANCH  10  11
TORSDOF 3
ENDMDL
MODEL      108
REMARK 921   NORMALIZED FREE ENERGY PREDICTED BY IDOCK:   -4.44 KCAL/MOL
REMARK 922        TOTAL FREE ENERGY PREDICTED BY IDOCK:   -6.13 KCAL/MOL
REMARK 923 INTER-LIGAND FREE ENERGY PREDICTED BY IDOCK:   -5.21 KCAL/MOL
REMARK 924 INTRA-LIGAND FREE ENERGY PREDICTED BY IDOCK:   -0.92 KCAL/MOL
REMARK 927      BINDING AFFINITY PREDICTED BY RF-SCORE:    0.00 PKD
ROOT
HETATM    1  C   UNL     1     -10.362   8.678  72.213  1.00  0.00    -0.376 C  
HETATM    2  C   UNL     1     -10.915   9.098  70.839  1.00  0.00    -0.349 C  
HETATM    3  C   UNL     1      -9.789   9.668  69.914  1.00  0.00    -0.271 C  
HETATM    4  C   UNL     1     -12.082  10.060  71.086  1.00  0.00    -0.475 C  
HETATM    5  C   UNL     1      -8.705   8.601  69.610  1.00  0.00    -0.132 C  
HETATM    6  C   UNL     1      -9.245   7.451  68.757  1.00  0.00    -0.144 C  
HETATM    7  C   UNL     1      -9.948   7.906  67.468  1.00  0.00    -0.250 C  
HETATM    8  C   UNL     1      -8.938   8.110  66.336  1.00  0.00    -0.207 C  
HETATM    9  C   UNL     1     -10.853   9.135  67.664  1.00  0.00    -0.160 C  
HETATM   10  C   UNL     1     -10.266  10.242  68.547  1.00  0.00    -0.172 C  
ENDROOT
BRANCH  10  11
HETATM   11  O   UNL     1      -9.092  10.863  67.961  1.00  0.00    -0.144 OA 
BRANCH  11  12
HETATM   12  C   UNL     1      -9.200  11.704  66.899  1.00  0.00    -0.184 C  
HETATM   13  O   UNL     1      -8.713  11.547  65.791  1.00  0.00    -0.133 OA 
BRANCH  12  14
HETATM   14  C   UNL     1     -10.052  12.857  67.308  1.00  0.00    -0.231 A  
HETATM   15  C   UNL     1      -9.631  13.656  68.390  1.00  0.00    -0.203 A  
HETATM   16  C   UNL     1     -10.400  14.734  68.828  1.00  0.00    -0.248 A  
HETATM   17  C   UNL     1     -11.595  15.032  68.177  1.00  0.00    -0.360 A  
HETATM   18  C   UNL     1     -12.023  14.240  67.108  1.00  0.00    -0.449 A  
HETATM   19  C   UNL     1     -11.291  13.115  66.687  1.00  0.00    -0.325 A  
HETATM   20  N   UNL     1     -11.715  12.453  65.519  1.00  0.00    -0.394 NA 
HETATM   21  H2  UNL     1     -11.669  11.450  65.702  1.00  0.00     0.000 HD 
HETATM   22  H1  UNL     1     -12.611  12.640  65.069  1.00  0.00     0.000 HD 
ENDBRANCH  12  14
ENDBRANCH  11  12
ENDBRANCH  10  11
TORSDOF 3
ENDMDL
MODEL      109
REMARK 921   NORMALIZED FREE ENERGY PREDICTED BY IDOCK:   -4.43 KCAL/MOL
REMARK 922        TOTAL FREE ENERGY PREDICTED BY IDOCK:   -6.12 KCAL/MOL
REMARK 923 INTER-LIGAND FREE ENERGY PREDICTED BY IDOCK:   -5.16 KCAL/MOL
REMARK 924 INTRA-LIGAND FREE ENERGY PREDICTED BY IDOCK:   -0.96 KCAL/MOL
REMARK 927      BINDING AFFINITY PREDICTED BY RF-SCORE:    0.00 PKD
ROOT
HETATM    1  C   UNL     1      -8.727   5.586  68.516  1.00  0.00    -0.105 C  
HETATM    2  C   UNL     1      -9.518   6.540  67.602  1.00  0.00    -0.126 C  
HETATM    3  C   UNL     1      -9.526   8.001  68.163  1.00  0.00    -0.152 C  
HETATM    4  C   UNL     1     -10.908   5.932  67.393  1.00  0.00    -0.341 C  
HETATM    5  C   UNL     1      -8.094   8.594  68.232  1.00  0.00    -0.118 C  
HETATM    6  C   UNL     1      -7.485   8.805  66.845  1.00  0.00    -0.090 C  
HETATM    7  C   UNL     1      -8.372   9.619  65.889  1.00  0.00    -0.124 C  
HETATM    8  C   UNL     1      -8.151  11.122  66.081  1.00  0.00    -0.111 C  
HETATM    9  C   UNL     1      -9.862   9.240  65.965  1.00  0.00    -0.363 C  
HETATM   10  C   UNL     1     -10.407   9.018  67.380  1.00  0.00    -0.268 C  
ENDROOT
BRANCH  10  11
HETATM   11  O   UNL     1     -10.397  10.230  68.180  1.00  0.00    -0.160 OA 
BRANCH  11  12
HETATM   12  C   UNL     1     -11.556  10.845  68.534  1.00  0.00    -0.290 C  
HETATM   13  O   UNL     1     -12.393  10.430  69.320  1.00  0.00    -0.142 OA 
BRANCH  12  14
HETATM   14  C   UNL     1     -11.625  12.149  67.814  1.00  0.00    -0.410 A  
HETATM   15  C   UNL     1     -11.771  12.138  66.412  1.00  0.00    -0.394 A  
HETATM   16  C   UNL     1     -11.820  13.329  65.687  1.00  0.00    -0.419 A  
HETATM   17  C   UNL     1     -11.735  14.545  66.360  1.00  0.00    -0.372 A  
HETATM   18  C   UNL     1     -11.584  14.564  67.749  1.00  0.00    -0.390 A  
HETATM   19  C   UNL     1     -11.476  13.375  68.493  1.00  0.00    -0.310 A  
HETATM   20  N   UNL     1     -11.464  13.477  69.898  1.00  0.00    -0.478 NA 
HETATM   21  H2  UNL     1     -10.740  12.846  70.243  1.00  0.00     0.000 HD 
HETATM   22  H1  UNL     1     -11.356  14.364  70.389  1.00  0.00     0.000 HD 
ENDBRANCH  12  14
ENDBRANCH  11  12
ENDBRANCH  10  11
TORSDOF 3
ENDMDL
MODEL      110
REMARK 921   NORMALIZED FREE ENERGY PREDICTED BY IDOCK:   -4.42 KCAL/MOL
REMARK 922        TOTAL FREE ENERGY PREDICTED BY IDOCK:   -6.11 KCAL/MOL
REMARK 923 INTER-LIGAND FREE ENERGY PREDICTED BY IDOCK:   -5.17 KCAL/MOL
REMARK 924 INTRA-LIGAND FREE ENERGY PREDICTED BY IDOCK:   -0.93 KCAL/MOL
REMARK 927      BINDING AFFINITY PREDICTED BY RF-SCORE:    0.00 PKD
ROOT
HETATM    1  C   UNL     1      -9.632  20.297  66.648  1.00  0.00    -0.522 C  
HETATM    2  C   UNL     1      -9.578  19.053  67.553  1.00  0.00    -0.358 C  
HETATM    3  C   UNL     1      -8.774  17.888  66.885  1.00  0.00    -0.258 C  
HETATM    4  C   UNL     1     -11.019  18.695  67.932  1.00  0.00    -0.102 C  
HETATM    5  C   UNL     1      -7.294  18.282  66.641  1.00  0.00    -0.251 C  
HETATM    6  C   UNL     1      -6.521  18.473  67.948  1.00  0.00    -0.208 C  
HETATM    7  C   UNL     1      -6.622  17.281  68.914  1.00  0.00    -0.212 C  
HETATM    8  C   UNL     1      -5.569  16.220  68.588  1.00  0.00    -0.105 C  
HETATM    9  C   UNL     1      -8.038  16.683  69.003  1.00  0.00    -0.199 C  
HETATM   10  C   UNL     1      -8.769  16.540  67.663  1.00  0.00    -0.190 C  
ENDROOT
BRANCH  10  11
HETATM   11  O   UNL     1      -8.129  15.586  66.775  1.00  0.00    -0.232 OA 
BRANCH  11  12
HETATM   12  C   UNL     1      -8.276  14.248  66.960  1.00  0.00    -0.089 C  
HETATM   13  O   UNL     1      -7.404  13.454  67.273  1.00  0.00    -0.139 OA 
BRANCH  12  14
HETATM   14  C   UNL     1      -9.711  13.907  66.741  1.00  0.00    -0.282 A  
HETATM   15  C   UNL     1     -10.385  13.157  67.726  1.00  0.00    -0.230 A  
HETATM   16  C   UNL     1     -11.721  12.793  67.561  1.00  0.00    -0.422 A  
HETATM   17  C   UNL     1     -12.402  13.187  66.412  1.00  0.00    -0.300 A  
HETATM   18  C   UNL     1     -11.739  13.925  65.427  1.00  0.00    -0.347 A  
HETATM   19  C   UNL     1     -10.376  14.254  65.547  1.00  0.00    -0.355 A  
HETATM   20  N   UNL     1      -9.819  15.114  64.581  1.00  0.00    -0.369 NA 
HETATM   21  H2  UNL     1      -8.908  14.733  64.323  1.00  0.00     0.000 HD 
HETATM   22  H1  UNL     1     -10.301  15.365  63.718  1.00  0.00     0.000 HD 
ENDBRANCH  12  14
ENDBRANCH  11  12
ENDBRANCH  10  11
TORSDOF 3
ENDMDL
MODEL      111
REMARK 921   NORMALIZED FREE ENERGY PREDICTED BY IDOCK:   -4.36 KCAL/MOL
REMARK 922        TOTAL FREE ENERGY PREDICTED BY IDOCK:   -6.04 KCAL/MOL
REMARK 923 INTER-LIGAND FREE ENERGY PREDICTED BY IDOCK:   -4.95 KCAL/MOL
REMARK 924 INTRA-LIGAND FREE ENERGY PREDICTED BY IDOCK:   -1.09 KCAL/MOL
REMARK 927      BINDING AFFINITY PREDICTED BY RF-SCORE:    0.00 PKD
ROOT
HETATM    1  C   UNL     1      -8.703   8.016  65.894  1.00  0.00    -0.184 C  
HETATM    2  C   UNL     1      -9.941   8.876  66.207  1.00  0.00    -0.337 C  
HETATM    3  C   UNL     1      -9.547  10.232  66.879  1.00  0.00    -0.211 C  
HETATM    4  C   UNL     1     -10.905   8.015  67.030  1.00  0.00    -0.113 C  
HETATM    5  C   UNL     1      -8.672  11.102  65.938  1.00  0.00    -0.167 C  
HETATM    6  C   UNL     1      -9.444  11.586  64.709  1.00  0.00    -0.129 C  
HETATM    7  C   UNL     1     -10.767  12.294  65.041  1.00  0.00    -0.336 C  
HETATM    8  C   UNL     1     -10.538  13.779  65.330  1.00  0.00    -0.330 C  
HETATM    9  C   UNL     1     -11.567  11.604  66.160  1.00  0.00    -0.105 C  
HETATM   10  C   UNL     1     -10.734  11.120  67.353  1.00  0.00    -0.250 C  
ENDROOT
BRANCH  10  11
HETATM   11  O   UNL     1     -10.127  12.213  68.091  1.00  0.00    -0.194 OA 
BRANCH  11  12
HETATM   12  C   UNL     1     -10.871  13.012  68.900  1.00  0.00    -0.206 C  
HETATM   13  O   UNL     1     -11.809  12.670  69.601  1.00  0.00    -0.307 OA 
BRANCH  12  14
HETATM   14  C   UNL     1     -10.325  14.397  68.809  1.00  0.00    -0.241 A  
HETATM   15  C   UNL     1      -8.966  14.566  68.475  1.00  0.00    -0.188 A  
HETATM   16  C   UNL     1      -8.400  15.838  68.397  1.00  0.00    -0.164 A  
HETATM   17  C   UNL     1      -9.192  16.957  68.642  1.00  0.00    -0.265 A  
HETATM   18  C   UNL     1     -10.539  16.797  68.981  1.00  0.00    -0.343 A  
HETATM   19  C   UNL     1     -11.116  15.522  69.119  1.00  0.00    -0.272 A  
HETATM   20  N   UNL     1     -12.507  15.448  69.327  1.00  0.00    -0.603 NA 
HETATM   21  H2  UNL     1     -12.670  14.750  70.053  1.00  0.00     0.000 HD 
HETATM   22  H1  UNL     1     -13.079  16.262  69.551  1.00  0.00     0.000 HD 
ENDBRANCH  12  14
ENDBRANCH  11  12
ENDBRANCH  10  11
TORSDOF 3
ENDMDL
MODEL      112
REMARK 921   NORMALIZED FREE ENERGY PREDICTED BY IDOCK:   -4.33 KCAL/MOL
REMARK 922        TOTAL FREE ENERGY PREDICTED BY IDOCK:   -6.00 KCAL/MOL
REMARK 923 INTER-LIGAND FREE ENERGY PREDICTED BY IDOCK:   -4.95 KCAL/MOL
REMARK 924 INTRA-LIGAND FREE ENERGY PREDICTED BY IDOCK:   -1.05 KCAL/MOL
REMARK 927      BINDING AFFINITY PREDICTED BY RF-SCORE:    0.00 PKD
ROOT
HETATM    1  C   UNL     1     -13.199  10.767  71.954  1.00  0.00    -0.524 C  
HETATM    2  C   UNL     1     -12.309  10.129  70.872  1.00  0.00    -0.461 C  
HETATM    3  C   UNL     1     -11.126   9.321  71.500  1.00  0.00    -0.443 C  
HETATM    4  C   UNL     1     -11.879  11.244  69.913  1.00  0.00    -0.436 C  
HETATM    5  C   UNL     1     -11.638   8.135  72.360  1.00  0.00    -0.463 C  
HETATM    6  C   UNL     1     -12.326   7.060  71.516  1.00  0.00    -0.420 C  
HETATM    7  C   UNL     1     -11.482   6.559  70.333  1.00  0.00    -0.465 C  
HETATM    8  C   UNL     1     -10.535   5.438  70.770  1.00  0.00    -0.317 C  
HETATM    9  C   UNL     1     -10.740   7.684  69.589  1.00  0.00    -0.230 C  
HETATM   10  C   UNL     1     -10.093   8.743  70.489  1.00  0.00    -0.195 C  
ENDROOT
BRANCH  10  11
HETATM   11  O   UNL     1      -9.018   8.205  71.303  1.00  0.00    -0.132 OA 
BRANCH  11  12
HETATM   12  C   UNL     1      -7.726   8.568  71.088  1.00  0.00    -0.103 C  
HETATM   13  O   UNL     1      -7.038   9.276  71.805  1.00  0.00    -0.318 OA 
BRANCH  12  14
HETATM   14  C   UNL     1      -7.270   7.924  69.822  1.00  0.00    -0.066 A  
HETATM   15  C   UNL     1      -7.106   6.524  69.799  1.00  0.00    -0.072 A  
HETATM   16  C   UNL     1      -6.662   5.873  68.648  1.00  0.00    -0.064 A  
HETATM   17  C   UNL     1      -6.389   6.617  67.502  1.00  0.00    -0.044 A  
HETATM   18  C   UNL     1      -6.544   8.006  67.520  1.00  0.00    -0.058 A  
HETATM   19  C   UNL     1      -6.936   8.688  68.686  1.00  0.00    -0.064 A  
HETATM   20  N   UNL     1      -7.202  10.067  68.584  1.00  0.00    -0.078 NA 
HETATM   21  H2  UNL     1      -6.775  10.520  69.393  1.00  0.00     0.000 HD 
HETATM   22  H1  UNL     1      -6.960  10.620  67.762  1.00  0.00     0.000 HD 
ENDBRANCH  12  14
ENDBRANCH  11  12
ENDBRANCH  10  11
TORSDOF 3
ENDMDL
MODEL      113
REMARK 921   NORMALIZED FREE ENERGY PREDICTED BY IDOCK:   -4.33 KCAL/MOL
REMARK 922        TOTAL FREE ENERGY PREDICTED BY IDOCK:   -6.00 KCAL/MOL
REMARK 923 INTER-LIGAND FREE ENERGY PREDICTED BY IDOCK:   -5.09 KCAL/MOL
REMARK 924 INTRA-LIGAND FREE ENERGY PREDICTED BY IDOCK:   -0.91 KCAL/MOL
REMARK 927      BINDING AFFINITY PREDICTED BY RF-SCORE:    0.00 PKD
ROOT
HETATM    1  C   UNL     1      -5.652   9.288  68.306  1.00  0.00    -0.038 C  
HETATM    2  C   UNL     1      -7.023   9.261  69.007  1.00  0.00    -0.059 C  
HETATM    3  C   UNL     1      -8.198   9.254  67.975  1.00  0.00    -0.115 C  
HETATM    4  C   UNL     1      -7.056  10.426  70.001  1.00  0.00    -0.155 C  
HETATM    5  C   UNL     1      -8.169   7.985  67.083  1.00  0.00    -0.117 C  
HETATM    6  C   UNL     1      -8.457   6.710  67.879  1.00  0.00    -0.119 C  
HETATM    7  C   UNL     1      -9.749   6.770  68.710  1.00  0.00    -0.132 C  
HETATM    8  C   UNL     1     -10.963   6.372  67.866  1.00  0.00    -0.416 C  
HETATM    9  C   UNL     1      -9.957   8.118  69.423  1.00  0.00    -0.188 C  
HETATM   10  C   UNL     1      -9.628   9.356  68.581  1.00  0.00    -0.147 C  
ENDROOT
BRANCH  10  11
HETATM   11  O   UNL     1     -10.518   9.513  67.445  1.00  0.00    -0.244 OA 
BRANCH  11  12
HETATM   12  C   UNL     1     -11.141  10.696  67.200  1.00  0.00    -0.196 C  
HETATM   13  O   UNL     1     -11.770  11.369  68.000  1.00  0.00    -0.484 OA 
BRANCH  12  14
HETATM   14  C   UNL     1     -10.902  11.057  65.773  1.00  0.00    -0.167 A  
HETATM   15  C   UNL     1      -9.979  10.294  65.030  1.00  0.00    -0.393 A  
HETATM   16  C   UNL     1      -9.702  10.602  63.698  1.00  0.00    -0.383 A  
HETATM   17  C   UNL     1     -10.358  11.670  63.091  1.00  0.00    -0.383 A  
HETATM   18  C   UNL     1     -11.270  12.435  63.823  1.00  0.00    -0.520 A  
HETATM   19  C   UNL     1     -11.522  12.177  65.183  1.00  0.00    -0.323 A  
HETATM   20  N   UNL     1     -12.552  12.903  65.811  1.00  0.00    -0.513 NA 
HETATM   21  H2  UNL     1     -12.208  13.191  66.727  1.00  0.00     0.000 HD 
HETATM   22  H1  UNL     1     -13.001  13.713  65.384  1.00  0.00     0.000 HD 
ENDBRANCH  12  14
ENDBRANCH  11  12
ENDBRANCH  10  11
TORSDOF 3
ENDMDL
MODEL      114
REMARK 921   NORMALIZED FREE ENERGY PREDICTED BY IDOCK:   -4.33 KCAL/MOL
REMARK 922        TOTAL FREE ENERGY PREDICTED BY IDOCK:   -6.00 KCAL/MOL
REMARK 923 INTER-LIGAND FREE ENERGY PREDICTED BY IDOCK:   -5.28 KCAL/MOL
REMARK 924 INTRA-LIGAND FREE ENERGY PREDICTED BY IDOCK:   -0.72 KCAL/MOL
REMARK 927      BINDING AFFINITY PREDICTED BY RF-SCORE:    0.00 PKD
ROOT
HETATM    1  C   UNL     1      -9.980   8.303  66.789  1.00  0.00    -0.355 C  
HETATM    2  C   UNL     1      -9.345   9.646  66.381  1.00  0.00    -0.224 C  
HETATM    3  C   UNL     1      -9.623  10.761  67.443  1.00  0.00    -0.179 C  
HETATM    4  C   UNL     1      -9.835   9.977  64.968  1.00  0.00    -0.374 C  
HETATM    5  C   UNL     1      -8.993  10.411  68.817  1.00  0.00    -0.157 C  
HETATM    6  C   UNL     1      -7.464  10.410  68.771  1.00  0.00    -0.093 C  
HETATM    7  C   UNL     1      -6.854  11.699  68.199  1.00  0.00    -0.068 C  
HETATM    8  C   UNL     1      -6.699  12.764  69.287  1.00  0.00    -0.058 C  
HETATM    9  C   UNL     1      -7.604  12.237  66.966  1.00  0.00    -0.071 C  
HETATM   10  C   UNL     1      -9.133  12.189  67.063  1.00  0.00    -0.198 C  
ENDROOT
BRANCH  10  11
HETATM   11  O   UNL     1      -9.656  13.063  68.098  1.00  0.00    -0.218 OA 
BRANCH  11  12
HETATM   12  C   UNL     1      -9.853  14.387  67.865  1.00  0.00    -0.224 C  
HETATM   13  O   UNL     1      -9.403  15.317  68.514  1.00  0.00    -0.188 OA 
BRANCH  12  14
HETATM   14  C   UNL     1     -10.703  14.519  66.646  1.00  0.00    -0.305 A  
HETATM   15  C   UNL     1     -11.786  13.633  66.480  1.00  0.00    -0.414 A  
HETATM   16  C   UNL     1     -12.599  13.699  65.349  1.00  0.00    -0.533 A  
HETATM   17  C   UNL     1     -12.343  14.664  64.377  1.00  0.00    -0.420 A  
HETATM   18  C   UNL     1     -11.267  15.541  64.532  1.00  0.00    -0.327 A  
HETATM   19  C   UNL     1     -10.401  15.455  65.637  1.00  0.00    -0.372 A  
HETATM   20  N   UNL     1      -9.427  16.461  65.789  1.00  0.00    -0.499 NA 
HETATM   21  H2  UNL     1      -8.553  16.002  66.051  1.00  0.00     0.000 HD 
HETATM   22  H1  UNL     1      -9.209  17.138  65.059  1.00  0.00     0.000 HD 
ENDBRANCH  12  14
ENDBRANCH  11  12
ENDBRANCH  10  11
TORSDOF 3
ENDMDL
MODEL      115
REMARK 921   NORMALIZED FREE ENERGY PREDICTED BY IDOCK:   -4.32 KCAL/MOL
REMARK 922        TOTAL FREE ENERGY PREDICTED BY IDOCK:   -5.99 KCAL/MOL
REMARK 923 INTER-LIGAND FREE ENERGY PREDICTED BY IDOCK:   -5.02 KCAL/MOL
REMARK 924 INTRA-LIGAND FREE ENERGY PREDICTED BY IDOCK:   -0.98 KCAL/MOL
REMARK 927      BINDING AFFINITY PREDICTED BY RF-SCORE:    0.00 PKD
ROOT
HETATM    1  C   UNL     1     -11.644   9.044  72.073  1.00  0.00    -0.413 C  
HETATM    2  C   UNL     1     -10.578   9.519  71.069  1.00  0.00    -0.392 C  
HETATM    3  C   UNL     1     -11.145   9.582  69.612  1.00  0.00    -0.196 C  
HETATM    4  C   UNL     1      -9.352   8.615  71.235  1.00  0.00    -0.288 C  
HETATM    5  C   UNL     1     -12.304  10.607  69.495  1.00  0.00    -0.154 C  
HETATM    6  C   UNL     1     -11.829  12.047  69.698  1.00  0.00    -0.401 C  
HETATM    7  C   UNL     1     -10.647  12.448  68.801  1.00  0.00    -0.213 C  
HETATM    8  C   UNL     1     -11.135  12.930  67.432  1.00  0.00    -0.307 C  
HETATM    9  C   UNL     1      -9.572  11.352  68.678  1.00  0.00    -0.179 C  
HETATM   10  C   UNL     1     -10.112   9.928  68.500  1.00  0.00    -0.168 C  
ENDROOT
BRANCH  10  11
HETATM   11  O   UNL     1     -10.822   9.751  67.247  1.00  0.00    -0.265 OA 
BRANCH  11  12
HETATM   12  C   UNL     1     -10.153   9.486  66.093  1.00  0.00    -0.256 C  
HETATM   13  O   UNL     1     -10.175  10.148  65.069  1.00  0.00    -0.309 OA 
BRANCH  12  14
HETATM   14  C   UNL     1      -9.350   8.246  66.300  1.00  0.00    -0.267 A  
HETATM   15  C   UNL     1      -7.950   8.317  66.157  1.00  0.00    -0.100 A  
HETATM   16  C   UNL     1      -7.154   7.183  66.318  1.00  0.00    -0.074 A  
HETATM   17  C   UNL     1      -7.753   5.966  66.637  1.00  0.00    -0.100 A  
HETATM   18  C   UNL     1      -9.141   5.886  66.772  1.00  0.00    -0.130 A  
HETATM   19  C   UNL     1      -9.967   7.005  66.559  1.00  0.00    -0.093 A  
HETATM   20  N   UNL     1     -11.338   6.876  66.849  1.00  0.00    -0.713 NA 
HETATM   21  H2  UNL     1     -11.855   7.320  66.089  1.00  0.00     0.000 HD 
HETATM   22  H1  UNL     1     -11.784   5.978  67.037  1.00  0.00     0.000 HD 
ENDBRANCH  12  14
ENDBRANCH  11  12
ENDBRANCH  10  11
TORSDOF 3
ENDMDL
MODEL      116
REMARK 921   NORMALIZED FREE ENERGY PREDICTED BY IDOCK:   -4.31 KCAL/MOL
REMARK 922        TOTAL FREE ENERGY PREDICTED BY IDOCK:   -5.98 KCAL/MOL
REMARK 923 INTER-LIGAND FREE ENERGY PREDICTED BY IDOCK:   -5.02 KCAL/MOL
REMARK 924 INTRA-LIGAND FREE ENERGY PREDICTED BY IDOCK:   -0.95 KCAL/MOL
REMARK 927      BINDING AFFINITY PREDICTED BY RF-SCORE:    0.00 PKD
ROOT
HETATM    1  C   UNL     1     -10.659  19.957  68.013  1.00  0.00    -0.406 C  
HETATM    2  C   UNL     1      -9.871  18.976  67.126  1.00  0.00    -0.383 C  
HETATM    3  C   UNL     1      -9.113  17.907  67.980  1.00  0.00    -0.267 C  
HETATM    4  C   UNL     1      -8.971  19.808  66.205  1.00  0.00    -0.431 C  
HETATM    5  C   UNL     1     -10.097  17.023  68.792  1.00  0.00    -0.307 C  
HETATM    6  C   UNL     1     -10.960  16.137  67.892  1.00  0.00    -0.318 C  
HETATM    7  C   UNL     1     -10.157  15.290  66.892  1.00  0.00    -0.257 C  
HETATM    8  C   UNL     1      -9.693  13.979  67.532  1.00  0.00    -0.232 C  
HETATM    9  C   UNL     1      -8.994  16.056  66.235  1.00  0.00    -0.380 C  
HETATM   10  C   UNL     1      -8.182  16.945  67.184  1.00  0.00    -0.190 C  
ENDROOT
BRANCH  10  11
HETATM   11  O   UNL     1      -7.467  16.182  68.191  1.00  0.00    -0.128 OA 
BRANCH  11  12
HETATM   12  C   UNL     1      -6.255  15.630  67.923  1.00  0.00    -0.146 C  
HETATM   13  O   UNL     1      -5.450  16.007  67.087  1.00  0.00    -0.322 OA 
BRANCH  12  14
HETATM   14  C   UNL     1      -6.054  14.482  68.853  1.00  0.00    -0.086 A  
HETATM   15  C   UNL     1      -5.987  14.739  70.237  1.00  0.00    -0.160 A  
HETATM   16  C   UNL     1      -5.780  13.705  71.150  1.00  0.00    -0.196 A  
HETATM   17  C   UNL     1      -5.650  12.398  70.686  1.00  0.00    -0.168 A  
HETATM   18  C   UNL     1      -5.709  12.136  69.315  1.00  0.00    -0.073 A  
HETATM   19  C   UNL     1      -5.861  13.171  68.374  1.00  0.00    -0.080 A  
HETATM   20  N   UNL     1      -6.049  12.811  67.025  1.00  0.00    -0.491 NA 
HETATM   21  H2  UNL     1      -5.468  13.431  66.460  1.00  0.00     0.000 HD 
HETATM   22  H1  UNL     1      -5.909  11.862  66.679  1.00  0.00     0.000 HD 
ENDBRANCH  12  14
ENDBRANCH  11  12
ENDBRANCH  10  11
TORSDOF 3
ENDMDL
MODEL      117
REMARK 921   NORMALIZED FREE ENERGY PREDICTED BY IDOCK:   -4.27 KCAL/MOL
REMARK 922        TOTAL FREE ENERGY PREDICTED BY IDOCK:   -5.93 KCAL/MOL
REMARK 923 INTER-LIGAND FREE ENERGY PREDICTED BY IDOCK:   -5.09 KCAL/MOL
REMARK 924 INTRA-LIGAND FREE ENERGY PREDICTED BY IDOCK:   -0.84 KCAL/MOL
REMARK 927      BINDING AFFINITY PREDICTED BY RF-SCORE:    0.00 PKD
ROOT
HETATM    1  C   UNL     1     -10.367   7.058  73.696  1.00  0.00    -0.412 C  
HETATM    2  C   UNL     1     -11.137   7.135  72.364  1.00  0.00    -0.302 C  
HETATM    3  C   UNL     1     -10.221   7.631  71.197  1.00  0.00    -0.207 C  
HETATM    4  C   UNL     1     -12.385   7.992  72.601  1.00  0.00    -0.165 C  
HETATM    5  C   UNL     1      -9.047   6.651  70.935  1.00  0.00    -0.154 C  
HETATM    6  C   UNL     1      -9.527   5.303  70.392  1.00  0.00    -0.222 C  
HETATM    7  C   UNL     1     -10.437   5.414  69.159  1.00  0.00    -0.277 C  
HETATM    8  C   UNL     1      -9.611   5.500  67.873  1.00  0.00    -0.143 C  
HETATM    9  C   UNL     1     -11.470   6.551  69.260  1.00  0.00    -0.307 C  
HETATM   10  C   UNL     1     -10.935   7.867  69.833  1.00  0.00    -0.178 C  
ENDROOT
BRANCH  10  11
HETATM   11  O   UNL     1      -9.937   8.486  68.979  1.00  0.00    -0.182 OA 
BRANCH  11  12
HETATM   12  C   UNL     1      -9.913   9.832  68.790  1.00  0.00    -0.169 C  
HETATM   13  O   UNL     1      -9.870  10.690  69.657  1.00  0.00    -0.158 OA 
BRANCH  12  14
HETATM   14  C   UNL     1      -9.919  10.092  67.322  1.00  0.00    -0.245 A  
HETATM   15  C   UNL     1      -8.965   9.437  66.517  1.00  0.00    -0.176 A  
HETATM   16  C   UNL     1      -8.913   9.661  65.141  1.00  0.00    -0.249 A  
HETATM   17  C   UNL     1      -9.825  10.534  64.554  1.00  0.00    -0.401 A  
HETATM   18  C   UNL     1     -10.770  11.192  65.347  1.00  0.00    -0.259 A  
HETATM   19  C   UNL     1     -10.803  11.024  66.743  1.00  0.00    -0.251 A  
HETATM   20  N   UNL     1     -11.869  11.612  67.451  1.00  0.00    -0.630 NA 
HETATM   21  H2  UNL     1     -11.477  12.043  68.289  1.00  0.00     0.000 HD 
HETATM   22  H1  UNL     1     -12.509  12.287  67.032  1.00  0.00     0.000 HD 
ENDBRANCH  12  14
ENDBRANCH  11  12
ENDBRANCH  10  11
TORSDOF 3
ENDMDL
MODEL      118
REMARK 921   NORMALIZED FREE ENERGY PREDICTED BY IDOCK:   -4.27 KCAL/MOL
REMARK 922        TOTAL FREE ENERGY PREDICTED BY IDOCK:   -5.93 KCAL/MOL
REMARK 923 INTER-LIGAND FREE ENERGY PREDICTED BY IDOCK:   -5.13 KCAL/MOL
REMARK 924 INTRA-LIGAND FREE ENERGY PREDICTED BY IDOCK:   -0.80 KCAL/MOL
REMARK 927      BINDING AFFINITY PREDICTED BY RF-SCORE:    0.00 PKD
ROOT
HETATM    1  C   UNL     1      -5.900  10.125  68.696  1.00  0.00    -0.041 C  
HETATM    2  C   UNL     1      -7.410   9.948  68.449  1.00  0.00    -0.078 C  
HETATM    3  C   UNL     1      -7.992  11.111  67.580  1.00  0.00    -0.118 C  
HETATM    4  C   UNL     1      -8.084   9.774  69.814  1.00  0.00    -0.174 C  
HETATM    5  C   UNL     1      -7.347  11.149  66.169  1.00  0.00    -0.007 C  
HETATM    6  C   UNL     1      -7.720   9.926  65.328  1.00  0.00    -0.129 C  
HETATM    7  C   UNL     1      -9.233   9.668  65.235  1.00  0.00    -0.295 C  
HETATM    8  C   UNL     1      -9.861  10.486  64.105  1.00  0.00    -0.401 C  
HETATM    9  C   UNL     1      -9.971   9.867  66.572  1.00  0.00    -0.291 C  
HETATM   10  C   UNL     1      -9.536  11.095  67.379  1.00  0.00    -0.164 C  
ENDROOT
BRANCH  10  11
HETATM   11  O   UNL     1      -9.849  12.345  66.710  1.00  0.00    -0.213 OA 
BRANCH  11  12
HETATM   12  C   UNL     1     -11.097  12.881  66.775  1.00  0.00    -0.281 C  
HETATM   13  O   UNL     1     -12.123  12.399  66.326  1.00  0.00    -0.612 OA 
BRANCH  12  14
HETATM   14  C   UNL     1     -11.007  14.167  67.526  1.00  0.00    -0.292 A  
HETATM   15  C   UNL     1     -11.836  14.350  68.651  1.00  0.00    -0.366 A  
HETATM   16  C   UNL     1     -11.808  15.542  69.375  1.00  0.00    -0.392 A  
HETATM   17  C   UNL     1     -10.938  16.559  68.989  1.00  0.00    -0.306 A  
HETATM   18  C   UNL     1     -10.118  16.386  67.870  1.00  0.00    -0.250 A  
HETATM   19  C   UNL     1     -10.171  15.215  67.092  1.00  0.00    -0.247 A  
HETATM   20  N   UNL     1      -9.218  15.063  66.067  1.00  0.00    -0.472 NA 
HETATM   21  H2  UNL     1      -9.707  14.704  65.247  1.00  0.00     0.000 HD 
HETATM   22  H1  UNL     1      -8.613  15.822  65.754  1.00  0.00     0.000 HD 
ENDBRANCH  12  14
ENDBRANCH  11  12
ENDBRANCH  10  11
TORSDOF 3
ENDMDL
MODEL      119
REMARK 921   NORMALIZED FREE ENERGY PREDICTED BY IDOCK:   -4.25 KCAL/MOL
REMARK 922        TOTAL FREE ENERGY PREDICTED BY IDOCK:   -5.92 KCAL/MOL
REMARK 923 INTER-LIGAND FREE ENERGY PREDICTED BY IDOCK:   -5.09 KCAL/MOL
REMARK 924 INTRA-LIGAND FREE ENERGY PREDICTED BY IDOCK:   -0.83 KCAL/MOL
REMARK 927      BINDING AFFINITY PREDICTED BY RF-SCORE:    0.00 PKD
ROOT
HETATM    1  C   UNL     1      -9.254   6.947  70.951  1.00  0.00    -0.157 C  
HETATM    2  C   UNL     1     -10.153   7.379  69.779  1.00  0.00    -0.193 C  
HETATM    3  C   UNL     1      -9.717   8.765  69.198  1.00  0.00    -0.175 C  
HETATM    4  C   UNL     1     -11.605   7.323  70.266  1.00  0.00    -0.208 C  
HETATM    5  C   UNL     1      -8.281   8.712  68.614  1.00  0.00    -0.121 C  
HETATM    6  C   UNL     1      -8.190   7.821  67.374  1.00  0.00    -0.123 C  
HETATM    7  C   UNL     1      -9.217   8.163  66.281  1.00  0.00    -0.245 C  
HETATM    8  C   UNL     1      -8.697   9.277  65.369  1.00  0.00    -0.208 C  
HETATM    9  C   UNL     1     -10.619   8.476  66.835  1.00  0.00    -0.279 C  
HETATM   10  C   UNL     1     -10.641   9.353  68.092  1.00  0.00    -0.212 C  
ENDROOT
BRANCH  10  11
HETATM   11  O   UNL     1     -10.143  10.694  67.848  1.00  0.00    -0.162 OA 
BRANCH  11  12
HETATM   12  C   UNL     1     -10.865  11.787  68.210  1.00  0.00    -0.220 C  
HETATM   13  O   UNL     1     -11.284  12.048  69.326  1.00  0.00    -0.244 OA 
BRANCH  12  14
HETATM   14  C   UNL     1     -11.040  12.646  67.003  1.00  0.00    -0.322 A  
HETATM   15  C   UNL     1     -12.332  13.118  66.693  1.00  0.00    -0.207 A  
HETATM   16  C   UNL     1     -12.554  13.907  65.564  1.00  0.00    -0.560 A  
HETATM   17  C   UNL     1     -11.483  14.241  64.740  1.00  0.00    -0.394 A  
HETATM   18  C   UNL     1     -10.201  13.771  65.037  1.00  0.00    -0.370 A  
HETATM   19  C   UNL     1      -9.964  12.928  66.138  1.00  0.00    -0.272 A  
HETATM   20  N   UNL     1      -8.628  12.611  66.448  1.00  0.00    -0.417 NA 
HETATM   21  H2  UNL     1      -8.592  11.614  66.663  1.00  0.00     0.000 HD 
HETATM   22  H1  UNL     1      -7.848  12.816  65.822  1.00  0.00     0.000 HD 
ENDBRANCH  12  14
ENDBRANCH  11  12
ENDBRANCH  10  11
TORSDOF 3
ENDMDL
MODEL      120
REMARK 921   NORMALIZED FREE ENERGY PREDICTED BY IDOCK:   -4.23 KCAL/MOL
REMARK 922        TOTAL FREE ENERGY PREDICTED BY IDOCK:   -5.89 KCAL/MOL
REMARK 923 INTER-LIGAND FREE ENERGY PREDICTED BY IDOCK:   -4.93 KCAL/MOL
REMARK 924 INTRA-LIGAND FREE ENERGY PREDICTED BY IDOCK:   -0.96 KCAL/MOL
REMARK 927      BINDING AFFINITY PREDICTED BY RF-SCORE:    0.00 PKD
ROOT
HETATM    1  C   UNL     1      -6.840   5.857  70.942  1.00  0.00    -0.062 C  
HETATM    2  C   UNL     1      -7.505   7.243  71.035  1.00  0.00    -0.075 C  
HETATM    3  C   UNL     1      -8.828   7.305  70.203  1.00  0.00    -0.145 C  
HETATM    4  C   UNL     1      -6.455   8.286  70.639  1.00  0.00    -0.036 C  
HETATM    5  C   UNL     1      -9.887   6.307  70.739  1.00  0.00    -0.213 C  
HETATM    6  C   UNL     1     -10.388   6.685  72.134  1.00  0.00    -0.222 C  
HETATM    7  C   UNL     1     -10.891   8.133  72.247  1.00  0.00    -0.388 C  
HETATM    8  C   UNL     1     -12.358   8.240  71.824  1.00  0.00    -0.366 C  
HETATM    9  C   UNL     1     -10.001   9.149  71.509  1.00  0.00    -0.358 C  
HETATM   10  C   UNL     1      -9.511   8.702  70.127  1.00  0.00    -0.164 C  
ENDROOT
BRANCH  10  11
HETATM   11  O   UNL     1     -10.594   8.549  69.172  1.00  0.00    -0.223 OA 
BRANCH  11  12
HETATM   12  C   UNL     1     -10.476   9.010  67.899  1.00  0.00    -0.234 C  
HETATM   13  O   UNL     1     -10.445   8.340  66.879  1.00  0.00    -0.319 OA 
BRANCH  12  14
HETATM   14  C   UNL     1     -10.420  10.500  67.951  1.00  0.00    -0.247 A  
HETATM   15  C   UNL     1      -9.325  11.154  67.352  1.00  0.00    -0.172 A  
HETATM   16  C   UNL     1      -9.212  12.544  67.390  1.00  0.00    -0.186 A  
HETATM   17  C   UNL     1     -10.202  13.295  68.019  1.00  0.00    -0.240 A  
HETATM   18  C   UNL     1     -11.287  12.652  68.622  1.00  0.00    -0.331 A  
HETATM   19  C   UNL     1     -11.392  11.249  68.643  1.00  0.00    -0.273 A  
HETATM   20  N   UNL     1     -12.580  10.686  69.147  1.00  0.00    -0.676 NA 
HETATM   21  H2  UNL     1     -12.316   9.902  69.745  1.00  0.00     0.000 HD 
HETATM   22  H1  UNL     1     -13.283  11.229  69.648  1.00  0.00     0.000 HD 
ENDBRANCH  12  14
ENDBRANCH  11  12
ENDBRANCH  10  11
TORSDOF 3
ENDMDL
MODEL      121
REMARK 921   NORMALIZED FREE ENERGY PREDICTED BY IDOCK:   -4.23 KCAL/MOL
REMARK 922        TOTAL FREE ENERGY PREDICTED BY IDOCK:   -5.88 KCAL/MOL
REMARK 923 INTER-LIGAND FREE ENERGY PREDICTED BY IDOCK:   -5.38 KCAL/MOL
REMARK 924 INTRA-LIGAND FREE ENERGY PREDICTED BY IDOCK:   -0.50 KCAL/MOL
REMARK 927      BINDING AFFINITY PREDICTED BY RF-SCORE:    0.00 PKD
ROOT
HETATM    1  C   UNL     1     -12.511  14.182  65.749  1.00  0.00    -0.490 C  
HETATM    2  C   UNL     1     -11.224  13.791  66.498  1.00  0.00    -0.319 C  
HETATM    3  C   UNL     1     -11.285  12.317  67.019  1.00  0.00    -0.367 C  
HETATM    4  C   UNL     1     -10.987  14.842  67.588  1.00  0.00    -0.292 C  
HETATM    5  C   UNL     1     -11.404  11.303  65.851  1.00  0.00     0.008 C  
HETATM    6  C   UNL     1     -10.143  11.266  64.984  1.00  0.00    -0.331 C  
HETATM    7  C   UNL     1      -8.845  11.044  65.777  1.00  0.00    -0.200 C  
HETATM    8  C   UNL     1      -8.588   9.552  66.001  1.00  0.00    -0.145 C  
HETATM    9  C   UNL     1      -8.785  11.845  67.090  1.00  0.00    -0.176 C  
HETATM   10  C   UNL     1     -10.085  11.864  67.901  1.00  0.00    -0.192 C  
ENDROOT
BRANCH  10  11
HETATM   11  O   UNL     1     -10.451  10.552  68.403  1.00  0.00    -0.168 OA 
BRANCH  11  12
HETATM   12  C   UNL     1      -9.724   9.946  69.379  1.00  0.00    -0.214 C  
HETATM   13  O   UNL     1      -8.536  10.104  69.608  1.00  0.00    -0.176 OA 
BRANCH  12  14
HETATM   14  C   UNL     1     -10.640   9.062  70.155  1.00  0.00    -0.250 A  
HETATM   15  C   UNL     1     -11.227   9.566  71.333  1.00  0.00    -0.452 A  
HETATM   16  C   UNL     1     -12.074   8.774  72.108  1.00  0.00    -0.441 A  
HETATM   17  C   UNL     1     -12.353   7.471  71.704  1.00  0.00    -0.362 A  
HETATM   18  C   UNL     1     -11.769   6.961  70.541  1.00  0.00    -0.401 A  
HETATM   19  C   UNL     1     -10.868   7.724  69.775  1.00  0.00    -0.209 A  
HETATM   20  N   UNL     1     -10.432   7.190  68.548  1.00  0.00    -0.201 NA 
HETATM   21  H2  UNL     1      -9.428   7.359  68.481  1.00  0.00     0.000 HD 
HETATM   22  H1  UNL     1     -10.598   6.222  68.273  1.00  0.00     0.000 HD 
ENDBRANCH  12  14
ENDBRANCH  11  12
ENDBRANCH  10  11
TORSDOF 3
ENDMDL
MODEL      122
REMARK 921   NORMALIZED FREE ENERGY PREDICTED BY IDOCK:   -4.23 KCAL/MOL
REMARK 922        TOTAL FREE ENERGY PREDICTED BY IDOCK:   -5.88 KCAL/MOL
REMARK 923 INTER-LIGAND FREE ENERGY PREDICTED BY IDOCK:   -4.95 KCAL/MOL
REMARK 924 INTRA-LIGAND FREE ENERGY PREDICTED BY IDOCK:   -0.93 KCAL/MOL
REMARK 927      BINDING AFFINITY PREDICTED BY RF-SCORE:    0.00 PKD
ROOT
HETATM    1  C   UNL     1     -10.501  19.692  68.466  1.00  0.00    -0.330 C  
HETATM    2  C   UNL     1     -10.256  18.557  67.456  1.00  0.00    -0.414 C  
HETATM    3  C   UNL     1      -9.523  17.344  68.117  1.00  0.00    -0.288 C  
HETATM    4  C   UNL     1      -9.526  19.161  66.251  1.00  0.00    -0.359 C  
HETATM    5  C   UNL     1     -10.375  16.709  69.248  1.00  0.00    -0.318 C  
HETATM    6  C   UNL     1     -11.644  16.041  68.714  1.00  0.00    -0.352 C  
HETATM    7  C   UNL     1     -11.390  15.032  67.582  1.00  0.00    -0.342 C  
HETATM    8  C   UNL     1     -11.047  13.651  68.145  1.00  0.00    -0.281 C  
HETATM    9  C   UNL     1     -10.350  15.513  66.554  1.00  0.00    -0.293 C  
HETATM   10  C   UNL     1      -9.113  16.194  67.150  1.00  0.00    -0.203 C  
ENDROOT
BRANCH  10  11
HETATM   11  O   UNL     1      -8.305  15.290  67.948  1.00  0.00    -0.142 OA 
BRANCH  11  12
HETATM   12  C   UNL     1      -6.965  15.184  67.747  1.00  0.00    -0.170 C  
HETATM   13  O   UNL     1      -6.384  14.280  67.169  1.00  0.00    -0.200 OA 
BRANCH  12  14
HETATM   14  C   UNL     1      -6.313  16.389  68.335  1.00  0.00    -0.127 A  
HETATM   15  C   UNL     1      -6.278  16.520  69.738  1.00  0.00    -0.205 A  
HETATM   16  C   UNL     1      -5.699  17.638  70.339  1.00  0.00    -0.145 A  
HETATM   17  C   UNL     1      -5.137  18.632  69.541  1.00  0.00    -0.186 A  
HETATM   18  C   UNL     1      -5.174  18.511  68.149  1.00  0.00    -0.171 A  
HETATM   19  C   UNL     1      -5.802  17.420  67.521  1.00  0.00    -0.134 A  
HETATM   20  N   UNL     1      -5.677  17.304  66.124  1.00  0.00    -0.294 NA 
HETATM   21  H2  UNL     1      -6.594  17.050  65.755  1.00  0.00     0.000 HD 
HETATM   22  H1  UNL     1      -5.307  18.050  65.535  1.00  0.00     0.000 HD 
ENDBRANCH  12  14
ENDBRANCH  11  12
ENDBRANCH  10  11
TORSDOF 3
ENDMDL
MODEL      123
REMARK 921   NORMALIZED FREE ENERGY PREDICTED BY IDOCK:   -4.20 KCAL/MOL
REMARK 922        TOTAL FREE ENERGY PREDICTED BY IDOCK:   -5.85 KCAL/MOL
REMARK 923 INTER-LIGAND FREE ENERGY PREDICTED BY IDOCK:   -4.87 KCAL/MOL
REMARK 924 INTRA-LIGAND FREE ENERGY PREDICTED BY IDOCK:   -0.98 KCAL/MOL
REMARK 927      BINDING AFFINITY PREDICTED BY RF-SCORE:    0.00 PKD
ROOT
HETATM    1  C   UNL     1      -9.832   4.254  70.497  1.00  0.00    -0.269 C  
HETATM    2  C   UNL     1      -9.714   5.489  71.409  1.00  0.00    -0.205 C  
HETATM    3  C   UNL     1     -10.014   6.812  70.630  1.00  0.00    -0.201 C  
HETATM    4  C   UNL     1      -8.335   5.441  72.074  1.00  0.00    -0.122 C  
HETATM    5  C   UNL     1     -11.468   6.840  70.089  1.00  0.00    -0.404 C  
HETATM    6  C   UNL     1     -12.504   6.908  71.213  1.00  0.00    -0.409 C  
HETATM    7  C   UNL     1     -12.267   8.051  72.214  1.00  0.00    -0.366 C  
HETATM    8  C   UNL     1     -12.897   9.354  71.718  1.00  0.00    -0.484 C  
HETATM    9  C   UNL     1     -10.787   8.233  72.595  1.00  0.00    -0.381 C  
HETATM   10  C   UNL     1      -9.796   8.130  71.430  1.00  0.00    -0.174 C  
ENDROOT
BRANCH  10  11
HETATM   11  O   UNL     1      -9.958   9.199  70.461  1.00  0.00    -0.200 OA 
BRANCH  11  12
HETATM   12  C   UNL     1      -8.880   9.772  69.863  1.00  0.00    -0.225 C  
HETATM   13  O   UNL     1      -7.827  10.079  70.397  1.00  0.00    -0.216 OA 
BRANCH  12  14
HETATM   14  C   UNL     1      -9.192   9.940  68.414  1.00  0.00    -0.130 A  
HETATM   15  C   UNL     1     -10.447   9.510  67.940  1.00  0.00    -0.293 A  
HETATM   16  C   UNL     1     -10.782   9.625  66.591  1.00  0.00    -0.102 A  
HETATM   17  C   UNL     1      -9.866  10.185  65.703  1.00  0.00    -0.347 A  
HETATM   18  C   UNL     1      -8.617  10.607  66.165  1.00  0.00    -0.163 A  
HETATM   19  C   UNL     1      -8.238  10.449  67.510  1.00  0.00    -0.114 A  
HETATM   20  N   UNL     1      -7.020  11.024  67.923  1.00  0.00    -0.071 NA 
HETATM   21  H2  UNL     1      -6.546  10.342  68.516  1.00  0.00     0.000 HD 
HETATM   22  H1  UNL     1      -6.330  11.392  67.269  1.00  0.00     0.000 HD 
ENDBRANCH  12  14
ENDBRANCH  11  12
ENDBRANCH  10  11
TORSDOF 3
ENDMDL
MODEL      124
REMARK 921   NORMALIZED FREE ENERGY PREDICTED BY IDOCK:   -4.19 KCAL/MOL
REMARK 922        TOTAL FREE ENERGY PREDICTED BY IDOCK:   -5.84 KCAL/MOL
REMARK 923 INTER-LIGAND FREE ENERGY PREDICTED BY IDOCK:   -5.01 KCAL/MOL
REMARK 924 INTRA-LIGAND FREE ENERGY PREDICTED BY IDOCK:   -0.83 KCAL/MOL
REMARK 927      BINDING AFFINITY PREDICTED BY RF-SCORE:    0.00 PKD
ROOT
HETATM    1  C   UNL     1     -12.667  10.216  71.054  1.00  0.00    -0.481 C  
HETATM    2  C   UNL     1     -11.190  10.237  70.621  1.00  0.00    -0.406 C  
HETATM    3  C   UNL     1     -11.031   9.925  69.097  1.00  0.00    -0.233 C  
HETATM    4  C   UNL     1     -10.424   9.287  71.548  1.00  0.00    -0.385 C  
HETATM    5  C   UNL     1     -11.730  10.996  68.219  1.00  0.00    -0.301 C  
HETATM    6  C   UNL     1     -11.052  12.364  68.321  1.00  0.00    -0.283 C  
HETATM    7  C   UNL     1      -9.538  12.333  68.051  1.00  0.00    -0.206 C  
HETATM    8  C   UNL     1      -9.246  12.435  66.552  1.00  0.00    -0.215 C  
HETATM    9  C   UNL     1      -8.825  11.132  68.699  1.00  0.00    -0.155 C  
HETATM   10  C   UNL     1      -9.567   9.795  68.584  1.00  0.00    -0.151 C  
ENDROOT
BRANCH  10  11
HETATM   11  O   UNL     1      -9.679   9.333  67.212  1.00  0.00    -0.152 OA 
BRANCH  11  12
HETATM   12  C   UNL     1      -9.099   8.170  66.814  1.00  0.00    -0.157 C  
HETATM   13  O   UNL     1      -8.468   7.983  65.787  1.00  0.00    -0.133 OA 
BRANCH  12  14
HETATM   14  C   UNL     1      -9.341   7.148  67.873  1.00  0.00    -0.128 A  
HETATM   15  C   UNL     1      -8.313   6.880  68.799  1.00  0.00    -0.121 A  
HETATM   16  C   UNL     1      -8.479   5.919  69.796  1.00  0.00    -0.125 A  
HETATM   17  C   UNL     1      -9.683   5.224  69.884  1.00  0.00    -0.260 A  
HETATM   18  C   UNL     1     -10.704   5.480  68.965  1.00  0.00    -0.231 A  
HETATM   19  C   UNL     1     -10.537   6.404  67.918  1.00  0.00    -0.258 A  
HETATM   20  N   UNL     1     -11.658   6.705  67.121  1.00  0.00    -0.628 NA 
HETATM   21  H2  UNL     1     -11.346   6.721  66.149  1.00  0.00     0.000 HD 
HETATM   22  H1  UNL     1     -12.524   6.166  67.154  1.00  0.00     0.000 HD 
ENDBRANCH  12  14
ENDBRANCH  11  12
ENDBRANCH  10  11
TORSDOF 3
ENDMDL
MODEL      125
REMARK 921   NORMALIZED FREE ENERGY PREDICTED BY IDOCK:   -4.18 KCAL/MOL
REMARK 922        TOTAL FREE ENERGY PREDICTED BY IDOCK:   -5.83 KCAL/MOL
REMARK 923 INTER-LIGAND FREE ENERGY PREDICTED BY IDOCK:   -4.91 KCAL/MOL
REMARK 924 INTRA-LIGAND FREE ENERGY PREDICTED BY IDOCK:   -0.92 KCAL/MOL
REMARK 927      BINDING AFFINITY PREDICTED BY RF-SCORE:    0.00 PKD
ROOT
HETATM    1  C   UNL     1      -9.332  17.609  68.323  1.00  0.00    -0.290 C  
HETATM    2  C   UNL     1      -9.176  16.507  67.259  1.00  0.00    -0.224 C  
HETATM    3  C   UNL     1      -9.207  15.080  67.899  1.00  0.00    -0.182 C  
HETATM    4  C   UNL     1      -7.909  16.816  66.456  1.00  0.00    -0.338 C  
HETATM    5  C   UNL     1     -10.566  14.793  68.591  1.00  0.00    -0.255 C  
HETATM    6  C   UNL     1     -11.719  14.701  67.589  1.00  0.00    -0.389 C  
HETATM    7  C   UNL     1     -11.469  13.715  66.437  1.00  0.00    -0.358 C  
HETATM    8  C   UNL     1     -11.863  12.291  66.837  1.00  0.00    -0.334 C  
HETATM    9  C   UNL     1     -10.038  13.782  65.873  1.00  0.00    -0.325 C  
HETATM   10  C   UNL     1      -8.929  13.898  66.925  1.00  0.00    -0.222 C  
ENDROOT
BRANCH  10  11
HETATM   11  O   UNL     1      -8.831  12.720  67.768  1.00  0.00    -0.167 OA 
BRANCH  11  12
HETATM   12  C   UNL     1      -8.186  11.602  67.339  1.00  0.00    -0.153 C  
HETATM   13  O   UNL     1      -7.268  11.552  66.538  1.00  0.00    -0.106 OA 
BRANCH  12  14
HETATM   14  C   UNL     1      -8.779  10.429  68.044  1.00  0.00    -0.123 A  
HETATM   15  C   UNL     1      -9.703   9.622  67.350  1.00  0.00    -0.198 A  
HETATM   16  C   UNL     1     -10.302   8.525  67.968  1.00  0.00    -0.272 A  
HETATM   17  C   UNL     1      -9.974   8.217  69.287  1.00  0.00    -0.188 A  
HETATM   18  C   UNL     1      -9.064   9.017  69.983  1.00  0.00    -0.187 A  
HETATM   19  C   UNL     1      -8.490  10.160  69.397  1.00  0.00    -0.171 A  
HETATM   20  N   UNL     1      -7.482  10.832  70.114  1.00  0.00    -0.433 NA 
HETATM   21  H2  UNL     1      -7.666  11.832  70.035  1.00  0.00     0.000 HD 
HETATM   22  H1  UNL     1      -7.273  10.637  71.093  1.00  0.00     0.000 HD 
ENDBRANCH  12  14
ENDBRANCH  11  12
ENDBRANCH  10  11
TORSDOF 3
ENDMDL
MODEL      126
REMARK 921   NORMALIZED FREE ENERGY PREDICTED BY IDOCK:   -4.18 KCAL/MOL
REMARK 922        TOTAL FREE ENERGY PREDICTED BY IDOCK:   -5.82 KCAL/MOL
REMARK 923 INTER-LIGAND FREE ENERGY PREDICTED BY IDOCK:   -5.00 KCAL/MOL
REMARK 924 INTRA-LIGAND FREE ENERGY PREDICTED BY IDOCK:   -0.82 KCAL/MOL
REMARK 927      BINDING AFFINITY PREDICTED BY RF-SCORE:    0.00 PKD
ROOT
HETATM    1  C   UNL     1     -12.884  10.936  70.355  1.00  0.00    -0.257 C  
HETATM    2  C   UNL     1     -11.663  11.866  70.236  1.00  0.00    -0.293 C  
HETATM    3  C   UNL     1     -12.030  13.210  69.523  1.00  0.00    -0.354 C  
HETATM    4  C   UNL     1     -10.543  11.072  69.557  1.00  0.00    -0.182 C  
HETATM    5  C   UNL     1     -13.081  14.016  70.330  1.00  0.00    -0.002 C  
HETATM    6  C   UNL     1     -12.527  14.521  71.664  1.00  0.00    -0.422 C  
HETATM    7  C   UNL     1     -11.211  15.305  71.538  1.00  0.00    -0.369 C  
HETATM    8  C   UNL     1     -11.478  16.780  71.229  1.00  0.00     0.328 C  
HETATM    9  C   UNL     1     -10.217  14.677  70.544  1.00  0.00     0.717 C  
HETATM   10  C   UNL     1     -10.837  14.169  69.237  1.00  0.00    -0.190 C  
ENDROOT
BRANCH  10  11
HETATM   11  O   UNL     1     -11.389  15.238  68.426  1.00  0.00    -0.297 OA 
BRANCH  11  12
HETATM   12  C   UNL     1     -10.850  15.553  67.219  1.00  0.00    -0.313 C  
HETATM   13  O   UNL     1     -10.615  14.783  66.301  1.00  0.00    -0.291 OA 
BRANCH  12  14
HETATM   14  C   UNL     1     -10.613  17.025  67.188  1.00  0.00    -0.245 A  
HETATM   15  C   UNL     1     -10.200  17.666  68.374  1.00  0.00    -0.381 A  
HETATM   16  C   UNL     1      -9.985  19.044  68.406  1.00  0.00    -0.473 A  
HETATM   17  C   UNL     1     -10.169  19.793  67.246  1.00  0.00    -0.570 A  
HETATM   18  C   UNL     1     -10.585  19.165  66.069  1.00  0.00    -0.524 A  
HETATM   19  C   UNL     1     -10.862  17.787  66.029  1.00  0.00     0.041 A  
HETATM   20  N   UNL     1     -11.142  17.208  64.776  1.00  0.00    -0.925 NA 
HETATM   21  H2  UNL     1     -11.934  16.576  64.902  1.00  0.00     0.000 HD 
HETATM   22  H1  UNL     1     -11.322  17.759  63.937  1.00  0.00     0.000 HD 
ENDBRANCH  12  14
ENDBRANCH  11  12
ENDBRANCH  10  11
TORSDOF 3
ENDMDL
MODEL      127
REMARK 921   NORMALIZED FREE ENERGY PREDICTED BY IDOCK:   -4.16 KCAL/MOL
REMARK 922        TOTAL FREE ENERGY PREDICTED BY IDOCK:   -5.81 KCAL/MOL
REMARK 923 INTER-LIGAND FREE ENERGY PREDICTED BY IDOCK:   -4.93 KCAL/MOL
REMARK 924 INTRA-LIGAND FREE ENERGY PREDICTED BY IDOCK:   -0.88 KCAL/MOL
REMARK 927      BINDING AFFINITY PREDICTED BY RF-SCORE:    0.00 PKD
ROOT
HETATM    1  C   UNL     1      -9.037  11.369  65.957  1.00  0.00    -0.218 C  
HETATM    2  C   UNL     1      -8.947  12.182  67.262  1.00  0.00    -0.184 C  
HETATM    3  C   UNL     1      -9.343  13.679  67.036  1.00  0.00    -0.249 C  
HETATM    4  C   UNL     1      -7.543  11.976  67.838  1.00  0.00    -0.124 C  
HETATM    5  C   UNL     1     -10.816  13.816  66.569  1.00  0.00    -0.287 C  
HETATM    6  C   UNL     1     -11.811  13.399  67.654  1.00  0.00    -0.394 C  
HETATM    7  C   UNL     1     -11.594  14.101  69.005  1.00  0.00    -0.342 C  
HETATM    8  C   UNL     1     -12.308  15.454  69.041  1.00  0.00    -0.047 C  
HETATM    9  C   UNL     1     -10.112  14.219  69.403  1.00  0.00     0.111 C  
HETATM   10  C   UNL     1      -9.163  14.616  68.266  1.00  0.00    -0.198 C  
ENDROOT
BRANCH  10  11
HETATM   11  O   UNL     1      -9.415  15.956  67.769  1.00  0.00    -0.214 OA 
BRANCH  11  12
HETATM   12  C   UNL     1      -8.394  16.824  67.542  1.00  0.00    -0.188 C  
HETATM   13  O   UNL     1      -7.200  16.579  67.604  1.00  0.00    -0.125 OA 
BRANCH  12  14
HETATM   14  C   UNL     1      -8.983  18.143  67.171  1.00  0.00    -0.256 A  
HETATM   15  C   UNL     1     -10.085  18.166  66.294  1.00  0.00    -0.373 A  
HETATM   16  C   UNL     1     -10.661  19.374  65.898  1.00  0.00    -0.501 A  
HETATM   17  C   UNL     1     -10.145  20.572  66.387  1.00  0.00    -0.237 A  
HETATM   18  C   UNL     1      -9.048  20.557  67.252  1.00  0.00    -0.473 A  
HETATM   19  C   UNL     1      -8.417  19.354  67.619  1.00  0.00    -0.304 A  
HETATM   20  N   UNL     1      -7.408  19.413  68.599  1.00  0.00    -0.327 NA 
HETATM   21  H2  UNL     1      -6.642  18.816  68.285  1.00  0.00     0.000 HD 
HETATM   22  H1  UNL     1      -6.999  20.289  68.924  1.00  0.00     0.000 HD 
ENDBRANCH  12  14
ENDBRANCH  11  12
ENDBRANCH  10  11
TORSDOF 3
ENDMDL
MODEL      128
REMARK 921   NORMALIZED FREE ENERGY PREDICTED BY IDOCK:   -4.16 KCAL/MOL
REMARK 922        TOTAL FREE ENERGY PREDICTED BY IDOCK:   -5.80 KCAL/MOL
REMARK 923 INTER-LIGAND FREE ENERGY PREDICTED BY IDOCK:   -4.95 KCAL/MOL
REMARK 924 INTRA-LIGAND FREE ENERGY PREDICTED BY IDOCK:   -0.84 KCAL/MOL
REMARK 927      BINDING AFFINITY PREDICTED BY RF-SCORE:    0.00 PKD
ROOT
HETATM    1  C   UNL     1     -12.358  11.125  69.926  1.00  0.00    -0.330 C  
HETATM    2  C   UNL     1     -11.559  10.051  70.688  1.00  0.00    -0.422 C  
HETATM    3  C   UNL     1     -10.958   8.982  69.716  1.00  0.00    -0.177 C  
HETATM    4  C   UNL     1     -12.476   9.479  71.774  1.00  0.00    -0.484 C  
HETATM    5  C   UNL     1      -9.948   9.616  68.724  1.00  0.00    -0.184 C  
HETATM    6  C   UNL     1      -8.689  10.130  69.426  1.00  0.00    -0.186 C  
HETATM    7  C   UNL     1      -8.001   9.087  70.321  1.00  0.00    -0.124 C  
HETATM    8  C   UNL     1      -7.043   8.213  69.507  1.00  0.00    -0.051 C  
HETATM    9  C   UNL     1      -8.987   8.245  71.150  1.00  0.00    -0.192 C  
HETATM   10  C   UNL     1     -10.240   7.780  70.398  1.00  0.00    -0.197 C  
ENDROOT
BRANCH  10  11
HETATM   11  O   UNL     1      -9.935   6.854  69.322  1.00  0.00    -0.155 OA 
BRANCH  11  12
HETATM   12  C   UNL     1     -10.290   5.545  69.403  1.00  0.00    -0.278 C  
HETATM   13  O   UNL     1     -10.777   4.979  70.368  1.00  0.00    -0.168 OA 
BRANCH  12  14
HETATM   14  C   UNL     1     -10.006   4.908  68.085  1.00  0.00    -0.171 A  
HETATM   15  C   UNL     1      -9.244   3.723  68.058  1.00  0.00    -0.216 A  
HETATM   16  C   UNL     1      -8.933   3.098  66.850  1.00  0.00    -0.177 A  
HETATM   17  C   UNL     1      -9.392   3.647  65.656  1.00  0.00    -0.162 A  
HETATM   18  C   UNL     1     -10.142   4.826  65.674  1.00  0.00    -0.198 A  
HETATM   19  C   UNL     1     -10.420   5.503  66.876  1.00  0.00    -0.287 A  
HETATM   20  N   UNL     1     -11.295   6.604  66.823  1.00  0.00    -0.795 NA 
HETATM   21  H2  UNL     1     -10.894   7.341  67.404  1.00  0.00     0.000 HD 
HETATM   22  H1  UNL     1     -11.595   7.035  65.948  1.00  0.00     0.000 HD 
ENDBRANCH  12  14
ENDBRANCH  11  12
ENDBRANCH  10  11
TORSDOF 3
ENDMDL
MODEL      129
REMARK 921   NORMALIZED FREE ENERGY PREDICTED BY IDOCK:   -4.15 KCAL/MOL
REMARK 922        TOTAL FREE ENERGY PREDICTED BY IDOCK:   -5.79 KCAL/MOL
REMARK 923 INTER-LIGAND FREE ENERGY PREDICTED BY IDOCK:   -5.02 KCAL/MOL
REMARK 924 INTRA-LIGAND FREE ENERGY PREDICTED BY IDOCK:   -0.77 KCAL/MOL
REMARK 927      BINDING AFFINITY PREDICTED BY RF-SCORE:    0.00 PKD
ROOT
HETATM    1  C   UNL     1      -8.846   8.616  70.981  1.00  0.00    -0.235 C  
HETATM    2  C   UNL     1      -9.932   9.096  70.000  1.00  0.00    -0.223 C  
HETATM    3  C   UNL     1      -9.599  10.510  69.420  1.00  0.00    -0.170 C  
HETATM    4  C   UNL     1     -11.279   9.006  70.723  1.00  0.00    -0.329 C  
HETATM    5  C   UNL     1      -8.283  10.496  68.599  1.00  0.00    -0.130 C  
HETATM    6  C   UNL     1      -8.405   9.664  67.321  1.00  0.00    -0.114 C  
HETATM    7  C   UNL     1      -9.601  10.050  66.436  1.00  0.00    -0.248 C  
HETATM    8  C   UNL     1      -9.243  11.209  65.503  1.00  0.00    -0.236 C  
HETATM    9  C   UNL     1     -10.889  10.326  67.233  1.00  0.00    -0.312 C  
HETATM   10  C   UNL     1     -10.697  11.143  68.516  1.00  0.00    -0.201 C  
ENDROOT
BRANCH  10  11
HETATM   11  O   UNL     1     -10.246  12.498  68.255  1.00  0.00    -0.224 OA 
BRANCH  11  12
HETATM   12  C   UNL     1     -11.054  13.565  68.497  1.00  0.00    -0.272 C  
HETATM   13  O   UNL     1     -12.127  13.551  69.077  1.00  0.00    -0.341 OA 
BRANCH  12  14
HETATM   14  C   UNL     1     -10.387  14.782  67.951  1.00  0.00    -0.240 A  
HETATM   15  C   UNL     1     -10.848  15.313  66.730  1.00  0.00    -0.312 A  
HETATM   16  C   UNL     1     -10.246  16.437  66.164  1.00  0.00    -0.363 A  
HETATM   17  C   UNL     1      -9.182  17.049  66.823  1.00  0.00    -0.270 A  
HETATM   18  C   UNL     1      -8.715  16.523  68.030  1.00  0.00    -0.189 A  
HETATM   19  C   UNL     1      -9.271  15.359  68.590  1.00  0.00    -0.199 A  
HETATM   20  N   UNL     1      -8.837  14.973  69.873  1.00  0.00    -0.412 NA 
HETATM   21  H2  UNL     1      -8.690  13.964  69.855  1.00  0.00     0.000 HD 
HETATM   22  H1  UNL     1      -8.030  15.391  70.335  1.00  0.00     0.000 HD 
ENDBRANCH  12  14
ENDBRANCH  11  12
ENDBRANCH  10  11
TORSDOF 3
ENDMDL
MODEL      130
REMARK 921   NORMALIZED FREE ENERGY PREDICTED BY IDOCK:   -4.11 KCAL/MOL
REMARK 922        TOTAL FREE ENERGY PREDICTED BY IDOCK:   -5.75 KCAL/MOL
REMARK 923 INTER-LIGAND FREE ENERGY PREDICTED BY IDOCK:   -4.79 KCAL/MOL
REMARK 924 INTRA-LIGAND FREE ENERGY PREDICTED BY IDOCK:   -0.96 KCAL/MOL
REMARK 927      BINDING AFFINITY PREDICTED BY RF-SCORE:    0.00 PKD
ROOT
HETATM    1  C   UNL     1      -8.546   7.033  66.034  1.00  0.00    -0.154 C  
HETATM    2  C   UNL     1      -8.053   7.812  67.268  1.00  0.00    -0.119 C  
HETATM    3  C   UNL     1      -8.824   9.162  67.443  1.00  0.00    -0.125 C  
HETATM    4  C   UNL     1      -6.533   7.959  67.143  1.00  0.00    -0.056 C  
HETATM    5  C   UNL     1     -10.339   8.928  67.685  1.00  0.00    -0.313 C  
HETATM    6  C   UNL     1     -10.614   8.245  69.027  1.00  0.00    -0.167 C  
HETATM    7  C   UNL     1      -9.966   8.948  70.231  1.00  0.00    -0.214 C  
HETATM    8  C   UNL     1     -10.862  10.071  70.757  1.00  0.00    -0.330 C  
HETATM    9  C   UNL     1      -8.531   9.433  69.957  1.00  0.00    -0.202 C  
HETATM   10  C   UNL     1      -8.314  10.086  68.588  1.00  0.00    -0.116 C  
ENDROOT
BRANCH  10  11
HETATM   11  O   UNL     1      -9.051  11.328  68.437  1.00  0.00    -0.159 OA 
BRANCH  11  12
HETATM   12  C   UNL     1      -8.749  12.206  67.444  1.00  0.00    -0.177 C  
HETATM   13  O   UNL     1      -7.641  12.444  66.992  1.00  0.00    -0.132 OA 
BRANCH  12  14
HETATM   14  C   UNL     1     -10.022  12.821  66.970  1.00  0.00    -0.231 A  
HETATM   15  C   UNL     1     -10.493  12.490  65.684  1.00  0.00    -0.299 A  
HETATM   16  C   UNL     1     -11.667  13.053  65.183  1.00  0.00    -0.379 A  
HETATM   17  C   UNL     1     -12.388  13.947  65.971  1.00  0.00    -0.511 A  
HETATM   18  C   UNL     1     -11.923  14.285  67.245  1.00  0.00    -0.439 A  
HETATM   19  C   UNL     1     -10.714  13.772  67.747  1.00  0.00    -0.246 A  
HETATM   20  N   UNL     1     -10.386  14.053  69.087  1.00  0.00    -0.419 NA 
HETATM   21  H2  UNL     1      -9.396  14.299  69.114  1.00  0.00     0.000 HD 
HETATM   22  H1  UNL     1     -10.887  14.741  69.650  1.00  0.00     0.000 HD 
ENDBRANCH  12  14
ENDBRANCH  11  12
ENDBRANCH  10  11
TORSDOF 3
ENDMDL
MODEL      131
REMARK 921   NORMALIZED FREE ENERGY PREDICTED BY IDOCK:   -4.10 KCAL/MOL
REMARK 922        TOTAL FREE ENERGY PREDICTED BY IDOCK:   -5.73 KCAL/MOL
REMARK 923 INTER-LIGAND FREE ENERGY PREDICTED BY IDOCK:   -4.70 KCAL/MOL
REMARK 924 INTRA-LIGAND FREE ENERGY PREDICTED BY IDOCK:   -1.03 KCAL/MOL
REMARK 927      BINDING AFFINITY PREDICTED BY RF-SCORE:    0.00 PKD
ROOT
HETATM    1  C   UNL     1      -6.823   7.265  63.985  1.00  0.00    -0.052 C  
HETATM    2  C   UNL     1      -8.058   7.869  64.679  1.00  0.00    -0.125 C  
HETATM    3  C   UNL     1      -7.828   9.367  65.065  1.00  0.00    -0.115 C  
HETATM    4  C   UNL     1      -8.418   6.956  65.856  1.00  0.00    -0.147 C  
HETATM    5  C   UNL     1      -7.590  10.250  63.812  1.00  0.00    -0.092 C  
HETATM    6  C   UNL     1      -8.835  10.353  62.929  1.00  0.00    -0.237 C  
HETATM    7  C   UNL     1     -10.101  10.794  63.682  1.00  0.00    -0.375 C  
HETATM    8  C   UNL     1     -10.184  12.320  63.767  1.00  0.00    -0.427 C  
HETATM    9  C   UNL     1     -10.257  10.129  65.061  1.00  0.00    -0.203 C  
HETATM   10  C   UNL     1      -8.969  10.034  65.887  1.00  0.00    -0.154 C  
ENDROOT
BRANCH  10  11
HETATM   11  O   UNL     1      -8.455  11.336  66.273  1.00  0.00    -0.170 OA 
BRANCH  11  12
HETATM   12  C   UNL     1      -8.846  11.929  67.432  1.00  0.00    -0.171 C  
HETATM   13  O   UNL     1      -8.552  11.583  68.565  1.00  0.00    -0.152 OA 
BRANCH  12  14
HETATM   14  C   UNL     1      -9.687  13.111  67.084  1.00  0.00    -0.235 A  
HETATM   15  C   UNL     1      -9.047  14.291  66.657  1.00  0.00    -0.249 A  
HETATM   16  C   UNL     1      -9.784  15.432  66.339  1.00  0.00    -0.311 A  
HETATM   17  C   UNL     1     -11.173  15.398  66.435  1.00  0.00    -0.164 A  
HETATM   18  C   UNL     1     -11.814  14.233  66.865  1.00  0.00    -0.458 A  
HETATM   19  C   UNL     1     -11.087  13.090  67.243  1.00  0.00    -0.273 A  
HETATM   20  N   UNL     1     -11.809  11.917  67.532  1.00  0.00    -0.597 NA 
HETATM   21  H2  UNL     1     -11.401  11.506  68.372  1.00  0.00     0.000 HD 
HETATM   22  H1  UNL     1     -12.823  11.902  67.646  1.00  0.00     0.000 HD 
ENDBRANCH  12  14
ENDBRANCH  11  12
ENDBRANCH  10  11
TORSDOF 3
ENDMDL
MODEL      132
REMARK 921   NORMALIZED FREE ENERGY PREDICTED BY IDOCK:   -4.08 KCAL/MOL
REMARK 922        TOTAL FREE ENERGY PREDICTED BY IDOCK:   -5.71 KCAL/MOL
REMARK 923 INTER-LIGAND FREE ENERGY PREDICTED BY IDOCK:   -4.77 KCAL/MOL
REMARK 924 INTRA-LIGAND FREE ENERGY PREDICTED BY IDOCK:   -0.95 KCAL/MOL
REMARK 927      BINDING AFFINITY PREDICTED BY RF-SCORE:    0.00 PKD
ROOT
HETATM    1  C   UNL     1     -10.686   7.426  73.088  1.00  0.00    -0.436 C  
HETATM    2  C   UNL     1     -10.971   7.691  71.598  1.00  0.00    -0.267 C  
HETATM    3  C   UNL     1     -10.445   9.094  71.150  1.00  0.00    -0.385 C  
HETATM    4  C   UNL     1     -12.470   7.472  71.370  1.00  0.00    -0.382 C  
HETATM    5  C   UNL     1      -8.904   9.200  71.297  1.00  0.00    -0.182 C  
HETATM    6  C   UNL     1      -8.164   8.275  70.328  1.00  0.00    -0.121 C  
HETATM    7  C   UNL     1      -8.590   8.437  68.860  1.00  0.00    -0.135 C  
HETATM    8  C   UNL     1      -7.811   9.568  68.184  1.00  0.00    -0.083 C  
HETATM    9  C   UNL     1     -10.110   8.593  68.677  1.00  0.00    -0.207 C  
HETATM   10  C   UNL     1     -10.797   9.513  69.693  1.00  0.00    -0.235 C  
ENDROOT
BRANCH  10  11
HETATM   11  O   UNL     1     -10.369  10.895  69.576  1.00  0.00    -0.198 OA 
BRANCH  11  12
HETATM   12  C   UNL     1     -11.231  11.864  69.169  1.00  0.00    -0.255 C  
HETATM   13  O   UNL     1     -12.402  11.981  69.490  1.00  0.00    -0.154 OA 
BRANCH  12  14
HETATM   14  C   UNL     1     -10.489  12.794  68.270  1.00  0.00    -0.250 A  
HETATM   15  C   UNL     1      -9.223  13.261  68.679  1.00  0.00     0.017 A  
HETATM   16  C   UNL     1      -8.496  14.149  67.886  1.00  0.00    -0.167 A  
HETATM   17  C   UNL     1      -9.024  14.569  66.667  1.00  0.00    -0.247 A  
HETATM   18  C   UNL     1     -10.280  14.115  66.258  1.00  0.00    -0.301 A  
HETATM   19  C   UNL     1     -11.054  13.264  67.067  1.00  0.00    -0.282 A  
HETATM   20  N   UNL     1     -12.245  12.744  66.525  1.00  0.00    -0.496 NA 
HETATM   21  H2  UNL     1     -12.964  12.809  67.247  1.00  0.00     0.000 HD 
HETATM   22  H1  UNL     1     -12.654  13.084  65.655  1.00  0.00     0.000 HD 
ENDBRANCH  12  14
ENDBRANCH  11  12
ENDBRANCH  10  11
TORSDOF 3
ENDMDL
MODEL      133
REMARK 921   NORMALIZED FREE ENERGY PREDICTED BY IDOCK:   -4.08 KCAL/MOL
REMARK 922        TOTAL FREE ENERGY PREDICTED BY IDOCK:   -5.71 KCAL/MOL
REMARK 923 INTER-LIGAND FREE ENERGY PREDICTED BY IDOCK:   -4.95 KCAL/MOL
REMARK 924 INTRA-LIGAND FREE ENERGY PREDICTED BY IDOCK:   -0.76 KCAL/MOL
REMARK 927      BINDING AFFINITY PREDICTED BY RF-SCORE:    0.00 PKD
ROOT
HETATM    1  C   UNL     1      -9.203   4.233  67.867  1.00  0.00    -0.179 C  
HETATM    2  C   UNL     1      -9.455   5.678  67.398  1.00  0.00    -0.116 C  
HETATM    3  C   UNL     1      -9.231   6.707  68.555  1.00  0.00    -0.127 C  
HETATM    4  C   UNL     1     -10.852   5.722  66.770  1.00  0.00    -0.327 C  
HETATM    5  C   UNL     1      -7.764   6.691  69.058  1.00  0.00    -0.109 C  
HETATM    6  C   UNL     1      -6.782   7.202  68.002  1.00  0.00    -0.061 C  
HETATM    7  C   UNL     1      -7.149   8.577  67.420  1.00  0.00    -0.080 C  
HETATM    8  C   UNL     1      -6.605   9.707  68.298  1.00  0.00    -0.057 C  
HETATM    9  C   UNL     1      -8.653   8.740  67.135  1.00  0.00    -0.119 C  
HETATM   10  C   UNL     1      -9.585   8.186  68.219  1.00  0.00    -0.144 C  
ENDROOT
BRANCH  10  11
HETATM   11  O   UNL     1      -9.471   8.903  69.476  1.00  0.00    -0.155 OA 
BRANCH  11  12
HETATM   12  C   UNL     1     -10.106  10.089  69.667  1.00  0.00    -0.236 C  
HETATM   13  O   UNL     1      -9.817  11.162  69.163  1.00  0.00    -0.163 OA 
BRANCH  12  14
HETATM   14  C   UNL     1     -11.255   9.854  70.589  1.00  0.00    -0.416 A  
HETATM   15  C   UNL     1     -11.430   8.566  71.133  1.00  0.00    -0.322 A  
HETATM   16  C   UNL     1     -12.499   8.286  71.984  1.00  0.00    -0.393 A  
HETATM   17  C   UNL     1     -13.400   9.298  72.308  1.00  0.00    -0.547 A  
HETATM   18  C   UNL     1     -13.236  10.576  71.767  1.00  0.00    -0.522 A  
HETATM   19  C   UNL     1     -12.198  10.865  70.863  1.00  0.00    -0.381 A  
HETATM   20  N   UNL     1     -12.020  12.206  70.471  1.00  0.00    -0.500 NA 
HETATM   21  H2  UNL     1     -11.853  12.210  69.465  1.00  0.00     0.000 HD 
HETATM   22  H1  UNL     1     -12.702  12.938  70.670  1.00  0.00     0.000 HD 
ENDBRANCH  12  14
ENDBRANCH  11  12
ENDBRANCH  10  11
TORSDOF 3
ENDMDL
MODEL      134
REMARK 921   NORMALIZED FREE ENERGY PREDICTED BY IDOCK:   -4.06 KCAL/MOL
REMARK 922        TOTAL FREE ENERGY PREDICTED BY IDOCK:   -5.69 KCAL/MOL
REMARK 923 INTER-LIGAND FREE ENERGY PREDICTED BY IDOCK:   -4.61 KCAL/MOL
REMARK 924 INTRA-LIGAND FREE ENERGY PREDICTED BY IDOCK:   -1.08 KCAL/MOL
REMARK 927      BINDING AFFINITY PREDICTED BY RF-SCORE:    0.00 PKD
ROOT
HETATM    1  C   UNL     1     -11.145  16.098  69.947  1.00  0.00    -0.357 C  
HETATM    2  C   UNL     1     -10.204  15.449  68.914  1.00  0.00    -0.219 C  
HETATM    3  C   UNL     1     -10.487  13.918  68.759  1.00  0.00    -0.229 C  
HETATM    4  C   UNL     1      -8.767  15.793  69.320  1.00  0.00    -0.261 C  
HETATM    5  C   UNL     1     -11.921  13.653  68.230  1.00  0.00    -0.385 C  
HETATM    6  C   UNL     1     -12.110  14.144  66.793  1.00  0.00    -0.474 C  
HETATM    7  C   UNL     1     -11.053  13.617  65.808  1.00  0.00    -0.292 C  
HETATM    8  C   UNL     1     -11.449  12.243  65.262  1.00  0.00    -0.399 C  
HETATM    9  C   UNL     1      -9.625  13.622  66.382  1.00  0.00    -0.280 C  
HETATM   10  C   UNL     1      -9.505  13.142  67.833  1.00  0.00    -0.218 C  
ENDROOT
BRANCH  10  11
HETATM   11  O   UNL     1      -9.854  11.742  67.991  1.00  0.00    -0.173 OA 
BRANCH  11  12
HETATM   12  C   UNL     1      -8.896  10.800  68.199  1.00  0.00    -0.133 C  
HETATM   13  O   UNL     1      -8.460  10.428  69.276  1.00  0.00    -0.153 OA 
BRANCH  12  14
HETATM   14  C   UNL     1      -8.479  10.266  66.871  1.00  0.00    -0.126 A  
HETATM   15  C   UNL     1      -9.356   9.401  66.185  1.00  0.00    -0.262 A  
HETATM   16  C   UNL     1      -9.006   8.857  64.950  1.00  0.00    -0.128 A  
HETATM   17  C   UNL     1      -7.777   9.182  64.381  1.00  0.00    -0.119 A  
HETATM   18  C   UNL     1      -6.899  10.033  65.058  1.00  0.00    -0.132 A  
HETATM   19  C   UNL     1      -7.208  10.548  66.329  1.00  0.00    -0.133 A  
HETATM   20  N   UNL     1      -6.335  11.505  66.882  1.00  0.00    -0.137 NA 
HETATM   21  H2  UNL     1      -6.201  11.264  67.865  1.00  0.00     0.000 HD 
HETATM   22  H1  UNL     1      -5.416  11.710  66.490  1.00  0.00     0.000 HD 
ENDBRANCH  12  14
ENDBRANCH  11  12
ENDBRANCH  10  11
TORSDOF 3
ENDMDL
MODEL      135
REMARK 921   NORMALIZED FREE ENERGY PREDICTED BY IDOCK:   -4.05 KCAL/MOL
REMARK 922        TOTAL FREE ENERGY PREDICTED BY IDOCK:   -5.68 KCAL/MOL
REMARK 923 INTER-LIGAND FREE ENERGY PREDICTED BY IDOCK:   -4.84 KCAL/MOL
REMARK 924 INTRA-LIGAND FREE ENERGY PREDICTED BY IDOCK:   -0.84 KCAL/MOL
REMARK 927      BINDING AFFINITY PREDICTED BY RF-SCORE:    0.00 PKD
ROOT
HETATM    1  C   UNL     1     -10.645   1.908  72.657  1.00  0.00    -0.219 C  
HETATM    2  C   UNL     1      -9.803   3.054  72.066  1.00  0.00    -0.242 C  
HETATM    3  C   UNL     1     -10.454   4.450  72.342  1.00  0.00    -0.219 C  
HETATM    4  C   UNL     1      -9.573   2.741  70.584  1.00  0.00    -0.174 C  
HETATM    5  C   UNL     1     -10.543   4.749  73.861  1.00  0.00    -0.342 C  
HETATM    6  C   UNL     1      -9.164   4.926  74.500  1.00  0.00    -0.120 C  
HETATM    7  C   UNL     1      -8.273   5.956  73.787  1.00  0.00    -0.112 C  
HETATM    8  C   UNL     1      -8.556   7.372  74.296  1.00  0.00    -0.258 C  
HETATM    9  C   UNL     1      -8.343   5.869  72.252  1.00  0.00    -0.118 C  
HETATM   10  C   UNL     1      -9.748   5.667  71.675  1.00  0.00    -0.159 C  
ENDROOT
BRANCH  10  11
HETATM   11  O   UNL     1     -10.622   6.800  71.920  1.00  0.00    -0.207 OA 
BRANCH  11  12
HETATM   12  C   UNL     1     -11.678   7.060  71.104  1.00  0.00    -0.325 C  
HETATM   13  O   UNL     1     -12.858   7.064  71.416  1.00  0.00    -0.377 OA 
BRANCH  12  14
HETATM   14  C   UNL     1     -11.146   7.373  69.746  1.00  0.00    -0.169 A  
HETATM   15  C   UNL     1     -11.250   6.394  68.738  1.00  0.00    -0.358 A  
HETATM   16  C   UNL     1     -10.749   6.628  67.458  1.00  0.00    -0.387 A  
HETATM   17  C   UNL     1     -10.150   7.851  67.169  1.00  0.00    -0.328 A  
HETATM   18  C   UNL     1     -10.037   8.825  68.165  1.00  0.00    -0.228 A  
HETATM   19  C   UNL     1     -10.485   8.589  69.478  1.00  0.00    -0.220 A  
HETATM   20  N   UNL     1     -10.460   9.666  70.385  1.00  0.00    -0.273 NA 
HETATM   21  H2  UNL     1     -10.099   9.311  71.270  1.00  0.00     0.000 HD 
HETATM   22  H1  UNL     1      -9.982  10.545  70.190  1.00  0.00     0.000 HD 
ENDBRANCH  12  14
ENDBRANCH  11  12
ENDBRANCH  10  11
TORSDOF 3
ENDMDL
MODEL      136
REMARK 921   NORMALIZED FREE ENERGY PREDICTED BY IDOCK:   -4.05 KCAL/MOL
REMARK 922        TOTAL FREE ENERGY PREDICTED BY IDOCK:   -5.68 KCAL/MOL
REMARK 923 INTER-LIGAND FREE ENERGY PREDICTED BY IDOCK:   -4.66 KCAL/MOL
REMARK 924 INTRA-LIGAND FREE ENERGY PREDICTED BY IDOCK:   -1.01 KCAL/MOL
REMARK 927      BINDING AFFINITY PREDICTED BY RF-SCORE:    0.00 PKD
ROOT
HETATM    1  C   UNL     1     -11.114  11.666  65.614  1.00  0.00    -0.308 C  
HETATM    2  C   UNL     1     -10.641  11.390  67.054  1.00  0.00    -0.286 C  
HETATM    3  C   UNL     1     -10.164   9.911  67.231  1.00  0.00    -0.277 C  
HETATM    4  C   UNL     1     -11.771  11.811  67.999  1.00  0.00    -0.363 C  
HETATM    5  C   UNL     1      -8.941   9.594  66.330  1.00  0.00    -0.179 C  
HETATM    6  C   UNL     1      -7.691  10.369  66.754  1.00  0.00    -0.114 C  
HETATM    7  C   UNL     1      -7.334  10.215  68.241  1.00  0.00    -0.081 C  
HETATM    8  C   UNL     1      -6.489   8.961  68.476  1.00  0.00    -0.055 C  
HETATM    9  C   UNL     1      -8.558  10.269  69.174  1.00  0.00    -0.167 C  
HETATM   10  C   UNL     1      -9.786   9.494  68.682  1.00  0.00    -0.155 C  
ENDROOT
BRANCH  10  11
HETATM   11  O   UNL     1      -9.556   8.061  68.623  1.00  0.00    -0.146 OA 
BRANCH  11  12
HETATM   12  C   UNL     1     -10.374   7.193  69.275  1.00  0.00    -0.203 C  
HETATM   13  O   UNL     1     -11.123   6.374  68.767  1.00  0.00    -0.320 OA 
BRANCH  12  14
HETATM   14  C   UNL     1     -10.180   7.388  70.740  1.00  0.00    -0.200 A  
HETATM   15  C   UNL     1      -8.915   7.110  71.297  1.00  0.00    -0.147 A  
HETATM   16  C   UNL     1      -8.687   7.257  72.665  1.00  0.00    -0.145 A  
HETATM   17  C   UNL     1      -9.720   7.695  73.490  1.00  0.00    -0.358 A  
HETATM   18  C   UNL     1     -10.978   7.966  72.946  1.00  0.00    -0.452 A  
HETATM   19  C   UNL     1     -11.246   7.772  71.579  1.00  0.00    -0.244 A  
HETATM   20  N   UNL     1     -12.495   8.197  71.086  1.00  0.00    -0.465 NA 
HETATM   21  H2  UNL     1     -12.843   7.467  70.465  1.00  0.00     0.000 HD 
HETATM   22  H1  UNL     1     -13.266   8.475  71.693  1.00  0.00     0.000 HD 
ENDBRANCH  12  14
ENDBRANCH  11  12
ENDBRANCH  10  11
TORSDOF 3
ENDMDL
MODEL      137
REMARK 921   NORMALIZED FREE ENERGY PREDICTED BY IDOCK:   -4.04 KCAL/MOL
REMARK 922        TOTAL FREE ENERGY PREDICTED BY IDOCK:   -5.66 KCAL/MOL
REMARK 923 INTER-LIGAND FREE ENERGY PREDICTED BY IDOCK:   -4.61 KCAL/MOL
REMARK 924 INTRA-LIGAND FREE ENERGY PREDICTED BY IDOCK:   -1.05 KCAL/MOL
REMARK 927      BINDING AFFINITY PREDICTED BY RF-SCORE:    0.00 PKD
ROOT
HETATM    1  C   UNL     1      -7.368  10.930  69.154  1.00  0.00    -0.126 C  
HETATM    2  C   UNL     1      -8.879  10.727  69.371  1.00  0.00     0.027 C  
HETATM    3  C   UNL     1      -9.268   9.213  69.336  1.00  0.00    -0.156 C  
HETATM    4  C   UNL     1      -9.613  11.596  68.344  1.00  0.00    -0.195 C  
HETATM    5  C   UNL     1      -8.581   8.420  70.479  1.00  0.00    -0.137 C  
HETATM    6  C   UNL     1      -9.092   8.833  71.861  1.00  0.00    -0.291 C  
HETATM    7  C   UNL     1     -10.622   8.786  72.002  1.00  0.00    -0.414 C  
HETATM    8  C   UNL     1     -11.096   7.381  72.380  1.00  0.00    -0.331 C  
HETATM    9  C   UNL     1     -11.367   9.336  70.772  1.00  0.00    -0.349 C  
HETATM   10  C   UNL     1     -10.793   8.906  69.417  1.00  0.00    -0.119 C  
ENDROOT
BRANCH  10  11
HETATM   11  O   UNL     1     -10.911   7.478  69.186  1.00  0.00    -0.189 OA 
BRANCH  11  12
HETATM   12  C   UNL     1     -10.731   6.951  67.947  1.00  0.00    -0.232 C  
HETATM   13  O   UNL     1     -10.954   7.500  66.880  1.00  0.00    -0.292 OA 
BRANCH  12  14
HETATM   14  C   UNL     1     -10.179   5.574  68.106  1.00  0.00    -0.232 A  
HETATM   15  C   UNL     1      -9.666   5.195  69.363  1.00  0.00    -0.248 A  
HETATM   16  C   UNL     1      -9.119   3.927  69.561  1.00  0.00    -0.196 A  
HETATM   17  C   UNL     1      -9.092   3.020  68.504  1.00  0.00    -0.213 A  
HETATM   18  C   UNL     1      -9.593   3.392  67.254  1.00  0.00    -0.133 A  
HETATM   19  C   UNL     1     -10.097   4.683  67.018  1.00  0.00    -0.167 A  
HETATM   20  N   UNL     1     -10.708   4.934  65.774  1.00  0.00    -0.618 NA 
HETATM   21  H2  UNL     1     -10.377   5.843  65.449  1.00  0.00     0.000 HD 
HETATM   22  H1  UNL     1     -10.648   4.289  64.986  1.00  0.00     0.000 HD 
ENDBRANCH  12  14
ENDBRANCH  11  12
ENDBRANCH  10  11
TORSDOF 3
ENDMDL
MODEL      138
REMARK 921   NORMALIZED FREE ENERGY PREDICTED BY IDOCK:   -4.02 KCAL/MOL
REMARK 922        TOTAL FREE ENERGY PREDICTED BY IDOCK:   -5.64 KCAL/MOL
REMARK 923 INTER-LIGAND FREE ENERGY PREDICTED BY IDOCK:   -4.92 KCAL/MOL
REMARK 924 INTRA-LIGAND FREE ENERGY PREDICTED BY IDOCK:   -0.72 KCAL/MOL
REMARK 927      BINDING AFFINITY PREDICTED BY RF-SCORE:    0.00 PKD
ROOT
HETATM    1  C   UNL     1      -8.752   5.400  65.350  1.00  0.00    -0.154 C  
HETATM    2  C   UNL     1      -8.340   6.601  66.221  1.00  0.00    -0.125 C  
HETATM    3  C   UNL     1      -9.526   7.602  66.420  1.00  0.00    -0.224 C  
HETATM    4  C   UNL     1      -7.086   7.218  65.592  1.00  0.00    -0.065 C  
HETATM    5  C   UNL     1     -10.712   6.940  67.170  1.00  0.00    -0.436 C  
HETATM    6  C   UNL     1     -10.361   6.592  68.618  1.00  0.00    -0.208 C  
HETATM    7  C   UNL     1      -9.789   7.770  69.424  1.00  0.00    -0.176 C  
HETATM    8  C   UNL     1     -10.910   8.619  70.027  1.00  0.00    -0.226 C  
HETATM    9  C   UNL     1      -8.781   8.622  68.631  1.00  0.00    -0.138 C  
HETATM   10  C   UNL     1      -9.178   8.916  67.180  1.00  0.00    -0.139 C  
ENDROOT
BRANCH  10  11
HETATM   11  O   UNL     1     -10.366   9.743  67.081  1.00  0.00    -0.222 OA 
BRANCH  11  12
HETATM   12  C   UNL     1     -10.458  10.730  66.150  1.00  0.00    -0.214 C  
HETATM   13  O   UNL     1     -10.469  10.591  64.938  1.00  0.00    -0.301 OA 
BRANCH  12  14
HETATM   14  C   UNL     1     -10.575  12.032  66.868  1.00  0.00    -0.260 A  
HETATM   15  C   UNL     1      -9.765  13.107  66.450  1.00  0.00    -0.269 A  
HETATM   16  C   UNL     1      -9.819  14.340  67.100  1.00  0.00    -0.252 A  
HETATM   17  C   UNL     1     -10.695  14.513  68.170  1.00  0.00    -0.240 A  
HETATM   18  C   UNL     1     -11.496  13.449  68.594  1.00  0.00    -0.345 A  
HETATM   19  C   UNL     1     -11.417  12.182  67.988  1.00  0.00    -0.319 A  
HETATM   20  N   UNL     1     -12.352  11.205  68.381  1.00  0.00    -0.607 NA 
HETATM   21  H2  UNL     1     -11.846  10.327  68.496  1.00  0.00     0.000 HD 
HETATM   22  H1  UNL     1     -12.961  11.315  69.192  1.00  0.00     0.000 HD 
ENDBRANCH  12  14
ENDBRANCH  11  12
ENDBRANCH  10  11
TORSDOF 3
ENDMDL
MODEL      139
REMARK 921   NORMALIZED FREE ENERGY PREDICTED BY IDOCK:   -4.02 KCAL/MOL
REMARK 922        TOTAL FREE ENERGY PREDICTED BY IDOCK:   -5.64 KCAL/MOL
REMARK 923 INTER-LIGAND FREE ENERGY PREDICTED BY IDOCK:   -5.08 KCAL/MOL
REMARK 924 INTRA-LIGAND FREE ENERGY PREDICTED BY IDOCK:   -0.55 KCAL/MOL
REMARK 927      BINDING AFFINITY PREDICTED BY RF-SCORE:    0.00 PKD
ROOT
HETATM    1  C   UNL     1      -8.198   9.919  67.125  1.00  0.00    -0.121 C  
HETATM    2  C   UNL     1      -9.333  10.954  67.245  1.00  0.00    -0.168 C  
HETATM    3  C   UNL     1      -9.195  12.087  66.176  1.00  0.00    -0.181 C  
HETATM    4  C   UNL     1      -9.355  11.448  68.696  1.00  0.00    -0.155 C  
HETATM    5  C   UNL     1      -9.303  11.527  64.733  1.00  0.00    -0.059 C  
HETATM    6  C   UNL     1     -10.700  10.986  64.423  1.00  0.00    -0.340 C  
HETATM    7  C   UNL     1     -11.835  11.981  64.714  1.00  0.00    -0.325 C  
HETATM    8  C   UNL     1     -12.065  12.914  63.523  1.00  0.00    -0.633 C  
HETATM    9  C   UNL     1     -11.646  12.758  66.029  1.00  0.00    -0.432 C  
HETATM   10  C   UNL     1     -10.220  13.253  66.293  1.00  0.00    -0.296 C  
ENDROOT
BRANCH  10  11
HETATM   11  O   UNL     1      -9.784  14.247  65.329  1.00  0.00    -0.230 OA 
BRANCH  11  12
HETATM   12  C   UNL     1      -9.958  15.575  65.563  1.00  0.00    -0.341 C  
HETATM   13  O   UNL     1     -10.114  16.449  64.726  1.00  0.00    -0.190 OA 
BRANCH  12  14
HETATM   14  C   UNL     1      -9.955  15.787  67.039  1.00  0.00    -0.240 A  
HETATM   15  C   UNL     1     -11.191  15.880  67.710  1.00  0.00    -0.258 A  
HETATM   16  C   UNL     1     -11.245  16.100  69.086  1.00  0.00    -0.336 A  
HETATM   17  C   UNL     1     -10.060  16.217  69.808  1.00  0.00    -0.162 A  
HETATM   18  C   UNL     1      -8.831  16.133  69.149  1.00  0.00    -0.239 A  
HETATM   19  C   UNL     1      -8.754  15.968  67.754  1.00  0.00    -0.167 A  
HETATM   20  N   UNL     1      -7.483  15.755  67.185  1.00  0.00    -0.213 NA 
HETATM   21  H2  UNL     1      -7.426  16.328  66.343  1.00  0.00     0.000 HD 
HETATM   22  H1  UNL     1      -6.614  15.885  67.703  1.00  0.00     0.000 HD 
ENDBRANCH  12  14
ENDBRANCH  11  12
ENDBRANCH  10  11
TORSDOF 3
ENDMDL
MODEL      140
REMARK 921   NORMALIZED FREE ENERGY PREDICTED BY IDOCK:   -4.00 KCAL/MOL
REMARK 922        TOTAL FREE ENERGY PREDICTED BY IDOCK:   -5.61 KCAL/MOL
REMARK 923 INTER-LIGAND FREE ENERGY PREDICTED BY IDOCK:   -4.81 KCAL/MOL
REMARK 924 INTRA-LIGAND FREE ENERGY PREDICTED BY IDOCK:   -0.80 KCAL/MOL
REMARK 927      BINDING AFFINITY PREDICTED BY RF-SCORE:    0.00 PKD
ROOT
HETATM    1  C   UNL     1      -9.058   4.085  67.573  1.00  0.00    -0.168 C  
HETATM    2  C   UNL     1      -8.657   5.291  68.443  1.00  0.00    -0.095 C  
HETATM    3  C   UNL     1      -9.475   6.570  68.066  1.00  0.00    -0.120 C  
HETATM    4  C   UNL     1      -7.138   5.453  68.334  1.00  0.00    -0.062 C  
HETATM    5  C   UNL     1     -10.994   6.372  68.317  1.00  0.00    -0.396 C  
HETATM    6  C   UNL     1     -11.323   6.228  69.804  1.00  0.00    -0.506 C  
HETATM    7  C   UNL     1     -10.764   7.360  70.681  1.00  0.00    -0.242 C  
HETATM    8  C   UNL     1     -11.719   8.555  70.709  1.00  0.00    -0.228 C  
HETATM    9  C   UNL     1      -9.330   7.775  70.304  1.00  0.00    -0.156 C  
HETATM   10  C   UNL     1      -9.056   7.878  68.799  1.00  0.00    -0.140 C  
ENDROOT
BRANCH  10  11
HETATM   11  O   UNL     1      -9.819   8.937  68.163  1.00  0.00    -0.157 OA 
BRANCH  11  12
HETATM   12  C   UNL     1      -9.290   9.668  67.146  1.00  0.00    -0.139 C  
HETATM   13  O   UNL     1      -8.319   9.378  66.467  1.00  0.00    -0.117 OA 
BRANCH  12  14
HETATM   14  C   UNL     1     -10.126  10.892  66.975  1.00  0.00    -0.244 A  
HETATM   15  C   UNL     1     -10.651  11.177  65.698  1.00  0.00    -0.286 A  
HETATM   16  C   UNL     1     -11.421  12.319  65.478  1.00  0.00    -0.408 A  
HETATM   17  C   UNL     1     -11.684  13.182  66.539  1.00  0.00    -0.433 A  
HETATM   18  C   UNL     1     -11.161  12.910  67.806  1.00  0.00    -0.319 A  
HETATM   19  C   UNL     1     -10.336  11.794  68.037  1.00  0.00    -0.198 A  
HETATM   20  N   UNL     1      -9.964  11.514  69.366  1.00  0.00    -0.391 NA 
HETATM   21  H2  UNL     1      -8.972  11.275  69.361  1.00  0.00     0.000 HD 
HETATM   22  H1  UNL     1     -10.117  12.167  70.134  1.00  0.00     0.000 HD 
ENDBRANCH  12  14
ENDBRANCH  11  12
ENDBRANCH  10  11
TORSDOF 3
ENDMDL
MODEL      141
REMARK 921   NORMALIZED FREE ENERGY PREDICTED BY IDOCK:   -3.99 KCAL/MOL
REMARK 922        TOTAL FREE ENERGY PREDICTED BY IDOCK:   -5.61 KCAL/MOL
REMARK 923 INTER-LIGAND FREE ENERGY PREDICTED BY IDOCK:   -4.68 KCAL/MOL
REMARK 924 INTRA-LIGAND FREE ENERGY PREDICTED BY IDOCK:   -0.93 KCAL/MOL
REMARK 927      BINDING AFFINITY PREDICTED BY RF-SCORE:    0.00 PKD
ROOT
HETATM    1  C   UNL     1     -10.463  19.768  68.299  1.00  0.00    -0.449 C  
HETATM    2  C   UNL     1     -10.404  18.470  67.473  1.00  0.00    -0.440 C  
HETATM    3  C   UNL     1      -9.666  17.328  68.247  1.00  0.00    -0.294 C  
HETATM    4  C   UNL     1      -9.789  18.816  66.113  1.00  0.00    -0.327 C  
HETATM    5  C   UNL     1     -10.412  16.948  69.553  1.00  0.00    -0.228 C  
HETATM    6  C   UNL     1     -11.771  16.301  69.279  1.00  0.00    -0.127 C  
HETATM    7  C   UNL     1     -11.711  15.107  68.313  1.00  0.00    -0.336 C  
HETATM    8  C   UNL     1     -11.381  13.812  69.060  1.00  0.00    -0.333 C  
HETATM    9  C   UNL     1     -10.775  15.336  67.113  1.00  0.00    -0.316 C  
HETATM   10  C   UNL     1      -9.439  16.010  67.449  1.00  0.00    -0.219 C  
ENDROOT
BRANCH  10  11
HETATM   11  O   UNL     1      -8.595  15.188  68.296  1.00  0.00    -0.156 OA 
BRANCH  11  12
HETATM   12  C   UNL     1      -7.472  14.599  67.806  1.00  0.00    -0.166 C  
HETATM   13  O   UNL     1      -6.513  15.161  67.303  1.00  0.00    -0.306 OA 
BRANCH  12  14
HETATM   14  C   UNL     1      -7.595  13.127  68.015  1.00  0.00    -0.144 A  
HETATM   15  C   UNL     1      -8.277  12.363  67.047  1.00  0.00    -0.141 A  
HETATM   16  C   UNL     1      -8.438  10.987  67.203  1.00  0.00    -0.137 A  
HETATM   17  C   UNL     1      -7.907  10.358  68.327  1.00  0.00    -0.105 A  
HETATM   18  C   UNL     1      -7.236  11.110  69.294  1.00  0.00    -0.112 A  
HETATM   19  C   UNL     1      -7.110  12.507  69.184  1.00  0.00     0.020 A  
HETATM   20  N   UNL     1      -6.303  13.171  70.127  1.00  0.00    -0.361 NA 
HETATM   21  H2  UNL     1      -6.800  14.015  70.414  1.00  0.00     0.000 HD 
HETATM   22  H1  UNL     1      -5.952  12.722  70.973  1.00  0.00     0.000 HD 
ENDBRANCH  12  14
ENDBRANCH  11  12
ENDBRANCH  10  11
TORSDOF 3
ENDMDL
MODEL      142
REMARK 921   NORMALIZED FREE ENERGY PREDICTED BY IDOCK:   -3.98 KCAL/MOL
REMARK 922        TOTAL FREE ENERGY PREDICTED BY IDOCK:   -5.59 KCAL/MOL
REMARK 923 INTER-LIGAND FREE ENERGY PREDICTED BY IDOCK:   -4.77 KCAL/MOL
REMARK 924 INTRA-LIGAND FREE ENERGY PREDICTED BY IDOCK:   -0.82 KCAL/MOL
REMARK 927      BINDING AFFINITY PREDICTED BY RF-SCORE:    0.00 PKD
ROOT
HETATM    1  C   UNL     1      -6.436   9.853  67.094  1.00  0.00    -0.069 C  
HETATM    2  C   UNL     1      -7.914   9.460  67.276  1.00  0.00    -0.106 C  
HETATM    3  C   UNL     1      -8.531  10.111  68.558  1.00  0.00    -0.121 C  
HETATM    4  C   UNL     1      -7.992   7.930  67.240  1.00  0.00    -0.118 C  
HETATM    5  C   UNL     1      -8.527  11.660  68.469  1.00  0.00    -0.135 C  
HETATM    6  C   UNL     1      -9.468  12.182  67.381  1.00  0.00    -0.179 C  
HETATM    7  C   UNL     1     -10.903  11.639  67.482  1.00  0.00    -0.287 C  
HETATM    8  C   UNL     1     -11.742  12.484  68.443  1.00  0.00    -0.375 C  
HETATM    9  C   UNL     1     -10.968  10.140  67.823  1.00  0.00    -0.338 C  
HETATM   10  C   UNL     1      -9.984   9.674  68.903  1.00  0.00    -0.178 C  
ENDROOT
BRANCH  10  11
HETATM   11  O   UNL     1     -10.263  10.258  70.203  1.00  0.00    -0.230 OA 
BRANCH  11  12
HETATM   12  C   UNL     1     -11.303   9.820  70.960  1.00  0.00    -0.387 C  
HETATM   13  O   UNL     1     -12.341  10.420  71.190  1.00  0.00    -0.331 OA 
BRANCH  12  14
HETATM   14  C   UNL     1     -10.975   8.450  71.448  1.00  0.00    -0.311 A  
HETATM   15  C   UNL     1     -11.954   7.442  71.338  1.00  0.00    -0.340 A  
HETATM   16  C   UNL     1     -11.706   6.149  71.799  1.00  0.00    -0.312 A  
HETATM   17  C   UNL     1     -10.469   5.848  72.363  1.00  0.00    -0.246 A  
HETATM   18  C   UNL     1      -9.496   6.844  72.481  1.00  0.00    -0.154 A  
HETATM   19  C   UNL     1      -9.745   8.167  72.075  1.00  0.00    -0.227 A  
HETATM   20  N   UNL     1      -8.670   9.077  72.100  1.00  0.00    -0.322 NA 
HETATM   21  H2  UNL     1      -9.019   9.951  72.493  1.00  0.00     0.000 HD 
HETATM   22  H1  UNL     1      -7.779   8.872  72.553  1.00  0.00     0.000 HD 
ENDBRANCH  12  14
ENDBRANCH  11  12
ENDBRANCH  10  11
TORSDOF 3
ENDMDL
MODEL      143
REMARK 921   NORMALIZED FREE ENERGY PREDICTED BY IDOCK:   -3.98 KCAL/MOL
REMARK 922        TOTAL FREE ENERGY PREDICTED BY IDOCK:   -5.59 KCAL/MOL
REMARK 923 INTER-LIGAND FREE ENERGY PREDICTED BY IDOCK:   -4.61 KCAL/MOL
REMARK 924 INTRA-LIGAND FREE ENERGY PREDICTED BY IDOCK:   -0.98 KCAL/MOL
REMARK 927      BINDING AFFINITY PREDICTED BY RF-SCORE:    0.00 PKD
ROOT
HETATM    1  C   UNL     1     -11.472  12.164  65.258  1.00  0.00    -0.388 C  
HETATM    2  C   UNL     1     -10.801  11.689  66.559  1.00  0.00    -0.328 C  
HETATM    3  C   UNL     1     -10.652  10.132  66.596  1.00  0.00    -0.214 C  
HETATM    4  C   UNL     1     -11.594  12.279  67.730  1.00  0.00    -0.416 C  
HETATM    5  C   UNL     1      -9.738   9.618  65.453  1.00  0.00    -0.365 C  
HETATM    6  C   UNL     1      -8.285  10.066  65.626  1.00  0.00    -0.143 C  
HETATM    7  C   UNL     1      -7.687   9.731  67.001  1.00  0.00    -0.095 C  
HETATM    8  C   UNL     1      -7.124   8.308  67.023  1.00  0.00    -0.079 C  
HETATM    9  C   UNL     1      -8.656   9.987  68.169  1.00  0.00    -0.118 C  
HETATM   10  C   UNL     1     -10.102   9.538  67.926  1.00  0.00    -0.191 C  
ENDROOT
BRANCH  10  11
HETATM   11  O   UNL     1     -10.225   8.099  67.785  1.00  0.00    -0.202 OA 
BRANCH  11  12
HETATM   12  C   UNL     1     -10.428   7.302  68.867  1.00  0.00    -0.206 C  
HETATM   13  O   UNL     1     -11.009   7.605  69.897  1.00  0.00    -0.250 OA 
BRANCH  12  14
HETATM   14  C   UNL     1      -9.837   5.965  68.574  1.00  0.00    -0.166 A  
HETATM   15  C   UNL     1      -8.922   5.415  69.494  1.00  0.00    -0.125 A  
HETATM   16  C   UNL     1      -8.324   4.177  69.258  1.00  0.00    -0.083 A  
HETATM   17  C   UNL     1      -8.647   3.470  68.102  1.00  0.00    -0.119 A  
HETATM   18  C   UNL     1      -9.548   4.012  67.182  1.00  0.00    -0.231 A  
HETATM   19  C   UNL     1     -10.119   5.283  67.373  1.00  0.00    -0.187 A  
HETATM   20  N   UNL     1     -11.120   5.697  66.473  1.00  0.00    -0.707 NA 
HETATM   21  H2  UNL     1     -10.931   6.671  66.233  1.00  0.00     0.000 HD 
HETATM   22  H1  UNL     1     -11.324   5.204  65.604  1.00  0.00     0.000 HD 
ENDBRANCH  12  14
ENDBRANCH  11  12
ENDBRANCH  10  11
TORSDOF 3
ENDMDL
MODEL      144
REMARK 921   NORMALIZED FREE ENERGY PREDICTED BY IDOCK:   -3.97 KCAL/MOL
REMARK 922        TOTAL FREE ENERGY PREDICTED BY IDOCK:   -5.59 KCAL/MOL
REMARK 923 INTER-LIGAND FREE ENERGY PREDICTED BY IDOCK:   -4.61 KCAL/MOL
REMARK 924 INTRA-LIGAND FREE ENERGY PREDICTED BY IDOCK:   -0.98 KCAL/MOL
REMARK 927      BINDING AFFINITY PREDICTED BY RF-SCORE:    0.00 PKD
ROOT
HETATM    1  C   UNL     1      -5.807  10.475  66.875  1.00  0.00    -0.058 C  
HETATM    2  C   UNL     1      -6.802  10.357  68.045  1.00  0.00    -0.069 C  
HETATM    3  C   UNL     1      -8.272  10.194  67.537  1.00  0.00    -0.114 C  
HETATM    4  C   UNL     1      -6.577  11.561  68.965  1.00  0.00    -0.089 C  
HETATM    5  C   UNL     1      -8.451   8.891  66.714  1.00  0.00    -0.117 C  
HETATM    6  C   UNL     1      -8.286   7.635  67.572  1.00  0.00    -0.121 C  
HETATM    7  C   UNL     1      -9.168   7.617  68.830  1.00  0.00    -0.139 C  
HETATM    8  C   UNL     1     -10.563   7.070  68.515  1.00  0.00    -0.235 C  
HETATM    9  C   UNL     1      -9.229   8.973  69.555  1.00  0.00    -0.152 C  
HETATM   10  C   UNL     1      -9.371  10.195  68.640  1.00  0.00    -0.161 C  
ENDROOT
BRANCH  10  11
HETATM   11  O   UNL     1     -10.634  10.215  67.925  1.00  0.00    -0.212 OA 
BRANCH  11  12
HETATM   12  C   UNL     1     -11.632  11.063  68.288  1.00  0.00    -0.284 C  
HETATM   13  O   UNL     1     -12.531  10.835  69.082  1.00  0.00    -0.377 OA 
BRANCH  12  14
HETATM   14  C   UNL     1     -11.429  12.352  67.566  1.00  0.00    -0.410 A  
HETATM   15  C   UNL     1     -11.460  12.347  66.157  1.00  0.00    -0.430 A  
HETATM   16  C   UNL     1     -11.254  13.520  65.431  1.00  0.00    -0.301 A  
HETATM   17  C   UNL     1     -11.029  14.715  66.110  1.00  0.00    -0.329 A  
HETATM   18  C   UNL     1     -10.990  14.726  67.507  1.00  0.00    -0.304 A  
HETATM   19  C   UNL     1     -11.139  13.545  68.257  1.00  0.00    -0.261 A  
HETATM   20  N   UNL     1     -11.225  13.661  69.657  1.00  0.00    -0.445 NA 
HETATM   21  H2  UNL     1     -10.644  12.926  70.061  1.00  0.00     0.000 HD 
HETATM   22  H1  UNL     1     -11.016  14.525  70.157  1.00  0.00     0.000 HD 
ENDBRANCH  12  14
ENDBRANCH  11  12
ENDBRANCH  10  11
TORSDOF 3
ENDMDL
MODEL      145
REMARK 921   NORMALIZED FREE ENERGY PREDICTED BY IDOCK:   -3.97 KCAL/MOL
REMARK 922        TOTAL FREE ENERGY PREDICTED BY IDOCK:   -5.58 KCAL/MOL
REMARK 923 INTER-LIGAND FREE ENERGY PREDICTED BY IDOCK:   -4.55 KCAL/MOL
REMARK 924 INTRA-LIGAND FREE ENERGY PREDICTED BY IDOCK:   -1.03 KCAL/MOL
REMARK 927      BINDING AFFINITY PREDICTED BY RF-SCORE:    0.00 PKD
ROOT
HETATM    1  C   UNL     1     -11.744  11.682  69.785  1.00  0.00    -0.425 C  
HETATM    2  C   UNL     1     -11.535  10.217  69.360  1.00  0.00    -0.202 C  
HETATM    3  C   UNL     1     -10.676   9.430  70.404  1.00  0.00    -0.317 C  
HETATM    4  C   UNL     1     -10.958  10.227  67.940  1.00  0.00    -0.350 C  
HETATM    5  C   UNL     1     -11.379   9.358  71.785  1.00  0.00    -0.387 C  
HETATM    6  C   UNL     1     -12.655   8.514  71.743  1.00  0.00    -0.387 C  
HETATM    7  C   UNL     1     -12.455   7.109  71.153  1.00  0.00    -0.400 C  
HETATM    8  C   UNL     1     -11.984   6.125  72.227  1.00  0.00    -0.285 C  
HETATM    9  C   UNL     1     -11.546   7.089  69.912  1.00  0.00    -0.179 C  
HETATM   10  C   UNL     1     -10.297   7.973  70.005  1.00  0.00    -0.218 C  
ENDROOT
BRANCH  10  11
HETATM   11  O   UNL     1      -9.368   7.524  71.026  1.00  0.00    -0.155 OA 
BRANCH  11  12
HETATM   12  C   UNL     1      -8.471   6.536  70.772  1.00  0.00    -0.134 C  
HETATM   13  O   UNL     1      -7.560   6.568  69.961  1.00  0.00    -0.095 OA 
BRANCH  12  14
HETATM   14  C   UNL     1      -8.770   5.395  71.684  1.00  0.00    -0.139 A  
HETATM   15  C   UNL     1      -8.497   5.540  73.059  1.00  0.00    -0.118 A  
HETATM   16  C   UNL     1      -8.739   4.497  73.952  1.00  0.00    -0.105 A  
HETATM   17  C   UNL     1      -9.269   3.299  73.479  1.00  0.00    -0.103 A  
HETATM   18  C   UNL     1      -9.536   3.145  72.116  1.00  0.00    -0.209 A  
HETATM   19  C   UNL     1      -9.248   4.164  71.190  1.00  0.00    -0.131 A  
HETATM   20  N   UNL     1      -9.672   3.984  69.860  1.00  0.00    -0.210 NA 
HETATM   21  H2  UNL     1      -8.908   4.280  69.252  1.00  0.00     0.000 HD 
HETATM   22  H1  UNL     1     -10.018   3.093  69.503  1.00  0.00     0.000 HD 
ENDBRANCH  12  14
ENDBRANCH  11  12
ENDBRANCH  10  11
TORSDOF 3
ENDMDL
MODEL      146
REMARK 921   NORMALIZED FREE ENERGY PREDICTED BY IDOCK:   -3.96 KCAL/MOL
REMARK 922        TOTAL FREE ENERGY PREDICTED BY IDOCK:   -5.57 KCAL/MOL
REMARK 923 INTER-LIGAND FREE ENERGY PREDICTED BY IDOCK:   -4.55 KCAL/MOL
REMARK 924 INTRA-LIGAND FREE ENERGY PREDICTED BY IDOCK:   -1.02 KCAL/MOL
REMARK 927      BINDING AFFINITY PREDICTED BY RF-SCORE:    0.00 PKD
ROOT
HETATM    1  C   UNL     1      -8.113  12.718  67.489  1.00  0.00    -0.180 C  
HETATM    2  C   UNL     1      -7.988  11.325  68.133  1.00  0.00    -0.131 C  
HETATM    3  C   UNL     1      -9.389  10.719  68.473  1.00  0.00    -0.174 C  
HETATM    4  C   UNL     1      -7.044  11.455  69.333  1.00  0.00    -0.065 C  
HETATM    5  C   UNL     1     -10.244  10.503  67.196  1.00  0.00    -0.270 C  
HETATM    6  C   UNL     1      -9.660   9.424  66.282  1.00  0.00    -0.297 C  
HETATM    7  C   UNL     1      -9.382   8.088  66.991  1.00  0.00    -0.197 C  
HETATM    8  C   UNL     1     -10.636   7.212  67.022  1.00  0.00    -0.413 C  
HETATM    9  C   UNL     1      -8.758   8.254  68.388  1.00  0.00    -0.133 C  
HETATM   10  C   UNL     1      -9.370   9.367  69.246  1.00  0.00    -0.167 C  
ENDROOT
BRANCH  10  11
HETATM   11  O   UNL     1     -10.754   9.106  69.598  1.00  0.00    -0.228 OA 
BRANCH  11  12
HETATM   12  C   UNL     1     -11.115   8.858  70.885  1.00  0.00    -0.271 C  
HETATM   13  O   UNL     1     -11.807   9.565  71.599  1.00  0.00    -0.366 OA 
BRANCH  12  14
HETATM   14  C   UNL     1     -10.538   7.540  71.280  1.00  0.00    -0.230 A  
HETATM   15  C   UNL     1     -11.050   6.373  70.679  1.00  0.00    -0.376 A  
HETATM   16  C   UNL     1     -10.561   5.114  71.028  1.00  0.00    -0.201 A  
HETATM   17  C   UNL     1      -9.545   5.011  71.974  1.00  0.00    -0.200 A  
HETATM   18  C   UNL     1      -9.037   6.164  72.580  1.00  0.00    -0.138 A  
HETATM   19  C   UNL     1      -9.554   7.438  72.284  1.00  0.00    -0.151 A  
HETATM   20  N   UNL     1      -8.898   8.558  72.832  1.00  0.00    -0.359 NA 
HETATM   21  H2  UNL     1      -9.618   9.196  73.173  1.00  0.00     0.000 HD 
HETATM   22  H1  UNL     1      -8.186   8.484  73.558  1.00  0.00     0.000 HD 
ENDBRANCH  12  14
ENDBRANCH  11  12
ENDBRANCH  10  11
TORSDOF 3
ENDMDL
MODEL      147
REMARK 921   NORMALIZED FREE ENERGY PREDICTED BY IDOCK:   -3.93 KCAL/MOL
REMARK 922        TOTAL FREE ENERGY PREDICTED BY IDOCK:   -5.53 KCAL/MOL
REMARK 923 INTER-LIGAND FREE ENERGY PREDICTED BY IDOCK:   -4.69 KCAL/MOL
REMARK 924 INTRA-LIGAND FREE ENERGY PREDICTED BY IDOCK:   -0.85 KCAL/MOL
REMARK 927      BINDING AFFINITY PREDICTED BY RF-SCORE:    0.00 PKD
ROOT
HETATM    1  C   UNL     1      -5.369   8.410  69.311  1.00  0.00    -0.031 C  
HETATM    2  C   UNL     1      -6.329   8.820  70.443  1.00  0.00    -0.040 C  
HETATM    3  C   UNL     1      -7.558   7.856  70.535  1.00  0.00    -0.081 C  
HETATM    4  C   UNL     1      -6.691  10.294  70.228  1.00  0.00    -0.143 C  
HETATM    5  C   UNL     1      -7.122   6.407  70.874  1.00  0.00    -0.070 C  
HETATM    6  C   UNL     1      -6.539   6.290  72.284  1.00  0.00    -0.063 C  
HETATM    7  C   UNL     1      -7.445   6.865  73.385  1.00  0.00    -0.083 C  
HETATM    8  C   UNL     1      -8.466   5.825  73.853  1.00  0.00    -0.118 C  
HETATM    9  C   UNL     1      -8.112   8.196  72.996  1.00  0.00    -0.230 C  
HETATM   10  C   UNL     1      -8.655   8.259  71.564  1.00  0.00    -0.155 C  
ENDROOT
BRANCH  10  11
HETATM   11  O   UNL     1      -9.750   7.334  71.339  1.00  0.00    -0.165 OA 
BRANCH  11  12
HETATM   12  C   UNL     1     -10.679   7.568  70.375  1.00  0.00    -0.239 C  
HETATM   13  O   UNL     1     -10.774   6.999  69.300  1.00  0.00    -0.220 OA 
BRANCH  12  14
HETATM   14  C   UNL     1     -11.598   8.634  70.868  1.00  0.00    -0.307 A  
HETATM   15  C   UNL     1     -11.487   9.927  70.319  1.00  0.00    -0.349 A  
HETATM   16  C   UNL     1     -12.307  10.965  70.759  1.00  0.00    -0.487 A  
HETATM   17  C   UNL     1     -13.257  10.717  71.747  1.00  0.00    -0.526 A  
HETATM   18  C   UNL     1     -13.368   9.439  72.301  1.00  0.00    -0.539 A  
HETATM   19  C   UNL     1     -12.514   8.391  71.912  1.00  0.00    -0.347 A  
HETATM   20  N   UNL     1     -12.779   7.104  72.416  1.00  0.00    -0.493 NA 
HETATM   21  H2  UNL     1     -11.887   6.694  72.692  1.00  0.00     0.000 HD 
HETATM   22  H1  UNL     1     -13.442   6.928  73.171  1.00  0.00     0.000 HD 
ENDBRANCH  12  14
ENDBRANCH  11  12
ENDBRANCH  10  11
TORSDOF 3
ENDMDL
MODEL      148
REMARK 921   NORMALIZED FREE ENERGY PREDICTED BY IDOCK:   -3.93 KCAL/MOL
REMARK 922        TOTAL FREE ENERGY PREDICTED BY IDOCK:   -5.53 KCAL/MOL
REMARK 923 INTER-LIGAND FREE ENERGY PREDICTED BY IDOCK:   -4.73 KCAL/MOL
REMARK 924 INTRA-LIGAND FREE ENERGY PREDICTED BY IDOCK:   -0.80 KCAL/MOL
REMARK 927      BINDING AFFINITY PREDICTED BY RF-SCORE:    0.00 PKD
ROOT
HETATM    1  C   UNL     1      -6.693   8.411  69.595  1.00  0.00    -0.037 C  
HETATM    2  C   UNL     1      -8.167   8.756  69.316  1.00  0.00    -0.108 C  
HETATM    3  C   UNL     1      -8.307  10.118  68.558  1.00  0.00    -0.116 C  
HETATM    4  C   UNL     1      -8.916   8.692  70.651  1.00  0.00    -0.199 C  
HETATM    5  C   UNL     1      -7.628  10.068  67.164  1.00  0.00    -0.092 C  
HETATM    6  C   UNL     1      -8.340   9.112  66.205  1.00  0.00    -0.121 C  
HETATM    7  C   UNL     1      -9.850   9.368  66.073  1.00  0.00    -0.366 C  
HETATM    8  C   UNL     1     -10.135  10.443  65.021  1.00  0.00    -0.379 C  
HETATM    9  C   UNL     1     -10.539   9.677  67.415  1.00  0.00    -0.333 C  
HETATM   10  C   UNL     1      -9.764  10.622  68.342  1.00  0.00    -0.166 C  
ENDROOT
BRANCH  10  11
HETATM   11  O   UNL     1      -9.631  11.959  67.794  1.00  0.00    -0.181 OA 
BRANCH  11  12
HETATM   12  C   UNL     1     -10.398  12.984  68.251  1.00  0.00    -0.252 C  
HETATM   13  O   UNL     1     -11.231  12.932  69.141  1.00  0.00    -0.256 OA 
BRANCH  12  14
HETATM   14  C   UNL     1     -10.026  14.213  67.491  1.00  0.00    -0.236 A  
HETATM   15  C   UNL     1      -8.700  14.681  67.573  1.00  0.00    -0.194 A  
HETATM   16  C   UNL     1      -8.305  15.837  66.899  1.00  0.00    -0.283 A  
HETATM   17  C   UNL     1      -9.233  16.530  66.125  1.00  0.00    -0.338 A  
HETATM   18  C   UNL     1     -10.552  16.075  66.046  1.00  0.00    -0.324 A  
HETATM   19  C   UNL     1     -10.985  14.944  66.761  1.00  0.00    -0.326 A  
HETATM   20  N   UNL     1     -12.289  14.472  66.520  1.00  0.00    -0.423 NA 
HETATM   21  H2  UNL     1     -12.704  14.244  67.424  1.00  0.00     0.000 HD 
HETATM   22  H1  UNL     1     -12.983  15.002  65.991  1.00  0.00     0.000 HD 
ENDBRANCH  12  14
ENDBRANCH  11  12
ENDBRANCH  10  11
TORSDOF 3
ENDMDL
MODEL      149
REMARK 921   NORMALIZED FREE ENERGY PREDICTED BY IDOCK:   -3.89 KCAL/MOL
REMARK 922        TOTAL FREE ENERGY PREDICTED BY IDOCK:   -5.49 KCAL/MOL
REMARK 923 INTER-LIGAND FREE ENERGY PREDICTED BY IDOCK:   -4.54 KCAL/MOL
REMARK 924 INTRA-LIGAND FREE ENERGY PREDICTED BY IDOCK:   -0.95 KCAL/MOL
REMARK 927      BINDING AFFINITY PREDICTED BY RF-SCORE:    0.00 PKD
ROOT
HETATM    1  C   UNL     1     -11.612  12.348  68.102  1.00  0.00    -0.395 C  
HETATM    2  C   UNL     1     -11.105  11.427  69.227  1.00  0.00    -0.313 C  
HETATM    3  C   UNL     1     -10.534  10.085  68.661  1.00  0.00    -0.228 C  
HETATM    4  C   UNL     1     -12.247  11.257  70.234  1.00  0.00    -0.428 C  
HETATM    5  C   UNL     1      -9.305  10.328  67.746  1.00  0.00    -0.156 C  
HETATM    6  C   UNL     1      -8.101  10.866  68.522  1.00  0.00    -0.137 C  
HETATM    7  C   UNL     1      -7.717  10.021  69.747  1.00  0.00    -0.173 C  
HETATM    8  C   UNL     1      -6.792   8.868  69.349  1.00  0.00    -0.049 C  
HETATM    9  C   UNL     1      -8.930   9.534  70.560  1.00  0.00    -0.265 C  
HETATM   10  C   UNL     1     -10.113   9.029  69.725  1.00  0.00    -0.200 C  
ENDROOT
BRANCH  10  11
HETATM   11  O   UNL     1      -9.795   7.830  68.972  1.00  0.00    -0.163 OA 
BRANCH  11  12
HETATM   12  C   UNL     1     -10.524   6.692  69.125  1.00  0.00    -0.219 C  
HETATM   13  O   UNL     1     -11.186   6.129  68.268  1.00  0.00    -0.323 OA 
BRANCH  12  14
HETATM   14  C   UNL     1     -10.355   6.221  70.529  1.00  0.00    -0.255 A  
HETATM   15  C   UNL     1     -11.454   6.307  71.406  1.00  0.00    -0.352 A  
HETATM   16  C   UNL     1     -11.344   5.900  72.736  1.00  0.00    -0.305 A  
HETATM   17  C   UNL     1     -10.133   5.391  73.199  1.00  0.00    -0.204 A  
HETATM   18  C   UNL     1      -9.037   5.309  72.337  1.00  0.00    -0.143 A  
HETATM   19  C   UNL     1      -9.110   5.766  71.008  1.00  0.00    -0.146 A  
HETATM   20  N   UNL     1      -8.007   5.522  70.167  1.00  0.00    -0.088 NA 
HETATM   21  H2  UNL     1      -7.835   6.376  69.634  1.00  0.00     0.000 HD 
HETATM   22  H1  UNL     1      -7.106   5.192  70.514  1.00  0.00     0.000 HD 
ENDBRANCH  12  14
ENDBRANCH  11  12
ENDBRANCH  10  11
TORSDOF 3
ENDMDL
MODEL      150
REMARK 921   NORMALIZED FREE ENERGY PREDICTED BY IDOCK:   -3.89 KCAL/MOL
REMARK 922        TOTAL FREE ENERGY PREDICTED BY IDOCK:   -5.48 KCAL/MOL
REMARK 923 INTER-LIGAND FREE ENERGY PREDICTED BY IDOCK:   -4.68 KCAL/MOL
REMARK 924 INTRA-LIGAND FREE ENERGY PREDICTED BY IDOCK:   -0.80 KCAL/MOL
REMARK 927      BINDING AFFINITY PREDICTED BY RF-SCORE:    0.00 PKD
ROOT
HETATM    1  C   UNL     1     -12.354  15.801  69.944  1.00  0.00    -0.204 C  
HETATM    2  C   UNL     1     -11.312  15.997  68.827  1.00  0.00    -0.380 C  
HETATM    3  C   UNL     1     -10.669  14.638  68.394  1.00  0.00    -0.242 C  
HETATM    4  C   UNL     1     -10.309  17.049  69.311  1.00  0.00    -0.276 C  
HETATM    5  C   UNL     1     -11.726  13.669  67.802  1.00  0.00    -0.397 C  
HETATM    6  C   UNL     1     -12.296  14.172  66.474  1.00  0.00    -0.405 C  
HETATM    7  C   UNL     1     -11.226  14.526  65.428  1.00  0.00    -0.342 C  
HETATM    8  C   UNL     1     -10.802  13.286  64.637  1.00  0.00    -0.396 C  
HETATM    9  C   UNL     1     -10.019  15.277  66.017  1.00  0.00    -0.344 C  
HETATM   10  C   UNL     1      -9.510  14.741  67.359  1.00  0.00    -0.207 C  
ENDROOT
BRANCH  10  11
HETATM   11  O   UNL     1      -8.967  13.398  67.256  1.00  0.00    -0.202 OA 
BRANCH  11  12
HETATM   12  C   UNL     1      -7.835  13.047  67.922  1.00  0.00    -0.149 C  
HETATM   13  O   UNL     1      -7.122  13.780  68.588  1.00  0.00    -0.093 OA 
BRANCH  12  14
HETATM   14  C   UNL     1      -7.618  11.585  67.723  1.00  0.00    -0.111 A  
HETATM   15  C   UNL     1      -6.615  11.168  66.825  1.00  0.00    -0.133 A  
HETATM   16  C   UNL     1      -6.385   9.813  66.586  1.00  0.00    -0.066 A  
HETATM   17  C   UNL     1      -7.149   8.860  67.254  1.00  0.00    -0.083 A  
HETATM   18  C   UNL     1      -8.150   9.266  68.141  1.00  0.00    -0.107 A  
HETATM   19  C   UNL     1      -8.436  10.627  68.354  1.00  0.00    -0.132 A  
HETATM   20  N   UNL     1      -9.363  10.954  69.363  1.00  0.00    -0.416 NA 
HETATM   21  H2  UNL     1      -9.975  11.681  68.991  1.00  0.00     0.000 HD 
HETATM   22  H1  UNL     1      -9.955  10.261  69.820  1.00  0.00     0.000 HD 
ENDBRANCH  12  14
ENDBRANCH  11  12
ENDBRANCH  10  11
TORSDOF 3
ENDMDL
MODEL      151
REMARK 921   NORMALIZED FREE ENERGY PREDICTED BY IDOCK:   -3.86 KCAL/MOL
REMARK 922        TOTAL FREE ENERGY PREDICTED BY IDOCK:   -5.46 KCAL/MOL
REMARK 923 INTER-LIGAND FREE ENERGY PREDICTED BY IDOCK:   -4.59 KCAL/MOL
REMARK 924 INTRA-LIGAND FREE ENERGY PREDICTED BY IDOCK:   -0.87 KCAL/MOL
REMARK 927      BINDING AFFINITY PREDICTED BY RF-SCORE:    0.00 PKD
ROOT
HETATM    1  C   UNL     1      -7.276  11.983  67.117  1.00  0.00    -0.131 C  
HETATM    2  C   UNL     1      -7.579  13.146  68.080  1.00  0.00    -0.141 C  
HETATM    3  C   UNL     1      -8.674  14.102  67.503  1.00  0.00    -0.208 C  
HETATM    4  C   UNL     1      -6.248  13.829  68.411  1.00  0.00    -0.100 C  
HETATM    5  C   UNL     1     -10.028  13.370  67.307  1.00  0.00    -0.232 C  
HETATM    6  C   UNL     1     -10.659  12.953  68.637  1.00  0.00    -0.256 C  
HETATM    7  C   UNL     1     -10.796  14.100  69.651  1.00  0.00    -0.059 C  
HETATM    8  C   UNL     1     -12.090  14.885  69.422  1.00  0.00    -0.297 C  
HETATM    9  C   UNL     1      -9.563  15.021  69.704  1.00  0.00    -0.047 C  
HETATM   10  C   UNL     1      -8.962  15.382  68.342  1.00  0.00    -0.189 C  
ENDROOT
BRANCH  10  11
HETATM   11  O   UNL     1      -9.859  16.182  67.528  1.00  0.00    -0.232 OA 
BRANCH  11  12
HETATM   12  C   UNL     1      -9.378  17.037  66.587  1.00  0.00    -0.255 C  
HETATM   13  O   UNL     1      -9.768  17.151  65.437  1.00  0.00    -0.425 OA 
BRANCH  12  14
HETATM   14  C   UNL     1      -8.295  17.849  67.213  1.00  0.00    -0.232 A  
HETATM   15  C   UNL     1      -6.982  17.715  66.721  1.00  0.00    -0.234 A  
HETATM   16  C   UNL     1      -5.928  18.436  67.284  1.00  0.00    -0.166 A  
HETATM   17  C   UNL     1      -6.181  19.308  68.340  1.00  0.00    -0.254 A  
HETATM   18  C   UNL     1      -7.480  19.441  68.838  1.00  0.00    -0.399 A  
HETATM   19  C   UNL     1      -8.547  18.683  68.322  1.00  0.00    -0.321 A  
HETATM   20  N   UNL     1      -9.845  18.974  68.783  1.00  0.00    -0.412 NA 
HETATM   21  H2  UNL     1     -10.314  18.085  68.957  1.00  0.00     0.000 HD 
HETATM   22  H1  UNL     1     -10.027  19.578  69.585  1.00  0.00     0.000 HD 
ENDBRANCH  12  14
ENDBRANCH  11  12
ENDBRANCH  10  11
TORSDOF 3
ENDMDL
MODEL      152
REMARK 921   NORMALIZED FREE ENERGY PREDICTED BY IDOCK:   -3.84 KCAL/MOL
REMARK 922        TOTAL FREE ENERGY PREDICTED BY IDOCK:   -5.43 KCAL/MOL
REMARK 923 INTER-LIGAND FREE ENERGY PREDICTED BY IDOCK:   -4.50 KCAL/MOL
REMARK 924 INTRA-LIGAND FREE ENERGY PREDICTED BY IDOCK:   -0.93 KCAL/MOL
REMARK 927      BINDING AFFINITY PREDICTED BY RF-SCORE:    0.00 PKD
ROOT
HETATM    1  C   UNL     1      -9.783   3.505  71.005  1.00  0.00    -0.225 C  
HETATM    2  C   UNL     1      -8.831   4.449  70.247  1.00  0.00    -0.126 C  
HETATM    3  C   UNL     1      -9.601   5.649  69.603  1.00  0.00    -0.197 C  
HETATM    4  C   UNL     1      -8.034   3.599  69.253  1.00  0.00    -0.060 C  
HETATM    5  C   UNL     1     -10.283   6.534  70.680  1.00  0.00    -0.220 C  
HETATM    6  C   UNL     1      -9.267   7.263  71.561  1.00  0.00    -0.150 C  
HETATM    7  C   UNL     1      -8.218   8.065  70.773  1.00  0.00    -0.113 C  
HETATM    8  C   UNL     1      -8.739   9.462  70.428  1.00  0.00    -0.278 C  
HETATM    9  C   UNL     1      -7.686   7.324  69.533  1.00  0.00    -0.113 C  
HETATM   10  C   UNL     1      -8.749   6.593  68.705  1.00  0.00    -0.128 C  
ENDROOT
BRANCH  10  11
HETATM   11  O   UNL     1      -9.700   7.500  68.089  1.00  0.00    -0.149 OA 
BRANCH  11  12
HETATM   12  C   UNL     1      -9.567   7.881  66.791  1.00  0.00    -0.215 C  
HETATM   13  O   UNL     1      -9.097   7.219  65.881  1.00  0.00    -0.128 OA 
BRANCH  12  14
HETATM   14  C   UNL     1     -10.126   9.257  66.654  1.00  0.00    -0.341 A  
HETATM   15  C   UNL     1     -10.836   9.808  67.740  1.00  0.00    -0.306 A  
HETATM   16  C   UNL     1     -11.397  11.082  67.657  1.00  0.00    -0.355 A  
HETATM   17  C   UNL     1     -11.243  11.824  66.489  1.00  0.00    -0.380 A  
HETATM   18  C   UNL     1     -10.546  11.282  65.406  1.00  0.00    -0.312 A  
HETATM   19  C   UNL     1     -10.021   9.977  65.448  1.00  0.00    -0.294 A  
HETATM   20  N   UNL     1      -9.216   9.557  64.371  1.00  0.00    -0.409 NA 
HETATM   21  H2  UNL     1      -9.496   8.605  64.134  1.00  0.00     0.000 HD 
HETATM   22  H1  UNL     1      -9.140  10.079  63.498  1.00  0.00     0.000 HD 
ENDBRANCH  12  14
ENDBRANCH  11  12
ENDBRANCH  10  11
TORSDOF 3
ENDMDL
MODEL      153
REMARK 921   NORMALIZED FREE ENERGY PREDICTED BY IDOCK:   -3.81 KCAL/MOL
REMARK 922        TOTAL FREE ENERGY PREDICTED BY IDOCK:   -5.40 KCAL/MOL
REMARK 923 INTER-LIGAND FREE ENERGY PREDICTED BY IDOCK:   -4.31 KCAL/MOL
REMARK 924 INTRA-LIGAND FREE ENERGY PREDICTED BY IDOCK:   -1.09 KCAL/MOL
REMARK 927      BINDING AFFINITY PREDICTED BY RF-SCORE:    0.00 PKD
ROOT
HETATM    1  C   UNL     1     -12.622  11.143  70.935  1.00  0.00    -0.483 C  
HETATM    2  C   UNL     1     -11.315  10.407  70.587  1.00  0.00    -0.411 C  
HETATM    3  C   UNL     1     -11.280   9.973  69.084  1.00  0.00    -0.197 C  
HETATM    4  C   UNL     1     -11.154   9.256  71.585  1.00  0.00    -0.438 C  
HETATM    5  C   UNL     1     -11.325  11.199  68.134  1.00  0.00    -0.377 C  
HETATM    6  C   UNL     1     -10.061  12.056  68.232  1.00  0.00    -0.201 C  
HETATM    7  C   UNL     1      -8.754  11.266  68.051  1.00  0.00    -0.144 C  
HETATM    8  C   UNL     1      -8.399  11.127  66.569  1.00  0.00    -0.166 C  
HETATM    9  C   UNL     1      -8.754   9.908  68.776  1.00  0.00    -0.132 C  
HETATM   10  C   UNL     1     -10.056   9.108  68.660  1.00  0.00    -0.194 C  
ENDROOT
BRANCH  10  11
HETATM   11  O   UNL     1     -10.336   8.687  67.300  1.00  0.00    -0.251 OA 
BRANCH  11  12
HETATM   12  C   UNL     1     -10.282   7.375  66.946  1.00  0.00    -0.276 C  
HETATM   13  O   UNL     1     -11.218   6.596  66.887  1.00  0.00    -0.391 OA 
BRANCH  12  14
HETATM   14  C   UNL     1      -8.866   7.047  66.610  1.00  0.00    -0.139 A  
HETATM   15  C   UNL     1      -8.283   7.656  65.481  1.00  0.00    -0.135 A  
HETATM   16  C   UNL     1      -6.969   7.368  65.110  1.00  0.00    -0.058 A  
HETATM   17  C   UNL     1      -6.222   6.475  65.873  1.00  0.00    -0.038 A  
HETATM   18  C   UNL     1      -6.796   5.862  66.990  1.00  0.00    -0.063 A  
HETATM   19  C   UNL     1      -8.136   6.095  67.350  1.00  0.00    -0.109 A  
HETATM   20  N   UNL     1      -8.597   5.548  68.562  1.00  0.00    -0.103 NA 
HETATM   21  H2  UNL     1      -9.522   5.154  68.388  1.00  0.00     0.000 HD 
HETATM   22  H1  UNL     1      -8.068   4.860  69.098  1.00  0.00     0.000 HD 
ENDBRANCH  12  14
ENDBRANCH  11  12
ENDBRANCH  10  11
TORSDOF 3
ENDMDL
MODEL      154
REMARK 921   NORMALIZED FREE ENERGY PREDICTED BY IDOCK:   -3.79 KCAL/MOL
REMARK 922        TOTAL FREE ENERGY PREDICTED BY IDOCK:   -5.37 KCAL/MOL
REMARK 923 INTER-LIGAND FREE ENERGY PREDICTED BY IDOCK:   -5.11 KCAL/MOL
REMARK 924 INTRA-LIGAND FREE ENERGY PREDICTED BY IDOCK:   -0.26 KCAL/MOL
REMARK 927      BINDING AFFINITY PREDICTED BY RF-SCORE:    0.00 PKD
ROOT
HETATM    1  C   UNL     1      -7.428  16.087  67.117  1.00  0.00    -0.253 C  
HETATM    2  C   UNL     1      -7.690  14.764  67.860  1.00  0.00    -0.146 C  
HETATM    3  C   UNL     1      -9.209  14.388  67.850  1.00  0.00    -0.195 C  
HETATM    4  C   UNL     1      -7.076  14.891  69.258  1.00  0.00    -0.160 C  
HETATM    5  C   UNL     1      -9.730  14.157  66.407  1.00  0.00    -0.313 C  
HETATM    6  C   UNL     1      -9.107  12.921  65.755  1.00  0.00     0.347 C  
HETATM    7  C   UNL     1      -9.231  11.641  66.597  1.00  0.00    -0.196 C  
HETATM    8  C   UNL     1     -10.573  10.947  66.346  1.00  0.00    -0.289 C  
HETATM    9  C   UNL     1      -8.968  11.866  68.097  1.00  0.00    -0.185 C  
HETATM   10  C   UNL     1      -9.599  13.133  68.685  1.00  0.00    -0.029 C  
ENDROOT
BRANCH  10  11
HETATM   11  O   UNL     1     -11.050  13.096  68.669  1.00  0.00    -0.245 OA 
BRANCH  11  12
HETATM   12  C   UNL     1     -11.744  12.421  69.622  1.00  0.00    -0.307 C  
HETATM   13  O   UNL     1     -11.792  11.211  69.771  1.00  0.00    -0.287 OA 
BRANCH  12  14
HETATM   14  C   UNL     1     -12.429  13.422  70.490  1.00  0.00    -0.350 A  
HETATM   15  C   UNL     1     -12.763  13.055  71.810  1.00  0.00    -0.260 A  
HETATM   16  C   UNL     1     -13.422  13.945  72.656  1.00  0.00    -0.652 A  
HETATM   17  C   UNL     1     -13.744  15.219  72.195  1.00  0.00    -0.598 A  
HETATM   18  C   UNL     1     -13.423  15.588  70.886  1.00  0.00    -0.349 A  
HETATM   19  C   UNL     1     -12.808  14.687  69.997  1.00  0.00    -0.051 A  
HETATM   20  N   UNL     1     -12.394  15.177  68.744  1.00  0.00    -0.595 NA 
HETATM   21  H2  UNL     1     -12.658  14.485  68.043  1.00  0.00     0.000 HD 
HETATM   22  H1  UNL     1     -12.668  16.093  68.388  1.00  0.00     0.000 HD 
ENDBRANCH  12  14
ENDBRANCH  11  12
ENDBRANCH  10  11
TORSDOF 3
ENDMDL
MODEL      155
REMARK 921   NORMALIZED FREE ENERGY PREDICTED BY IDOCK:   -3.79 KCAL/MOL
REMARK 922        TOTAL FREE ENERGY PREDICTED BY IDOCK:   -5.37 KCAL/MOL
REMARK 923 INTER-LIGAND FREE ENERGY PREDICTED BY IDOCK:   -4.35 KCAL/MOL
REMARK 924 INTRA-LIGAND FREE ENERGY PREDICTED BY IDOCK:   -1.03 KCAL/MOL
REMARK 927      BINDING AFFINITY PREDICTED BY RF-SCORE:    0.00 PKD
ROOT
HETATM    1  C   UNL     1     -10.613  11.038  68.991  1.00  0.00    -0.258 C  
HETATM    2  C   UNL     1     -10.801   9.519  68.822  1.00  0.00    -0.173 C  
HETATM    3  C   UNL     1      -9.976   8.714  69.880  1.00  0.00    -0.189 C  
HETATM    4  C   UNL     1     -10.477   9.173  67.365  1.00  0.00    -0.339 C  
HETATM    5  C   UNL     1     -10.442   9.026  71.326  1.00  0.00    -0.381 C  
HETATM    6  C   UNL     1     -11.860   8.521  71.600  1.00  0.00    -0.370 C  
HETATM    7  C   UNL     1     -12.072   7.037  71.262  1.00  0.00    -0.403 C  
HETATM    8  C   UNL     1     -11.658   6.142  72.432  1.00  0.00    -0.338 C  
HETATM    9  C   UNL     1     -11.405   6.609  69.942  1.00  0.00    -0.422 C  
HETATM   10  C   UNL     1      -9.995   7.166  69.715  1.00  0.00    -0.178 C  
ENDROOT
BRANCH  10  11
HETATM   11  O   UNL     1      -9.032   6.665  70.678  1.00  0.00    -0.150 OA 
BRANCH  11  12
HETATM   12  C   UNL     1      -8.008   5.859  70.292  1.00  0.00    -0.106 C  
HETATM   13  O   UNL     1      -6.856   6.197  70.073  1.00  0.00    -0.053 OA 
BRANCH  12  14
HETATM   14  C   UNL     1      -8.526   4.464  70.204  1.00  0.00    -0.091 A  
HETATM   15  C   UNL     1      -8.725   3.896  68.929  1.00  0.00    -0.132 A  
HETATM   16  C   UNL     1      -9.227   2.603  68.791  1.00  0.00    -0.228 A  
HETATM   17  C   UNL     1      -9.525   1.857  69.929  1.00  0.00    -0.127 A  
HETATM   18  C   UNL     1      -9.337   2.416  71.196  1.00  0.00    -0.210 A  
HETATM   19  C   UNL     1      -8.885   3.738  71.358  1.00  0.00    -0.096 A  
HETATM   20  N   UNL     1      -8.591   4.178  72.663  1.00  0.00    -0.103 NA 
HETATM   21  H2  UNL     1      -8.976   5.118  72.762  1.00  0.00     0.000 HD 
HETATM   22  H1  UNL     1      -8.850   3.652  73.498  1.00  0.00     0.000 HD 
ENDBRANCH  12  14
ENDBRANCH  11  12
ENDBRANCH  10  11
TORSDOF 3
ENDMDL
MODEL      156
REMARK 921   NORMALIZED FREE ENERGY PREDICTED BY IDOCK:   -3.79 KCAL/MOL
REMARK 922        TOTAL FREE ENERGY PREDICTED BY IDOCK:   -5.37 KCAL/MOL
REMARK 923 INTER-LIGAND FREE ENERGY PREDICTED BY IDOCK:   -4.69 KCAL/MOL
REMARK 924 INTRA-LIGAND FREE ENERGY PREDICTED BY IDOCK:   -0.68 KCAL/MOL
REMARK 927      BINDING AFFINITY PREDICTED BY RF-SCORE:    0.00 PKD
ROOT
HETATM    1  C   UNL     1     -10.677   7.756  72.971  1.00  0.00    -0.446 C  
HETATM    2  C   UNL     1     -11.128   7.737  71.499  1.00  0.00    -0.270 C  
HETATM    3  C   UNL     1      -9.978   8.184  70.538  1.00  0.00    -0.195 C  
HETATM    4  C   UNL     1     -12.405   8.578  71.398  1.00  0.00    -0.332 C  
HETATM    5  C   UNL     1      -8.767   7.216  70.607  1.00  0.00    -0.148 C  
HETATM    6  C   UNL     1      -9.101   5.828  70.056  1.00  0.00    -0.157 C  
HETATM    7  C   UNL     1      -9.713   5.845  68.646  1.00  0.00    -0.155 C  
HETATM    8  C   UNL     1      -8.620   5.874  67.575  1.00  0.00    -0.102 C  
HETATM    9  C   UNL     1     -10.751   6.963  68.442  1.00  0.00    -0.259 C  
HETATM   10  C   UNL     1     -10.370   8.323  69.037  1.00  0.00    -0.221 C  
ENDROOT
BRANCH  10  11
HETATM   11  O   UNL     1      -9.211   8.912  68.391  1.00  0.00    -0.140 OA 
BRANCH  11  12
HETATM   12  C   UNL     1      -8.827  10.186  68.665  1.00  0.00    -0.136 C  
HETATM   13  O   UNL     1      -7.914  10.532  69.397  1.00  0.00    -0.153 OA 
BRANCH  12  14
HETATM   14  C   UNL     1      -9.703  11.110  67.889  1.00  0.00    -0.184 A  
HETATM   15  C   UNL     1     -10.805  11.701  68.540  1.00  0.00    -0.257 A  
HETATM   16  C   UNL     1     -11.668  12.555  67.854  1.00  0.00    -0.416 A  
HETATM   17  C   UNL     1     -11.431  12.837  66.511  1.00  0.00    -0.409 A  
HETATM   18  C   UNL     1     -10.345  12.249  65.857  1.00  0.00    -0.280 A  
HETATM   19  C   UNL     1      -9.494  11.341  66.514  1.00  0.00    -0.193 A  
HETATM   20  N   UNL     1      -8.346  10.900  65.828  1.00  0.00    -0.236 NA 
HETATM   21  H2  UNL     1      -8.265   9.895  65.984  1.00  0.00     0.000 HD 
HETATM   22  H1  UNL     1      -8.195  11.067  64.833  1.00  0.00     0.000 HD 
ENDBRANCH  12  14
ENDBRANCH  11  12
ENDBRANCH  10  11
TORSDOF 3
ENDMDL
MODEL      157
REMARK 921   NORMALIZED FREE ENERGY PREDICTED BY IDOCK:   -3.78 KCAL/MOL
REMARK 922        TOTAL FREE ENERGY PREDICTED BY IDOCK:   -5.36 KCAL/MOL
REMARK 923 INTER-LIGAND FREE ENERGY PREDICTED BY IDOCK:   -4.50 KCAL/MOL
REMARK 924 INTRA-LIGAND FREE ENERGY PREDICTED BY IDOCK:   -0.86 KCAL/MOL
REMARK 927      BINDING AFFINITY PREDICTED BY RF-SCORE:    0.00 PKD
ROOT
HETATM    1  C   UNL     1     -11.786  11.170  68.810  1.00  0.00    -0.388 C  
HETATM    2  C   UNL     1     -11.217  10.474  70.060  1.00  0.00    -0.386 C  
HETATM    3  C   UNL     1     -10.616   9.071  69.715  1.00  0.00    -0.236 C  
HETATM    4  C   UNL     1     -12.324  10.449  71.118  1.00  0.00    -0.505 C  
HETATM    5  C   UNL     1      -9.422   9.187  68.731  1.00  0.00    -0.147 C  
HETATM    6  C   UNL     1      -8.216   9.886  69.362  1.00  0.00    -0.147 C  
HETATM    7  C   UNL     1      -7.770   9.277  70.701  1.00  0.00    -0.170 C  
HETATM    8  C   UNL     1      -6.817   8.100  70.477  1.00  0.00    -0.037 C  
HETATM    9  C   UNL     1      -8.942   8.905  71.625  1.00  0.00    -0.243 C  
HETATM   10  C   UNL     1     -10.130   8.229  70.930  1.00  0.00    -0.190 C  
ENDROOT
BRANCH  10  11
HETATM   11  O   UNL     1      -9.793   6.926  70.385  1.00  0.00    -0.179 OA 
BRANCH  11  12
HETATM   12  C   UNL     1     -10.380   5.795  70.858  1.00  0.00    -0.237 C  
HETATM   13  O   UNL     1     -11.144   5.710  71.805  1.00  0.00    -0.256 OA 
BRANCH  12  14
HETATM   14  C   UNL     1      -9.950   4.657  69.994  1.00  0.00    -0.302 A  
HETATM   15  C   UNL     1     -10.008   4.814  68.595  1.00  0.00    -0.170 A  
HETATM   16  C   UNL     1      -9.638   3.774  67.742  1.00  0.00    -0.193 A  
HETATM   17  C   UNL     1      -9.194   2.569  68.282  1.00  0.00    -0.255 A  
HETATM   18  C   UNL     1      -9.141   2.405  69.669  1.00  0.00    -0.181 A  
HETATM   19  C   UNL     1      -9.562   3.420  70.546  1.00  0.00    -0.161 A  
HETATM   20  N   UNL     1      -9.349   3.228  71.925  1.00  0.00    -0.118 NA 
HETATM   21  H2  UNL     1     -10.196   3.526  72.410  1.00  0.00     0.000 HD 
HETATM   22  H1  UNL     1      -9.068   2.333  72.325  1.00  0.00     0.000 HD 
ENDBRANCH  12  14
ENDBRANCH  11  12
ENDBRANCH  10  11
TORSDOF 3
ENDMDL
MODEL      158
REMARK 921   NORMALIZED FREE ENERGY PREDICTED BY IDOCK:   -3.78 KCAL/MOL
REMARK 922        TOTAL FREE ENERGY PREDICTED BY IDOCK:   -5.36 KCAL/MOL
REMARK 923 INTER-LIGAND FREE ENERGY PREDICTED BY IDOCK:   -4.37 KCAL/MOL
REMARK 924 INTRA-LIGAND FREE ENERGY PREDICTED BY IDOCK:   -0.99 KCAL/MOL
REMARK 927      BINDING AFFINITY PREDICTED BY RF-SCORE:    0.00 PKD
ROOT
HETATM    1  C   UNL     1     -11.042  11.430  66.439  1.00  0.00    -0.301 C  
HETATM    2  C   UNL     1      -9.850  11.039  67.332  1.00  0.00    -0.197 C  
HETATM    3  C   UNL     1     -10.237   9.915  68.350  1.00  0.00    -0.203 C  
HETATM    4  C   UNL     1      -9.314  12.322  67.975  1.00  0.00    -0.195 C  
HETATM    5  C   UNL     1     -10.653   8.607  67.627  1.00  0.00    -0.272 C  
HETATM    6  C   UNL     1      -9.483   7.956  66.887  1.00  0.00    -0.243 C  
HETATM    7  C   UNL     1      -8.238   7.730  67.760  1.00  0.00    -0.126 C  
HETATM    8  C   UNL     1      -8.335   6.406  68.522  1.00  0.00    -0.113 C  
HETATM    9  C   UNL     1      -7.922   8.913  68.693  1.00  0.00    -0.103 C  
HETATM   10  C   UNL     1      -9.139   9.537  69.387  1.00  0.00    -0.168 C  
ENDROOT
BRANCH  10  11
HETATM   11  O   UNL     1      -9.783   8.627  70.315  1.00  0.00    -0.167 OA 
BRANCH  11  12
HETATM   12  C   UNL     1      -9.293   8.441  71.569  1.00  0.00    -0.200 C  
HETATM   13  O   UNL     1      -8.593   9.215  72.202  1.00  0.00    -0.303 OA 
BRANCH  12  14
HETATM   14  C   UNL     1      -9.784   7.123  72.066  1.00  0.00    -0.173 A  
HETATM   15  C   UNL     1      -8.869   6.056  72.165  1.00  0.00    -0.135 A  
HETATM   16  C   UNL     1      -9.281   4.797  72.604  1.00  0.00    -0.143 A  
HETATM   17  C   UNL     1     -10.612   4.597  72.960  1.00  0.00    -0.278 A  
HETATM   18  C   UNL     1     -11.527   5.649  72.858  1.00  0.00    -0.297 A  
HETATM   19  C   UNL     1     -11.145   6.910  72.365  1.00  0.00    -0.260 A  
HETATM   20  N   UNL     1     -12.090   7.952  72.422  1.00  0.00    -0.489 NA 
HETATM   21  H2  UNL     1     -12.048   8.452  71.534  1.00  0.00     0.000 HD 
HETATM   22  H1  UNL     1     -13.075   7.798  72.639  1.00  0.00     0.000 HD 
ENDBRANCH  12  14
ENDBRANCH  11  12
ENDBRANCH  10  11
TORSDOF 3
ENDMDL
MODEL      159
REMARK 921   NORMALIZED FREE ENERGY PREDICTED BY IDOCK:   -3.77 KCAL/MOL
REMARK 922        TOTAL FREE ENERGY PREDICTED BY IDOCK:   -5.35 KCAL/MOL
REMARK 923 INTER-LIGAND FREE ENERGY PREDICTED BY IDOCK:   -5.72 KCAL/MOL
REMARK 924 INTRA-LIGAND FREE ENERGY PREDICTED BY IDOCK:    0.37 KCAL/MOL
REMARK 927      BINDING AFFINITY PREDICTED BY RF-SCORE:    0.00 PKD
ROOT
HETATM    1  C   UNL     1     -13.776  13.785  72.492  1.00  0.00    -0.667 C  
HETATM    2  C   UNL     1     -12.700  13.321  71.492  1.00  0.00    -0.376 C  
HETATM    3  C   UNL     1     -12.844  14.046  70.113  1.00  0.00    -0.079 C  
HETATM    4  C   UNL     1     -12.768  11.792  71.417  1.00  0.00    -0.413 C  
HETATM    5  C   UNL     1     -12.643  15.578  70.249  1.00  0.00    -0.362 C  
HETATM    6  C   UNL     1     -11.208  15.943  70.636  1.00  0.00    -0.402 C  
HETATM    7  C   UNL     1     -10.137  15.327  69.721  1.00  0.00    -0.230 C  
HETATM    8  C   UNL     1      -9.899  16.202  68.488  1.00  0.00    -0.226 C  
HETATM    9  C   UNL     1     -10.424  13.862  69.344  1.00  0.00     0.092 C  
HETATM   10  C   UNL     1     -11.883  13.555  68.990  1.00  0.00    -0.343 C  
ENDROOT
BRANCH  10  11
HETATM   11  O   UNL     1     -12.322  14.234  67.785  1.00  0.00    -0.247 OA 
BRANCH  11  12
HETATM   12  C   UNL     1     -12.030  13.737  66.554  1.00  0.00    -0.434 C  
HETATM   13  O   UNL     1     -12.342  14.220  65.478  1.00  0.00    -0.416 OA 
BRANCH  12  14
HETATM   14  C   UNL     1     -11.225  12.495  66.737  1.00  0.00    -0.347 A  
HETATM   15  C   UNL     1     -11.832  11.382  67.352  1.00  0.00    -0.038 A  
HETATM   16  C   UNL     1     -11.118  10.203  67.567  1.00  0.00    -0.251 A  
HETATM   17  C   UNL     1      -9.790  10.122  67.156  1.00  0.00    -0.231 A  
HETATM   18  C   UNL     1      -9.179  11.224  66.552  1.00  0.00    -0.200 A  
HETATM   19  C   UNL     1      -9.863  12.440  66.377  1.00  0.00    -0.240 A  
HETATM   20  N   UNL     1      -9.224  13.454  65.638  1.00  0.00    -0.308 NA 
HETATM   21  H2  UNL     1      -9.373  14.334  66.134  1.00  0.00     0.000 HD 
HETATM   22  H1  UNL     1      -8.239  13.415  65.377  1.00  0.00     0.000 HD 
ENDBRANCH  12  14
ENDBRANCH  11  12
ENDBRANCH  10  11
TORSDOF 3
ENDMDL
MODEL      160
REMARK 921   NORMALIZED FREE ENERGY PREDICTED BY IDOCK:   -3.75 KCAL/MOL
REMARK 922        TOTAL FREE ENERGY PREDICTED BY IDOCK:   -5.33 KCAL/MOL
REMARK 923 INTER-LIGAND FREE ENERGY PREDICTED BY IDOCK:   -4.39 KCAL/MOL
REMARK 924 INTRA-LIGAND FREE ENERGY PREDICTED BY IDOCK:   -0.94 KCAL/MOL
REMARK 927      BINDING AFFINITY PREDICTED BY RF-SCORE:    0.00 PKD
ROOT
HETATM    1  C   UNL     1     -12.087  12.811  65.341  1.00  0.00    -0.512 C  
HETATM    2  C   UNL     1     -10.742  12.673  66.078  1.00  0.00    -0.295 C  
HETATM    3  C   UNL     1     -10.481  11.197  66.528  1.00  0.00    -0.305 C  
HETATM    4  C   UNL     1     -10.733  13.696  67.217  1.00  0.00    -0.283 C  
HETATM    5  C   UNL     1     -10.382  10.238  65.313  1.00  0.00    -0.218 C  
HETATM    6  C   UNL     1      -9.148  10.516  64.452  1.00  0.00    -0.254 C  
HETATM    7  C   UNL     1      -7.829  10.542  65.241  1.00  0.00    -0.100 C  
HETATM    8  C   UNL     1      -7.254   9.132  65.396  1.00  0.00    -0.085 C  
HETATM    9  C   UNL     1      -7.937  11.274  66.591  1.00  0.00    -0.159 C  
HETATM   10  C   UNL     1      -9.207  10.973  67.395  1.00  0.00    -0.151 C  
ENDROOT
BRANCH  10  11
HETATM   11  O   UNL     1      -9.278   9.590  67.832  1.00  0.00    -0.126 OA 
BRANCH  11  12
HETATM   12  C   UNL     1     -10.111   9.215  68.839  1.00  0.00    -0.197 C  
HETATM   13  O   UNL     1     -10.732   9.954  69.585  1.00  0.00    -0.221 OA 
BRANCH  12  14
HETATM   14  C   UNL     1     -10.163   7.725  68.864  1.00  0.00    -0.220 A  
HETATM   15  C   UNL     1     -10.035   7.025  67.647  1.00  0.00    -0.194 A  
HETATM   16  C   UNL     1     -10.098   5.632  67.611  1.00  0.00    -0.208 A  
HETATM   17  C   UNL     1     -10.277   4.924  68.797  1.00  0.00    -0.119 A  
HETATM   18  C   UNL     1     -10.411   5.611  70.006  1.00  0.00    -0.345 A  
HETATM   19  C   UNL     1     -10.407   7.017  70.058  1.00  0.00    -0.202 A  
HETATM   20  N   UNL     1     -10.408   7.629  71.326  1.00  0.00    -0.199 NA 
HETATM   21  H2  UNL     1     -11.071   8.404  71.290  1.00  0.00     0.000 HD 
HETATM   22  H1  UNL     1     -10.585   7.116  72.190  1.00  0.00     0.000 HD 
ENDBRANCH  12  14
ENDBRANCH  11  12
ENDBRANCH  10  11
TORSDOF 3
ENDMDL
MODEL      161
REMARK 921   NORMALIZED FREE ENERGY PREDICTED BY IDOCK:   -3.74 KCAL/MOL
REMARK 922        TOTAL FREE ENERGY PREDICTED BY IDOCK:   -5.31 KCAL/MOL
REMARK 923 INTER-LIGAND FREE ENERGY PREDICTED BY IDOCK:   -4.46 KCAL/MOL
REMARK 924 INTRA-LIGAND FREE ENERGY PREDICTED BY IDOCK:   -0.85 KCAL/MOL
REMARK 927      BINDING AFFINITY PREDICTED BY RF-SCORE:    0.00 PKD
ROOT
HETATM    1  C   UNL     1     -11.283   5.701  72.516  1.00  0.00    -0.346 C  
HETATM    2  C   UNL     1     -11.529   6.208  71.083  1.00  0.00    -0.314 C  
HETATM    3  C   UNL     1     -10.290   6.983  70.525  1.00  0.00    -0.218 C  
HETATM    4  C   UNL     1     -12.831   7.015  71.096  1.00  0.00    -0.328 C  
HETATM    5  C   UNL     1      -9.040   6.069  70.427  1.00  0.00    -0.156 C  
HETATM    6  C   UNL     1      -9.207   4.968  69.377  1.00  0.00    -0.156 C  
HETATM    7  C   UNL     1      -9.622   5.485  67.990  1.00  0.00    -0.147 C  
HETATM    8  C   UNL     1      -8.398   5.910  67.174  1.00  0.00    -0.105 C  
HETATM    9  C   UNL     1     -10.693   6.589  68.042  1.00  0.00    -0.351 C  
HETATM   10  C   UNL     1     -10.483   7.648  69.131  1.00  0.00    -0.214 C  
ENDROOT
BRANCH  10  11
HETATM   11  O   UNL     1      -9.288   8.443  68.915  1.00  0.00    -0.147 OA 
BRANCH  11  12
HETATM   12  C   UNL     1      -9.093   9.611  69.582  1.00  0.00    -0.210 C  
HETATM   13  O   UNL     1      -8.192   9.862  70.367  1.00  0.00    -0.172 OA 
BRANCH  12  14
HETATM   14  C   UNL     1     -10.163  10.564  69.169  1.00  0.00    -0.241 A  
HETATM   15  C   UNL     1     -10.091  11.143  67.886  1.00  0.00    -0.195 A  
HETATM   16  C   UNL     1     -11.055  12.056  67.457  1.00  0.00    -0.331 A  
HETATM   17  C   UNL     1     -12.109  12.389  68.305  1.00  0.00    -0.105 A  
HETATM   18  C   UNL     1     -12.183  11.823  69.581  1.00  0.00    -0.248 A  
HETATM   19  C   UNL     1     -11.192  10.944  70.054  1.00  0.00    -0.263 A  
HETATM   20  N   UNL     1     -11.410  10.313  71.293  1.00  0.00    -0.213 NA 
HETATM   21  H2  UNL     1     -10.532  10.347  71.813  1.00  0.00     0.000 HD 
HETATM   22  H1  UNL     1     -12.155  10.588  71.934  1.00  0.00     0.000 HD 
ENDBRANCH  12  14
ENDBRANCH  11  12
ENDBRANCH  10  11
TORSDOF 3
ENDMDL
MODEL      162
REMARK 921   NORMALIZED FREE ENERGY PREDICTED BY IDOCK:   -3.70 KCAL/MOL
REMARK 922        TOTAL FREE ENERGY PREDICTED BY IDOCK:   -5.26 KCAL/MOL
REMARK 923 INTER-LIGAND FREE ENERGY PREDICTED BY IDOCK:   -4.33 KCAL/MOL
REMARK 924 INTRA-LIGAND FREE ENERGY PREDICTED BY IDOCK:   -0.93 KCAL/MOL
REMARK 927      BINDING AFFINITY PREDICTED BY RF-SCORE:    0.00 PKD
ROOT
HETATM    1  C   UNL     1     -11.969   6.849  70.945  1.00  0.00    -0.430 C  
HETATM    2  C   UNL     1     -10.834   7.026  69.919  1.00  0.00    -0.280 C  
HETATM    3  C   UNL     1     -10.613   8.533  69.559  1.00  0.00    -0.215 C  
HETATM    4  C   UNL     1     -11.152   6.126  68.721  1.00  0.00    -0.398 C  
HETATM    5  C   UNL     1     -10.176   9.358  70.798  1.00  0.00    -0.368 C  
HETATM    6  C   UNL     1      -8.788   8.959  71.301  1.00  0.00    -0.298 C  
HETATM    7  C   UNL     1      -7.699   8.978  70.216  1.00  0.00    -0.098 C  
HETATM    8  C   UNL     1      -7.106  10.380  70.058  1.00  0.00    -0.155 C  
HETATM    9  C   UNL     1      -8.166   8.393  68.870  1.00  0.00    -0.115 C  
HETATM   10  C   UNL     1      -9.574   8.811  68.433  1.00  0.00    -0.147 C  
ENDROOT
BRANCH  10  11
HETATM   11  O   UNL     1      -9.677  10.232  68.158  1.00  0.00    -0.141 OA 
BRANCH  11  12
HETATM   12  C   UNL     1     -10.061  10.684  66.935  1.00  0.00    -0.214 C  
HETATM   13  O   UNL     1     -11.062  11.335  66.678  1.00  0.00    -0.289 OA 
BRANCH  12  14
HETATM   14  C   UNL     1      -9.026  10.271  65.944  1.00  0.00    -0.181 A  
HETATM   15  C   UNL     1      -9.344   9.253  65.022  1.00  0.00    -0.196 A  
HETATM   16  C   UNL     1      -8.405   8.814  64.088  1.00  0.00    -0.155 A  
HETATM   17  C   UNL     1      -7.142   9.399  64.059  1.00  0.00    -0.102 A  
HETATM   18  C   UNL     1      -6.818  10.404  64.975  1.00  0.00    -0.065 A  
HETATM   19  C   UNL     1      -7.730  10.822  65.961  1.00  0.00    -0.139 A  
HETATM   20  N   UNL     1      -7.378  11.931  66.754  1.00  0.00    -0.346 NA 
HETATM   21  H2  UNL     1      -7.627  11.708  67.718  1.00  0.00     0.000 HD 
HETATM   22  H1  UNL     1      -6.439  12.330  66.766  1.00  0.00     0.000 HD 
ENDBRANCH  12  14
ENDBRANCH  11  12
ENDBRANCH  10  11
TORSDOF 3
ENDMDL
MODEL      163
REMARK 921   NORMALIZED FREE ENERGY PREDICTED BY IDOCK:   -3.67 KCAL/MOL
REMARK 922        TOTAL FREE ENERGY PREDICTED BY IDOCK:   -5.23 KCAL/MOL
REMARK 923 INTER-LIGAND FREE ENERGY PREDICTED BY IDOCK:   -4.58 KCAL/MOL
REMARK 924 INTRA-LIGAND FREE ENERGY PREDICTED BY IDOCK:   -0.65 KCAL/MOL
REMARK 927      BINDING AFFINITY PREDICTED BY RF-SCORE:    0.00 PKD
ROOT
HETATM    1  C   UNL     1     -10.504  15.338  65.086  1.00  0.00    -0.438 C  
HETATM    2  C   UNL     1      -9.584  14.213  65.595  1.00  0.00    -0.115 C  
HETATM    3  C   UNL     1     -10.371  12.879  65.814  1.00  0.00    -0.297 C  
HETATM    4  C   UNL     1      -8.860  14.736  66.840  1.00  0.00    -0.274 C  
HETATM    5  C   UNL     1     -10.974  12.346  64.487  1.00  0.00    -0.355 C  
HETATM    6  C   UNL     1      -9.895  11.903  63.496  1.00  0.00    -0.359 C  
HETATM    7  C   UNL     1      -8.882  10.905  64.080  1.00  0.00    -0.055 C  
HETATM    8  C   UNL     1      -9.400   9.469  63.972  1.00  0.00    -0.007 C  
HETATM    9  C   UNL     1      -8.436  11.252  65.512  1.00  0.00     0.076 C  
HETATM   10  C   UNL     1      -9.558  11.713  66.449  1.00  0.00    -0.217 C  
ENDROOT
BRANCH  10  11
HETATM   11  O   UNL     1     -10.529  10.668  66.716  1.00  0.00    -0.235 OA 
BRANCH  11  12
HETATM   12  C   UNL     1     -10.245   9.647  67.568  1.00  0.00    -0.220 C  
HETATM   13  O   UNL     1      -9.639   8.622  67.303  1.00  0.00    -0.151 OA 
BRANCH  12  14
HETATM   14  C   UNL     1     -10.783  10.006  68.912  1.00  0.00    -0.243 A  
HETATM   15  C   UNL     1     -11.531  11.192  69.045  1.00  0.00    -0.364 A  
HETATM   16  C   UNL     1     -12.039  11.585  70.284  1.00  0.00    -0.444 A  
HETATM   17  C   UNL     1     -11.812  10.786  71.402  1.00  0.00    -0.048 A  
HETATM   18  C   UNL     1     -11.065   9.611  71.279  1.00  0.00    -0.426 A  
HETATM   19  C   UNL     1     -10.497   9.226  70.051  1.00  0.00    -0.226 A  
HETATM   20  N   UNL     1      -9.877   7.964  69.980  1.00  0.00    -0.180 NA 
HETATM   21  H2  UNL     1      -9.005   8.080  69.464  1.00  0.00     0.000 HD 
HETATM   22  H1  UNL     1      -9.670   7.399  70.805  1.00  0.00     0.000 HD 
ENDBRANCH  12  14
ENDBRANCH  11  12
ENDBRANCH  10  11
TORSDOF 3
ENDMDL
MODEL      164
REMARK 921   NORMALIZED FREE ENERGY PREDICTED BY IDOCK:   -3.67 KCAL/MOL
REMARK 922        TOTAL FREE ENERGY PREDICTED BY IDOCK:   -5.23 KCAL/MOL
REMARK 923 INTER-LIGAND FREE ENERGY PREDICTED BY IDOCK:   -5.23 KCAL/MOL
REMARK 924 INTRA-LIGAND FREE ENERGY PREDICTED BY IDOCK:   -0.00 KCAL/MOL
REMARK 927      BINDING AFFINITY PREDICTED BY RF-SCORE:    0.00 PKD
ROOT
HETATM    1  C   UNL     1      -7.298   7.267  71.977  1.00  0.00    -0.079 C  
HETATM    2  C   UNL     1      -8.809   7.129  71.713  1.00  0.00    -0.129 C  
HETATM    3  C   UNL     1      -9.251   7.947  70.455  1.00  0.00    -0.158 C  
HETATM    4  C   UNL     1      -9.540   7.505  73.006  1.00  0.00    -0.268 C  
HETATM    5  C   UNL     1      -8.561   7.431  69.166  1.00  0.00    -0.136 C  
HETATM    6  C   UNL     1      -9.019   6.021  68.787  1.00  0.00    -0.118 C  
HETATM    7  C   UNL     1     -10.545   5.862  68.696  1.00  0.00    -0.323 C  
HETATM    8  C   UNL     1     -11.058   6.269  67.312  1.00  0.00    -0.387 C  
HETATM    9  C   UNL     1     -11.304   6.579  69.827  1.00  0.00    -0.456 C  
HETATM   10  C   UNL     1     -10.783   7.978  70.176  1.00  0.00    -0.244 C  
ENDROOT
BRANCH  10  11
HETATM   11  O   UNL     1     -10.957   8.927  69.092  1.00  0.00    -0.124 OA 
BRANCH  11  12
HETATM   12  C   UNL     1     -10.498  10.202  69.196  1.00  0.00    -0.222 C  
HETATM   13  O   UNL     1      -9.489  10.659  68.683  1.00  0.00    -0.161 OA 
BRANCH  12  14
HETATM   14  C   UNL     1     -11.462  10.973  70.032  1.00  0.00    -0.398 A  
HETATM   15  C   UNL     1     -12.109  10.313  71.096  1.00  0.00    -0.494 A  
HETATM   16  C   UNL     1     -13.036  10.981  71.897  1.00  0.00    -0.525 A  
HETATM   17  C   UNL     1     -13.316  12.323  71.647  1.00  0.00    -0.252 A  
HETATM   18  C   UNL     1     -12.683  12.981  70.589  1.00  0.00    -0.175 A  
HETATM   19  C   UNL     1     -11.788  12.312  69.736  1.00  0.00    -0.318 A  
HETATM   20  N   UNL     1     -11.090  13.078  68.782  1.00  0.00    -0.260 NA 
HETATM   21  H2  UNL     1     -11.104  12.558  67.904  1.00  0.00     0.000 HD 
HETATM   22  H1  UNL     1     -11.326  14.047  68.568  1.00  0.00     0.000 HD 
ENDBRANCH  12  14
ENDBRANCH  11  12
ENDBRANCH  10  11
TORSDOF 3
ENDMDL
MODEL      165
REMARK 921   NORMALIZED FREE ENERGY PREDICTED BY IDOCK:   -3.65 KCAL/MOL
REMARK 922        TOTAL FREE ENERGY PREDICTED BY IDOCK:   -5.21 KCAL/MOL
REMARK 923 INTER-LIGAND FREE ENERGY PREDICTED BY IDOCK:   -4.35 KCAL/MOL
REMARK 924 INTRA-LIGAND FREE ENERGY PREDICTED BY IDOCK:   -0.86 KCAL/MOL
REMARK 927      BINDING AFFINITY PREDICTED BY RF-SCORE:    0.00 PKD
ROOT
HETATM    1  C   UNL     1     -10.298  19.353  68.456  1.00  0.00    -0.413 C  
HETATM    2  C   UNL     1     -10.204  18.090  67.579  1.00  0.00    -0.376 C  
HETATM    3  C   UNL     1      -9.603  16.882  68.372  1.00  0.00    -0.255 C  
HETATM    4  C   UNL     1      -9.432  18.466  66.311  1.00  0.00    -0.246 C  
HETATM    5  C   UNL     1     -10.502  16.482  69.571  1.00  0.00    -0.298 C  
HETATM    6  C   UNL     1     -11.848  15.911  69.122  1.00  0.00    -0.340 C  
HETATM    7  C   UNL     1     -11.733  14.758  68.112  1.00  0.00    -0.353 C  
HETATM    8  C   UNL     1     -11.541  13.418  68.827  1.00  0.00    -0.363 C  
HETATM    9  C   UNL     1     -10.663  14.996  67.031  1.00  0.00    -0.304 C  
HETATM   10  C   UNL     1      -9.346  15.592  67.540  1.00  0.00    -0.206 C  
ENDROOT
BRANCH  10  11
HETATM   11  O   UNL     1      -8.633  14.695  68.431  1.00  0.00    -0.156 OA 
BRANCH  11  12
HETATM   12  C   UNL     1      -7.563  13.978  67.997  1.00  0.00    -0.143 C  
HETATM   13  O   UNL     1      -7.314  13.664  66.844  1.00  0.00     0.173 OA 
BRANCH  12  14
HETATM   14  C   UNL     1      -6.713  13.656  69.179  1.00  0.00    -0.109 A  
HETATM   15  C   UNL     1      -6.428  12.304  69.456  1.00  0.00    -0.094 A  
HETATM   16  C   UNL     1      -5.655  11.946  70.561  1.00  0.00    -0.162 A  
HETATM   17  C   UNL     1      -5.149  12.940  71.394  1.00  0.00    -0.170 A  
HETATM   18  C   UNL     1      -5.433  14.283  71.129  1.00  0.00    -0.181 A  
HETATM   19  C   UNL     1      -6.256  14.662  70.053  1.00  0.00    -0.159 A  
HETATM   20  N   UNL     1      -6.381  16.036  69.773  1.00  0.00    -0.190 NA 
HETATM   21  H2  UNL     1      -7.366  16.221  69.584  1.00  0.00     0.000 HD 
HETATM   22  H1  UNL     1      -6.049  16.765  70.406  1.00  0.00     0.000 HD 
ENDBRANCH  12  14
ENDBRANCH  11  12
ENDBRANCH  10  11
TORSDOF 3
ENDMDL
MODEL      166
REMARK 921   NORMALIZED FREE ENERGY PREDICTED BY IDOCK:   -3.63 KCAL/MOL
REMARK 922        TOTAL FREE ENERGY PREDICTED BY IDOCK:   -5.19 KCAL/MOL
REMARK 923 INTER-LIGAND FREE ENERGY PREDICTED BY IDOCK:   -4.29 KCAL/MOL
REMARK 924 INTRA-LIGAND FREE ENERGY PREDICTED BY IDOCK:   -0.90 KCAL/MOL
REMARK 927      BINDING AFFINITY PREDICTED BY RF-SCORE:    0.00 PKD
ROOT
HETATM    1  C   UNL     1      -5.633  12.577  67.246  1.00  0.00    -0.066 C  
HETATM    2  C   UNL     1      -6.738  12.251  68.267  1.00  0.00    -0.064 C  
HETATM    3  C   UNL     1      -8.164  12.422  67.647  1.00  0.00    -0.169 C  
HETATM    4  C   UNL     1      -6.481  13.104  69.513  1.00  0.00    -0.074 C  
HETATM    5  C   UNL     1      -8.395  11.441  66.467  1.00  0.00    -0.164 C  
HETATM    6  C   UNL     1      -8.436   9.982  66.924  1.00  0.00    -0.125 C  
HETATM    7  C   UNL     1      -9.428   9.711  68.066  1.00  0.00    -0.146 C  
HETATM    8  C   UNL     1     -10.835   9.453  67.521  1.00  0.00    -0.208 C  
HETATM    9  C   UNL     1      -9.421  10.800  69.155  1.00  0.00    -0.151 C  
HETATM   10  C   UNL     1      -9.355  12.240  68.634  1.00  0.00    -0.009 C  
ENDROOT
BRANCH  10  11
HETATM   11  O   UNL     1     -10.538  12.619  67.883  1.00  0.00    -0.211 OA 
BRANCH  11  12
HETATM   12  C   UNL     1     -11.137  13.823  68.078  1.00  0.00    -0.261 C  
HETATM   13  O   UNL     1     -11.480  14.303  69.146  1.00  0.00    -0.257 OA 
BRANCH  12  14
HETATM   14  C   UNL     1     -11.283  14.487  66.751  1.00  0.00    -0.336 A  
HETATM   15  C   UNL     1     -12.180  13.933  65.815  1.00  0.00    -0.488 A  
HETATM   16  C   UNL     1     -12.339  14.502  64.551  1.00  0.00    -0.434 A  
HETATM   17  C   UNL     1     -11.610  15.640  64.215  1.00  0.00    -0.191 A  
HETATM   18  C   UNL     1     -10.713  16.190  65.135  1.00  0.00    -0.391 A  
HETATM   19  C   UNL     1     -10.496  15.600  66.393  1.00  0.00    -0.305 A  
HETATM   20  N   UNL     1      -9.683  16.291  67.312  1.00  0.00    -0.235 NA 
HETATM   21  H2  UNL     1      -9.063  15.606  67.746  1.00  0.00     0.000 HD 
HETATM   22  H1  UNL     1      -9.113  17.097  67.054  1.00  0.00     0.000 HD 
ENDBRANCH  12  14
ENDBRANCH  11  12
ENDBRANCH  10  11
TORSDOF 3
ENDMDL
MODEL      167
REMARK 921   NORMALIZED FREE ENERGY PREDICTED BY IDOCK:   -3.63 KCAL/MOL
REMARK 922        TOTAL FREE ENERGY PREDICTED BY IDOCK:   -5.18 KCAL/MOL
REMARK 923 INTER-LIGAND FREE ENERGY PREDICTED BY IDOCK:   -4.20 KCAL/MOL
REMARK 924 INTRA-LIGAND FREE ENERGY PREDICTED BY IDOCK:   -0.98 KCAL/MOL
REMARK 927      BINDING AFFINITY PREDICTED BY RF-SCORE:    0.00 PKD
ROOT
HETATM    1  C   UNL     1      -7.001   7.418  63.777  1.00  0.00    -0.059 C  
HETATM    2  C   UNL     1      -8.174   7.982  64.600  1.00  0.00    -0.109 C  
HETATM    3  C   UNL     1      -7.881   9.434  65.103  1.00  0.00    -0.110 C  
HETATM    4  C   UNL     1      -8.484   6.974  65.711  1.00  0.00    -0.154 C  
HETATM    5  C   UNL     1      -7.698  10.422  63.921  1.00  0.00    -0.037 C  
HETATM    6  C   UNL     1      -8.992  10.630  63.132  1.00  0.00    -0.244 C  
HETATM    7  C   UNL     1     -10.197  11.028  64.001  1.00  0.00    -0.420 C  
HETATM    8  C   UNL     1     -10.235  12.541  64.228  1.00  0.00    -0.359 C  
HETATM    9  C   UNL     1     -10.285  10.243  65.323  1.00  0.00    -0.308 C  
HETATM   10  C   UNL     1      -8.951  10.047  66.053  1.00  0.00    -0.148 C  
ENDROOT
BRANCH  10  11
HETATM   11  O   UNL     1      -8.379  11.297  66.520  1.00  0.00    -0.162 OA 
BRANCH  11  12
HETATM   12  C   UNL     1      -8.089  11.488  67.834  1.00  0.00    -0.132 C  
HETATM   13  O   UNL     1      -6.978  11.571  68.331  1.00  0.00    -0.068 OA 
BRANCH  12  14
HETATM   14  C   UNL     1      -9.376  11.610  68.578  1.00  0.00    -0.169 A  
HETATM   15  C   UNL     1      -9.751  10.570  69.451  1.00  0.00    -0.188 A  
HETATM   16  C   UNL     1     -10.954  10.624  70.155  1.00  0.00    -0.292 A  
HETATM   17  C   UNL     1     -11.789  11.727  70.001  1.00  0.00    -0.422 A  
HETATM   18  C   UNL     1     -11.427  12.760  69.132  1.00  0.00    -0.361 A  
HETATM   19  C   UNL     1     -10.246  12.699  68.370  1.00  0.00    -0.232 A  
HETATM   20  N   UNL     1      -9.885  13.838  67.624  1.00  0.00    -0.229 NA 
HETATM   21  H2  UNL     1      -9.574  13.516  66.707  1.00  0.00     0.000 HD 
HETATM   22  H1  UNL     1     -10.514  14.626  67.474  1.00  0.00     0.000 HD 
ENDBRANCH  12  14
ENDBRANCH  11  12
ENDBRANCH  10  11
TORSDOF 3
ENDMDL
MODEL      168
REMARK 921   NORMALIZED FREE ENERGY PREDICTED BY IDOCK:   -3.62 KCAL/MOL
REMARK 922        TOTAL FREE ENERGY PREDICTED BY IDOCK:   -5.17 KCAL/MOL
REMARK 923 INTER-LIGAND FREE ENERGY PREDICTED BY IDOCK:   -4.24 KCAL/MOL
REMARK 924 INTRA-LIGAND FREE ENERGY PREDICTED BY IDOCK:   -0.93 KCAL/MOL
REMARK 927      BINDING AFFINITY PREDICTED BY RF-SCORE:    0.00 PKD
ROOT
HETATM    1  C   UNL     1     -12.409  11.390  69.986  1.00  0.00    -0.311 C  
HETATM    2  C   UNL     1     -10.975  11.491  69.433  1.00  0.00    -0.233 C  
HETATM    3  C   UNL     1     -10.968  11.887  67.920  1.00  0.00    -0.270 C  
HETATM    4  C   UNL     1     -10.265  10.170  69.748  1.00  0.00    -0.286 C  
HETATM    5  C   UNL     1     -11.593  13.289  67.694  1.00  0.00    -0.386 C  
HETATM    6  C   UNL     1     -10.748  14.408  68.305  1.00  0.00    -0.246 C  
HETATM    7  C   UNL     1      -9.273  14.387  67.870  1.00  0.00    -0.195 C  
HETATM    8  C   UNL     1      -9.081  15.130  66.546  1.00  0.00    -0.328 C  
HETATM    9  C   UNL     1      -8.666  12.973  67.833  1.00  0.00    -0.189 C  
HETATM   10  C   UNL     1      -9.571  11.891  67.231  1.00  0.00    -0.177 C  
ENDROOT
BRANCH  10  11
HETATM   11  O   UNL     1      -9.839  12.106  65.821  1.00  0.00    -0.243 OA 
BRANCH  11  12
HETATM   12  C   UNL     1     -10.280  11.094  65.028  1.00  0.00    -0.296 C  
HETATM   13  O   UNL     1     -11.354  11.032  64.453  1.00  0.00    -0.050 OA 
BRANCH  12  14
HETATM   14  C   UNL     1      -9.203  10.065  64.953  1.00  0.00    -0.291 A  
HETATM   15  C   UNL     1      -8.002  10.392  64.293  1.00  0.00    -0.080 A  
HETATM   16  C   UNL     1      -6.971   9.460  64.176  1.00  0.00    -0.099 A  
HETATM   17  C   UNL     1      -7.128   8.192  64.730  1.00  0.00    -0.079 A  
HETATM   18  C   UNL     1      -8.319   7.858  65.380  1.00  0.00    -0.146 A  
HETATM   19  C   UNL     1      -9.392   8.763  65.461  1.00  0.00    -0.095 A  
HETATM   20  N   UNL     1     -10.501   8.401  66.249  1.00  0.00    -0.235 NA 
HETATM   21  H2  UNL     1     -11.342   8.649  65.726  1.00  0.00     0.000 HD 
HETATM   22  H1  UNL     1     -10.638   7.459  66.617  1.00  0.00     0.000 HD 
ENDBRANCH  12  14
ENDBRANCH  11  12
ENDBRANCH  10  11
TORSDOF 3
ENDMDL
MODEL      169
REMARK 921   NORMALIZED FREE ENERGY PREDICTED BY IDOCK:   -3.60 KCAL/MOL
REMARK 922        TOTAL FREE ENERGY PREDICTED BY IDOCK:   -5.15 KCAL/MOL
REMARK 923 INTER-LIGAND FREE ENERGY PREDICTED BY IDOCK:   -4.62 KCAL/MOL
REMARK 924 INTRA-LIGAND FREE ENERGY PREDICTED BY IDOCK:   -0.53 KCAL/MOL
REMARK 927      BINDING AFFINITY PREDICTED BY RF-SCORE:    0.00 PKD
ROOT
HETATM    1  C   UNL     1      -6.189  17.310  69.335  1.00  0.00    -0.245 C  
HETATM    2  C   UNL     1      -7.107  17.063  68.123  1.00  0.00    -0.178 C  
HETATM    3  C   UNL     1      -7.722  15.625  68.150  1.00  0.00    -0.127 C  
HETATM    4  C   UNL     1      -6.302  17.387  66.861  1.00  0.00    -0.217 C  
HETATM    5  C   UNL     1      -8.622  15.411  69.396  1.00  0.00    -0.249 C  
HETATM    6  C   UNL     1      -9.881  16.280  69.358  1.00  0.00    -0.217 C  
HETATM    7  C   UNL     1     -10.695  16.144  68.061  1.00  0.00    -0.321 C  
HETATM    8  C   UNL     1     -11.661  14.959  68.141  1.00  0.00    -0.344 C  
HETATM    9  C   UNL     1      -9.824  16.095  66.793  1.00  0.00    -0.255 C  
HETATM   10  C   UNL     1      -8.564  15.228  66.902  1.00  0.00    -0.257 C  
ENDROOT
BRANCH  10  11
HETATM   11  O   UNL     1      -8.867  13.819  67.075  1.00  0.00    -0.223 OA 
BRANCH  11  12
HETATM   12  C   UNL     1      -9.488  13.110  66.095  1.00  0.00    -0.145 C  
HETATM   13  O   UNL     1     -10.031  13.562  65.100  1.00  0.00    -0.265 OA 
BRANCH  12  14
HETATM   14  C   UNL     1      -9.370  11.662  66.428  1.00  0.00    -0.224 A  
HETATM   15  C   UNL     1      -8.089  11.074  66.437  1.00  0.00    -0.166 A  
HETATM   16  C   UNL     1      -7.924   9.718  66.722  1.00  0.00    -0.105 A  
HETATM   17  C   UNL     1      -9.041   8.938  67.013  1.00  0.00    -0.161 A  
HETATM   18  C   UNL     1     -10.315   9.513  66.999  1.00  0.00    -0.319 A  
HETATM   19  C   UNL     1     -10.508  10.864  66.660  1.00  0.00    -0.254 A  
HETATM   20  N   UNL     1     -11.803  11.399  66.803  1.00  0.00    -0.350 NA 
HETATM   21  H2  UNL     1     -11.992  11.968  65.977  1.00  0.00     0.000 HD 
HETATM   22  H1  UNL     1     -12.627  10.822  66.971  1.00  0.00     0.000 HD 
ENDBRANCH  12  14
ENDBRANCH  11  12
ENDBRANCH  10  11
TORSDOF 3
ENDMDL
MODEL      170
REMARK 921   NORMALIZED FREE ENERGY PREDICTED BY IDOCK:   -3.60 KCAL/MOL
REMARK 922        TOTAL FREE ENERGY PREDICTED BY IDOCK:   -5.14 KCAL/MOL
REMARK 923 INTER-LIGAND FREE ENERGY PREDICTED BY IDOCK:   -3.97 KCAL/MOL
REMARK 924 INTRA-LIGAND FREE ENERGY PREDICTED BY IDOCK:   -1.17 KCAL/MOL
REMARK 927      BINDING AFFINITY PREDICTED BY RF-SCORE:    0.00 PKD
ROOT
HETATM    1  C   UNL     1      -9.458  13.020  67.281  1.00  0.00    -0.224 C  
HETATM    2  C   UNL     1     -10.142  11.926  68.122  1.00  0.00    -0.200 C  
HETATM    3  C   UNL     1      -9.549  10.510  67.820  1.00  0.00    -0.173 C  
HETATM    4  C   UNL     1     -11.652  12.044  67.891  1.00  0.00    -0.405 C  
HETATM    5  C   UNL     1      -8.044  10.431  68.192  1.00  0.00    -0.111 C  
HETATM    6  C   UNL     1      -7.813  10.542  69.700  1.00  0.00    -0.097 C  
HETATM    7  C   UNL     1      -8.639   9.550  70.535  1.00  0.00    -0.231 C  
HETATM    8  C   UNL     1      -7.927   8.200  70.647  1.00  0.00    -0.096 C  
HETATM    9  C   UNL     1     -10.091   9.399  70.045  1.00  0.00    -0.259 C  
HETATM   10  C   UNL     1     -10.259   9.317  68.524  1.00  0.00    -0.201 C  
ENDROOT
BRANCH  10  11
HETATM   11  O   UNL     1      -9.658   8.123  67.957  1.00  0.00    -0.151 OA 
BRANCH  11  12
HETATM   12  C   UNL     1     -10.385   6.988  67.781  1.00  0.00    -0.202 C  
HETATM   13  O   UNL     1     -11.298   6.821  66.989  1.00  0.00    -0.337 OA 
BRANCH  12  14
HETATM   14  C   UNL     1      -9.855   5.952  68.713  1.00  0.00    -0.177 A  
HETATM   15  C   UNL     1     -10.573   5.676  69.894  1.00  0.00    -0.399 A  
HETATM   16  C   UNL     1     -10.110   4.731  70.810  1.00  0.00    -0.286 A  
HETATM   17  C   UNL     1      -8.928   4.043  70.547  1.00  0.00    -0.159 A  
HETATM   18  C   UNL     1      -8.207   4.317  69.382  1.00  0.00    -0.069 A  
HETATM   19  C   UNL     1      -8.626   5.305  68.473  1.00  0.00    -0.094 A  
HETATM   20  N   UNL     1      -7.921   5.424  67.259  1.00  0.00    -0.101 NA 
HETATM   21  H2  UNL     1      -7.781   6.419  67.083  1.00  0.00     0.000 HD 
HETATM   22  H1  UNL     1      -7.032   4.955  67.085  1.00  0.00     0.000 HD 
ENDBRANCH  12  14
ENDBRANCH  11  12
ENDBRANCH  10  11
TORSDOF 3
ENDMDL
MODEL      171
REMARK 921   NORMALIZED FREE ENERGY PREDICTED BY IDOCK:   -3.59 KCAL/MOL
REMARK 922        TOTAL FREE ENERGY PREDICTED BY IDOCK:   -5.14 KCAL/MOL
REMARK 923 INTER-LIGAND FREE ENERGY PREDICTED BY IDOCK:   -4.88 KCAL/MOL
REMARK 924 INTRA-LIGAND FREE ENERGY PREDICTED BY IDOCK:   -0.26 KCAL/MOL
REMARK 927      BINDING AFFINITY PREDICTED BY RF-SCORE:    0.00 PKD
ROOT
HETATM    1  C   UNL     1      -7.526  17.468  69.010  1.00  0.00    -0.179 C  
HETATM    2  C   UNL     1      -9.045  17.544  68.770  1.00  0.00    -0.212 C  
HETATM    3  C   UNL     1      -9.616  16.180  68.257  1.00  0.00    -0.216 C  
HETATM    4  C   UNL     1      -9.307  18.733  67.840  1.00  0.00    -0.331 C  
HETATM    5  C   UNL     1      -9.422  15.050  69.302  1.00  0.00    -0.171 C  
HETATM    6  C   UNL     1     -10.260  15.275  70.562  1.00  0.00     0.104 C  
HETATM    7  C   UNL     1     -11.753  15.520  70.286  1.00  0.00    -0.367 C  
HETATM    8  C   UNL     1     -12.512  14.196  70.164  1.00  0.00    -0.391 C  
HETATM    9  C   UNL     1     -12.009  16.446  69.084  1.00  0.00     0.219 C  
HETATM   10  C   UNL     1     -11.122  16.186  67.861  1.00  0.00    -0.293 C  
ENDROOT
BRANCH  10  11
HETATM   11  O   UNL     1     -11.366  14.889  67.257  1.00  0.00    -0.336 OA 
BRANCH  11  12
HETATM   12  C   UNL     1     -10.452  14.317  66.430  1.00  0.00    -0.282 C  
HETATM   13  O   UNL     1      -9.609  14.895  65.763  1.00  0.00    -0.326 OA 
BRANCH  12  14
HETATM   14  C   UNL     1     -10.632  12.838  66.494  1.00  0.00    -0.270 A  
HETATM   15  C   UNL     1     -11.113  12.269  67.690  1.00  0.00    -0.318 A  
HETATM   16  C   UNL     1     -11.281  10.889  67.811  1.00  0.00    -0.384 A  
HETATM   17  C   UNL     1     -10.979  10.065  66.729  1.00  0.00    -0.017 A  
HETATM   18  C   UNL     1     -10.495  10.622  65.542  1.00  0.00    -0.246 A  
HETATM   19  C   UNL     1     -10.266  12.005  65.418  1.00  0.00    -0.263 A  
HETATM   20  N   UNL     1      -9.909  12.502  64.150  1.00  0.00    -0.599 NA 
HETATM   21  H2  UNL     1      -9.153  13.173  64.286  1.00  0.00     0.000 HD 
HETATM   22  H1  UNL     1      -9.645  11.898  63.371  1.00  0.00     0.000 HD 
ENDBRANCH  12  14
ENDBRANCH  11  12
ENDBRANCH  10  11
TORSDOF 3
ENDMDL
MODEL      172
REMARK 921   NORMALIZED FREE ENERGY PREDICTED BY IDOCK:   -3.59 KCAL/MOL
REMARK 922        TOTAL FREE ENERGY PREDICTED BY IDOCK:   -5.14 KCAL/MOL
REMARK 923 INTER-LIGAND FREE ENERGY PREDICTED BY IDOCK:   -4.44 KCAL/MOL
REMARK 924 INTRA-LIGAND FREE ENERGY PREDICTED BY IDOCK:   -0.70 KCAL/MOL
REMARK 927      BINDING AFFINITY PREDICTED BY RF-SCORE:    0.00 PKD
ROOT
HETATM    1  C   UNL     1      -5.159   9.873  68.432  1.00  0.00    -0.036 C  
HETATM    2  C   UNL     1      -6.459  10.079  69.231  1.00  0.00    -0.049 C  
HETATM    3  C   UNL     1      -7.687  10.300  68.287  1.00  0.00    -0.092 C  
HETATM    4  C   UNL     1      -6.212  11.215  70.229  1.00  0.00    -0.134 C  
HETATM    5  C   UNL     1      -7.949   9.060  67.391  1.00  0.00    -0.100 C  
HETATM    6  C   UNL     1      -8.404   7.844  68.201  1.00  0.00    -0.124 C  
HETATM    7  C   UNL     1      -9.602   8.120  69.124  1.00  0.00    -0.157 C  
HETATM    8  C   UNL     1     -10.924   7.960  68.370  1.00  0.00     0.150 C  
HETATM    9  C   UNL     1      -9.514   9.472  69.855  1.00  0.00    -0.247 C  
HETATM   10  C   UNL     1      -9.029  10.646  68.996  1.00  0.00    -0.157 C  
ENDROOT
BRANCH  10  11
HETATM   11  O   UNL     1      -9.954  10.977  67.928  1.00  0.00    -0.169 OA 
BRANCH  11  12
HETATM   12  C   UNL     1      -9.970  12.218  67.374  1.00  0.00    -0.201 C  
HETATM   13  O   UNL     1      -9.440  13.223  67.819  1.00  0.00    -0.194 OA 
BRANCH  12  14
HETATM   14  C   UNL     1     -10.732  12.143  66.094  1.00  0.00    -0.307 A  
HETATM   15  C   UNL     1     -12.017  12.717  66.039  1.00  0.00    -0.491 A  
HETATM   16  C   UNL     1     -12.781  12.656  64.873  1.00  0.00    -0.450 A  
HETATM   17  C   UNL     1     -12.259  12.029  63.744  1.00  0.00    -0.600 A  
HETATM   18  C   UNL     1     -10.988  11.451  63.793  1.00  0.00    -0.448 A  
HETATM   19  C   UNL     1     -10.224  11.452  64.975  1.00  0.00    -0.281 A  
HETATM   20  N   UNL     1      -8.902  10.972  64.904  1.00  0.00    -0.353 NA 
HETATM   21  H2  UNL     1      -8.747  10.383  65.723  1.00  0.00     0.000 HD 
HETATM   22  H1  UNL     1      -8.535  10.473  64.094  1.00  0.00     0.000 HD 
ENDBRANCH  12  14
ENDBRANCH  11  12
ENDBRANCH  10  11
TORSDOF 3
ENDMDL
MODEL      173
REMARK 921   NORMALIZED FREE ENERGY PREDICTED BY IDOCK:   -3.58 KCAL/MOL
REMARK 922        TOTAL FREE ENERGY PREDICTED BY IDOCK:   -5.13 KCAL/MOL
REMARK 923 INTER-LIGAND FREE ENERGY PREDICTED BY IDOCK:   -4.02 KCAL/MOL
REMARK 924 INTRA-LIGAND FREE ENERGY PREDICTED BY IDOCK:   -1.11 KCAL/MOL
REMARK 927      BINDING AFFINITY PREDICTED BY RF-SCORE:    0.00 PKD
ROOT
HETATM    1  C   UNL     1      -5.414   7.910  69.140  1.00  0.00    -0.026 C  
HETATM    2  C   UNL     1      -6.800   8.570  69.255  1.00  0.00    -0.050 C  
HETATM    3  C   UNL     1      -6.956   9.762  68.254  1.00  0.00    -0.073 C  
HETATM    4  C   UNL     1      -7.013   8.943  70.726  1.00  0.00    -0.074 C  
HETATM    5  C   UNL     1      -6.850   9.288  66.780  1.00  0.00    -0.080 C  
HETATM    6  C   UNL     1      -8.021   8.393  66.372  1.00  0.00    -0.099 C  
HETATM    7  C   UNL     1      -9.403   9.004  66.655  1.00  0.00    -0.229 C  
HETATM    8  C   UNL     1      -9.850   9.908  65.503  1.00  0.00    -0.381 C  
HETATM    9  C   UNL     1      -9.491   9.717  68.016  1.00  0.00    -0.146 C  
HETATM   10  C   UNL     1      -8.276  10.578  68.379  1.00  0.00    -0.121 C  
ENDROOT
BRANCH  10  11
HETATM   11  O   UNL     1      -8.110  11.715  67.491  1.00  0.00    -0.131 OA 
BRANCH  11  12
HETATM   12  C   UNL     1      -8.528  12.956  67.854  1.00  0.00    -0.181 C  
HETATM   13  O   UNL     1      -7.947  13.735  68.592  1.00  0.00    -0.138 OA 
BRANCH  12  14
HETATM   14  C   UNL     1      -9.825  13.225  67.168  1.00  0.00    -0.237 A  
HETATM   15  C   UNL     1      -9.814  13.476  65.781  1.00  0.00    -0.218 A  
HETATM   16  C   UNL     1     -10.996  13.754  65.094  1.00  0.00    -0.337 A  
HETATM   17  C   UNL     1     -12.204  13.773  65.787  1.00  0.00    -0.495 A  
HETATM   18  C   UNL     1     -12.221  13.532  67.163  1.00  0.00    -0.328 A  
HETATM   19  C   UNL     1     -11.035  13.305  67.885  1.00  0.00    -0.249 A  
HETATM   20  N   UNL     1     -11.150  12.935  69.239  1.00  0.00    -0.424 NA 
HETATM   21  H2  UNL     1     -10.451  13.465  69.761  1.00  0.00     0.000 HD 
HETATM   22  H1  UNL     1     -12.026  12.992  69.758  1.00  0.00     0.000 HD 
ENDBRANCH  12  14
ENDBRANCH  11  12
ENDBRANCH  10  11
TORSDOF 3
ENDMDL
MODEL      174
REMARK 921   NORMALIZED FREE ENERGY PREDICTED BY IDOCK:   -3.58 KCAL/MOL
REMARK 922        TOTAL FREE ENERGY PREDICTED BY IDOCK:   -5.13 KCAL/MOL
REMARK 923 INTER-LIGAND FREE ENERGY PREDICTED BY IDOCK:   -4.17 KCAL/MOL
REMARK 924 INTRA-LIGAND FREE ENERGY PREDICTED BY IDOCK:   -0.96 KCAL/MOL
REMARK 927      BINDING AFFINITY PREDICTED BY RF-SCORE:    0.00 PKD
ROOT
HETATM    1  C   UNL     1      -9.640   7.889  67.511  1.00  0.00    -0.190 C  
HETATM    2  C   UNL     1      -8.795   9.033  66.921  1.00  0.00    -0.129 C  
HETATM    3  C   UNL     1      -8.903  10.334  67.784  1.00  0.00    -0.125 C  
HETATM    4  C   UNL     1      -9.211   9.205  65.457  1.00  0.00    -0.287 C  
HETATM    5  C   UNL     1      -8.353  10.116  69.218  1.00  0.00    -0.160 C  
HETATM    6  C   UNL     1      -6.843   9.870  69.228  1.00  0.00    -0.057 C  
HETATM    7  C   UNL     1      -6.029  10.940  68.483  1.00  0.00    -0.043 C  
HETATM    8  C   UNL     1      -5.719  12.129  69.396  1.00  0.00    -0.083 C  
HETATM    9  C   UNL     1      -6.670  11.382  67.155  1.00  0.00    -0.121 C  
HETATM   10  C   UNL     1      -8.189  11.589  67.203  1.00  0.00    -0.161 C  
ENDROOT
BRANCH  10  11
HETATM   11  O   UNL     1      -8.577  12.688  68.069  1.00  0.00    -0.172 OA 
BRANCH  11  12
HETATM   12  C   UNL     1      -9.429  13.654  67.636  1.00  0.00    -0.221 C  
HETATM   13  O   UNL     1      -9.387  14.238  66.565  1.00  0.00    -0.276 OA 
BRANCH  12  14
HETATM   14  C   UNL     1     -10.460  13.868  68.693  1.00  0.00    -0.249 A  
HETATM   15  C   UNL     1     -11.191  12.756  69.156  1.00  0.00    -0.294 A  
HETATM   16  C   UNL     1     -12.181  12.904  70.128  1.00  0.00    -0.336 A  
HETATM   17  C   UNL     1     -12.440  14.166  70.656  1.00  0.00    -0.432 A  
HETATM   18  C   UNL     1     -11.724  15.275  70.196  1.00  0.00    -0.342 A  
HETATM   19  C   UNL     1     -10.761  15.157  69.177  1.00  0.00    -0.253 A  
HETATM   20  N   UNL     1      -9.988  16.292  68.867  1.00  0.00    -0.236 NA 
HETATM   21  H2  UNL     1      -9.930  16.355  67.850  1.00  0.00     0.000 HD 
HETATM   22  H1  UNL     1     -10.206  17.225  69.218  1.00  0.00     0.000 HD 
ENDBRANCH  12  14
ENDBRANCH  11  12
ENDBRANCH  10  11
TORSDOF 3
ENDMDL
MODEL      175
REMARK 921   NORMALIZED FREE ENERGY PREDICTED BY IDOCK:   -3.58 KCAL/MOL
REMARK 922        TOTAL FREE ENERGY PREDICTED BY IDOCK:   -5.13 KCAL/MOL
REMARK 923 INTER-LIGAND FREE ENERGY PREDICTED BY IDOCK:   -4.91 KCAL/MOL
REMARK 924 INTRA-LIGAND FREE ENERGY PREDICTED BY IDOCK:   -0.21 KCAL/MOL
REMARK 927      BINDING AFFINITY PREDICTED BY RF-SCORE:    0.00 PKD
ROOT
HETATM    1  C   UNL     1     -12.508  15.292  63.936  1.00  0.00     0.320 C  
HETATM    2  C   UNL     1     -11.244  14.716  64.600  1.00  0.00    -0.353 C  
HETATM    3  C   UNL     1     -11.570  13.456  65.467  1.00  0.00    -0.346 C  
HETATM    4  C   UNL     1     -10.565  15.857  65.365  1.00  0.00    -0.439 C  
HETATM    5  C   UNL     1     -12.142  12.301  64.603  1.00  0.00    -0.449 C  
HETATM    6  C   UNL     1     -11.105  11.738  63.628  1.00  0.00    -0.518 C  
HETATM    7  C   UNL     1      -9.781  11.327  64.291  1.00  0.00    -0.295 C  
HETATM    8  C   UNL     1      -9.862   9.900  64.840  1.00  0.00    -0.282 C  
HETATM    9  C   UNL     1      -9.292  12.327  65.354  1.00  0.00     0.113 C  
HETATM   10  C   UNL     1     -10.381  12.873  66.284  1.00  0.00    -0.268 C  
ENDROOT
BRANCH  10  11
HETATM   11  O   UNL     1     -10.961  11.846  67.130  1.00  0.00    -0.241 OA 
BRANCH  11  12
HETATM   12  C   UNL     1     -10.734  11.829  68.470  1.00  0.00    -0.220 C  
HETATM   13  O   UNL     1     -10.337  10.883  69.131  1.00  0.00    -0.211 OA 
BRANCH  12  14
HETATM   14  C   UNL     1     -11.026  13.190  69.005  1.00  0.00    -0.241 A  
HETATM   15  C   UNL     1     -12.320  13.459  69.494  1.00  0.00    -0.155 A  
HETATM   16  C   UNL     1     -12.653  14.721  69.986  1.00  0.00    -0.268 A  
HETATM   17  C   UNL     1     -11.688  15.725  70.005  1.00  0.00    -0.362 A  
HETATM   18  C   UNL     1     -10.405  15.468  69.515  1.00  0.00    -0.271 A  
HETATM   19  C   UNL     1     -10.065  14.220  68.963  1.00  0.00    -0.123 A  
HETATM   20  N   UNL     1      -8.717  13.998  68.619  1.00  0.00    -0.304 NA 
HETATM   21  H2  UNL     1      -8.707  13.533  67.710  1.00  0.00     0.000 HD 
HETATM   22  H1  UNL     1      -8.021  14.743  68.589  1.00  0.00     0.000 HD 
ENDBRANCH  12  14
ENDBRANCH  11  12
ENDBRANCH  10  11
TORSDOF 3
ENDMDL
MODEL      176
REMARK 921   NORMALIZED FREE ENERGY PREDICTED BY IDOCK:   -3.56 KCAL/MOL
REMARK 922        TOTAL FREE ENERGY PREDICTED BY IDOCK:   -5.10 KCAL/MOL
REMARK 923 INTER-LIGAND FREE ENERGY PREDICTED BY IDOCK:   -4.15 KCAL/MOL
REMARK 924 INTRA-LIGAND FREE ENERGY PREDICTED BY IDOCK:   -0.95 KCAL/MOL
REMARK 927      BINDING AFFINITY PREDICTED BY RF-SCORE:    0.00 PKD
ROOT
HETATM    1  C   UNL     1      -8.958   8.763  65.292  1.00  0.00    -0.184 C  
HETATM    2  C   UNL     1      -8.968  10.291  65.481  1.00  0.00    -0.200 C  
HETATM    3  C   UNL     1      -9.232  10.686  66.971  1.00  0.00    -0.167 C  
HETATM    4  C   UNL     1      -9.972  10.872  64.481  1.00  0.00    -0.376 C  
HETATM    5  C   UNL     1      -8.111  10.165  67.908  1.00  0.00    -0.109 C  
HETATM    6  C   UNL     1      -6.769  10.852  67.645  1.00  0.00    -0.069 C  
HETATM    7  C   UNL     1      -6.838  12.388  67.670  1.00  0.00    -0.132 C  
HETATM    8  C   UNL     1      -6.694  12.921  69.097  1.00  0.00    -0.086 C  
HETATM    9  C   UNL     1      -8.082  12.956  66.963  1.00  0.00    -0.057 C  
HETATM   10  C   UNL     1      -9.390  12.210  67.247  1.00  0.00    -0.183 C  
ENDROOT
BRANCH  10  11
HETATM   11  O   UNL     1      -9.801  12.309  68.636  1.00  0.00    -0.184 OA 
BRANCH  11  12
HETATM   12  C   UNL     1     -10.900  13.025  68.992  1.00  0.00    -0.155 C  
HETATM   13  O   UNL     1     -11.905  12.598  69.536  1.00  0.00    -0.306 OA 
BRANCH  12  14
HETATM   14  C   UNL     1     -10.658  14.451  68.629  1.00  0.00    -0.253 A  
HETATM   15  C   UNL     1      -9.646  15.158  69.308  1.00  0.00    -0.218 A  
HETATM   16  C   UNL     1      -9.392  16.500  69.022  1.00  0.00    -0.239 A  
HETATM   17  C   UNL     1     -10.143  17.145  68.042  1.00  0.00    -0.311 A  
HETATM   18  C   UNL     1     -11.154  16.452  67.370  1.00  0.00    -0.062 A  
HETATM   19  C   UNL     1     -11.463  15.116  67.682  1.00  0.00    -0.309 A  
HETATM   20  N   UNL     1     -12.398  14.449  66.867  1.00  0.00    -0.547 NA 
HETATM   21  H2  UNL     1     -13.021  13.925  67.482  1.00  0.00     0.000 HD 
HETATM   22  H1  UNL     1     -12.980  14.930  66.181  1.00  0.00     0.000 HD 
ENDBRANCH  12  14
ENDBRANCH  11  12
ENDBRANCH  10  11
TORSDOF 3
ENDMDL
MODEL      177
REMARK 921   NORMALIZED FREE ENERGY PREDICTED BY IDOCK:   -3.56 KCAL/MOL
REMARK 922        TOTAL FREE ENERGY PREDICTED BY IDOCK:   -5.09 KCAL/MOL
REMARK 923 INTER-LIGAND FREE ENERGY PREDICTED BY IDOCK:   -4.32 KCAL/MOL
REMARK 924 INTRA-LIGAND FREE ENERGY PREDICTED BY IDOCK:   -0.77 KCAL/MOL
REMARK 927      BINDING AFFINITY PREDICTED BY RF-SCORE:    0.00 PKD
ROOT
HETATM    1  C   UNL     1     -10.294   9.429  66.935  1.00  0.00    -0.308 C  
HETATM    2  C   UNL     1     -10.814   8.239  67.763  1.00  0.00    -0.061 C  
HETATM    3  C   UNL     1     -10.006   8.064  69.092  1.00  0.00    -0.188 C  
HETATM    4  C   UNL     1     -10.813   7.007  66.852  1.00  0.00    -0.350 C  
HETATM    5  C   UNL     1     -10.152   9.302  70.016  1.00  0.00    -0.240 C  
HETATM    6  C   UNL     1     -11.578   9.464  70.547  1.00  0.00    -0.291 C  
HETATM    7  C   UNL     1     -12.142   8.203  71.222  1.00  0.00    -0.313 C  
HETATM    8  C   UNL     1     -11.731   8.138  72.695  1.00  0.00    -0.419 C  
HETATM    9  C   UNL     1     -11.805   6.904  70.469  1.00  0.00    -0.385 C  
HETATM   10  C   UNL     1     -10.368   6.811  69.941  1.00  0.00    -0.203 C  
ENDROOT
BRANCH  10  11
HETATM   11  O   UNL     1      -9.382   6.770  71.005  1.00  0.00    -0.160 OA 
BRANCH  11  12
HETATM   12  C   UNL     1      -8.555   5.701  71.154  1.00  0.00    -0.127 C  
HETATM   13  O   UNL     1      -7.538   5.472  70.520  1.00  0.00    -0.080 OA 
BRANCH  12  14
HETATM   14  C   UNL     1      -9.089   4.854  72.258  1.00  0.00    -0.146 A  
HETATM   15  C   UNL     1      -9.312   3.484  72.011  1.00  0.00    -0.185 A  
HETATM   16  C   UNL     1      -9.830   2.651  73.002  1.00  0.00    -0.177 A  
HETATM   17  C   UNL     1     -10.120   3.179  74.258  1.00  0.00    -0.189 A  
HETATM   18  C   UNL     1      -9.908   4.538  74.509  1.00  0.00    -0.207 A  
HETATM   19  C   UNL     1      -9.440   5.406  73.507  1.00  0.00    -0.137 A  
HETATM   20  N   UNL     1      -9.123   6.728  73.876  1.00  0.00    -0.157 NA 
HETATM   21  H2  UNL     1      -9.496   7.345  73.154  1.00  0.00     0.000 HD 
HETATM   22  H1  UNL     1      -9.376   7.128  74.780  1.00  0.00     0.000 HD 
ENDBRANCH  12  14
ENDBRANCH  11  12
ENDBRANCH  10  11
TORSDOF 3
ENDMDL
MODEL      178
REMARK 921   NORMALIZED FREE ENERGY PREDICTED BY IDOCK:   -3.55 KCAL/MOL
REMARK 922        TOTAL FREE ENERGY PREDICTED BY IDOCK:   -5.09 KCAL/MOL
REMARK 923 INTER-LIGAND FREE ENERGY PREDICTED BY IDOCK:   -4.67 KCAL/MOL
REMARK 924 INTRA-LIGAND FREE ENERGY PREDICTED BY IDOCK:   -0.42 KCAL/MOL
REMARK 927      BINDING AFFINITY PREDICTED BY RF-SCORE:    0.00 PKD
ROOT
HETATM    1  C   UNL     1     -13.728  15.691  71.626  1.00  0.00    -0.467 C  
HETATM    2  C   UNL     1     -12.432  14.934  71.286  1.00  0.00    -0.396 C  
HETATM    3  C   UNL     1     -12.337  14.609  69.759  1.00  0.00    -0.306 C  
HETATM    4  C   UNL     1     -12.360  13.708  72.203  1.00  0.00     0.108 C  
HETATM    5  C   UNL     1     -12.292  15.901  68.901  1.00  0.00     0.300 C  
HETATM    6  C   UNL     1     -11.006  16.700  69.122  1.00  0.00    -0.276 C  
HETATM    7  C   UNL     1      -9.720  15.877  68.944  1.00  0.00    -0.230 C  
HETATM    8  C   UNL     1      -9.296  15.832  67.474  1.00  0.00    -0.210 C  
HETATM    9  C   UNL     1      -9.802  14.471  69.566  1.00  0.00     0.159 C  
HETATM   10  C   UNL     1     -11.124  13.732  69.330  1.00  0.00    -0.156 C  
ENDROOT
BRANCH  10  11
HETATM   11  O   UNL     1     -11.350  13.420  67.931  1.00  0.00    -0.261 OA 
BRANCH  11  12
HETATM   12  C   UNL     1     -11.578  12.143  67.524  1.00  0.00    -0.343 C  
HETATM   13  O   UNL     1     -11.874  11.778  66.398  1.00  0.00    -0.534 OA 
BRANCH  12  14
HETATM   14  C   UNL     1     -11.373  11.243  68.695  1.00  0.00    -0.336 A  
HETATM   15  C   UNL     1     -12.441  11.056  69.597  1.00  0.00    -0.208 A  
HETATM   16  C   UNL     1     -12.296  10.242  70.720  1.00  0.00    -0.445 A  
HETATM   17  C   UNL     1     -11.084   9.594  70.945  1.00  0.00    -0.422 A  
HETATM   18  C   UNL     1     -10.019   9.780  70.059  1.00  0.00    -0.299 A  
HETATM   19  C   UNL     1     -10.125  10.641  68.952  1.00  0.00    -0.202 A  
HETATM   20  N   UNL     1      -9.058  10.667  68.034  1.00  0.00    -0.144 NA 
HETATM   21  H2  UNL     1      -8.882  11.644  67.797  1.00  0.00     0.000 HD 
HETATM   22  H1  UNL     1      -8.154  10.231  68.220  1.00  0.00     0.000 HD 
ENDBRANCH  12  14
ENDBRANCH  11  12
ENDBRANCH  10  11
TORSDOF 3
ENDMDL
MODEL      179
REMARK 921   NORMALIZED FREE ENERGY PREDICTED BY IDOCK:   -3.55 KCAL/MOL
REMARK 922        TOTAL FREE ENERGY PREDICTED BY IDOCK:   -5.09 KCAL/MOL
REMARK 923 INTER-LIGAND FREE ENERGY PREDICTED BY IDOCK:   -4.56 KCAL/MOL
REMARK 924 INTRA-LIGAND FREE ENERGY PREDICTED BY IDOCK:   -0.53 KCAL/MOL
REMARK 927      BINDING AFFINITY PREDICTED BY RF-SCORE:    0.00 PKD
ROOT
HETATM    1  C   UNL     1      -7.820   3.620  65.744  1.00  0.00    -0.092 C  
HETATM    2  C   UNL     1      -7.675   4.752  66.778  1.00  0.00    -0.091 C  
HETATM    3  C   UNL     1      -9.041   5.466  67.045  1.00  0.00    -0.112 C  
HETATM    4  C   UNL     1      -6.557   5.679  66.292  1.00  0.00    -0.055 C  
HETATM    5  C   UNL     1     -10.087   4.492  67.649  1.00  0.00    -0.075 C  
HETATM    6  C   UNL     1      -9.705   4.029  69.056  1.00  0.00    -0.161 C  
HETATM    7  C   UNL     1      -9.397   5.179  70.030  1.00  0.00    -0.201 C  
HETATM    8  C   UNL     1     -10.679   5.704  70.682  1.00  0.00    -0.333 C  
HETATM    9  C   UNL     1      -8.564   6.309  69.399  1.00  0.00    -0.125 C  
HETATM   10  C   UNL     1      -8.980   6.710  67.980  1.00  0.00    -0.117 C  
ENDROOT
BRANCH  10  11
HETATM   11  O   UNL     1     -10.307   7.294  67.929  1.00  0.00    -0.180 OA 
BRANCH  11  12
HETATM   12  C   UNL     1     -10.529   8.568  68.349  1.00  0.00    -0.171 C  
HETATM   13  O   UNL     1     -10.761   8.931  69.490  1.00  0.00    -0.230 OA 
BRANCH  12  14
HETATM   14  C   UNL     1     -10.412   9.470  67.167  1.00  0.00    -0.322 A  
HETATM   15  C   UNL     1      -9.591   9.072  66.093  1.00  0.00    -0.341 A  
HETATM   16  C   UNL     1      -9.429   9.887  64.973  1.00  0.00    -0.343 A  
HETATM   17  C   UNL     1     -10.100  11.107  64.911  1.00  0.00    -0.345 A  
HETATM   18  C   UNL     1     -10.910  11.511  65.975  1.00  0.00    -0.330 A  
HETATM   19  C   UNL     1     -11.042  10.730  67.137  1.00  0.00    -0.227 A  
HETATM   20  N   UNL     1     -11.982  11.141  68.102  1.00  0.00    -0.704 NA 
HETATM   21  H2  UNL     1     -11.543  11.041  69.018  1.00  0.00     0.000 HD 
HETATM   22  H1  UNL     1     -12.439  12.053  68.080  1.00  0.00     0.000 HD 
ENDBRANCH  12  14
ENDBRANCH  11  12
ENDBRANCH  10  11
TORSDOF 3
ENDMDL
MODEL      180
REMARK 921   NORMALIZED FREE ENERGY PREDICTED BY IDOCK:   -3.54 KCAL/MOL
REMARK 922        TOTAL FREE ENERGY PREDICTED BY IDOCK:   -5.07 KCAL/MOL
REMARK 923 INTER-LIGAND FREE ENERGY PREDICTED BY IDOCK:   -4.19 KCAL/MOL
REMARK 924 INTRA-LIGAND FREE ENERGY PREDICTED BY IDOCK:   -0.88 KCAL/MOL
REMARK 927      BINDING AFFINITY PREDICTED BY RF-SCORE:    0.00 PKD
ROOT
HETATM    1  C   UNL     1     -12.444  10.033  71.518  1.00  0.00    -0.516 C  
HETATM    2  C   UNL     1     -11.030   9.436  71.393  1.00  0.00    -0.443 C  
HETATM    3  C   UNL     1     -10.774   8.855  69.963  1.00  0.00    -0.241 C  
HETATM    4  C   UNL     1     -10.854   8.425  72.531  1.00  0.00    -0.375 C  
HETATM    5  C   UNL     1     -10.850   9.959  68.876  1.00  0.00    -0.239 C  
HETATM    6  C   UNL     1      -9.712  10.974  68.999  1.00  0.00    -0.151 C  
HETATM    7  C   UNL     1      -8.312  10.342  69.044  1.00  0.00    -0.148 C  
HETATM    8  C   UNL     1      -7.775  10.094  67.632  1.00  0.00    -0.091 C  
HETATM    9  C   UNL     1      -8.239   9.078  69.920  1.00  0.00    -0.124 C  
HETATM   10  C   UNL     1      -9.420   8.112  69.770  1.00  0.00    -0.159 C  
ENDROOT
BRANCH  10  11
HETATM   11  O   UNL     1      -9.492   7.519  68.447  1.00  0.00    -0.148 OA 
BRANCH  11  12
HETATM   12  C   UNL     1     -10.195   6.376  68.229  1.00  0.00    -0.171 C  
HETATM   13  O   UNL     1     -11.105   6.220  67.431  1.00  0.00    -0.350 OA 
BRANCH  12  14
HETATM   14  C   UNL     1      -9.642   5.317  69.122  1.00  0.00    -0.201 A  
HETATM   15  C   UNL     1     -10.381   4.943  70.262  1.00  0.00    -0.252 A  
HETATM   16  C   UNL     1      -9.900   3.973  71.142  1.00  0.00    -0.236 A  
HETATM   17  C   UNL     1      -8.678   3.358  70.881  1.00  0.00    -0.125 A  
HETATM   18  C   UNL     1      -7.937   3.728  69.756  1.00  0.00    -0.055 A  
HETATM   19  C   UNL     1      -8.377   4.743  68.887  1.00  0.00    -0.082 A  
HETATM   20  N   UNL     1      -7.643   4.961  67.705  1.00  0.00    -0.082 NA 
HETATM   21  H2  UNL     1      -7.547   5.970  67.586  1.00  0.00     0.000 HD 
HETATM   22  H1  UNL     1      -6.727   4.545  67.535  1.00  0.00     0.000 HD 
ENDBRANCH  12  14
ENDBRANCH  11  12
ENDBRANCH  10  11
TORSDOF 3
ENDMDL
MODEL      181
REMARK 921   NORMALIZED FREE ENERGY PREDICTED BY IDOCK:   -3.51 KCAL/MOL
REMARK 922        TOTAL FREE ENERGY PREDICTED BY IDOCK:   -5.04 KCAL/MOL
REMARK 923 INTER-LIGAND FREE ENERGY PREDICTED BY IDOCK:   -4.63 KCAL/MOL
REMARK 924 INTRA-LIGAND FREE ENERGY PREDICTED BY IDOCK:   -0.41 KCAL/MOL
REMARK 927      BINDING AFFINITY PREDICTED BY RF-SCORE:    0.00 PKD
ROOT
HETATM    1  C   UNL     1     -13.821  15.232  70.831  1.00  0.00    -0.311 C  
HETATM    2  C   UNL     1     -12.336  14.827  70.828  1.00  0.00    -0.397 C  
HETATM    3  C   UNL     1     -11.793  14.638  69.373  1.00  0.00    -0.368 C  
HETATM    4  C   UNL     1     -12.193  13.594  71.726  1.00  0.00     0.074 C  
HETATM    5  C   UNL     1     -11.858  15.959  68.563  1.00  0.00    -0.197 C  
HETATM    6  C   UNL     1     -10.902  17.022  69.108  1.00  0.00    -0.164 C  
HETATM    7  C   UNL     1      -9.450  16.540  69.258  1.00  0.00    -0.152 C  
HETATM    8  C   UNL     1      -8.681  16.696  67.944  1.00  0.00    -0.193 C  
HETATM    9  C   UNL     1      -9.334  15.116  69.830  1.00  0.00     0.084 C  
HETATM   10  C   UNL     1     -10.335  14.103  69.262  1.00  0.00    -0.008 C  
ENDROOT
BRANCH  10  11
HETATM   11  O   UNL     1     -10.128  13.843  67.849  1.00  0.00    -0.232 OA 
BRANCH  11  12
HETATM   12  C   UNL     1      -9.424  12.757  67.432  1.00  0.00    -0.190 C  
HETATM   13  O   UNL     1      -8.533  12.187  68.040  1.00  0.00    -0.153 OA 
BRANCH  12  14
HETATM   14  C   UNL     1      -9.948  12.353  66.096  1.00  0.00    -0.267 A  
HETATM   15  C   UNL     1      -9.850  11.000  65.713  1.00  0.00    -0.282 A  
HETATM   16  C   UNL     1     -10.306  10.573  64.466  1.00  0.00    -0.275 A  
HETATM   17  C   UNL     1     -10.877  11.495  63.593  1.00  0.00    -0.488 A  
HETATM   18  C   UNL     1     -10.972  12.839  63.962  1.00  0.00    -0.454 A  
HETATM   19  C   UNL     1     -10.468  13.301  65.191  1.00  0.00    -0.333 A  
HETATM   20  N   UNL     1     -10.725  14.639  65.546  1.00  0.00    -0.327 NA 
HETATM   21  H2  UNL     1      -9.861  15.025  65.930  1.00  0.00     0.000 HD 
HETATM   22  H1  UNL     1     -11.101  15.325  64.892  1.00  0.00     0.000 HD 
ENDBRANCH  12  14
ENDBRANCH  11  12
ENDBRANCH  10  11
TORSDOF 3
ENDMDL
MODEL      182
REMARK 921   NORMALIZED FREE ENERGY PREDICTED BY IDOCK:   -3.50 KCAL/MOL
REMARK 922        TOTAL FREE ENERGY PREDICTED BY IDOCK:   -5.03 KCAL/MOL
REMARK 923 INTER-LIGAND FREE ENERGY PREDICTED BY IDOCK:   -4.62 KCAL/MOL
REMARK 924 INTRA-LIGAND FREE ENERGY PREDICTED BY IDOCK:   -0.41 KCAL/MOL
REMARK 927      BINDING AFFINITY PREDICTED BY RF-SCORE:    0.00 PKD
ROOT
HETATM    1  C   UNL     1     -12.324  11.162  69.586  1.00  0.00    -0.287 C  
HETATM    2  C   UNL     1     -11.449  10.440  70.627  1.00  0.00    -0.438 C  
HETATM    3  C   UNL     1     -10.836   9.121  70.050  1.00  0.00    -0.256 C  
HETATM    4  C   UNL     1     -12.296  10.248  71.889  1.00  0.00    -0.239 C  
HETATM    5  C   UNL     1      -9.894   9.407  68.850  1.00  0.00    -0.176 C  
HETATM    6  C   UNL     1      -8.635  10.169  69.269  1.00  0.00    -0.180 C  
HETATM    7  C   UNL     1      -7.866   9.516  70.430  1.00  0.00    -0.190 C  
HETATM    8  C   UNL     1      -6.901   8.446  69.916  1.00  0.00    -0.043 C  
HETATM    9  C   UNL     1      -8.781   8.981  71.546  1.00  0.00    -0.145 C  
HETATM   10  C   UNL     1     -10.038   8.249  71.063  1.00  0.00    -0.191 C  
ENDROOT
BRANCH  10  11
HETATM   11  O   UNL     1      -9.732   7.020  70.354  1.00  0.00    -0.176 OA 
BRANCH  11  12
HETATM   12  C   UNL     1     -10.696   6.094  70.107  1.00  0.00    -0.302 C  
HETATM   13  O   UNL     1     -11.565   6.155  69.253  1.00  0.00    -0.329 OA 
BRANCH  12  14
HETATM   14  C   UNL     1     -10.495   4.957  71.051  1.00  0.00    -0.164 A  
HETATM   15  C   UNL     1      -9.770   3.832  70.608  1.00  0.00    -0.235 A  
HETATM   16  C   UNL     1      -9.572   2.733  71.444  1.00  0.00    -0.223 A  
HETATM   17  C   UNL     1     -10.088   2.753  72.737  1.00  0.00    -0.225 A  
HETATM   18  C   UNL     1     -10.813   3.862  73.181  1.00  0.00    -0.267 A  
HETATM   19  C   UNL     1     -11.073   4.957  72.337  1.00  0.00    -0.041 A  
HETATM   20  N   UNL     1     -11.691   6.090  72.900  1.00  0.00    -0.515 NA 
HETATM   21  H2  UNL     1     -12.406   6.406  72.244  1.00  0.00     0.000 HD 
HETATM   22  H1  UNL     1     -12.108   6.090  73.831  1.00  0.00     0.000 HD 
ENDBRANCH  12  14
ENDBRANCH  11  12
ENDBRANCH  10  11
TORSDOF 3
ENDMDL
MODEL      183
REMARK 921   NORMALIZED FREE ENERGY PREDICTED BY IDOCK:   -3.49 KCAL/MOL
REMARK 922        TOTAL FREE ENERGY PREDICTED BY IDOCK:   -5.02 KCAL/MOL
REMARK 923 INTER-LIGAND FREE ENERGY PREDICTED BY IDOCK:   -4.70 KCAL/MOL
REMARK 924 INTRA-LIGAND FREE ENERGY PREDICTED BY IDOCK:   -0.31 KCAL/MOL
REMARK 927      BINDING AFFINITY PREDICTED BY RF-SCORE:    0.00 PKD
ROOT
HETATM    1  C   UNL     1      -5.378  11.550  68.632  1.00  0.00    -0.042 C  
HETATM    2  C   UNL     1      -6.745  12.240  68.788  1.00  0.00    -0.089 C  
HETATM    3  C   UNL     1      -7.607  12.112  67.488  1.00  0.00    -0.151 C  
HETATM    4  C   UNL     1      -6.486  13.681  69.239  1.00  0.00    -0.110 C  
HETATM    5  C   UNL     1      -7.931  10.631  67.161  1.00  0.00    -0.121 C  
HETATM    6  C   UNL     1      -8.855   9.995  68.202  1.00  0.00    -0.122 C  
HETATM    7  C   UNL     1     -10.141  10.794  68.467  1.00  0.00    -0.187 C  
HETATM    8  C   UNL     1     -11.231  10.432  67.456  1.00  0.00    -0.254 C  
HETATM    9  C   UNL     1      -9.912  12.314  68.550  1.00  0.00    -0.175 C  
HETATM   10  C   UNL     1      -8.957  12.887  67.496  1.00  0.00    -0.193 C  
ENDROOT
BRANCH  10  11
HETATM   11  O   UNL     1      -9.477  12.766  66.146  1.00  0.00    -0.238 OA 
BRANCH  11  12
HETATM   12  C   UNL     1     -10.374  13.664  65.657  1.00  0.00    -0.300 C  
HETATM   13  O   UNL     1     -11.187  13.472  64.768  1.00  0.00    -0.325 OA 
BRANCH  12  14
HETATM   14  C   UNL     1     -10.216  14.935  66.420  1.00  0.00    -0.292 A  
HETATM   15  C   UNL     1      -9.076  15.729  66.180  1.00  0.00    -0.377 A  
HETATM   16  C   UNL     1      -8.870  16.917  66.881  1.00  0.00    -0.248 A  
HETATM   17  C   UNL     1      -9.810  17.330  67.822  1.00  0.00    -0.281 A  
HETATM   18  C   UNL     1     -10.939  16.545  68.070  1.00  0.00    -0.320 A  
HETATM   19  C   UNL     1     -11.139  15.316  67.415  1.00  0.00    -0.326 A  
HETATM   20  N   UNL     1     -12.365  14.654  67.618  1.00  0.00    -0.554 NA 
HETATM   21  H2  UNL     1     -12.158  13.664  67.756  1.00  0.00     0.000 HD 
HETATM   22  H1  UNL     1     -13.033  14.929  68.338  1.00  0.00     0.000 HD 
ENDBRANCH  12  14
ENDBRANCH  11  12
ENDBRANCH  10  11
TORSDOF 3
ENDMDL
MODEL      184
REMARK 921   NORMALIZED FREE ENERGY PREDICTED BY IDOCK:   -3.49 KCAL/MOL
REMARK 922        TOTAL FREE ENERGY PREDICTED BY IDOCK:   -5.01 KCAL/MOL
REMARK 923 INTER-LIGAND FREE ENERGY PREDICTED BY IDOCK:   -3.97 KCAL/MOL
REMARK 924 INTRA-LIGAND FREE ENERGY PREDICTED BY IDOCK:   -1.04 KCAL/MOL
REMARK 927      BINDING AFFINITY PREDICTED BY RF-SCORE:    0.00 PKD
ROOT
HETATM    1  C   UNL     1      -7.453  11.301  67.058  1.00  0.00    -0.139 C  
HETATM    2  C   UNL     1      -8.433  10.812  68.140  1.00  0.00    -0.125 C  
HETATM    3  C   UNL     1      -8.400   9.255  68.288  1.00  0.00    -0.120 C  
HETATM    4  C   UNL     1      -9.813  11.389  67.808  1.00  0.00    -0.186 C  
HETATM    5  C   UNL     1      -7.004   8.754  68.744  1.00  0.00    -0.063 C  
HETATM    6  C   UNL     1      -6.663   9.201  70.167  1.00  0.00    -0.050 C  
HETATM    7  C   UNL     1      -7.740   8.851  71.207  1.00  0.00    -0.145 C  
HETATM    8  C   UNL     1      -7.550   7.429  71.738  1.00  0.00    -0.085 C  
HETATM    9  C   UNL     1      -9.176   9.094  70.707  1.00  0.00    -0.321 C  
HETATM   10  C   UNL     1      -9.448   8.647  69.266  1.00  0.00    -0.158 C  
ENDROOT
BRANCH  10  11
HETATM   11  O   UNL     1      -9.344   7.209  69.096  1.00  0.00    -0.143 OA 
BRANCH  11  12
HETATM   12  C   UNL     1     -10.453   6.424  69.067  1.00  0.00    -0.224 C  
HETATM   13  O   UNL     1     -11.178   6.221  68.107  1.00  0.00    -0.327 OA 
BRANCH  12  14
HETATM   14  C   UNL     1     -10.626   5.820  70.419  1.00  0.00    -0.365 A  
HETATM   15  C   UNL     1     -11.499   6.446  71.331  1.00  0.00    -0.363 A  
HETATM   16  C   UNL     1     -11.681   5.935  72.616  1.00  0.00    -0.247 A  
HETATM   17  C   UNL     1     -11.000   4.781  72.997  1.00  0.00    -0.346 A  
HETATM   18  C   UNL     1     -10.128   4.158  72.100  1.00  0.00    -0.248 A  
HETATM   19  C   UNL     1      -9.887   4.689  70.820  1.00  0.00    -0.214 A  
HETATM   20  N   UNL     1      -9.103   3.930  69.930  1.00  0.00    -0.107 NA 
HETATM   21  H2  UNL     1      -8.455   4.571  69.470  1.00  0.00     0.000 HD 
HETATM   22  H1  UNL     1      -8.568   3.111  70.220  1.00  0.00     0.000 HD 
ENDBRANCH  12  14
ENDBRANCH  11  12
ENDBRANCH  10  11
TORSDOF 3
ENDMDL
MODEL      185
REMARK 921   NORMALIZED FREE ENERGY PREDICTED BY IDOCK:   -3.46 KCAL/MOL
REMARK 922        TOTAL FREE ENERGY PREDICTED BY IDOCK:   -4.98 KCAL/MOL
REMARK 923 INTER-LIGAND FREE ENERGY PREDICTED BY IDOCK:   -3.99 KCAL/MOL
REMARK 924 INTRA-LIGAND FREE ENERGY PREDICTED BY IDOCK:   -0.99 KCAL/MOL
REMARK 927      BINDING AFFINITY PREDICTED BY RF-SCORE:    0.00 PKD
ROOT
HETATM    1  C   UNL     1     -10.206  13.327  66.147  1.00  0.00    -0.296 C  
HETATM    2  C   UNL     1     -10.153  12.300  67.293  1.00  0.00    -0.212 C  
HETATM    3  C   UNL     1      -9.171  11.125  66.970  1.00  0.00    -0.172 C  
HETATM    4  C   UNL     1     -11.592  11.863  67.588  1.00  0.00    -0.382 C  
HETATM    5  C   UNL     1      -7.713  11.629  66.804  1.00  0.00    -0.116 C  
HETATM    6  C   UNL     1      -7.130  12.160  68.114  1.00  0.00    -0.088 C  
HETATM    7  C   UNL     1      -7.242  11.179  69.293  1.00  0.00    -0.112 C  
HETATM    8  C   UNL     1      -6.065  10.200  69.306  1.00  0.00    -0.037 C  
HETATM    9  C   UNL     1      -8.598  10.453  69.358  1.00  0.00    -0.143 C  
HETATM   10  C   UNL     1      -9.141   9.966  68.009  1.00  0.00    -0.121 C  
ENDROOT
BRANCH  10  11
HETATM   11  O   UNL     1      -8.313   8.935  67.411  1.00  0.00    -0.108 OA 
BRANCH  11  12
HETATM   12  C   UNL     1      -8.849   7.756  66.999  1.00  0.00    -0.127 C  
HETATM   13  O   UNL     1      -8.946   7.361  65.849  1.00  0.00    -0.153 OA 
BRANCH  12  14
HETATM   14  C   UNL     1      -9.283   6.999  68.208  1.00  0.00    -0.128 A  
HETATM   15  C   UNL     1      -8.342   6.766  69.231  1.00  0.00    -0.125 A  
HETATM   16  C   UNL     1      -8.690   6.045  70.374  1.00  0.00    -0.144 A  
HETATM   17  C   UNL     1      -9.988   5.559  70.509  1.00  0.00    -0.276 A  
HETATM   18  C   UNL     1     -10.924   5.780  69.495  1.00  0.00    -0.374 A  
HETATM   19  C   UNL     1     -10.580   6.456  68.311  1.00  0.00    -0.256 A  
HETATM   20  N   UNL     1     -11.611   6.758  67.401  1.00  0.00    -0.616 NA 
HETATM   21  H2  UNL     1     -11.265   6.545  66.465  1.00  0.00     0.000 HD 
HETATM   22  H1  UNL     1     -12.550   6.365  67.476  1.00  0.00     0.000 HD 
ENDBRANCH  12  14
ENDBRANCH  11  12
ENDBRANCH  10  11
TORSDOF 3
ENDMDL
MODEL      186
REMARK 921   NORMALIZED FREE ENERGY PREDICTED BY IDOCK:   -3.42 KCAL/MOL
REMARK 922        TOTAL FREE ENERGY PREDICTED BY IDOCK:   -4.94 KCAL/MOL
REMARK 923 INTER-LIGAND FREE ENERGY PREDICTED BY IDOCK:   -5.15 KCAL/MOL
REMARK 924 INTRA-LIGAND FREE ENERGY PREDICTED BY IDOCK:    0.21 KCAL/MOL
REMARK 927      BINDING AFFINITY PREDICTED BY RF-SCORE:    0.00 PKD
ROOT
HETATM    1  C   UNL     1     -10.743   6.132  72.535  1.00  0.00    -0.257 C  
HETATM    2  C   UNL     1     -11.248   6.216  71.083  1.00  0.00    -0.355 C  
HETATM    3  C   UNL     1     -10.220   6.947  70.156  1.00  0.00    -0.208 C  
HETATM    4  C   UNL     1     -12.640   6.854  71.115  1.00  0.00    -0.366 C  
HETATM    5  C   UNL     1      -8.875   6.179  70.078  1.00  0.00    -0.144 C  
HETATM    6  C   UNL     1      -9.017   4.830  69.369  1.00  0.00    -0.135 C  
HETATM    7  C   UNL     1      -9.682   4.917  67.986  1.00  0.00    -0.202 C  
HETATM    8  C   UNL     1      -8.653   5.242  66.901  1.00  0.00    -0.105 C  
HETATM    9  C   UNL     1     -10.887   5.875  67.945  1.00  0.00    -0.323 C  
HETATM   10  C   UNL     1     -10.691   7.198  68.694  1.00  0.00    -0.163 C  
ENDROOT
BRANCH  10  11
HETATM   11  O   UNL     1      -9.664   8.033  68.097  1.00  0.00    -0.153 OA 
BRANCH  11  12
HETATM   12  C   UNL     1      -9.990   9.093  67.312  1.00  0.00    -0.211 C  
HETATM   13  O   UNL     1      -9.770   9.212  66.118  1.00  0.00    -0.248 OA 
BRANCH  12  14
HETATM   14  C   UNL     1     -10.700  10.094  68.160  1.00  0.00    -0.285 A  
HETATM   15  C   UNL     1     -10.870   9.817  69.531  1.00  0.00    -0.264 A  
HETATM   16  C   UNL     1     -11.545  10.709  70.364  1.00  0.00    -0.441 A  
HETATM   17  C   UNL     1     -12.046  11.896  69.835  1.00  0.00    -0.344 A  
HETATM   18  C   UNL     1     -11.886  12.175  68.475  1.00  0.00    -0.365 A  
HETATM   19  C   UNL     1     -11.259  11.263  67.606  1.00  0.00    -0.292 A  
HETATM   20  N   UNL     1     -11.016  11.677  66.282  1.00  0.00    -0.288 NA 
HETATM   21  H2  UNL     1     -11.265  10.900  65.669  1.00  0.00     0.000 HD 
HETATM   22  H1  UNL     1     -11.421  12.524  65.882  1.00  0.00     0.000 HD 
ENDBRANCH  12  14
ENDBRANCH  11  12
ENDBRANCH  10  11
TORSDOF 3
ENDMDL
MODEL      187
REMARK 921   NORMALIZED FREE ENERGY PREDICTED BY IDOCK:   -3.42 KCAL/MOL
REMARK 922        TOTAL FREE ENERGY PREDICTED BY IDOCK:   -4.94 KCAL/MOL
REMARK 923 INTER-LIGAND FREE ENERGY PREDICTED BY IDOCK:   -3.83 KCAL/MOL
REMARK 924 INTRA-LIGAND FREE ENERGY PREDICTED BY IDOCK:   -1.11 KCAL/MOL
REMARK 927      BINDING AFFINITY PREDICTED BY RF-SCORE:    0.00 PKD
ROOT
HETATM    1  C   UNL     1     -10.871  11.659  65.109  1.00  0.00    -0.346 C  
HETATM    2  C   UNL     1     -10.106  11.377  66.416  1.00  0.00    -0.255 C  
HETATM    3  C   UNL     1     -10.412   9.944  66.965  1.00  0.00    -0.296 C  
HETATM    4  C   UNL     1     -10.425  12.514  67.392  1.00  0.00    -0.231 C  
HETATM    5  C   UNL     1      -9.952   8.842  65.975  1.00  0.00    -0.199 C  
HETATM    6  C   UNL     1      -8.429   8.792  65.829  1.00  0.00    -0.161 C  
HETATM    7  C   UNL     1      -7.676   8.682  67.165  1.00  0.00    -0.096 C  
HETATM    8  C   UNL     1      -7.560   7.222  67.610  1.00  0.00    -0.110 C  
HETATM    9  C   UNL     1      -8.258   9.580  68.271  1.00  0.00    -0.113 C  
HETATM   10  C   UNL     1      -9.789   9.606  68.351  1.00  0.00    -0.153 C  
ENDROOT
BRANCH  10  11
HETATM   11  O   UNL     1     -10.352   8.321  68.723  1.00  0.00    -0.208 OA 
BRANCH  11  12
HETATM   12  C   UNL     1     -10.650   8.034  70.017  1.00  0.00    -0.242 C  
HETATM   13  O   UNL     1     -11.546   8.523  70.686  1.00  0.00    -0.270 OA 
BRANCH  12  14
HETATM   14  C   UNL     1      -9.702   6.983  70.487  1.00  0.00    -0.178 A  
HETATM   15  C   UNL     1      -9.934   5.647  70.105  1.00  0.00    -0.270 A  
HETATM   16  C   UNL     1      -9.090   4.622  70.533  1.00  0.00    -0.174 A  
HETATM   17  C   UNL     1      -7.997   4.927  71.341  1.00  0.00    -0.105 A  
HETATM   18  C   UNL     1      -7.765   6.249  71.730  1.00  0.00    -0.100 A  
HETATM   19  C   UNL     1      -8.635   7.290  71.355  1.00  0.00    -0.115 A  
HETATM   20  N   UNL     1      -8.258   8.609  71.671  1.00  0.00    -0.206 NA 
HETATM   21  H2  UNL     1      -9.086   9.087  72.026  1.00  0.00     0.000 HD 
HETATM   22  H1  UNL     1      -7.485   8.830  72.299  1.00  0.00     0.000 HD 
ENDBRANCH  12  14
ENDBRANCH  11  12
ENDBRANCH  10  11
TORSDOF 3
ENDMDL
MODEL      188
REMARK 921   NORMALIZED FREE ENERGY PREDICTED BY IDOCK:   -3.41 KCAL/MOL
REMARK 922        TOTAL FREE ENERGY PREDICTED BY IDOCK:   -4.93 KCAL/MOL
REMARK 923 INTER-LIGAND FREE ENERGY PREDICTED BY IDOCK:   -4.19 KCAL/MOL
REMARK 924 INTRA-LIGAND FREE ENERGY PREDICTED BY IDOCK:   -0.74 KCAL/MOL
REMARK 927      BINDING AFFINITY PREDICTED BY RF-SCORE:    0.00 PKD
ROOT
HETATM    1  C   UNL     1      -9.872  10.583  69.129  1.00  0.00    -0.233 C  
HETATM    2  C   UNL     1     -10.454   9.170  68.944  1.00  0.00    -0.239 C  
HETATM    3  C   UNL     1      -9.653   8.104  69.762  1.00  0.00    -0.171 C  
HETATM    4  C   UNL     1     -10.525   8.894  67.438  1.00  0.00    -0.347 C  
HETATM    5  C   UNL     1      -9.727   8.381  71.287  1.00  0.00    -0.245 C  
HETATM    6  C   UNL     1     -11.140   8.191  71.843  1.00  0.00    -0.346 C  
HETATM    7  C   UNL     1     -11.770   6.832  71.499  1.00  0.00    -0.361 C  
HETATM    8  C   UNL     1     -11.358   5.763  72.514  1.00  0.00    -0.358 C  
HETATM    9  C   UNL     1     -11.508   6.385  70.049  1.00  0.00    -0.496 C  
HETATM   10  C   UNL     1     -10.081   6.624  69.543  1.00  0.00    -0.177 C  
ENDROOT
BRANCH  10  11
HETATM   11  O   UNL     1      -9.095   5.829  70.252  1.00  0.00    -0.141 OA 
BRANCH  11  12
HETATM   12  C   UNL     1      -7.958   5.410  69.636  1.00  0.00    -0.095 C  
HETATM   13  O   UNL     1      -6.859   5.270  70.149  1.00  0.00    -0.045 OA 
BRANCH  12  14
HETATM   14  C   UNL     1      -8.286   5.118  68.211  1.00  0.00    -0.093 A  
HETATM   15  C   UNL     1      -7.918   6.058  67.228  1.00  0.00    -0.102 A  
HETATM   16  C   UNL     1      -8.219   5.844  65.883  1.00  0.00    -0.127 A  
HETATM   17  C   UNL     1      -8.882   4.678  65.506  1.00  0.00    -0.134 A  
HETATM   18  C   UNL     1      -9.256   3.745  66.476  1.00  0.00    -0.178 A  
HETATM   19  C   UNL     1      -9.011   3.967  67.844  1.00  0.00    -0.125 A  
HETATM   20  N   UNL     1      -9.294   2.919  68.741  1.00  0.00    -0.175 NA 
HETATM   21  H2  UNL     1      -9.760   3.329  69.551  1.00  0.00     0.000 HD 
HETATM   22  H1  UNL     1      -9.819   2.086  68.475  1.00  0.00     0.000 HD 
ENDBRANCH  12  14
ENDBRANCH  11  12
ENDBRANCH  10  11
TORSDOF 3
ENDMDL
MODEL      189
REMARK 921   NORMALIZED FREE ENERGY PREDICTED BY IDOCK:   -3.41 KCAL/MOL
REMARK 922        TOTAL FREE ENERGY PREDICTED BY IDOCK:   -4.92 KCAL/MOL
REMARK 923 INTER-LIGAND FREE ENERGY PREDICTED BY IDOCK:   -3.87 KCAL/MOL
REMARK 924 INTRA-LIGAND FREE ENERGY PREDICTED BY IDOCK:   -1.05 KCAL/MOL
REMARK 927      BINDING AFFINITY PREDICTED BY RF-SCORE:    0.00 PKD
ROOT
HETATM    1  C   UNL     1     -11.834  11.595  70.084  1.00  0.00    -0.428 C  
HETATM    2  C   UNL     1     -11.616  10.393  69.147  1.00  0.00    -0.234 C  
HETATM    3  C   UNL     1     -10.317   9.603  69.516  1.00  0.00    -0.235 C  
HETATM    4  C   UNL     1     -11.654  10.916  67.708  1.00  0.00    -0.231 C  
HETATM    5  C   UNL     1     -10.400   9.001  70.943  1.00  0.00    -0.323 C  
HETATM    6  C   UNL     1     -11.462   7.904  71.049  1.00  0.00    -0.298 C  
HETATM    7  C   UNL     1     -11.326   6.797  69.992  1.00  0.00    -0.396 C  
HETATM    8  C   UNL     1     -10.342   5.719  70.450  1.00  0.00    -0.310 C  
HETATM    9  C   UNL     1     -10.988   7.330  68.588  1.00  0.00    -0.033 C  
HETATM   10  C   UNL     1      -9.935   8.443  68.550  1.00  0.00    -0.187 C  
ENDROOT
BRANCH  10  11
HETATM   11  O   UNL     1      -8.627   7.992  68.988  1.00  0.00    -0.135 OA 
BRANCH  11  12
HETATM   12  C   UNL     1      -7.634   7.745  68.093  1.00  0.00    -0.116 C  
HETATM   13  O   UNL     1      -6.813   8.544  67.676  1.00  0.00    -0.068 OA 
BRANCH  12  14
HETATM   14  C   UNL     1      -7.698   6.302  67.720  1.00  0.00    -0.102 A  
HETATM   15  C   UNL     1      -7.189   5.349  68.624  1.00  0.00    -0.066 A  
HETATM   16  C   UNL     1      -7.205   3.988  68.316  1.00  0.00    -0.059 A  
HETATM   17  C   UNL     1      -7.743   3.567  67.102  1.00  0.00    -0.079 A  
HETATM   18  C   UNL     1      -8.243   4.508  66.197  1.00  0.00    -0.106 A  
HETATM   19  C   UNL     1      -8.186   5.888  66.464  1.00  0.00    -0.110 A  
HETATM   20  N   UNL     1      -8.833   6.759  65.567  1.00  0.00    -0.354 NA 
HETATM   21  H2  UNL     1      -8.209   7.551  65.406  1.00  0.00     0.000 HD 
HETATM   22  H1  UNL     1      -9.186   6.459  64.658  1.00  0.00     0.000 HD 
ENDBRANCH  12  14
ENDBRANCH  11  12
ENDBRANCH  10  11
TORSDOF 3
ENDMDL
MODEL      190
REMARK 921   NORMALIZED FREE ENERGY PREDICTED BY IDOCK:   -3.39 KCAL/MOL
REMARK 922        TOTAL FREE ENERGY PREDICTED BY IDOCK:   -4.91 KCAL/MOL
REMARK 923 INTER-LIGAND FREE ENERGY PREDICTED BY IDOCK:   -3.97 KCAL/MOL
REMARK 924 INTRA-LIGAND FREE ENERGY PREDICTED BY IDOCK:   -0.93 KCAL/MOL
REMARK 927      BINDING AFFINITY PREDICTED BY RF-SCORE:    0.00 PKD
ROOT
HETATM    1  C   UNL     1     -11.440  11.402  69.578  1.00  0.00    -0.381 C  
HETATM    2  C   UNL     1     -11.364   9.897  69.260  1.00  0.00    -0.116 C  
HETATM    3  C   UNL     1     -10.381   9.154  70.224  1.00  0.00    -0.253 C  
HETATM    4  C   UNL     1     -11.025   9.756  67.773  1.00  0.00    -0.242 C  
HETATM    5  C   UNL     1     -10.854   9.238  71.699  1.00  0.00    -0.418 C  
HETATM    6  C   UNL     1     -12.154   8.466  71.937  1.00  0.00    -0.398 C  
HETATM    7  C   UNL     1     -12.111   7.007  71.454  1.00  0.00    -0.396 C  
HETATM    8  C   UNL     1     -11.514   6.092  72.526  1.00  0.00    -0.336 C  
HETATM    9  C   UNL     1     -11.416   6.833  70.092  1.00  0.00    -0.404 C  
HETATM   10  C   UNL     1     -10.133   7.650  69.906  1.00  0.00    -0.198 C  
ENDROOT
BRANCH  10  11
HETATM   11  O   UNL     1      -9.071   7.237  70.805  1.00  0.00    -0.151 OA 
BRANCH  11  12
HETATM   12  C   UNL     1      -8.019   6.502  70.356  1.00  0.00    -0.115 C  
HETATM   13  O   UNL     1      -7.697   5.386  70.729  1.00  0.00    -0.085 OA 
BRANCH  12  14
HETATM   14  C   UNL     1      -7.327   7.288  69.294  1.00  0.00    -0.087 A  
HETATM   15  C   UNL     1      -6.682   8.487  69.655  1.00  0.00    -0.040 A  
HETATM   16  C   UNL     1      -6.037   9.271  68.697  1.00  0.00    -0.044 A  
HETATM   17  C   UNL     1      -6.022   8.854  67.368  1.00  0.00    -0.047 A  
HETATM   18  C   UNL     1      -6.666   7.669  67.002  1.00  0.00    -0.067 A  
HETATM   19  C   UNL     1      -7.369   6.893  67.942  1.00  0.00    -0.097 A  
HETATM   20  N   UNL     1      -7.872   5.647  67.522  1.00  0.00    -0.100 NA 
HETATM   21  H2  UNL     1      -8.818   5.557  67.895  1.00  0.00     0.000 HD 
HETATM   22  H1  UNL     1      -7.902   5.361  66.543  1.00  0.00     0.000 HD 
ENDBRANCH  12  14
ENDBRANCH  11  12
ENDBRANCH  10  11
TORSDOF 3
ENDMDL
MODEL      191
REMARK 921   NORMALIZED FREE ENERGY PREDICTED BY IDOCK:   -3.38 KCAL/MOL
REMARK 922        TOTAL FREE ENERGY PREDICTED BY IDOCK:   -4.88 KCAL/MOL
REMARK 923 INTER-LIGAND FREE ENERGY PREDICTED BY IDOCK:   -3.92 KCAL/MOL
REMARK 924 INTRA-LIGAND FREE ENERGY PREDICTED BY IDOCK:   -0.96 KCAL/MOL
REMARK 927      BINDING AFFINITY PREDICTED BY RF-SCORE:    0.00 PKD
ROOT
HETATM    1  C   UNL     1     -11.192   5.679  72.964  1.00  0.00    -0.319 C  
HETATM    2  C   UNL     1     -11.606   6.118  71.547  1.00  0.00    -0.304 C  
HETATM    3  C   UNL     1     -10.431   6.826  70.796  1.00  0.00    -0.242 C  
HETATM    4  C   UNL     1     -12.877   6.963  71.679  1.00  0.00    -0.383 C  
HETATM    5  C   UNL     1      -9.225   5.871  70.593  1.00  0.00    -0.167 C  
HETATM    6  C   UNL     1      -9.548   4.723  69.636  1.00  0.00    -0.253 C  
HETATM    7  C   UNL     1     -10.123   5.178  68.285  1.00  0.00    -0.199 C  
HETATM    8  C   UNL     1      -9.004   5.523  67.300  1.00  0.00    -0.111 C  
HETATM    9  C   UNL     1     -11.154   6.315  68.410  1.00  0.00    -0.371 C  
HETATM   10  C   UNL     1     -10.783   7.423  69.402  1.00  0.00    -0.211 C  
ENDROOT
BRANCH  10  11
HETATM   11  O   UNL     1      -9.607   8.170  68.995  1.00  0.00    -0.154 OA 
BRANCH  11  12
HETATM   12  C   UNL     1      -9.642   9.524  68.879  1.00  0.00    -0.156 C  
HETATM   13  O   UNL     1     -10.605  10.205  68.569  1.00  0.00    -0.194 OA 
BRANCH  12  14
HETATM   14  C   UNL     1      -8.291  10.051  69.227  1.00  0.00    -0.154 A  
HETATM   15  C   UNL     1      -7.556   9.406  70.241  1.00  0.00    -0.143 A  
HETATM   16  C   UNL     1      -6.296   9.871  70.620  1.00  0.00    -0.104 A  
HETATM   17  C   UNL     1      -5.754  10.981  69.977  1.00  0.00    -0.089 A  
HETATM   18  C   UNL     1      -6.480  11.630  68.975  1.00  0.00    -0.082 A  
HETATM   19  C   UNL     1      -7.774  11.212  68.616  1.00  0.00    -0.135 A  
HETATM   20  N   UNL     1      -8.382  11.830  67.506  1.00  0.00    -0.147 NA 
HETATM   21  H2  UNL     1      -9.352  12.023  67.757  1.00  0.00     0.000 HD 
HETATM   22  H1  UNL     1      -8.008  12.670  67.064  1.00  0.00     0.000 HD 
ENDBRANCH  12  14
ENDBRANCH  11  12
ENDBRANCH  10  11
TORSDOF 3
ENDMDL
MODEL      192
REMARK 921   NORMALIZED FREE ENERGY PREDICTED BY IDOCK:   -3.35 KCAL/MOL
REMARK 922        TOTAL FREE ENERGY PREDICTED BY IDOCK:   -4.85 KCAL/MOL
REMARK 923 INTER-LIGAND FREE ENERGY PREDICTED BY IDOCK:   -4.00 KCAL/MOL
REMARK 924 INTRA-LIGAND FREE ENERGY PREDICTED BY IDOCK:   -0.86 KCAL/MOL
REMARK 927      BINDING AFFINITY PREDICTED BY RF-SCORE:    0.00 PKD
ROOT
HETATM    1  C   UNL     1     -13.330  15.300  70.932  1.00  0.00    -0.475 C  
HETATM    2  C   UNL     1     -11.811  15.508  70.794  1.00  0.00    -0.406 C  
HETATM    3  C   UNL     1     -11.228  14.709  69.581  1.00  0.00    -0.307 C  
HETATM    4  C   UNL     1     -11.173  15.168  72.145  1.00  0.00    -0.195 C  
HETATM    5  C   UNL     1     -11.832  15.191  68.236  1.00  0.00    -0.275 C  
HETATM    6  C   UNL     1     -11.409  16.620  67.889  1.00  0.00     0.001 C  
HETATM    7  C   UNL     1      -9.889  16.849  67.924  1.00  0.00    -0.263 C  
HETATM    8  C   UNL     1      -9.246  16.464  66.590  1.00  0.00    -0.279 C  
HETATM    9  C   UNL     1      -9.195  16.170  69.118  1.00  0.00    -0.246 C  
HETATM   10  C   UNL     1      -9.679  14.749  69.430  1.00  0.00    -0.036 C  
ENDROOT
BRANCH  10  11
HETATM   11  O   UNL     1      -9.372  13.807  68.369  1.00  0.00    -0.203 OA 
BRANCH  11  12
HETATM   12  C   UNL     1      -8.169  13.176  68.318  1.00  0.00    -0.154 C  
HETATM   13  O   UNL     1      -7.175  13.446  68.971  1.00  0.00    -0.094 OA 
BRANCH  12  14
HETATM   14  C   UNL     1      -8.276  12.059  67.336  1.00  0.00    -0.168 A  
HETATM   15  C   UNL     1      -9.335  12.077  66.406  1.00  0.00    -0.232 A  
HETATM   16  C   UNL     1      -9.493  11.046  65.480  1.00  0.00    -0.250 A  
HETATM   17  C   UNL     1      -8.584   9.992  65.465  1.00  0.00    -0.162 A  
HETATM   18  C   UNL     1      -7.535   9.964  66.388  1.00  0.00    -0.101 A  
HETATM   19  C   UNL     1      -7.389  10.964  67.367  1.00  0.00    -0.099 A  
HETATM   20  N   UNL     1      -6.232  10.937  68.169  1.00  0.00    -0.050 NA 
HETATM   21  H2  UNL     1      -6.521  11.123  69.129  1.00  0.00     0.000 HD 
HETATM   22  H1  UNL     1      -5.590  10.144  68.191  1.00  0.00     0.000 HD 
ENDBRANCH  12  14
ENDBRANCH  11  12
ENDBRANCH  10  11
TORSDOF 3
ENDMDL
MODEL      193
REMARK 921   NORMALIZED FREE ENERGY PREDICTED BY IDOCK:   -3.34 KCAL/MOL
REMARK 922        TOTAL FREE ENERGY PREDICTED BY IDOCK:   -4.84 KCAL/MOL
REMARK 923 INTER-LIGAND FREE ENERGY PREDICTED BY IDOCK:   -3.98 KCAL/MOL
REMARK 924 INTRA-LIGAND FREE ENERGY PREDICTED BY IDOCK:   -0.86 KCAL/MOL
REMARK 927      BINDING AFFINITY PREDICTED BY RF-SCORE:    0.00 PKD
ROOT
HETATM    1  C   UNL     1      -8.993  19.660  68.815  1.00  0.00    -0.307 C  
HETATM    2  C   UNL     1      -8.341  18.541  67.983  1.00  0.00    -0.295 C  
HETATM    3  C   UNL     1      -8.948  17.140  68.325  1.00  0.00    -0.248 C  
HETATM    4  C   UNL     1      -6.825  18.643  68.182  1.00  0.00    -0.243 C  
HETATM    5  C   UNL     1     -10.460  17.074  67.984  1.00  0.00    -0.353 C  
HETATM    6  C   UNL     1     -10.720  17.159  66.479  1.00  0.00    -0.074 C  
HETATM    7  C   UNL     1      -9.924  16.140  65.648  1.00  0.00    -0.330 C  
HETATM    8  C   UNL     1     -10.657  14.798  65.576  1.00  0.00    -0.374 C  
HETATM    9  C   UNL     1      -8.465  15.978  66.112  1.00  0.00    -0.247 C  
HETATM   10  C   UNL     1      -8.267  15.923  67.631  1.00  0.00    -0.150 C  
ENDROOT
BRANCH  10  11
HETATM   11  O   UNL     1      -8.873  14.750  68.233  1.00  0.00    -0.166 OA 
BRANCH  11  12
HETATM   12  C   UNL     1      -8.109  13.730  68.705  1.00  0.00    -0.022 C  
HETATM   13  O   UNL     1      -6.957  13.804  69.101  1.00  0.00    -0.111 OA 
BRANCH  12  14
HETATM   14  C   UNL     1      -8.933  12.487  68.686  1.00  0.00     0.042 A  
HETATM   15  C   UNL     1     -10.225  12.544  68.126  1.00  0.00    -0.231 A  
HETATM   16  C   UNL     1     -11.046  11.417  68.102  1.00  0.00    -0.306 A  
HETATM   17  C   UNL     1     -10.576  10.216  68.628  1.00  0.00    -0.236 A  
HETATM   18  C   UNL     1      -9.299  10.154  69.191  1.00  0.00    -0.205 A  
HETATM   19  C   UNL     1      -8.477  11.292  69.276  1.00  0.00     0.213 A  
HETATM   20  N   UNL     1      -7.155  11.116  69.731  1.00  0.00    -0.335 NA 
HETATM   21  H2  UNL     1      -6.954  11.875  70.383  1.00  0.00     0.000 HD 
HETATM   22  H1  UNL     1      -6.825  10.251  70.157  1.00  0.00     0.000 HD 
ENDBRANCH  12  14
ENDBRANCH  11  12
ENDBRANCH  10  11
TORSDOF 3
ENDMDL
MODEL      194
REMARK 921   NORMALIZED FREE ENERGY PREDICTED BY IDOCK:   -3.33 KCAL/MOL
REMARK 922        TOTAL FREE ENERGY PREDICTED BY IDOCK:   -4.83 KCAL/MOL
REMARK 923 INTER-LIGAND FREE ENERGY PREDICTED BY IDOCK:   -3.74 KCAL/MOL
REMARK 924 INTRA-LIGAND FREE ENERGY PREDICTED BY IDOCK:   -1.09 KCAL/MOL
REMARK 927      BINDING AFFINITY PREDICTED BY RF-SCORE:    0.00 PKD
ROOT
HETATM    1  C   UNL     1     -11.201  13.148  68.615  1.00  0.00    -0.314 C  
HETATM    2  C   UNL     1     -10.995  12.162  67.450  1.00  0.00    -0.308 C  
HETATM    3  C   UNL     1      -9.634  11.401  67.573  1.00  0.00    -0.176 C  
HETATM    4  C   UNL     1     -11.169  12.947  66.146  1.00  0.00    -0.326 C  
HETATM    5  C   UNL     1      -9.579  10.533  68.858  1.00  0.00    -0.199 C  
HETATM    6  C   UNL     1     -10.574   9.371  68.817  1.00  0.00    -0.234 C  
HETATM    7  C   UNL     1     -10.464   8.497  67.557  1.00  0.00    -0.328 C  
HETATM    8  C   UNL     1      -9.395   7.416  67.731  1.00  0.00    -0.144 C  
HETATM    9  C   UNL     1     -10.260   9.309  66.265  1.00  0.00    -0.273 C  
HETATM   10  C   UNL     1      -9.270  10.473  66.377  1.00  0.00    -0.166 C  
ENDROOT
BRANCH  10  11
HETATM   11  O   UNL     1      -7.912  10.030  66.633  1.00  0.00    -0.112 OA 
BRANCH  11  12
HETATM   12  C   UNL     1      -6.934  10.191  65.702  1.00  0.00    -0.125 C  
HETATM   13  O   UNL     1      -6.030  11.011  65.726  1.00  0.00    -0.125 OA 
BRANCH  12  14
HETATM   14  C   UNL     1      -7.136   9.164  64.639  1.00  0.00    -0.090 A  
HETATM   15  C   UNL     1      -7.041   7.803  64.991  1.00  0.00    -0.060 A  
HETATM   16  C   UNL     1      -7.200   6.802  64.032  1.00  0.00    -0.071 A  
HETATM   17  C   UNL     1      -7.468   7.154  62.712  1.00  0.00    -0.096 A  
HETATM   18  C   UNL     1      -7.556   8.503  62.354  1.00  0.00    -0.110 A  
HETATM   19  C   UNL     1      -7.344   9.528  63.294  1.00  0.00    -0.112 A  
HETATM   20  N   UNL     1      -7.585  10.854  62.886  1.00  0.00    -0.368 NA 
HETATM   21  H2  UNL     1      -6.820  11.427  63.242  1.00  0.00     0.000 HD 
HETATM   22  H1  UNL     1      -7.736  11.117  61.912  1.00  0.00     0.000 HD 
ENDBRANCH  12  14
ENDBRANCH  11  12
ENDBRANCH  10  11
TORSDOF 3
ENDMDL
MODEL      195
REMARK 921   NORMALIZED FREE ENERGY PREDICTED BY IDOCK:   -3.28 KCAL/MOL
REMARK 922        TOTAL FREE ENERGY PREDICTED BY IDOCK:   -4.77 KCAL/MOL
REMARK 923 INTER-LIGAND FREE ENERGY PREDICTED BY IDOCK:   -3.74 KCAL/MOL
REMARK 924 INTRA-LIGAND FREE ENERGY PREDICTED BY IDOCK:   -1.03 KCAL/MOL
REMARK 927      BINDING AFFINITY PREDICTED BY RF-SCORE:    0.00 PKD
ROOT
HETATM    1  C   UNL     1     -13.030   7.090  71.625  1.00  0.00    -0.400 C  
HETATM    2  C   UNL     1     -11.560   6.786  71.967  1.00  0.00    -0.327 C  
HETATM    3  C   UNL     1     -10.660   6.780  70.688  1.00  0.00    -0.257 C  
HETATM    4  C   UNL     1     -11.533   5.482  72.770  1.00  0.00    -0.339 C  
HETATM    5  C   UNL     1     -10.640   8.168  69.996  1.00  0.00    -0.239 C  
HETATM    6  C   UNL     1      -9.948   9.232  70.849  1.00  0.00    -0.367 C  
HETATM    7  C   UNL     1      -8.541   8.835  71.324  1.00  0.00    -0.258 C  
HETATM    8  C   UNL     1      -7.488   9.172  70.266  1.00  0.00    -0.099 C  
HETATM    9  C   UNL     1      -8.443   7.371  71.791  1.00  0.00    -0.115 C  
HETATM   10  C   UNL     1      -9.178   6.356  70.909  1.00  0.00    -0.158 C  
ENDROOT
BRANCH  10  11
HETATM   11  O   UNL     1      -8.605   6.253  69.579  1.00  0.00    -0.129 OA 
BRANCH  11  12
HETATM   12  C   UNL     1      -8.887   5.194  68.774  1.00  0.00    -0.093 C  
HETATM   13  O   UNL     1      -9.316   4.106  69.123  1.00  0.00    -0.138 OA 
BRANCH  12  14
HETATM   14  C   UNL     1      -8.606   5.596  67.366  1.00  0.00    -0.109 A  
HETATM   15  C   UNL     1      -8.547   6.970  67.056  1.00  0.00    -0.122 A  
HETATM   16  C   UNL     1      -8.308   7.401  65.751  1.00  0.00    -0.141 A  
HETATM   17  C   UNL     1      -8.114   6.459  64.744  1.00  0.00    -0.114 A  
HETATM   18  C   UNL     1      -8.178   5.095  65.042  1.00  0.00    -0.130 A  
HETATM   19  C   UNL     1      -8.473   4.639  66.340  1.00  0.00    -0.109 A  
HETATM   20  N   UNL     1      -8.383   3.256  66.588  1.00  0.00    -0.099 NA 
HETATM   21  H2  UNL     1      -9.195   2.993  67.146  1.00  0.00     0.000 HD 
HETATM   22  H1  UNL     1      -8.286   2.564  65.845  1.00  0.00     0.000 HD 
ENDBRANCH  12  14
ENDBRANCH  11  12
ENDBRANCH  10  11
TORSDOF 3
ENDMDL
MODEL      196
REMARK 921   NORMALIZED FREE ENERGY PREDICTED BY IDOCK:   -3.27 KCAL/MOL
REMARK 922        TOTAL FREE ENERGY PREDICTED BY IDOCK:   -4.76 KCAL/MOL
REMARK 923 INTER-LIGAND FREE ENERGY PREDICTED BY IDOCK:   -3.99 KCAL/MOL
REMARK 924 INTRA-LIGAND FREE ENERGY PREDICTED BY IDOCK:   -0.76 KCAL/MOL
REMARK 927      BINDING AFFINITY PREDICTED BY RF-SCORE:    0.00 PKD
ROOT
HETATM    1  C   UNL     1      -6.856  11.959  68.651  1.00  0.00    -0.086 C  
HETATM    2  C   UNL     1      -8.365  11.757  68.420  1.00  0.00    -0.153 C  
HETATM    3  C   UNL     1      -8.702  10.269  68.077  1.00  0.00    -0.122 C  
HETATM    4  C   UNL     1      -8.808  12.770  67.359  1.00  0.00    -0.190 C  
HETATM    5  C   UNL     1      -8.337   9.316  69.246  1.00  0.00    -0.124 C  
HETATM    6  C   UNL     1      -9.211   9.549  70.480  1.00  0.00    -0.284 C  
HETATM    7  C   UNL     1     -10.721   9.514  70.192  1.00  0.00    -0.299 C  
HETATM    8  C   UNL     1     -11.254   8.080  70.235  1.00  0.00    -0.192 C  
HETATM    9  C   UNL     1     -11.114  10.238  68.892  1.00  0.00    -0.278 C  
HETATM   10  C   UNL     1     -10.185   9.984  67.699  1.00  0.00    -0.204 C  
ENDROOT
BRANCH  10  11
HETATM   11  O   UNL     1     -10.210   8.602  67.255  1.00  0.00    -0.221 OA 
BRANCH  11  12
HETATM   12  C   UNL     1      -9.416   8.178  66.236  1.00  0.00    -0.190 C  
HETATM   13  O   UNL     1      -9.146   8.794  65.218  1.00  0.00    -0.186 OA 
BRANCH  12  14
HETATM   14  C   UNL     1      -8.898   6.825  66.586  1.00  0.00    -0.142 A  
HETATM   15  C   UNL     1      -7.537   6.690  66.924  1.00  0.00    -0.095 A  
HETATM   16  C   UNL     1      -6.996   5.443  67.239  1.00  0.00    -0.065 A  
HETATM   17  C   UNL     1      -7.817   4.319  67.232  1.00  0.00    -0.096 A  
HETATM   18  C   UNL     1      -9.167   4.443  66.892  1.00  0.00    -0.150 A  
HETATM   19  C   UNL     1      -9.720   5.681  66.516  1.00  0.00    -0.160 A  
HETATM   20  N   UNL     1     -11.113   5.748  66.322  1.00  0.00    -0.755 NA 
HETATM   21  H2  UNL     1     -11.277   6.294  65.476  1.00  0.00     0.000 HD 
HETATM   22  H1  UNL     1     -11.707   4.921  66.271  1.00  0.00     0.000 HD 
ENDBRANCH  12  14
ENDBRANCH  11  12
ENDBRANCH  10  11
TORSDOF 3
ENDMDL
MODEL      197
REMARK 921   NORMALIZED FREE ENERGY PREDICTED BY IDOCK:   -3.25 KCAL/MOL
REMARK 922        TOTAL FREE ENERGY PREDICTED BY IDOCK:   -4.74 KCAL/MOL
REMARK 923 INTER-LIGAND FREE ENERGY PREDICTED BY IDOCK:   -3.95 KCAL/MOL
REMARK 924 INTRA-LIGAND FREE ENERGY PREDICTED BY IDOCK:   -0.79 KCAL/MOL
REMARK 927      BINDING AFFINITY PREDICTED BY RF-SCORE:    0.00 PKD
ROOT
HETATM    1  C   UNL     1      -6.915   6.184  71.551  1.00  0.00    -0.076 C  
HETATM    2  C   UNL     1      -7.245   6.425  70.066  1.00  0.00    -0.080 C  
HETATM    3  C   UNL     1      -8.076   7.736  69.865  1.00  0.00    -0.120 C  
HETATM    4  C   UNL     1      -7.919   5.157  69.532  1.00  0.00    -0.079 C  
HETATM    5  C   UNL     1      -7.282   8.990  70.317  1.00  0.00    -0.058 C  
HETATM    6  C   UNL     1      -6.068   9.261  69.426  1.00  0.00    -0.037 C  
HETATM    7  C   UNL     1      -6.395   9.327  67.925  1.00  0.00    -0.058 C  
HETATM    8  C   UNL     1      -6.851  10.733  67.525  1.00  0.00    -0.079 C  
HETATM    9  C   UNL     1      -7.390   8.245  67.467  1.00  0.00    -0.093 C  
HETATM   10  C   UNL     1      -8.571   8.004  68.414  1.00  0.00    -0.127 C  
ENDROOT
BRANCH  10  11
HETATM   11  O   UNL     1      -9.452   9.153  68.514  1.00  0.00    -0.145 OA 
BRANCH  11  12
HETATM   12  C   UNL     1     -10.428   9.371  67.594  1.00  0.00    -0.268 C  
HETATM   13  O   UNL     1     -10.835   8.579  66.759  1.00  0.00    -0.153 OA 
BRANCH  12  14
HETATM   14  C   UNL     1     -10.950  10.754  67.793  1.00  0.00    -0.354 A  
HETATM   15  C   UNL     1     -11.204  11.549  66.658  1.00  0.00    -0.336 A  
HETATM   16  C   UNL     1     -11.673  12.856  66.789  1.00  0.00    -0.445 A  
HETATM   17  C   UNL     1     -11.903  13.378  68.059  1.00  0.00    -0.392 A  
HETATM   18  C   UNL     1     -11.646  12.598  69.190  1.00  0.00    -0.374 A  
HETATM   19  C   UNL     1     -11.121  11.297  69.082  1.00  0.00    -0.253 A  
HETATM   20  N   UNL     1     -11.020  10.529  70.258  1.00  0.00    -0.421 NA 
HETATM   21  H2  UNL     1     -10.113  10.063  70.242  1.00  0.00     0.000 HD 
HETATM   22  H1  UNL     1     -11.145  10.922  71.191  1.00  0.00     0.000 HD 
ENDBRANCH  12  14
ENDBRANCH  11  12
ENDBRANCH  10  11
TORSDOF 3
ENDMDL
MODEL      198
REMARK 921   NORMALIZED FREE ENERGY PREDICTED BY IDOCK:   -3.25 KCAL/MOL
REMARK 922        TOTAL FREE ENERGY PREDICTED BY IDOCK:   -4.73 KCAL/MOL
REMARK 923 INTER-LIGAND FREE ENERGY PREDICTED BY IDOCK:   -3.94 KCAL/MOL
REMARK 924 INTRA-LIGAND FREE ENERGY PREDICTED BY IDOCK:   -0.79 KCAL/MOL
REMARK 927      BINDING AFFINITY PREDICTED BY RF-SCORE:    0.00 PKD
ROOT
HETATM    1  C   UNL     1      -7.079   7.250  70.929  1.00  0.00    -0.068 C  
HETATM    2  C   UNL     1      -7.346   7.249  69.412  1.00  0.00    -0.089 C  
HETATM    3  C   UNL     1      -7.910   8.625  68.925  1.00  0.00    -0.104 C  
HETATM    4  C   UNL     1      -8.247   6.048  69.104  1.00  0.00    -0.111 C  
HETATM    5  C   UNL     1      -6.894   9.774  69.161  1.00  0.00    -0.054 C  
HETATM    6  C   UNL     1      -5.645   9.632  68.290  1.00  0.00    -0.040 C  
HETATM    7  C   UNL     1      -5.943   9.460  66.791  1.00  0.00    -0.060 C  
HETATM    8  C   UNL     1      -6.118  10.817  66.107  1.00  0.00    -0.133 C  
HETATM    9  C   UNL     1      -7.123   8.513  66.507  1.00  0.00    -0.079 C  
HETATM   10  C   UNL     1      -8.335   8.688  67.429  1.00  0.00    -0.116 C  
ENDROOT
BRANCH  10  11
HETATM   11  O   UNL     1      -8.980   9.978  67.267  1.00  0.00    -0.134 OA 
BRANCH  11  12
HETATM   12  C   UNL     1      -9.849  10.203  66.246  1.00  0.00    -0.229 C  
HETATM   13  O   UNL     1      -9.983   9.528  65.238  1.00  0.00    -0.247 OA 
BRANCH  12  14
HETATM   14  C   UNL     1     -10.647  11.419  66.580  1.00  0.00    -0.309 A  
HETATM   15  C   UNL     1     -10.813  11.765  67.936  1.00  0.00    -0.255 A  
HETATM   16  C   UNL     1     -11.568  12.879  68.303  1.00  0.00    -0.374 A  
HETATM   17  C   UNL     1     -12.153  13.667  67.315  1.00  0.00    -0.385 A  
HETATM   18  C   UNL     1     -11.998  13.326  65.969  1.00  0.00    -0.473 A  
HETATM   19  C   UNL     1     -11.289  12.175  65.579  1.00  0.00    -0.344 A  
HETATM   20  N   UNL     1     -11.062  11.977  64.203  1.00  0.00    -0.339 NA 
HETATM   21  H2  UNL     1     -11.240  10.993  64.003  1.00  0.00     0.000 HD 
HETATM   22  H1  UNL     1     -11.527  12.525  63.479  1.00  0.00     0.000 HD 
ENDBRANCH  12  14
ENDBRANCH  11  12
ENDBRANCH  10  11
TORSDOF 3
ENDMDL
MODEL      199
REMARK 921   NORMALIZED FREE ENERGY PREDICTED BY IDOCK:   -3.21 KCAL/MOL
REMARK 922        TOTAL FREE ENERGY PREDICTED BY IDOCK:   -4.69 KCAL/MOL
REMARK 923 INTER-LIGAND FREE ENERGY PREDICTED BY IDOCK:   -3.83 KCAL/MOL
REMARK 924 INTRA-LIGAND FREE ENERGY PREDICTED BY IDOCK:   -0.86 KCAL/MOL
REMARK 927      BINDING AFFINITY PREDICTED BY RF-SCORE:    0.00 PKD
ROOT
HETATM    1  C   UNL     1     -10.241   7.655  73.067  1.00  0.00    -0.379 C  
HETATM    2  C   UNL     1     -10.579   6.606  71.992  1.00  0.00    -0.236 C  
HETATM    3  C   UNL     1      -9.783   6.859  70.669  1.00  0.00    -0.180 C  
HETATM    4  C   UNL     1     -12.102   6.590  71.825  1.00  0.00    -0.393 C  
HETATM    5  C   UNL     1      -8.252   6.739  70.890  1.00  0.00    -0.123 C  
HETATM    6  C   UNL     1      -7.826   5.310  71.233  1.00  0.00    -0.107 C  
HETATM    7  C   UNL     1      -8.321   4.253  70.233  1.00  0.00    -0.081 C  
HETATM    8  C   UNL     1      -7.362   4.126  69.047  1.00  0.00    -0.055 C  
HETATM    9  C   UNL     1      -9.776   4.473  69.779  1.00  0.00    -0.285 C  
HETATM   10  C   UNL     1     -10.148   5.929  69.474  1.00  0.00    -0.203 C  
ENDROOT
BRANCH  10  11
HETATM   11  O   UNL     1      -9.426   6.465  68.335  1.00  0.00    -0.121 OA 
BRANCH  11  12
HETATM   12  C   UNL     1     -10.082   6.859  67.211  1.00  0.00    -0.198 C  
HETATM   13  O   UNL     1     -11.285   6.804  67.011  1.00  0.00    -0.393 OA 
BRANCH  12  14
HETATM   14  C   UNL     1      -9.075   7.406  66.257  1.00  0.00    -0.195 A  
HETATM   15  C   UNL     1      -8.077   6.543  65.762  1.00  0.00    -0.128 A  
HETATM   16  C   UNL     1      -7.098   7.008  64.884  1.00  0.00    -0.064 A  
HETATM   17  C   UNL     1      -7.117   8.341  64.481  1.00  0.00    -0.077 A  
HETATM   18  C   UNL     1      -8.100   9.204  64.973  1.00  0.00    -0.130 A  
HETATM   19  C   UNL     1      -9.062   8.770  65.902  1.00  0.00    -0.218 A  
HETATM   20  N   UNL     1     -10.098   9.661  66.242  1.00  0.00    -0.263 NA 
HETATM   21  H2  UNL     1     -10.225   9.610  67.254  1.00  0.00     0.000 HD 
HETATM   22  H1  UNL     1     -10.088  10.648  65.985  1.00  0.00     0.000 HD 
ENDBRANCH  12  14
ENDBRANCH  11  12
ENDBRANCH  10  11
TORSDOF 3
ENDMDL
MODEL      200
REMARK 921   NORMALIZED FREE ENERGY PREDICTED BY IDOCK:   -3.20 KCAL/MOL
REMARK 922        TOTAL FREE ENERGY PREDICTED BY IDOCK:   -4.68 KCAL/MOL
REMARK 923 INTER-LIGAND FREE ENERGY PREDICTED BY IDOCK:   -3.77 KCAL/MOL
REMARK 924 INTRA-LIGAND FREE ENERGY PREDICTED BY IDOCK:   -0.91 KCAL/MOL
REMARK 927      BINDING AFFINITY PREDICTED BY RF-SCORE:    0.00 PKD
ROOT
HETATM    1  C   UNL     1      -9.254   2.319  65.117  1.00  0.00    -0.099 C  
HETATM    2  C   UNL     1      -8.615   3.592  65.701  1.00  0.00    -0.113 C  
HETATM    3  C   UNL     1      -9.437   4.147  66.911  1.00  0.00    -0.212 C  
HETATM    4  C   UNL     1      -8.430   4.586  64.549  1.00  0.00    -0.128 C  
HETATM    5  C   UNL     1      -9.479   3.134  68.086  1.00  0.00    -0.217 C  
HETATM    6  C   UNL     1      -8.103   2.927  68.723  1.00  0.00    -0.069 C  
HETATM    7  C   UNL     1      -7.406   4.230  69.145  1.00  0.00    -0.055 C  
HETATM    8  C   UNL     1      -7.854   4.664  70.543  1.00  0.00    -0.054 C  
HETATM    9  C   UNL     1      -7.551   5.364  68.113  1.00  0.00    -0.081 C  
HETATM   10  C   UNL     1      -8.946   5.505  67.493  1.00  0.00    -0.107 C  
ENDROOT
BRANCH  10  11
HETATM   11  O   UNL     1      -9.953   5.894  68.464  1.00  0.00    -0.131 OA 
BRANCH  11  12
HETATM   12  C   UNL     1     -10.280   7.200  68.650  1.00  0.00    -0.179 C  
HETATM   13  O   UNL     1     -10.293   8.077  67.802  1.00  0.00    -0.212 OA 
BRANCH  12  14
HETATM   14  C   UNL     1     -10.657   7.382  70.081  1.00  0.00    -0.240 A  
HETATM   15  C   UNL     1     -11.855   6.802  70.543  1.00  0.00    -0.418 A  
HETATM   16  C   UNL     1     -12.264   6.959  71.867  1.00  0.00    -0.370 A  
HETATM   17  C   UNL     1     -11.470   7.690  72.747  1.00  0.00    -0.384 A  
HETATM   18  C   UNL     1     -10.284   8.275  72.295  1.00  0.00    -0.375 A  
HETATM   19  C   UNL     1      -9.881   8.175  70.951  1.00  0.00    -0.176 A  
HETATM   20  N   UNL     1      -8.610   8.673  70.606  1.00  0.00    -0.148 NA 
HETATM   21  H2  UNL     1      -8.710   9.188  69.731  1.00  0.00     0.000 HD 
HETATM   22  H1  UNL     1      -8.048   9.247  71.236  1.00  0.00     0.000 HD 
ENDBRANCH  12  14
ENDBRANCH  11  12
ENDBRANCH  10  11
TORSDOF 3
ENDMDL
MODEL      201
REMARK 921   NORMALIZED FREE ENERGY PREDICTED BY IDOCK:   -3.20 KCAL/MOL
REMARK 922        TOTAL FREE ENERGY PREDICTED BY IDOCK:   -4.67 KCAL/MOL
REMARK 923 INTER-LIGAND FREE ENERGY PREDICTED BY IDOCK:   -3.97 KCAL/MOL
REMARK 924 INTRA-LIGAND FREE ENERGY PREDICTED BY IDOCK:   -0.71 KCAL/MOL
REMARK 927      BINDING AFFINITY PREDICTED BY RF-SCORE:    0.00 PKD
ROOT
HETATM    1  C   UNL     1      -8.947   9.930  70.241  1.00  0.00    -0.094 C  
HETATM    2  C   UNL     1      -9.926   8.910  69.630  1.00  0.00    -0.193 C  
HETATM    3  C   UNL     1      -9.170   7.731  68.932  1.00  0.00    -0.140 C  
HETATM    4  C   UNL     1     -10.883   9.681  68.714  1.00  0.00    -0.199 C  
HETATM    5  C   UNL     1      -8.316   6.923  69.944  1.00  0.00    -0.139 C  
HETATM    6  C   UNL     1      -9.178   6.172  70.961  1.00  0.00    -0.166 C  
HETATM    7  C   UNL     1     -10.265   5.288  70.329  1.00  0.00    -0.345 C  
HETATM    8  C   UNL     1      -9.708   3.910  69.964  1.00  0.00    -0.242 C  
HETATM    9  C   UNL     1     -10.981   5.955  69.141  1.00  0.00    -0.382 C  
HETATM   10  C   UNL     1     -10.067   6.712  68.171  1.00  0.00    -0.158 C  
ENDROOT
BRANCH  10  11
HETATM   11  O   UNL     1      -9.145   5.836  67.471  1.00  0.00    -0.109 OA 
BRANCH  11  12
HETATM   12  C   UNL     1      -9.039   5.867  66.116  1.00  0.00    -0.150 C  
HETATM   13  O   UNL     1      -9.001   6.860  65.410  1.00  0.00     0.022 OA 
BRANCH  12  14
HETATM   14  C   UNL     1      -8.949   4.460  65.629  1.00  0.00    -0.132 A  
HETATM   15  C   UNL     1      -7.732   3.768  65.787  1.00  0.00    -0.089 A  
HETATM   16  C   UNL     1      -7.587   2.458  65.330  1.00  0.00    -0.075 A  
HETATM   17  C   UNL     1      -8.666   1.822  64.720  1.00  0.00    -0.103 A  
HETATM   18  C   UNL     1      -9.874   2.505  64.553  1.00  0.00    -0.006 A  
HETATM   19  C   UNL     1     -10.024   3.844  64.956  1.00  0.00    -0.184 A  
HETATM   20  N   UNL     1     -11.309   4.414  64.880  1.00  0.00    -1.085 NA 
HETATM   21  H2  UNL     1     -11.204   5.353  64.492  1.00  0.00     0.000 HD 
HETATM   22  H1  UNL     1     -12.087   3.968  64.393  1.00  0.00     0.000 HD 
ENDBRANCH  12  14
ENDBRANCH  11  12
ENDBRANCH  10  11
TORSDOF 3
ENDMDL
MODEL      202
REMARK 921   NORMALIZED FREE ENERGY PREDICTED BY IDOCK:   -3.19 KCAL/MOL
REMARK 922        TOTAL FREE ENERGY PREDICTED BY IDOCK:   -4.66 KCAL/MOL
REMARK 923 INTER-LIGAND FREE ENERGY PREDICTED BY IDOCK:   -3.90 KCAL/MOL
REMARK 924 INTRA-LIGAND FREE ENERGY PREDICTED BY IDOCK:   -0.76 KCAL/MOL
REMARK 927      BINDING AFFINITY PREDICTED BY RF-SCORE:    0.00 PKD
ROOT
HETATM    1  C   UNL     1      -6.102  13.895  68.828  1.00  0.00    -0.086 C  
HETATM    2  C   UNL     1      -6.541  12.435  69.045  1.00  0.00    -0.100 C  
HETATM    3  C   UNL     1      -8.015  12.200  68.575  1.00  0.00    -0.119 C  
HETATM    4  C   UNL     1      -6.280  12.088  70.514  1.00  0.00     0.210 C  
HETATM    5  C   UNL     1      -8.176  12.454  67.053  1.00  0.00    -0.141 C  
HETATM    6  C   UNL     1      -7.421  11.425  66.209  1.00  0.00     0.047 C  
HETATM    7  C   UNL     1      -7.749   9.965  66.562  1.00  0.00    -0.107 C  
HETATM    8  C   UNL     1      -8.994   9.486  65.812  1.00  0.00    -0.219 C  
HETATM    9  C   UNL     1      -7.852   9.709  68.076  1.00  0.00    -0.086 C  
HETATM   10  C   UNL     1      -8.599  10.787  68.869  1.00  0.00    -0.153 C  
ENDROOT
BRANCH  10  11
HETATM   11  O   UNL     1     -10.004  10.871  68.515  1.00  0.00    -0.168 OA 
BRANCH  11  12
HETATM   12  C   UNL     1     -10.975  10.615  69.431  1.00  0.00    -0.255 C  
HETATM   13  O   UNL     1     -11.304   9.521  69.859  1.00  0.00    -0.217 OA 
BRANCH  12  14
HETATM   14  C   UNL     1     -11.565  11.918  69.855  1.00  0.00    -0.333 A  
HETATM   15  C   UNL     1     -11.252  13.073  69.111  1.00  0.00    -0.297 A  
HETATM   16  C   UNL     1     -11.759  14.320  69.477  1.00  0.00    -0.366 A  
HETATM   17  C   UNL     1     -12.596  14.421  70.585  1.00  0.00    -0.424 A  
HETATM   18  C   UNL     1     -12.905  13.280  71.331  1.00  0.00    -0.411 A  
HETATM   19  C   UNL     1     -12.360  12.023  71.013  1.00  0.00    -0.238 A  
HETATM   20  N   UNL     1     -12.827  10.903  71.728  1.00  0.00    -0.436 NA 
HETATM   21  H2  UNL     1     -12.016  10.332  71.966  1.00  0.00     0.000 HD 
HETATM   22  H1  UNL     1     -13.403  10.980  72.566  1.00  0.00     0.000 HD 
ENDBRANCH  12  14
ENDBRANCH  11  12
ENDBRANCH  10  11
TORSDOF 3
ENDMDL
MODEL      203
REMARK 921   NORMALIZED FREE ENERGY PREDICTED BY IDOCK:   -3.17 KCAL/MOL
REMARK 922        TOTAL FREE ENERGY PREDICTED BY IDOCK:   -4.64 KCAL/MOL
REMARK 923 INTER-LIGAND FREE ENERGY PREDICTED BY IDOCK:   -3.68 KCAL/MOL
REMARK 924 INTRA-LIGAND FREE ENERGY PREDICTED BY IDOCK:   -0.96 KCAL/MOL
REMARK 927      BINDING AFFINITY PREDICTED BY RF-SCORE:    0.00 PKD
ROOT
HETATM    1  C   UNL     1     -10.430  14.526  65.314  1.00  0.00    -0.411 C  
HETATM    2  C   UNL     1     -10.732  13.244  66.113  1.00  0.00    -0.287 C  
HETATM    3  C   UNL     1      -9.567  12.206  65.999  1.00  0.00    -0.242 C  
HETATM    4  C   UNL     1     -12.096  12.722  65.649  1.00  0.00    -0.514 C  
HETATM    5  C   UNL     1      -8.247  12.761  66.598  1.00  0.00     0.166 C  
HETATM    6  C   UNL     1      -8.334  12.954  68.113  1.00  0.00    -0.168 C  
HETATM    7  C   UNL     1      -8.804  11.706  68.877  1.00  0.00     0.078 C  
HETATM    8  C   UNL     1      -7.628  10.776  69.186  1.00  0.00    -0.133 C  
HETATM    9  C   UNL     1      -9.962  10.964  68.185  1.00  0.00    -0.188 C  
HETATM   10  C   UNL     1      -9.828  10.824  66.665  1.00  0.00    -0.200 C  
ENDROOT
BRANCH  10  11
HETATM   11  O   UNL     1      -8.705   9.991  66.276  1.00  0.00    -0.133 OA 
BRANCH  11  12
HETATM   12  C   UNL     1      -8.898   8.743  65.772  1.00  0.00    -0.195 C  
HETATM   13  O   UNL     1      -8.819   8.408  64.602  1.00  0.00    -0.017 OA 
BRANCH  12  14
HETATM   14  C   UNL     1      -9.200   7.828  66.910  1.00  0.00    -0.187 A  
HETATM   15  C   UNL     1     -10.527   7.389  67.089  1.00  0.00    -0.403 A  
HETATM   16  C   UNL     1     -10.868   6.550  68.149  1.00  0.00    -0.370 A  
HETATM   17  C   UNL     1      -9.880   6.130  69.036  1.00  0.00    -0.170 A  
HETATM   18  C   UNL     1      -8.563   6.566  68.869  1.00  0.00    -0.125 A  
HETATM   19  C   UNL     1      -8.208   7.457  67.840  1.00  0.00    -0.120 A  
HETATM   20  N   UNL     1      -6.841   7.739  67.657  1.00  0.00    -0.067 NA 
HETATM   21  H2  UNL     1      -6.754   8.744  67.503  1.00  0.00     0.000 HD 
HETATM   22  H1  UNL     1      -6.123   7.471  68.330  1.00  0.00     0.000 HD 
ENDBRANCH  12  14
ENDBRANCH  11  12
ENDBRANCH  10  11
TORSDOF 3
ENDMDL
MODEL      204
REMARK 921   NORMALIZED FREE ENERGY PREDICTED BY IDOCK:   -3.17 KCAL/MOL
REMARK 922        TOTAL FREE ENERGY PREDICTED BY IDOCK:   -4.64 KCAL/MOL
REMARK 923 INTER-LIGAND FREE ENERGY PREDICTED BY IDOCK:   -3.75 KCAL/MOL
REMARK 924 INTRA-LIGAND FREE ENERGY PREDICTED BY IDOCK:   -0.89 KCAL/MOL
REMARK 927      BINDING AFFINITY PREDICTED BY RF-SCORE:    0.00 PKD
ROOT
HETATM    1  C   UNL     1      -5.405   8.515  69.329  1.00  0.00    -0.031 C  
HETATM    2  C   UNL     1      -6.339   8.868  70.501  1.00  0.00    -0.044 C  
HETATM    3  C   UNL     1      -7.700   8.103  70.405  1.00  0.00    -0.085 C  
HETATM    4  C   UNL     1      -6.468  10.394  70.545  1.00  0.00    -0.095 C  
HETATM    5  C   UNL     1      -7.500   6.567  70.489  1.00  0.00    -0.090 C  
HETATM    6  C   UNL     1      -6.998   6.122  71.864  1.00  0.00    -0.077 C  
HETATM    7  C   UNL     1      -7.853   6.631  73.037  1.00  0.00    -0.099 C  
HETATM    8  C   UNL     1      -9.036   5.696  73.300  1.00  0.00    -0.129 C  
HETATM    9  C   UNL     1      -8.297   8.096  72.879  1.00  0.00    -0.248 C  
HETATM   10  C   UNL     1      -8.766   8.487  71.473  1.00  0.00    -0.189 C  
ENDROOT
BRANCH  10  11
HETATM   11  O   UNL     1      -9.977   7.794  71.073  1.00  0.00    -0.178 OA 
BRANCH  11  12
HETATM   12  C   UNL     1     -10.994   8.456  70.461  1.00  0.00    -0.242 C  
HETATM   13  O   UNL     1     -12.040   8.821  70.973  1.00  0.00    -0.289 OA 
BRANCH  12  14
HETATM   14  C   UNL     1     -10.603   8.691  69.041  1.00  0.00    -0.179 A  
HETATM   15  C   UNL     1     -10.529   7.586  68.170  1.00  0.00    -0.233 A  
HETATM   16  C   UNL     1     -10.147   7.748  66.838  1.00  0.00    -0.356 A  
HETATM   17  C   UNL     1      -9.847   9.022  66.361  1.00  0.00    -0.356 A  
HETATM   18  C   UNL     1      -9.912  10.121  67.221  1.00  0.00    -0.241 A  
HETATM   19  C   UNL     1     -10.240   9.973  68.581  1.00  0.00    -0.180 A  
HETATM   20  N   UNL     1     -10.418  11.142  69.346  1.00  0.00    -0.407 NA 
HETATM   21  H2  UNL     1      -9.949  10.995  70.241  1.00  0.00     0.000 HD 
HETATM   22  H1  UNL     1     -10.155  12.069  69.013  1.00  0.00     0.000 HD 
ENDBRANCH  12  14
ENDBRANCH  11  12
ENDBRANCH  10  11
TORSDOF 3
ENDMDL
MODEL      205
REMARK 921   NORMALIZED FREE ENERGY PREDICTED BY IDOCK:   -3.16 KCAL/MOL
REMARK 922        TOTAL FREE ENERGY PREDICTED BY IDOCK:   -4.63 KCAL/MOL
REMARK 923 INTER-LIGAND FREE ENERGY PREDICTED BY IDOCK:   -3.80 KCAL/MOL
REMARK 924 INTRA-LIGAND FREE ENERGY PREDICTED BY IDOCK:   -0.83 KCAL/MOL
REMARK 927      BINDING AFFINITY PREDICTED BY RF-SCORE:    0.00 PKD
ROOT
HETATM    1  C   UNL     1     -10.919   6.403  72.893  1.00  0.00    -0.281 C  
HETATM    2  C   UNL     1     -11.393   6.554  71.436  1.00  0.00    -0.344 C  
HETATM    3  C   UNL     1     -10.244   7.062  70.505  1.00  0.00    -0.209 C  
HETATM    4  C   UNL     1     -12.642   7.441  71.447  1.00  0.00    -0.405 C  
HETATM    5  C   UNL     1      -9.065   6.055  70.449  1.00  0.00    -0.156 C  
HETATM    6  C   UNL     1      -9.454   4.744  69.763  1.00  0.00    -0.233 C  
HETATM    7  C   UNL     1     -10.087   4.929  68.374  1.00  0.00    -0.148 C  
HETATM    8  C   UNL     1      -9.010   5.036  67.291  1.00  0.00    -0.113 C  
HETATM    9  C   UNL     1     -11.090   6.094  68.308  1.00  0.00    -0.336 C  
HETATM   10  C   UNL     1     -10.653   7.371  69.035  1.00  0.00    -0.192 C  
ENDROOT
BRANCH  10  11
HETATM   11  O   UNL     1      -9.486   7.988  68.432  1.00  0.00    -0.144 OA 
BRANCH  11  12
HETATM   12  C   UNL     1      -9.609   8.853  67.391  1.00  0.00    -0.157 C  
HETATM   13  O   UNL     1     -10.025   8.596  66.273  1.00  0.00    -0.277 OA 
BRANCH  12  14
HETATM   14  C   UNL     1      -9.169  10.200  67.857  1.00  0.00    -0.144 A  
HETATM   15  C   UNL     1     -10.059  11.284  67.722  1.00  0.00    -0.199 A  
HETATM   16  C   UNL     1      -9.691  12.569  68.122  1.00  0.00    -0.222 A  
HETATM   17  C   UNL     1      -8.429  12.779  68.673  1.00  0.00     0.050 A  
HETATM   18  C   UNL     1      -7.539  11.710  68.804  1.00  0.00    -0.119 A  
HETATM   19  C   UNL     1      -7.869  10.418  68.356  1.00  0.00    -0.104 A  
HETATM   20  N   UNL     1      -6.974   9.371  68.648  1.00  0.00    -0.064 NA 
HETATM   21  H2  UNL     1      -6.886   8.801  67.806  1.00  0.00     0.000 HD 
HETATM   22  H1  UNL     1      -6.033   9.529  69.010  1.00  0.00     0.000 HD 
ENDBRANCH  12  14
ENDBRANCH  11  12
ENDBRANCH  10  11
TORSDOF 3
ENDMDL
MODEL      206
REMARK 921   NORMALIZED FREE ENERGY PREDICTED BY IDOCK:   -3.15 KCAL/MOL
REMARK 922        TOTAL FREE ENERGY PREDICTED BY IDOCK:   -4.61 KCAL/MOL
REMARK 923 INTER-LIGAND FREE ENERGY PREDICTED BY IDOCK:   -3.86 KCAL/MOL
REMARK 924 INTRA-LIGAND FREE ENERGY PREDICTED BY IDOCK:   -0.75 KCAL/MOL
REMARK 927      BINDING AFFINITY PREDICTED BY RF-SCORE:    0.00 PKD
ROOT
HETATM    1  C   UNL     1     -10.628  10.930  68.622  1.00  0.00    -0.224 C  
HETATM    2  C   UNL     1     -10.755   9.397  68.550  1.00  0.00    -0.203 C  
HETATM    3  C   UNL     1     -10.037   8.702  69.754  1.00  0.00    -0.199 C  
HETATM    4  C   UNL     1     -10.254   8.957  67.171  1.00  0.00    -0.339 C  
HETATM    5  C   UNL     1     -10.677   9.102  71.109  1.00  0.00    -0.380 C  
HETATM    6  C   UNL     1     -12.104   8.570  71.258  1.00  0.00    -0.323 C  
HETATM    7  C   UNL     1     -12.235   7.058  71.012  1.00  0.00    -0.419 C  
HETATM    8  C   UNL     1     -11.936   6.266  72.288  1.00  0.00    -0.296 C  
HETATM    9  C   UNL     1     -11.408   6.558  69.815  1.00  0.00    -0.456 C  
HETATM   10  C   UNL     1      -9.997   7.146  69.707  1.00  0.00    -0.178 C  
ENDROOT
BRANCH  10  11
HETATM   11  O   UNL     1      -9.139   6.751  70.810  1.00  0.00    -0.150 OA 
BRANCH  11  12
HETATM   12  C   UNL     1      -8.380   5.626  70.739  1.00  0.00    -0.123 C  
HETATM   13  O   UNL     1      -8.357   4.817  69.826  1.00  0.00    -0.074 OA 
BRANCH  12  14
HETATM   14  C   UNL     1      -7.544   5.556  71.972  1.00  0.00    -0.100 A  
HETATM   15  C   UNL     1      -6.466   6.453  72.108  1.00  0.00    -0.054 A  
HETATM   16  C   UNL     1      -5.639   6.416  73.231  1.00  0.00    -0.038 A  
HETATM   17  C   UNL     1      -5.891   5.487  74.237  1.00  0.00    -0.052 A  
HETATM   18  C   UNL     1      -6.954   4.589  74.106  1.00  0.00    -0.071 A  
HETATM   19  C   UNL     1      -7.765   4.572  72.957  1.00  0.00    -0.087 A  
HETATM   20  N   UNL     1      -8.896   3.733  72.962  1.00  0.00    -0.093 NA 
HETATM   21  H2  UNL     1      -8.937   3.270  72.054  1.00  0.00     0.000 HD 
HETATM   22  H1  UNL     1      -9.057   3.022  73.675  1.00  0.00     0.000 HD 
ENDBRANCH  12  14
ENDBRANCH  11  12
ENDBRANCH  10  11
TORSDOF 3
ENDMDL
MODEL      207
REMARK 921   NORMALIZED FREE ENERGY PREDICTED BY IDOCK:   -3.12 KCAL/MOL
REMARK 922        TOTAL FREE ENERGY PREDICTED BY IDOCK:   -4.58 KCAL/MOL
REMARK 923 INTER-LIGAND FREE ENERGY PREDICTED BY IDOCK:   -3.75 KCAL/MOL
REMARK 924 INTRA-LIGAND FREE ENERGY PREDICTED BY IDOCK:   -0.82 KCAL/MOL
REMARK 927      BINDING AFFINITY PREDICTED BY RF-SCORE:    0.00 PKD
ROOT
HETATM    1  C   UNL     1      -7.190  10.233  69.290  1.00  0.00    -0.093 C  
HETATM    2  C   UNL     1      -8.325   9.261  68.920  1.00  0.00    -0.120 C  
HETATM    3  C   UNL     1      -8.538   8.175  70.026  1.00  0.00    -0.129 C  
HETATM    4  C   UNL     1      -8.015   8.699  67.529  1.00  0.00    -0.106 C  
HETATM    5  C   UNL     1      -8.967   8.811  71.375  1.00  0.00    -0.307 C  
HETATM    6  C   UNL     1     -10.357   9.446  71.301  1.00  0.00    -0.363 C  
HETATM    7  C   UNL     1     -11.447   8.505  70.765  1.00  0.00    -0.281 C  
HETATM    8  C   UNL     1     -12.033   7.646  71.889  1.00  0.00    -0.331 C  
HETATM    9  C   UNL     1     -10.987   7.654  69.567  1.00  0.00    -0.108 C  
HETATM   10  C   UNL     1      -9.577   7.066  69.690  1.00  0.00    -0.150 C  
ENDROOT
BRANCH  10  11
HETATM   11  O   UNL     1      -9.466   6.097  70.766  1.00  0.00    -0.166 OA 
BRANCH  11  12
HETATM   12  C   UNL     1      -9.450   4.763  70.509  1.00  0.00    -0.172 C  
HETATM   13  O   UNL     1      -9.116   4.224  69.467  1.00  0.00    -0.098 OA 
BRANCH  12  14
HETATM   14  C   UNL     1      -9.888   4.050  71.744  1.00  0.00    -0.249 A  
HETATM   15  C   UNL     1     -10.748   4.717  72.639  1.00  0.00    -0.263 A  
HETATM   16  C   UNL     1     -11.171   4.104  73.818  1.00  0.00    -0.260 A  
HETATM   17  C   UNL     1     -10.746   2.810  74.108  1.00  0.00    -0.241 A  
HETATM   18  C   UNL     1      -9.888   2.144  73.229  1.00  0.00    -0.149 A  
HETATM   19  C   UNL     1      -9.405   2.765  72.062  1.00  0.00    -0.108 A  
HETATM   20  N   UNL     1      -8.657   1.982  71.162  1.00  0.00    -0.056 NA 
HETATM   21  H2  UNL     1      -7.859   2.541  70.861  1.00  0.00     0.000 HD 
HETATM   22  H1  UNL     1      -8.308   1.051  71.393  1.00  0.00     0.000 HD 
ENDBRANCH  12  14
ENDBRANCH  11  12
ENDBRANCH  10  11
TORSDOF 3
ENDMDL
MODEL      208
REMARK 921   NORMALIZED FREE ENERGY PREDICTED BY IDOCK:   -3.08 KCAL/MOL
REMARK 922        TOTAL FREE ENERGY PREDICTED BY IDOCK:   -4.54 KCAL/MOL
REMARK 923 INTER-LIGAND FREE ENERGY PREDICTED BY IDOCK:   -3.60 KCAL/MOL
REMARK 924 INTRA-LIGAND FREE ENERGY PREDICTED BY IDOCK:   -0.94 KCAL/MOL
REMARK 927      BINDING AFFINITY PREDICTED BY RF-SCORE:    0.00 PKD
ROOT
HETATM    1  C   UNL     1      -9.478  18.278  67.691  1.00  0.00    -0.275 C  
HETATM    2  C   UNL     1      -9.527  16.956  66.903  1.00  0.00    -0.261 C  
HETATM    3  C   UNL     1      -9.240  15.725  67.824  1.00  0.00    -0.197 C  
HETATM    4  C   UNL     1      -8.573  17.094  65.711  1.00  0.00     0.202 C  
HETATM    5  C   UNL     1     -10.315  15.579  68.934  1.00  0.00    -0.221 C  
HETATM    6  C   UNL     1     -11.690  15.221  68.367  1.00  0.00    -0.340 C  
HETATM    7  C   UNL     1     -11.685  13.994  67.441  1.00  0.00    -0.421 C  
HETATM    8  C   UNL     1     -11.814  12.699  68.247  1.00  0.00    -0.354 C  
HETATM    9  C   UNL     1     -10.485  13.958  66.478  1.00  0.00    -0.282 C  
HETATM   10  C   UNL     1      -9.139  14.350  67.100  1.00  0.00    -0.227 C  
ENDROOT
BRANCH  10  11
HETATM   11  O   UNL     1      -8.697  13.412  68.115  1.00  0.00    -0.168 OA 
BRANCH  11  12
HETATM   12  C   UNL     1      -7.625  12.603  67.904  1.00  0.00    -0.132 C  
HETATM   13  O   UNL     1      -7.368  11.984  66.884  1.00  0.00    -0.125 OA 
BRANCH  12  14
HETATM   14  C   UNL     1      -6.785  12.620  69.136  1.00  0.00    -0.086 A  
HETATM   15  C   UNL     1      -6.485  13.861  69.731  1.00  0.00    -0.095 A  
HETATM   16  C   UNL     1      -5.686  13.934  70.872  1.00  0.00    -0.209 A  
HETATM   17  C   UNL     1      -5.188  12.762  71.437  1.00  0.00    -0.143 A  
HETATM   18  C   UNL     1      -5.476  11.528  70.848  1.00  0.00    -0.103 A  
HETATM   19  C   UNL     1      -6.232  11.436  69.665  1.00  0.00    -0.118 A  
HETATM   20  N   UNL     1      -6.593  10.152  69.213  1.00  0.00    -0.049 NA 
HETATM   21  H2  UNL     1      -6.446  10.132  68.203  1.00  0.00     0.000 HD 
HETATM   22  H1  UNL     1      -6.193   9.295  69.597  1.00  0.00     0.000 HD 
ENDBRANCH  12  14
ENDBRANCH  11  12
ENDBRANCH  10  11
TORSDOF 3
ENDMDL
MODEL      209
REMARK 921   NORMALIZED FREE ENERGY PREDICTED BY IDOCK:   -3.03 KCAL/MOL
REMARK 922        TOTAL FREE ENERGY PREDICTED BY IDOCK:   -4.47 KCAL/MOL
REMARK 923 INTER-LIGAND FREE ENERGY PREDICTED BY IDOCK:   -4.57 KCAL/MOL
REMARK 924 INTRA-LIGAND FREE ENERGY PREDICTED BY IDOCK:    0.10 KCAL/MOL
REMARK 927      BINDING AFFINITY PREDICTED BY RF-SCORE:    0.00 PKD
ROOT
HETATM    1  C   UNL     1      -7.398   6.022  71.403  1.00  0.00    -0.084 C  
HETATM    2  C   UNL     1      -8.236   7.167  72.000  1.00  0.00    -0.102 C  
HETATM    3  C   UNL     1      -9.196   7.795  70.935  1.00  0.00    -0.155 C  
HETATM    4  C   UNL     1      -7.265   8.161  72.646  1.00  0.00    -0.127 C  
HETATM    5  C   UNL     1     -10.228   6.760  70.416  1.00  0.00    -0.212 C  
HETATM    6  C   UNL     1     -11.217   6.331  71.501  1.00  0.00    -0.344 C  
HETATM    7  C   UNL     1     -11.920   7.504  72.205  1.00  0.00    -0.303 C  
HETATM    8  C   UNL     1     -13.158   7.951  71.423  1.00  0.00    -0.287 C  
HETATM    9  C   UNL     1     -10.979   8.681  72.521  1.00  0.00    -0.221 C  
HETATM   10  C   UNL     1      -9.996   9.046  71.403  1.00  0.00    -0.318 C  
ENDROOT
BRANCH  10  11
HETATM   11  O   UNL     1     -10.660   9.544  70.213  1.00  0.00    -0.226 OA 
BRANCH  11  12
HETATM   12  C   UNL     1     -11.281  10.753  70.211  1.00  0.00    -0.245 C  
HETATM   13  O   UNL     1     -11.872  11.272  71.145  1.00  0.00    -0.141 OA 
BRANCH  12  14
HETATM   14  C   UNL     1     -11.095  11.366  68.865  1.00  0.00    -0.290 A  
HETATM   15  C   UNL     1     -11.995  12.368  68.449  1.00  0.00    -0.269 A  
HETATM   16  C   UNL     1     -11.878  12.959  67.191  1.00  0.00    -0.424 A  
HETATM   17  C   UNL     1     -10.850  12.561  66.339  1.00  0.00    -0.290 A  
HETATM   18  C   UNL     1      -9.958  11.564  66.742  1.00  0.00    -0.235 A  
HETATM   19  C   UNL     1     -10.091  10.916  67.984  1.00  0.00    -0.177 A  
HETATM   20  N   UNL     1      -9.074  10.022  68.372  1.00  0.00    -0.119 NA 
HETATM   21  H2  UNL     1      -9.527   9.197  68.766  1.00  0.00     0.000 HD 
HETATM   22  H1  UNL     1      -8.348   9.696  67.734  1.00  0.00     0.000 HD 
ENDBRANCH  12  14
ENDBRANCH  11  12
ENDBRANCH  10  11
TORSDOF 3
ENDMDL
MODEL      210
REMARK 921   NORMALIZED FREE ENERGY PREDICTED BY IDOCK:   -3.02 KCAL/MOL
REMARK 922        TOTAL FREE ENERGY PREDICTED BY IDOCK:   -4.47 KCAL/MOL
REMARK 923 INTER-LIGAND FREE ENERGY PREDICTED BY IDOCK:   -3.64 KCAL/MOL
REMARK 924 INTRA-LIGAND FREE ENERGY PREDICTED BY IDOCK:   -0.82 KCAL/MOL
REMARK 927      BINDING AFFINITY PREDICTED BY RF-SCORE:    0.00 PKD
ROOT
HETATM    1  C   UNL     1     -11.959   7.306  72.145  1.00  0.00    -0.307 C  
HETATM    2  C   UNL     1     -10.741   6.716  71.409  1.00  0.00    -0.264 C  
HETATM    3  C   UNL     1     -10.295   7.622  70.214  1.00  0.00    -0.214 C  
HETATM    4  C   UNL     1     -11.092   5.276  71.019  1.00  0.00     0.093 C  
HETATM    5  C   UNL     1      -9.840   9.024  70.699  1.00  0.00    -0.284 C  
HETATM    6  C   UNL     1      -8.557   8.962  71.529  1.00  0.00    -0.205 C  
HETATM    7  C   UNL     1      -7.402   8.216  70.842  1.00  0.00    -0.059 C  
HETATM    8  C   UNL     1      -6.616   9.151  69.919  1.00  0.00    -0.047 C  
HETATM    9  C   UNL     1      -7.847   6.931  70.120  1.00  0.00    -0.106 C  
HETATM   10  C   UNL     1      -9.152   7.050  69.325  1.00  0.00    -0.137 C  
ENDROOT
BRANCH  10  11
HETATM   11  O   UNL     1      -9.043   7.965  68.203  1.00  0.00    -0.134 OA 
BRANCH  11  12
HETATM   12  C   UNL     1      -9.289   7.549  66.932  1.00  0.00    -0.157 C  
HETATM   13  O   UNL     1      -9.329   6.396  66.537  1.00  0.00    -0.151 OA 
BRANCH  12  14
HETATM   14  C   UNL     1      -9.533   8.756  66.091  1.00  0.00    -0.315 A  
HETATM   15  C   UNL     1      -8.745   8.945  64.938  1.00  0.00    -0.184 A  
HETATM   16  C   UNL     1      -8.918  10.067  64.127  1.00  0.00    -0.268 A  
HETATM   17  C   UNL     1      -9.892  11.007  64.457  1.00  0.00    -0.343 A  
HETATM   18  C   UNL     1     -10.672  10.830  65.603  1.00  0.00    -0.142 A  
HETATM   19  C   UNL     1     -10.476   9.735  66.464  1.00  0.00    -0.142 A  
HETATM   20  N   UNL     1     -11.392   9.555  67.518  1.00  0.00    -0.278 NA 
HETATM   21  H2  UNL     1     -10.854   9.316  68.352  1.00  0.00     0.000 HD 
HETATM   22  H1  UNL     1     -12.075  10.263  67.788  1.00  0.00     0.000 HD 
ENDBRANCH  12  14
ENDBRANCH  11  12
ENDBRANCH  10  11
TORSDOF 3
ENDMDL
MODEL      211
REMARK 921   NORMALIZED FREE ENERGY PREDICTED BY IDOCK:   -2.98 KCAL/MOL
REMARK 922        TOTAL FREE ENERGY PREDICTED BY IDOCK:   -4.42 KCAL/MOL
REMARK 923 INTER-LIGAND FREE ENERGY PREDICTED BY IDOCK:   -3.57 KCAL/MOL
REMARK 924 INTRA-LIGAND FREE ENERGY PREDICTED BY IDOCK:   -0.85 KCAL/MOL
REMARK 927      BINDING AFFINITY PREDICTED BY RF-SCORE:    0.00 PKD
ROOT
HETATM    1  C   UNL     1      -6.262  10.610  66.921  1.00  0.00    -0.070 C  
HETATM    2  C   UNL     1      -7.658   9.967  66.830  1.00  0.00    -0.095 C  
HETATM    3  C   UNL     1      -8.322   9.829  68.240  1.00  0.00    -0.106 C  
HETATM    4  C   UNL     1      -7.510   8.647  66.066  1.00  0.00    -0.085 C  
HETATM    5  C   UNL     1      -8.551  11.214  68.901  1.00  0.00    -0.092 C  
HETATM    6  C   UNL     1      -9.594  12.048  68.155  1.00  0.00    -0.200 C  
HETATM    7  C   UNL     1     -10.929  11.321  67.925  1.00  0.00    -0.302 C  
HETATM    8  C   UNL     1     -11.852  11.471  69.136  1.00  0.00    -0.406 C  
HETATM    9  C   UNL     1     -10.759   9.849  67.506  1.00  0.00    -0.333 C  
HETATM   10  C   UNL     1      -9.683   9.074  68.274  1.00  0.00    -0.152 C  
ENDROOT
BRANCH  10  11
HETATM   11  O   UNL     1     -10.001   8.918  69.682  1.00  0.00    -0.182 OA 
BRANCH  11  12
HETATM   12  C   UNL     1     -10.091   7.686  70.248  1.00  0.00    -0.198 C  
HETATM   13  O   UNL     1     -10.831   6.778  69.906  1.00  0.00    -0.233 OA 
BRANCH  12  14
HETATM   14  C   UNL     1      -9.098   7.615  71.358  1.00  0.00    -0.146 A  
HETATM   15  C   UNL     1      -9.383   8.290  72.562  1.00  0.00    -0.350 A  
HETATM   16  C   UNL     1      -8.480   8.273  73.625  1.00  0.00    -0.266 A  
HETATM   17  C   UNL     1      -7.285   7.569  73.497  1.00  0.00    -0.100 A  
HETATM   18  C   UNL     1      -6.992   6.903  72.304  1.00  0.00    -0.062 A  
HETATM   19  C   UNL     1      -7.864   6.953  71.201  1.00  0.00    -0.100 A  
HETATM   20  N   UNL     1      -7.563   6.145  70.088  1.00  0.00    -0.093 NA 
HETATM   21  H2  UNL     1      -7.716   6.709  69.251  1.00  0.00     0.000 HD 
HETATM   22  H1  UNL     1      -6.670   5.666  69.974  1.00  0.00     0.000 HD 
ENDBRANCH  12  14
ENDBRANCH  11  12
ENDBRANCH  10  11
TORSDOF 3
ENDMDL
MODEL      212
REMARK 921   NORMALIZED FREE ENERGY PREDICTED BY IDOCK:   -2.98 KCAL/MOL
REMARK 922        TOTAL FREE ENERGY PREDICTED BY IDOCK:   -4.42 KCAL/MOL
REMARK 923 INTER-LIGAND FREE ENERGY PREDICTED BY IDOCK:   -3.38 KCAL/MOL
REMARK 924 INTRA-LIGAND FREE ENERGY PREDICTED BY IDOCK:   -1.04 KCAL/MOL
REMARK 927      BINDING AFFINITY PREDICTED BY RF-SCORE:    0.00 PKD
ROOT
HETATM    1  C   UNL     1      -9.148  11.692  68.147  1.00  0.00    -0.183 C  
HETATM    2  C   UNL     1     -10.062  10.787  68.993  1.00  0.00    -0.225 C  
HETATM    3  C   UNL     1      -9.676   9.278  68.845  1.00  0.00    -0.164 C  
HETATM    4  C   UNL     1     -11.511  11.112  68.617  1.00  0.00    -0.363 C  
HETATM    5  C   UNL     1      -8.238   9.003  69.358  1.00  0.00    -0.117 C  
HETATM    6  C   UNL     1      -8.113   9.201  70.870  1.00  0.00    -0.201 C  
HETATM    7  C   UNL     1      -9.150   8.417  71.691  1.00  0.00    -0.268 C  
HETATM    8  C   UNL     1      -8.670   6.989  71.961  1.00  0.00    -0.128 C  
HETATM    9  C   UNL     1     -10.563   8.447  71.082  1.00  0.00    -0.266 C  
HETATM   10  C   UNL     1     -10.620   8.267  69.561  1.00  0.00    -0.213 C  
ENDROOT
BRANCH  10  11
HETATM   11  O   UNL     1     -10.171   6.954  69.135  1.00  0.00    -0.174 OA 
BRANCH  11  12
HETATM   12  C   UNL     1     -10.417   6.503  67.876  1.00  0.00    -0.222 C  
HETATM   13  O   UNL     1     -11.496   6.480  67.307  1.00  0.00    -0.197 OA 
BRANCH  12  14
HETATM   14  C   UNL     1      -9.122   6.058  67.284  1.00  0.00    -0.111 A  
HETATM   15  C   UNL     1      -8.595   6.782  66.195  1.00  0.00    -0.146 A  
HETATM   16  C   UNL     1      -7.398   6.396  65.591  1.00  0.00    -0.080 A  
HETATM   17  C   UNL     1      -6.710   5.288  66.079  1.00  0.00    -0.053 A  
HETATM   18  C   UNL     1      -7.231   4.562  67.153  1.00  0.00    -0.073 A  
HETATM   19  C   UNL     1      -8.463   4.900  67.741  1.00  0.00    -0.104 A  
HETATM   20  N   UNL     1      -8.850   4.205  68.903  1.00  0.00    -0.096 NA 
HETATM   21  H2  UNL     1      -9.839   3.975  68.807  1.00  0.00     0.000 HD 
HETATM   22  H1  UNL     1      -8.372   3.367  69.235  1.00  0.00     0.000 HD 
ENDBRANCH  12  14
ENDBRANCH  11  12
ENDBRANCH  10  11
TORSDOF 3
ENDMDL
MODEL      213
REMARK 921   NORMALIZED FREE ENERGY PREDICTED BY IDOCK:   -2.97 KCAL/MOL
REMARK 922        TOTAL FREE ENERGY PREDICTED BY IDOCK:   -4.41 KCAL/MOL
REMARK 923 INTER-LIGAND FREE ENERGY PREDICTED BY IDOCK:   -3.42 KCAL/MOL
REMARK 924 INTRA-LIGAND FREE ENERGY PREDICTED BY IDOCK:   -0.99 KCAL/MOL
REMARK 927      BINDING AFFINITY PREDICTED BY RF-SCORE:    0.00 PKD
ROOT
HETATM    1  C   UNL     1      -5.650  10.017  68.141  1.00  0.00    -0.038 C  
HETATM    2  C   UNL     1      -6.940   9.253  67.787  1.00  0.00    -0.081 C  
HETATM    3  C   UNL     1      -7.977   9.301  68.957  1.00  0.00    -0.097 C  
HETATM    4  C   UNL     1      -6.535   7.841  67.353  1.00  0.00    -0.056 C  
HETATM    5  C   UNL     1      -8.432  10.753  69.259  1.00  0.00    -0.058 C  
HETATM    6  C   UNL     1      -9.241  11.359  68.111  1.00  0.00    -0.178 C  
HETATM    7  C   UNL     1     -10.429  10.493  67.658  1.00  0.00    -0.276 C  
HETATM    8  C   UNL     1     -11.667  10.768  68.515  1.00  0.00    -0.259 C  
HETATM    9  C   UNL     1     -10.099   8.991  67.584  1.00  0.00    -0.271 C  
HETATM   10  C   UNL     1      -9.265   8.450  68.751  1.00  0.00    -0.143 C  
ENDROOT
BRANCH  10  11
HETATM   11  O   UNL     1      -9.971   8.508  70.018  1.00  0.00    -0.183 OA 
BRANCH  11  12
HETATM   12  C   UNL     1     -10.768   7.485  70.424  1.00  0.00    -0.239 C  
HETATM   13  O   UNL     1     -11.971   7.533  70.625  1.00  0.00    -0.241 OA 
BRANCH  12  14
HETATM   14  C   UNL     1      -9.921   6.265  70.559  1.00  0.00    -0.221 A  
HETATM   15  C   UNL     1     -10.267   5.118  69.817  1.00  0.00    -0.357 A  
HETATM   16  C   UNL     1      -9.521   3.944  69.922  1.00  0.00    -0.267 A  
HETATM   17  C   UNL     1      -8.412   3.910  70.764  1.00  0.00    -0.099 A  
HETATM   18  C   UNL     1      -8.067   5.042  71.508  1.00  0.00    -0.113 A  
HETATM   19  C   UNL     1      -8.838   6.217  71.460  1.00  0.00    -0.138 A  
HETATM   20  N   UNL     1      -8.348   7.354  72.131  1.00  0.00    -0.107 NA 
HETATM   21  H2  UNL     1      -9.134   7.781  72.622  1.00  0.00     0.000 HD 
HETATM   22  H1  UNL     1      -7.563   7.319  72.782  1.00  0.00     0.000 HD 
ENDBRANCH  12  14
ENDBRANCH  11  12
ENDBRANCH  10  11
TORSDOF 3
ENDMDL
MODEL      214
REMARK 921   NORMALIZED FREE ENERGY PREDICTED BY IDOCK:   -2.97 KCAL/MOL
REMARK 922        TOTAL FREE ENERGY PREDICTED BY IDOCK:   -4.40 KCAL/MOL
REMARK 923 INTER-LIGAND FREE ENERGY PREDICTED BY IDOCK:   -3.48 KCAL/MOL
REMARK 924 INTRA-LIGAND FREE ENERGY PREDICTED BY IDOCK:   -0.92 KCAL/MOL
REMARK 927      BINDING AFFINITY PREDICTED BY RF-SCORE:    0.00 PKD
ROOT
HETATM    1  C   UNL     1      -6.529   8.899  71.015  1.00  0.00    -0.062 C  
HETATM    2  C   UNL     1      -7.957   9.132  70.487  1.00  0.00    -0.170 C  
HETATM    3  C   UNL     1      -8.679   7.783  70.160  1.00  0.00    -0.140 C  
HETATM    4  C   UNL     1      -7.859  10.104  69.306  1.00  0.00    -0.134 C  
HETATM    5  C   UNL     1      -8.850   6.905  71.427  1.00  0.00    -0.133 C  
HETATM    6  C   UNL     1      -9.814   7.528  72.440  1.00  0.00    -0.219 C  
HETATM    7  C   UNL     1     -11.180   7.912  71.848  1.00  0.00    -0.320 C  
HETATM    8  C   UNL     1     -12.136   6.718  71.854  1.00  0.00    -0.375 C  
HETATM    9  C   UNL     1     -11.082   8.568  70.458  1.00  0.00    -0.265 C  
HETATM   10  C   UNL     1     -10.082   7.913  69.499  1.00  0.00    -0.195 C  
ENDROOT
BRANCH  10  11
HETATM   11  O   UNL     1     -10.461   6.561  69.132  1.00  0.00    -0.187 OA 
BRANCH  11  12
HETATM   12  C   UNL     1     -10.597   6.199  67.829  1.00  0.00    -0.269 C  
HETATM   13  O   UNL     1     -11.447   6.593  67.047  1.00  0.00    -0.233 OA 
BRANCH  12  14
HETATM   14  C   UNL     1      -9.498   5.247  67.497  1.00  0.00    -0.136 A  
HETATM   15  C   UNL     1      -8.723   5.486  66.345  1.00  0.00    -0.123 A  
HETATM   16  C   UNL     1      -7.697   4.615  65.978  1.00  0.00    -0.094 A  
HETATM   17  C   UNL     1      -7.429   3.500  66.768  1.00  0.00    -0.076 A  
HETATM   18  C   UNL     1      -8.198   3.253  67.908  1.00  0.00    -0.087 A  
HETATM   19  C   UNL     1      -9.273   4.087  68.266  1.00  0.00    -0.150 A  
HETATM   20  N   UNL     1      -9.909   3.848  69.499  1.00  0.00    -0.114 NA 
HETATM   21  H2  UNL     1     -10.915   3.920  69.343  1.00  0.00     0.000 HD 
HETATM   22  H1  UNL     1      -9.746   3.009  70.055  1.00  0.00     0.000 HD 
ENDBRANCH  12  14
ENDBRANCH  11  12
ENDBRANCH  10  11
TORSDOF 3
ENDMDL
MODEL      215
REMARK 921   NORMALIZED FREE ENERGY PREDICTED BY IDOCK:   -2.93 KCAL/MOL
REMARK 922        TOTAL FREE ENERGY PREDICTED BY IDOCK:   -4.36 KCAL/MOL
REMARK 923 INTER-LIGAND FREE ENERGY PREDICTED BY IDOCK:   -3.36 KCAL/MOL
REMARK 924 INTRA-LIGAND FREE ENERGY PREDICTED BY IDOCK:   -1.01 KCAL/MOL
REMARK 927      BINDING AFFINITY PREDICTED BY RF-SCORE:    0.00 PKD
ROOT
HETATM    1  C   UNL     1     -12.460   7.585  71.687  1.00  0.00    -0.371 C  
HETATM    2  C   UNL     1     -10.981   7.996  71.807  1.00  0.00    -0.305 C  
HETATM    3  C   UNL     1     -10.135   7.463  70.604  1.00  0.00    -0.191 C  
HETATM    4  C   UNL     1     -10.486   7.540  73.183  1.00  0.00    -0.419 C  
HETATM    5  C   UNL     1     -10.618   8.062  69.256  1.00  0.00    -0.193 C  
HETATM    6  C   UNL     1     -10.361   9.567  69.165  1.00  0.00    -0.218 C  
HETATM    7  C   UNL     1      -8.907   9.973  69.458  1.00  0.00    -0.209 C  
HETATM    8  C   UNL     1      -8.044   9.872  68.198  1.00  0.00    -0.104 C  
HETATM    9  C   UNL     1      -8.288   9.214  70.646  1.00  0.00    -0.239 C  
HETATM   10  C   UNL     1      -8.601   7.714  70.694  1.00  0.00    -0.135 C  
ENDROOT
BRANCH  10  11
HETATM   11  O   UNL     1      -8.026   6.985  69.579  1.00  0.00    -0.119 OA 
BRANCH  11  12
HETATM   12  C   UNL     1      -7.199   5.925  69.786  1.00  0.00    -0.070 C  
HETATM   13  O   UNL     1      -6.064   5.962  70.230  1.00  0.00    -0.024 OA 
BRANCH  12  14
HETATM   14  C   UNL     1      -7.932   4.686  69.398  1.00  0.00    -0.066 A  
HETATM   15  C   UNL     1      -8.905   4.767  68.382  1.00  0.00    -0.119 A  
HETATM   16  C   UNL     1      -9.635   3.643  67.996  1.00  0.00    -0.172 A  
HETATM   17  C   UNL     1      -9.388   2.420  68.616  1.00  0.00    -0.244 A  
HETATM   18  C   UNL     1      -8.430   2.333  69.629  1.00  0.00    -0.086 A  
HETATM   19  C   UNL     1      -7.723   3.466  70.073  1.00  0.00    -0.044 A  
HETATM   20  N   UNL     1      -6.680   3.270  70.998  1.00  0.00    -0.031 NA 
HETATM   21  H2  UNL     1      -6.760   4.000  71.707  1.00  0.00     0.000 HD 
HETATM   22  H1  UNL     1      -6.529   2.387  71.486  1.00  0.00     0.000 HD 
ENDBRANCH  12  14
ENDBRANCH  11  12
ENDBRANCH  10  11
TORSDOF 3
ENDMDL
MODEL      216
REMARK 921   NORMALIZED FREE ENERGY PREDICTED BY IDOCK:   -2.93 KCAL/MOL
REMARK 922        TOTAL FREE ENERGY PREDICTED BY IDOCK:   -4.36 KCAL/MOL
REMARK 923 INTER-LIGAND FREE ENERGY PREDICTED BY IDOCK:   -3.36 KCAL/MOL
REMARK 924 INTRA-LIGAND FREE ENERGY PREDICTED BY IDOCK:   -0.99 KCAL/MOL
REMARK 927      BINDING AFFINITY PREDICTED BY RF-SCORE:    0.00 PKD
ROOT
HETATM    1  C   UNL     1     -11.617   7.337  70.293  1.00  0.00    -0.208 C  
HETATM    2  C   UNL     1     -10.292   8.079  70.035  1.00  0.00    -0.218 C  
HETATM    3  C   UNL     1      -9.706   7.740  68.625  1.00  0.00    -0.159 C  
HETATM    4  C   UNL     1      -9.354   7.768  71.206  1.00  0.00    -0.171 C  
HETATM    5  C   UNL     1     -10.658   8.193  67.487  1.00  0.00    -0.291 C  
HETATM    6  C   UNL     1     -10.781   9.716  67.406  1.00  0.00    -0.308 C  
HETATM    7  C   UNL     1      -9.433  10.450  67.321  1.00  0.00    -0.176 C  
HETATM    8  C   UNL     1      -8.944  10.533  65.873  1.00  0.00    -0.185 C  
HETATM    9  C   UNL     1      -8.360   9.870  68.261  1.00  0.00    -0.110 C  
HETATM   10  C   UNL     1      -8.303   8.339  68.316  1.00  0.00    -0.132 C  
ENDROOT
BRANCH  10  11
HETATM   11  O   UNL     1      -7.902   7.747  67.053  1.00  0.00    -0.108 OA 
BRANCH  11  12
HETATM   12  C   UNL     1      -7.060   6.680  67.014  1.00  0.00    -0.076 C  
HETATM   13  O   UNL     1      -5.854   6.708  66.832  1.00  0.00    -0.013 OA 
BRANCH  12  14
HETATM   14  C   UNL     1      -7.864   5.449  67.263  1.00  0.00    -0.101 A  
HETATM   15  C   UNL     1      -7.640   4.726  68.451  1.00  0.00    -0.077 A  
HETATM   16  C   UNL     1      -8.349   3.556  68.723  1.00  0.00    -0.090 A  
HETATM   17  C   UNL     1      -9.301   3.104  67.812  1.00  0.00    -0.252 A  
HETATM   18  C   UNL     1      -9.524   3.813  66.628  1.00  0.00    -0.212 A  
HETATM   19  C   UNL     1      -8.780   4.963  66.308  1.00  0.00    -0.115 A  
HETATM   20  N   UNL     1      -9.159   5.695  65.166  1.00  0.00    -0.359 NA 
HETATM   21  H2  UNL     1      -8.305   5.947  64.668  1.00  0.00     0.000 HD 
HETATM   22  H1  UNL     1      -9.823   5.343  64.476  1.00  0.00     0.000 HD 
ENDBRANCH  12  14
ENDBRANCH  11  12
ENDBRANCH  10  11
TORSDOF 3
ENDMDL
MODEL      217
REMARK 921   NORMALIZED FREE ENERGY PREDICTED BY IDOCK:   -2.92 KCAL/MOL
REMARK 922        TOTAL FREE ENERGY PREDICTED BY IDOCK:   -4.34 KCAL/MOL
REMARK 923 INTER-LIGAND FREE ENERGY PREDICTED BY IDOCK:   -3.42 KCAL/MOL
REMARK 924 INTRA-LIGAND FREE ENERGY PREDICTED BY IDOCK:   -0.92 KCAL/MOL
REMARK 927      BINDING AFFINITY PREDICTED BY RF-SCORE:    0.00 PKD
ROOT
HETATM    1  C   UNL     1      -8.317   7.986  73.585  1.00  0.00    -0.302 C  
HETATM    2  C   UNL     1      -9.413   7.154  72.895  1.00  0.00    -0.183 C  
HETATM    3  C   UNL     1      -9.487   7.453  71.362  1.00  0.00    -0.160 C  
HETATM    4  C   UNL     1     -10.722   7.396  73.654  1.00  0.00    -0.241 C  
HETATM    5  C   UNL     1      -8.167   7.070  70.641  1.00  0.00    -0.119 C  
HETATM    6  C   UNL     1      -7.922   5.559  70.644  1.00  0.00    -0.103 C  
HETATM    7  C   UNL     1      -9.103   4.733  70.108  1.00  0.00    -0.155 C  
HETATM    8  C   UNL     1      -9.044   4.617  68.583  1.00  0.00    -0.156 C  
HETATM    9  C   UNL     1     -10.473   5.235  70.597  1.00  0.00    -0.306 C  
HETATM   10  C   UNL     1     -10.648   6.757  70.594  1.00  0.00    -0.224 C  
ENDROOT
BRANCH  10  11
HETATM   11  O   UNL     1     -10.617   7.322  69.256  1.00  0.00    -0.218 OA 
BRANCH  11  12
HETATM   12  C   UNL     1     -11.006   8.604  69.027  1.00  0.00     0.090 C  
HETATM   13  O   UNL     1     -11.889   9.214  69.608  1.00  0.00     0.303 OA 
BRANCH  12  14
HETATM   14  C   UNL     1     -10.143   9.162  67.947  1.00  0.00    -0.246 A  
HETATM   15  C   UNL     1      -9.427  10.349  68.201  1.00  0.00    -0.152 A  
HETATM   16  C   UNL     1      -8.622  10.925  67.219  1.00  0.00    -0.128 A  
HETATM   17  C   UNL     1      -8.514  10.310  65.974  1.00  0.00    -0.144 A  
HETATM   18  C   UNL     1      -9.226   9.136  65.712  1.00  0.00    -0.294 A  
HETATM   19  C   UNL     1     -10.087   8.570  66.669  1.00  0.00    -0.294 A  
HETATM   20  N   UNL     1     -10.660   7.316  66.379  1.00  0.00    -0.385 NA 
HETATM   21  H2  UNL     1     -11.642   7.358  66.653  1.00  0.00     0.000 HD 
HETATM   22  H1  UNL     1     -10.619   6.888  65.454  1.00  0.00     0.000 HD 
ENDBRANCH  12  14
ENDBRANCH  11  12
ENDBRANCH  10  11
TORSDOF 3
ENDMDL
MODEL      218
REMARK 921   NORMALIZED FREE ENERGY PREDICTED BY IDOCK:   -2.91 KCAL/MOL
REMARK 922        TOTAL FREE ENERGY PREDICTED BY IDOCK:   -4.33 KCAL/MOL
REMARK 923 INTER-LIGAND FREE ENERGY PREDICTED BY IDOCK:   -3.49 KCAL/MOL
REMARK 924 INTRA-LIGAND FREE ENERGY PREDICTED BY IDOCK:   -0.84 KCAL/MOL
REMARK 927      BINDING AFFINITY PREDICTED BY RF-SCORE:    0.00 PKD
ROOT
HETATM    1  C   UNL     1     -13.558  15.442  70.587  1.00  0.00    -0.130 C  
HETATM    2  C   UNL     1     -12.029  15.291  70.491  1.00  0.00    -0.384 C  
HETATM    3  C   UNL     1     -11.621  14.209  69.437  1.00  0.00    -0.353 C  
HETATM    4  C   UNL     1     -11.502  15.030  71.906  1.00  0.00    -0.368 C  
HETATM    5  C   UNL     1     -12.084  14.601  68.008  1.00  0.00    -0.206 C  
HETATM    6  C   UNL     1     -11.350  15.834  67.478  1.00  0.00    -0.150 C  
HETATM    7  C   UNL     1      -9.818  15.730  67.551  1.00  0.00    -0.229 C  
HETATM    8  C   UNL     1      -9.257  15.015  66.319  1.00  0.00    -0.324 C  
HETATM    9  C   UNL     1      -9.308  15.105  68.862  1.00  0.00    -0.207 C  
HETATM   10  C   UNL     1     -10.100  13.888  69.354  1.00  0.00     0.337 C  
ENDROOT
BRANCH  10  11
HETATM   11  O   UNL     1      -9.995  12.752  68.457  1.00  0.00    -0.222 OA 
BRANCH  11  12
HETATM   12  C   UNL     1      -9.032  11.809  68.630  1.00  0.00    -0.066 C  
HETATM   13  O   UNL     1      -7.897  11.991  69.039  1.00  0.00    -0.014 OA 
BRANCH  12  14
HETATM   14  C   UNL     1      -9.610  10.485  68.257  1.00  0.00    -0.164 A  
HETATM   15  C   UNL     1     -10.314  10.375  67.041  1.00  0.00    -0.295 A  
HETATM   16  C   UNL     1     -10.893   9.166  66.655  1.00  0.00     0.112 A  
HETATM   17  C   UNL     1     -10.761   8.050  67.477  1.00  0.00    -0.238 A  
HETATM   18  C   UNL     1     -10.069   8.153  68.687  1.00  0.00    -0.211 A  
HETATM   19  C   UNL     1      -9.527   9.376  69.122  1.00  0.00    -0.163 A  
HETATM   20  N   UNL     1      -8.729   9.366  70.283  1.00  0.00    -0.213 NA 
HETATM   21  H2  UNL     1      -8.999  10.172  70.846  1.00  0.00     0.000 HD 
HETATM   22  H1  UNL     1      -8.669   8.563  70.908  1.00  0.00     0.000 HD 
ENDBRANCH  12  14
ENDBRANCH  11  12
ENDBRANCH  10  11
TORSDOF 3
ENDMDL
MODEL      219
REMARK 921   NORMALIZED FREE ENERGY PREDICTED BY IDOCK:   -2.90 KCAL/MOL
REMARK 922        TOTAL FREE ENERGY PREDICTED BY IDOCK:   -4.33 KCAL/MOL
REMARK 923 INTER-LIGAND FREE ENERGY PREDICTED BY IDOCK:   -3.48 KCAL/MOL
REMARK 924 INTRA-LIGAND FREE ENERGY PREDICTED BY IDOCK:   -0.85 KCAL/MOL
REMARK 927      BINDING AFFINITY PREDICTED BY RF-SCORE:    0.00 PKD
ROOT
HETATM    1  C   UNL     1      -9.375   7.938  72.445  1.00  0.00    -0.246 C  
HETATM    2  C   UNL     1     -10.350   7.685  71.280  1.00  0.00    -0.215 C  
HETATM    3  C   UNL     1      -9.601   7.608  69.909  1.00  0.00    -0.160 C  
HETATM    4  C   UNL     1     -11.440   8.759  71.350  1.00  0.00    -0.366 C  
HETATM    5  C   UNL     1      -8.601   6.423  69.870  1.00  0.00    -0.138 C  
HETATM    6  C   UNL     1      -9.307   5.066  69.908  1.00  0.00    -0.198 C  
HETATM    7  C   UNL     1     -10.399   4.899  68.839  1.00  0.00    -0.069 C  
HETATM    8  C   UNL     1      -9.803   4.416  67.515  1.00  0.00    -0.180 C  
HETATM    9  C   UNL     1     -11.273   6.153  68.656  1.00  0.00    -0.275 C  
HETATM   10  C   UNL     1     -10.510   7.483  68.651  1.00  0.00    -0.183 C  
ENDROOT
BRANCH  10  11
HETATM   11  O   UNL     1      -9.615   7.610  67.515  1.00  0.00    -0.136 OA 
BRANCH  11  12
HETATM   12  C   UNL     1      -9.586   8.747  66.770  1.00  0.00    -0.206 C  
HETATM   13  O   UNL     1     -10.478   9.572  66.662  1.00  0.00    -0.231 OA 
BRANCH  12  14
HETATM   14  C   UNL     1      -8.249   8.834  66.114  1.00  0.00    -0.117 A  
HETATM   15  C   UNL     1      -7.423   9.937  66.411  1.00  0.00    -0.101 A  
HETATM   16  C   UNL     1      -6.172  10.078  65.810  1.00  0.00    -0.092 A  
HETATM   17  C   UNL     1      -5.730   9.108  64.912  1.00  0.00    -0.062 A  
HETATM   18  C   UNL     1      -6.546   8.016  64.608  1.00  0.00    -0.056 A  
HETATM   19  C   UNL     1      -7.833   7.883  65.160  1.00  0.00    -0.114 A  
HETATM   20  N   UNL     1      -8.536   6.688  64.912  1.00  0.00    -0.335 NA 
HETATM   21  H2  UNL     1      -9.500   6.941  64.691  1.00  0.00     0.000 HD 
HETATM   22  H1  UNL     1      -8.235   6.000  64.221  1.00  0.00     0.000 HD 
ENDBRANCH  12  14
ENDBRANCH  11  12
ENDBRANCH  10  11
TORSDOF 3
ENDMDL
MODEL      220
REMARK 921   NORMALIZED FREE ENERGY PREDICTED BY IDOCK:   -2.89 KCAL/MOL
REMARK 922        TOTAL FREE ENERGY PREDICTED BY IDOCK:   -4.32 KCAL/MOL
REMARK 923 INTER-LIGAND FREE ENERGY PREDICTED BY IDOCK:   -3.41 KCAL/MOL
REMARK 924 INTRA-LIGAND FREE ENERGY PREDICTED BY IDOCK:   -0.91 KCAL/MOL
REMARK 927      BINDING AFFINITY PREDICTED BY RF-SCORE:    0.00 PKD
ROOT
HETATM    1  C   UNL     1     -10.662  10.895  68.647  1.00  0.00    -0.238 C  
HETATM    2  C   UNL     1     -10.725   9.372  68.427  1.00  0.00    -0.213 C  
HETATM    3  C   UNL     1      -9.886   8.600  69.498  1.00  0.00    -0.187 C  
HETATM    4  C   UNL     1     -10.311   9.098  66.977  1.00  0.00    -0.333 C  
HETATM    5  C   UNL     1     -10.437   8.830  70.930  1.00  0.00    -0.278 C  
HETATM    6  C   UNL     1     -11.823   8.211  71.125  1.00  0.00    -0.303 C  
HETATM    7  C   UNL     1     -11.905   6.726  70.736  1.00  0.00    -0.446 C  
HETATM    8  C   UNL     1     -11.474   5.829  71.898  1.00  0.00    -0.231 C  
HETATM    9  C   UNL     1     -11.150   6.391  69.437  1.00  0.00    -0.450 C  
HETATM   10  C   UNL     1      -9.779   7.061  69.289  1.00  0.00    -0.158 C  
ENDROOT
BRANCH  10  11
HETATM   11  O   UNL     1      -8.823   6.604  70.281  1.00  0.00    -0.149 OA 
BRANCH  11  12
HETATM   12  C   UNL     1      -7.497   6.527  69.994  1.00  0.00    -0.094 C  
HETATM   13  O   UNL     1      -6.673   7.420  70.101  1.00  0.00    -0.048 OA 
BRANCH  12  14
HETATM   14  C   UNL     1      -7.203   5.136  69.544  1.00  0.00    -0.057 A  
HETATM   15  C   UNL     1      -7.584   4.063  70.374  1.00  0.00    -0.045 A  
HETATM   16  C   UNL     1      -7.315   2.744  70.011  1.00  0.00    -0.043 A  
HETATM   17  C   UNL     1      -6.670   2.483  68.804  1.00  0.00    -0.033 A  
HETATM   18  C   UNL     1      -6.282   3.542  67.978  1.00  0.00    -0.032 A  
HETATM   19  C   UNL     1      -6.494   4.882  68.352  1.00  0.00    -0.037 A  
HETATM   20  N   UNL     1      -6.200   5.883  67.406  1.00  0.00    -0.032 NA 
HETATM   21  H2  UNL     1      -5.713   6.633  67.897  1.00  0.00     0.000 HD 
HETATM   22  H1  UNL     1      -5.688   5.699  66.544  1.00  0.00     0.000 HD 
ENDBRANCH  12  14
ENDBRANCH  11  12
ENDBRANCH  10  11
TORSDOF 3
ENDMDL
MODEL      221
REMARK 921   NORMALIZED FREE ENERGY PREDICTED BY IDOCK:   -2.89 KCAL/MOL
REMARK 922        TOTAL FREE ENERGY PREDICTED BY IDOCK:   -4.31 KCAL/MOL
REMARK 923 INTER-LIGAND FREE ENERGY PREDICTED BY IDOCK:   -4.33 KCAL/MOL
REMARK 924 INTRA-LIGAND FREE ENERGY PREDICTED BY IDOCK:    0.02 KCAL/MOL
REMARK 927      BINDING AFFINITY PREDICTED BY RF-SCORE:    0.00 PKD
ROOT
HETATM    1  C   UNL     1      -9.336  10.024  63.172  1.00  0.00    -0.297 C  
HETATM    2  C   UNL     1      -9.759  11.002  64.283  1.00  0.00    -0.333 C  
HETATM    3  C   UNL     1      -9.860  10.289  65.672  1.00  0.00    -0.332 C  
HETATM    4  C   UNL     1     -11.050  11.690  63.826  1.00  0.00    -0.499 C  
HETATM    5  C   UNL     1      -8.488   9.723  66.125  1.00  0.00    -0.130 C  
HETATM    6  C   UNL     1      -7.475  10.829  66.425  1.00  0.00    -0.142 C  
HETATM    7  C   UNL     1      -7.984  11.893  67.411  1.00  0.00    -0.162 C  
HETATM    8  C   UNL     1      -7.752  11.455  68.859  1.00  0.00    -0.108 C  
HETATM    9  C   UNL     1      -9.444  12.312  67.160  1.00  0.00    -0.196 C  
HETATM   10  C   UNL     1     -10.405  11.161  66.840  1.00  0.00    -0.231 C  
ENDROOT
BRANCH  10  11
HETATM   11  O   UNL     1     -10.575  10.248  67.955  1.00  0.00    -0.198 OA 
BRANCH  11  12
HETATM   12  C   UNL     1     -11.341  10.584  69.027  1.00  0.00    -0.257 C  
HETATM   13  O   UNL     1     -11.717  11.704  69.333  1.00  0.00    -0.284 OA 
BRANCH  12  14
HETATM   14  C   UNL     1     -11.676   9.333  69.766  1.00  0.00     0.254 A  
HETATM   15  C   UNL     1     -12.655   9.389  70.778  1.00  0.00    -0.109 A  
HETATM   16  C   UNL     1     -12.991   8.253  71.514  1.00  0.00    -0.310 A  
HETATM   17  C   UNL     1     -12.358   7.044  71.235  1.00  0.00    -0.426 A  
HETATM   18  C   UNL     1     -11.382   6.982  70.237  1.00  0.00    -0.339 A  
HETATM   19  C   UNL     1     -10.988   8.128  69.522  1.00  0.00    -0.047 A  
HETATM   20  N   UNL     1     -10.100   7.956  68.442  1.00  0.00    -0.189 NA 
HETATM   21  H2  UNL     1      -9.403   8.699  68.499  1.00  0.00     0.000 HD 
HETATM   22  H1  UNL     1      -9.602   7.083  68.266  1.00  0.00     0.000 HD 
ENDBRANCH  12  14
ENDBRANCH  11  12
ENDBRANCH  10  11
TORSDOF 3
ENDMDL
MODEL      222
REMARK 921   NORMALIZED FREE ENERGY PREDICTED BY IDOCK:   -2.88 KCAL/MOL
REMARK 922        TOTAL FREE ENERGY PREDICTED BY IDOCK:   -4.30 KCAL/MOL
REMARK 923 INTER-LIGAND FREE ENERGY PREDICTED BY IDOCK:   -3.39 KCAL/MOL
REMARK 924 INTRA-LIGAND FREE ENERGY PREDICTED BY IDOCK:   -0.91 KCAL/MOL
REMARK 927      BINDING AFFINITY PREDICTED BY RF-SCORE:    0.00 PKD
ROOT
HETATM    1  C   UNL     1      -5.584  10.524  68.192  1.00  0.00    -0.036 C  
HETATM    2  C   UNL     1      -6.822  10.092  69.000  1.00  0.00    -0.055 C  
HETATM    3  C   UNL     1      -6.795   8.561  69.322  1.00  0.00    -0.050 C  
HETATM    4  C   UNL     1      -8.061  10.558  68.230  1.00  0.00    -0.115 C  
HETATM    5  C   UNL     1      -5.577   8.185  70.206  1.00  0.00    -0.022 C  
HETATM    6  C   UNL     1      -5.669   8.788  71.609  1.00  0.00    -0.052 C  
HETATM    7  C   UNL     1      -6.990   8.486  72.334  1.00  0.00    -0.081 C  
HETATM    8  C   UNL     1      -6.926   7.135  73.051  1.00  0.00    -0.069 C  
HETATM    9  C   UNL     1      -8.227   8.599  71.426  1.00  0.00    -0.205 C  
HETATM   10  C   UNL     1      -8.064   7.998  70.025  1.00  0.00    -0.116 C  
ENDROOT
BRANCH  10  11
HETATM   11  O   UNL     1      -7.882   6.558  70.052  1.00  0.00    -0.106 OA 
BRANCH  11  12
HETATM   12  C   UNL     1      -8.861   5.719  69.622  1.00  0.00    -0.122 C  
HETATM   13  O   UNL     1      -8.785   4.918  68.705  1.00  0.00    -0.092 OA 
BRANCH  12  14
HETATM   14  C   UNL     1     -10.057   5.922  70.490  1.00  0.00    -0.254 A  
HETATM   15  C   UNL     1      -9.979   5.542  71.845  1.00  0.00    -0.227 A  
HETATM   16  C   UNL     1     -11.075   5.691  72.695  1.00  0.00    -0.331 A  
HETATM   17  C   UNL     1     -12.258   6.234  72.199  1.00  0.00    -0.255 A  
HETATM   18  C   UNL     1     -12.344   6.607  70.855  1.00  0.00    -0.260 A  
HETATM   19  C   UNL     1     -11.270   6.414  69.968  1.00  0.00    -0.411 A  
HETATM   20  N   UNL     1     -11.388   6.940  68.667  1.00  0.00    -0.530 NA 
HETATM   21  H2  UNL     1     -11.041   6.233  68.019  1.00  0.00     0.000 HD 
HETATM   22  H1  UNL     1     -12.266   7.296  68.290  1.00  0.00     0.000 HD 
ENDBRANCH  12  14
ENDBRANCH  11  12
ENDBRANCH  10  11
TORSDOF 3
ENDMDL
MODEL      223
REMARK 921   NORMALIZED FREE ENERGY PREDICTED BY IDOCK:   -2.86 KCAL/MOL
REMARK 922        TOTAL FREE ENERGY PREDICTED BY IDOCK:   -4.28 KCAL/MOL
REMARK 923 INTER-LIGAND FREE ENERGY PREDICTED BY IDOCK:   -3.21 KCAL/MOL
REMARK 924 INTRA-LIGAND FREE ENERGY PREDICTED BY IDOCK:   -1.08 KCAL/MOL
REMARK 927      BINDING AFFINITY PREDICTED BY RF-SCORE:    0.00 PKD
ROOT
HETATM    1  C   UNL     1     -11.264   6.855  69.509  1.00  0.00    -0.246 C  
HETATM    2  C   UNL     1     -10.158   7.907  69.708  1.00  0.00    -0.199 C  
HETATM    3  C   UNL     1      -9.542   8.363  68.344  1.00  0.00    -0.157 C  
HETATM    4  C   UNL     1      -9.145   7.329  70.702  1.00  0.00    -0.157 C  
HETATM    5  C   UNL     1     -10.601   9.047  67.440  1.00  0.00    -0.309 C  
HETATM    6  C   UNL     1     -11.081  10.381  68.016  1.00  0.00    -0.359 C  
HETATM    7  C   UNL     1      -9.946  11.355  68.369  1.00  0.00    -0.206 C  
HETATM    8  C   UNL     1      -9.525  12.174  67.146  1.00  0.00    -0.190 C  
HETATM    9  C   UNL     1      -8.745  10.675  69.050  1.00  0.00    -0.152 C  
HETATM   10  C   UNL     1      -8.327   9.331  68.443  1.00  0.00    -0.119 C  
ENDROOT
BRANCH  10  11
HETATM   11  O   UNL     1      -7.828   9.461  67.086  1.00  0.00    -0.098 OA 
BRANCH  11  12
HETATM   12  C   UNL     1      -7.154   8.444  66.486  1.00  0.00    -0.072 C  
HETATM   13  O   UNL     1      -6.383   7.664  67.020  1.00  0.00    -0.050 OA 
BRANCH  12  14
HETATM   14  C   UNL     1      -7.542   8.420  65.046  1.00  0.00    -0.094 A  
HETATM   15  C   UNL     1      -8.047   9.600  64.464  1.00  0.00    -0.143 A  
HETATM   16  C   UNL     1      -8.444   9.626  63.127  1.00  0.00    -0.189 A  
HETATM   17  C   UNL     1      -8.328   8.473  62.354  1.00  0.00    -0.192 A  
HETATM   18  C   UNL     1      -7.834   7.297  62.927  1.00  0.00    -0.128 A  
HETATM   19  C   UNL     1      -7.481   7.234  64.287  1.00  0.00    -0.101 A  
HETATM   20  N   UNL     1      -6.864   6.056  64.752  1.00  0.00    -0.046 NA 
HETATM   21  H2  UNL     1      -7.290   5.823  65.650  1.00  0.00     0.000 HD 
HETATM   22  H1  UNL     1      -6.820   5.198  64.203  1.00  0.00     0.000 HD 
ENDBRANCH  12  14
ENDBRANCH  11  12
ENDBRANCH  10  11
TORSDOF 3
ENDMDL
MODEL      224
REMARK 921   NORMALIZED FREE ENERGY PREDICTED BY IDOCK:   -2.82 KCAL/MOL
REMARK 922        TOTAL FREE ENERGY PREDICTED BY IDOCK:   -4.24 KCAL/MOL
REMARK 923 INTER-LIGAND FREE ENERGY PREDICTED BY IDOCK:   -3.53 KCAL/MOL
REMARK 924 INTRA-LIGAND FREE ENERGY PREDICTED BY IDOCK:   -0.71 KCAL/MOL
REMARK 927      BINDING AFFINITY PREDICTED BY RF-SCORE:    0.00 PKD
ROOT
HETATM    1  C   UNL     1      -6.554  13.083  68.431  1.00  0.00    -0.090 C  
HETATM    2  C   UNL     1      -6.146  11.810  69.195  1.00  0.00    -0.076 C  
HETATM    3  C   UNL     1      -7.326  10.786  69.281  1.00  0.00    -0.129 C  
HETATM    4  C   UNL     1      -5.584  12.247  70.552  1.00  0.00    -0.168 C  
HETATM    5  C   UNL     1      -7.761  10.297  67.874  1.00  0.00    -0.089 C  
HETATM    6  C   UNL     1      -6.679   9.457  67.191  1.00  0.00    -0.076 C  
HETATM    7  C   UNL     1      -6.163   8.288  68.045  1.00  0.00    -0.051 C  
HETATM    8  C   UNL     1      -7.054   7.054  67.882  1.00  0.00    -0.086 C  
HETATM    9  C   UNL     1      -5.952   8.657  69.525  1.00  0.00    -0.033 C  
HETATM   10  C   UNL     1      -7.058   9.519  70.145  1.00  0.00    -0.099 C  
ENDROOT
BRANCH  10  11
HETATM   11  O   UNL     1      -8.332   8.827  70.219  1.00  0.00    -0.116 OA 
BRANCH  11  12
HETATM   12  C   UNL     1      -8.636   8.029  71.276  1.00  0.00    -0.126 C  
HETATM   13  O   UNL     1      -7.847   7.475  72.023  1.00  0.00    -0.086 OA 
BRANCH  12  14
HETATM   14  C   UNL     1     -10.122   7.962  71.391  1.00  0.00    -0.212 A  
HETATM   15  C   UNL     1     -10.818   9.113  71.809  1.00  0.00    -0.416 A  
HETATM   16  C   UNL     1     -12.206   9.099  71.954  1.00  0.00    -0.449 A  
HETATM   17  C   UNL     1     -12.912   7.933  71.669  1.00  0.00    -0.359 A  
HETATM   18  C   UNL     1     -12.227   6.785  71.261  1.00  0.00    -0.415 A  
HETATM   19  C   UNL     1     -10.824   6.761  71.163  1.00  0.00    -0.238 A  
HETATM   20  N   UNL     1     -10.222   5.613  70.615  1.00  0.00    -0.212 NA 
HETATM   21  H2  UNL     1      -9.412   5.387  71.193  1.00  0.00     0.000 HD 
HETATM   22  H1  UNL     1     -10.731   4.744  70.449  1.00  0.00     0.000 HD 
ENDBRANCH  12  14
ENDBRANCH  11  12
ENDBRANCH  10  11
TORSDOF 3
ENDMDL
MODEL      225
REMARK 921   NORMALIZED FREE ENERGY PREDICTED BY IDOCK:   -2.80 KCAL/MOL
REMARK 922        TOTAL FREE ENERGY PREDICTED BY IDOCK:   -4.21 KCAL/MOL
REMARK 923 INTER-LIGAND FREE ENERGY PREDICTED BY IDOCK:   -3.19 KCAL/MOL
REMARK 924 INTRA-LIGAND FREE ENERGY PREDICTED BY IDOCK:   -1.02 KCAL/MOL
REMARK 927      BINDING AFFINITY PREDICTED BY RF-SCORE:    0.00 PKD
ROOT
HETATM    1  C   UNL     1      -5.564   9.331  71.426  1.00  0.00    -0.063 C  
HETATM    2  C   UNL     1      -6.029   8.935  70.012  1.00  0.00    -0.030 C  
HETATM    3  C   UNL     1      -7.531   9.303  69.775  1.00  0.00    -0.075 C  
HETATM    4  C   UNL     1      -5.699   7.452  69.817  1.00  0.00    -0.023 C  
HETATM    5  C   UNL     1      -7.766  10.833  69.869  1.00  0.00     0.200 C  
HETATM    6  C   UNL     1      -7.083  11.597  68.733  1.00  0.00    -0.106 C  
HETATM    7  C   UNL     1      -7.430  11.072  67.330  1.00  0.00    -0.107 C  
HETATM    8  C   UNL     1      -8.725  11.703  66.813  1.00  0.00    -0.189 C  
HETATM    9  C   UNL     1      -7.459   9.536  67.241  1.00  0.00    -0.091 C  
HETATM   10  C   UNL     1      -8.135   8.828  68.421  1.00  0.00    -0.117 C  
ENDROOT
BRANCH  10  11
HETATM   11  O   UNL     1      -9.554   9.119  68.510  1.00  0.00    -0.146 OA 
BRANCH  11  12
HETATM   12  C   UNL     1     -10.462   8.129  68.720  1.00  0.00    -0.174 C  
HETATM   13  O   UNL     1     -10.777   7.250  67.935  1.00  0.00    -0.213 OA 
BRANCH  12  14
HETATM   14  C   UNL     1     -10.998   8.281  70.103  1.00  0.00    -0.222 A  
HETATM   15  C   UNL     1     -11.435   9.554  70.521  1.00  0.00    -0.337 A  
HETATM   16  C   UNL     1     -11.926   9.755  71.811  1.00  0.00    -0.388 A  
HETATM   17  C   UNL     1     -11.996   8.679  72.694  1.00  0.00    -0.253 A  
HETATM   18  C   UNL     1     -11.558   7.416  72.288  1.00  0.00    -0.333 A  
HETATM   19  C   UNL     1     -11.008   7.203  71.011  1.00  0.00    -0.252 A  
HETATM   20  N   UNL     1     -10.719   5.878  70.632  1.00  0.00    -0.269 NA 
HETATM   21  H2  UNL     1      -9.807   5.883  70.174  1.00  0.00     0.000 HD 
HETATM   22  H1  UNL     1     -10.726   5.098  71.289  1.00  0.00     0.000 HD 
ENDBRANCH  12  14
ENDBRANCH  11  12
ENDBRANCH  10  11
TORSDOF 3
ENDMDL
MODEL      226
REMARK 921   NORMALIZED FREE ENERGY PREDICTED BY IDOCK:   -2.80 KCAL/MOL
REMARK 922        TOTAL FREE ENERGY PREDICTED BY IDOCK:   -4.21 KCAL/MOL
REMARK 923 INTER-LIGAND FREE ENERGY PREDICTED BY IDOCK:   -3.16 KCAL/MOL
REMARK 924 INTRA-LIGAND FREE ENERGY PREDICTED BY IDOCK:   -1.05 KCAL/MOL
REMARK 927      BINDING AFFINITY PREDICTED BY RF-SCORE:    0.00 PKD
ROOT
HETATM    1  C   UNL     1      -5.790  10.486  68.892  1.00  0.00    -0.040 C  
HETATM    2  C   UNL     1      -6.518  10.242  67.557  1.00  0.00    -0.066 C  
HETATM    3  C   UNL     1      -7.937   9.622  67.779  1.00  0.00    -0.105 C  
HETATM    4  C   UNL     1      -5.590   9.405  66.671  1.00  0.00    -0.046 C  
HETATM    5  C   UNL     1      -8.860  10.578  68.580  1.00  0.00    -0.147 C  
HETATM    6  C   UNL     1      -9.203  11.846  67.796  1.00  0.00    -0.184 C  
HETATM    7  C   UNL     1      -9.771  11.580  66.393  1.00  0.00    -0.231 C  
HETATM    8  C   UNL     1     -11.284  11.351  66.448  1.00  0.00    -0.250 C  
HETATM    9  C   UNL     1      -9.043  10.451  65.641  1.00  0.00    -0.206 C  
HETATM   10  C   UNL     1      -8.706   9.218  66.487  1.00  0.00    -0.132 C  
ENDROOT
BRANCH  10  11
HETATM   11  O   UNL     1      -9.889   8.514  66.947  1.00  0.00    -0.195 OA 
BRANCH  11  12
HETATM   12  C   UNL     1      -9.926   7.156  66.986  1.00  0.00    -0.217 C  
HETATM   13  O   UNL     1      -9.732   6.393  66.053  1.00  0.00    -0.021 OA 
BRANCH  12  14
HETATM   14  C   UNL     1     -10.221   6.742  68.388  1.00  0.00    -0.193 A  
HETATM   15  C   UNL     1     -11.138   7.506  69.138  1.00  0.00     0.071 A  
HETATM   16  C   UNL     1     -11.434   7.175  70.460  1.00  0.00    -0.334 A  
HETATM   17  C   UNL     1     -10.823   6.068  71.043  1.00  0.00    -0.345 A  
HETATM   18  C   UNL     1      -9.907   5.310  70.308  1.00  0.00    -0.284 A  
HETATM   19  C   UNL     1      -9.552   5.658  68.992  1.00  0.00    -0.135 A  
HETATM   20  N   UNL     1      -8.731   4.768  68.274  1.00  0.00    -0.101 NA 
HETATM   21  H2  UNL     1      -8.029   5.326  67.787  1.00  0.00     0.000 HD 
HETATM   22  H1  UNL     1      -8.247   3.984  68.711  1.00  0.00     0.000 HD 
ENDBRANCH  12  14
ENDBRANCH  11  12
ENDBRANCH  10  11
TORSDOF 3
ENDMDL
MODEL      227
REMARK 921   NORMALIZED FREE ENERGY PREDICTED BY IDOCK:   -2.75 KCAL/MOL
REMARK 922        TOTAL FREE ENERGY PREDICTED BY IDOCK:   -4.14 KCAL/MOL
REMARK 923 INTER-LIGAND FREE ENERGY PREDICTED BY IDOCK:   -3.34 KCAL/MOL
REMARK 924 INTRA-LIGAND FREE ENERGY PREDICTED BY IDOCK:   -0.80 KCAL/MOL
REMARK 927      BINDING AFFINITY PREDICTED BY RF-SCORE:    0.00 PKD
ROOT
HETATM    1  C   UNL     1     -10.768  11.553  65.070  1.00  0.00    -0.350 C  
HETATM    2  C   UNL     1      -9.458  11.400  65.865  1.00  0.00    -0.251 C  
HETATM    3  C   UNL     1      -9.101   9.895  66.103  1.00  0.00    -0.193 C  
HETATM    4  C   UNL     1      -9.595  12.231  67.144  1.00  0.00    -0.200 C  
HETATM    5  C   UNL     1      -8.858   9.147  64.766  1.00  0.00    -0.200 C  
HETATM    6  C   UNL     1      -7.606   9.645  64.041  1.00  0.00    -0.128 C  
HETATM    7  C   UNL     1      -6.338   9.644  64.910  1.00  0.00    -0.090 C  
HETATM    8  C   UNL     1      -5.658   8.273  64.888  1.00  0.00    -0.044 C  
HETATM    9  C   UNL     1      -6.579  10.147  66.345  1.00  0.00    -0.084 C  
HETATM   10  C   UNL     1      -7.862   9.632  67.008  1.00  0.00    -0.098 C  
ENDROOT
BRANCH  10  11
HETATM   11  O   UNL     1      -7.843   8.197  67.226  1.00  0.00    -0.102 OA 
BRANCH  11  12
HETATM   12  C   UNL     1      -7.454   7.674  68.419  1.00  0.00    -0.104 C  
HETATM   13  O   UNL     1      -6.339   7.730  68.912  1.00  0.00    -0.035 OA 
BRANCH  12  14
HETATM   14  C   UNL     1      -8.643   7.032  69.050  1.00  0.00    -0.129 A  
HETATM   15  C   UNL     1      -9.910   7.242  68.471  1.00  0.00    -0.159 A  
HETATM   16  C   UNL     1     -11.057   6.682  69.033  1.00  0.00    -0.318 A  
HETATM   17  C   UNL     1     -10.946   5.895  70.176  1.00  0.00    -0.412 A  
HETATM   18  C   UNL     1      -9.693   5.687  70.760  1.00  0.00    -0.228 A  
HETATM   19  C   UNL     1      -8.531   6.288  70.242  1.00  0.00    -0.134 A  
HETATM   20  N   UNL     1      -7.294   5.920  70.804  1.00  0.00    -0.083 NA 
HETATM   21  H2  UNL     1      -6.747   6.773  70.924  1.00  0.00     0.000 HD 
HETATM   22  H1  UNL     1      -7.213   5.381  71.666  1.00  0.00     0.000 HD 
ENDBRANCH  12  14
ENDBRANCH  11  12
ENDBRANCH  10  11
TORSDOF 3
ENDMDL
MODEL      228
REMARK 921   NORMALIZED FREE ENERGY PREDICTED BY IDOCK:   -2.72 KCAL/MOL
REMARK 922        TOTAL FREE ENERGY PREDICTED BY IDOCK:   -4.11 KCAL/MOL
REMARK 923 INTER-LIGAND FREE ENERGY PREDICTED BY IDOCK:   -3.00 KCAL/MOL
REMARK 924 INTRA-LIGAND FREE ENERGY PREDICTED BY IDOCK:   -1.11 KCAL/MOL
REMARK 927      BINDING AFFINITY PREDICTED BY RF-SCORE:    0.00 PKD
ROOT
HETATM    1  C   UNL     1     -11.832   7.091  70.905  1.00  0.00    -0.401 C  
HETATM    2  C   UNL     1     -10.633   8.058  70.896  1.00  0.00    -0.233 C  
HETATM    3  C   UNL     1      -9.687   7.791  69.679  1.00  0.00    -0.172 C  
HETATM    4  C   UNL     1      -9.952   7.960  72.265  1.00  0.00    -0.280 C  
HETATM    5  C   UNL     1     -10.413   8.026  68.328  1.00  0.00    -0.210 C  
HETATM    6  C   UNL     1     -10.777   9.497  68.113  1.00  0.00    -0.247 C  
HETATM    7  C   UNL     1      -9.593  10.464  68.278  1.00  0.00    -0.152 C  
HETATM    8  C   UNL     1      -8.804  10.594  66.973  1.00  0.00    -0.141 C  
HETATM    9  C   UNL     1      -8.683  10.121  69.472  1.00  0.00    -0.189 C  
HETATM   10  C   UNL     1      -8.376   8.630  69.648  1.00  0.00    -0.123 C  
ENDROOT
BRANCH  10  11
HETATM   11  O   UNL     1      -7.597   8.085  68.551  1.00  0.00    -0.099 OA 
BRANCH  11  12
HETATM   12  C   UNL     1      -6.950   6.896  68.673  1.00  0.00    -0.076 C  
HETATM   13  O   UNL     1      -6.104   6.607  69.504  1.00  0.00    -0.024 OA 
BRANCH  12  14
HETATM   14  C   UNL     1      -7.472   5.977  67.621  1.00  0.00    -0.078 A  
HETATM   15  C   UNL     1      -7.703   6.491  66.330  1.00  0.00    -0.095 A  
HETATM   16  C   UNL     1      -8.211   5.679  65.315  1.00  0.00    -0.134 A  
HETATM   17  C   UNL     1      -8.481   4.339  65.581  1.00  0.00    -0.114 A  
HETATM   18  C   UNL     1      -8.260   3.823  66.861  1.00  0.00    -0.096 A  
HETATM   19  C   UNL     1      -7.802   4.638  67.912  1.00  0.00    -0.082 A  
HETATM   20  N   UNL     1      -7.475   4.015  69.132  1.00  0.00    -0.054 NA 
HETATM   21  H2  UNL     1      -7.855   4.593  69.882  1.00  0.00     0.000 HD 
HETATM   22  H1  UNL     1      -7.713   3.046  69.343  1.00  0.00     0.000 HD 
ENDBRANCH  12  14
ENDBRANCH  11  12
ENDBRANCH  10  11
TORSDOF 3
ENDMDL
MODEL      229
REMARK 921   NORMALIZED FREE ENERGY PREDICTED BY IDOCK:   -2.72 KCAL/MOL
REMARK 922        TOTAL FREE ENERGY PREDICTED BY IDOCK:   -4.11 KCAL/MOL
REMARK 923 INTER-LIGAND FREE ENERGY PREDICTED BY IDOCK:   -3.48 KCAL/MOL
REMARK 924 INTRA-LIGAND FREE ENERGY PREDICTED BY IDOCK:   -0.63 KCAL/MOL
REMARK 927      BINDING AFFINITY PREDICTED BY RF-SCORE:    0.00 PKD
ROOT
HETATM    1  C   UNL     1      -6.421  10.073  65.735  1.00  0.00    -0.099 C  
HETATM    2  C   UNL     1      -7.923   9.801  65.931  1.00  0.00    -0.111 C  
HETATM    3  C   UNL     1      -8.336   9.906  67.436  1.00  0.00    -0.118 C  
HETATM    4  C   UNL     1      -8.237   8.451  65.278  1.00  0.00    -0.151 C  
HETATM    5  C   UNL     1      -8.102  11.334  67.995  1.00  0.00    -0.128 C  
HETATM    6  C   UNL     1      -9.030  12.368  67.354  1.00  0.00    -0.185 C  
HETATM    7  C   UNL     1     -10.520  11.992  67.410  1.00  0.00    -0.239 C  
HETATM    8  C   UNL     1     -11.146  12.431  68.736  1.00  0.00    -0.307 C  
HETATM    9  C   UNL     1     -10.788  10.507  67.108  1.00  0.00    -0.319 C  
HETATM   10  C   UNL     1      -9.810   9.522  67.759  1.00  0.00    -0.160 C  
ENDROOT
BRANCH  10  11
HETATM   11  O   UNL     1      -9.899   9.522  69.208  1.00  0.00    -0.167 OA 
BRANCH  11  12
HETATM   12  C   UNL     1     -10.205   8.388  69.892  1.00  0.00    -0.201 C  
HETATM   13  O   UNL     1     -10.874   8.306  70.909  1.00  0.00    -0.221 OA 
BRANCH  12  14
HETATM   14  C   UNL     1      -9.601   7.234  69.165  1.00  0.00    -0.155 A  
HETATM   15  C   UNL     1      -8.234   6.954  69.360  1.00  0.00    -0.131 A  
HETATM   16  C   UNL     1      -7.615   5.900  68.689  1.00  0.00    -0.090 A  
HETATM   17  C   UNL     1      -8.362   5.106  67.823  1.00  0.00    -0.105 A  
HETATM   18  C   UNL     1      -9.717   5.381  67.619  1.00  0.00    -0.155 A  
HETATM   19  C   UNL     1     -10.348   6.473  68.242  1.00  0.00    -0.190 A  
HETATM   20  N   UNL     1     -11.742   6.600  68.094  1.00  0.00    -0.244 NA 
HETATM   21  H2  UNL     1     -11.941   7.584  67.910  1.00  0.00     0.000 HD 
HETATM   22  H1  UNL     1     -12.282   6.049  67.427  1.00  0.00     0.000 HD 
ENDBRANCH  12  14
ENDBRANCH  11  12
ENDBRANCH  10  11
TORSDOF 3
ENDMDL
MODEL      230
REMARK 921   NORMALIZED FREE ENERGY PREDICTED BY IDOCK:   -2.65 KCAL/MOL
REMARK 922        TOTAL FREE ENERGY PREDICTED BY IDOCK:   -4.03 KCAL/MOL
REMARK 923 INTER-LIGAND FREE ENERGY PREDICTED BY IDOCK:   -3.09 KCAL/MOL
REMARK 924 INTRA-LIGAND FREE ENERGY PREDICTED BY IDOCK:   -0.93 KCAL/MOL
REMARK 927      BINDING AFFINITY PREDICTED BY RF-SCORE:    0.00 PKD
ROOT
HETATM    1  C   UNL     1      -6.358  10.151  68.733  1.00  0.00    -0.048 C  
HETATM    2  C   UNL     1      -7.731   9.958  68.063  1.00  0.00    -0.086 C  
HETATM    3  C   UNL     1      -7.965   8.468  67.648  1.00  0.00    -0.107 C  
HETATM    4  C   UNL     1      -7.825  10.962  66.909  1.00  0.00    -0.135 C  
HETATM    5  C   UNL     1      -7.977   7.527  68.881  1.00  0.00    -0.126 C  
HETATM    6  C   UNL     1      -9.178   7.781  69.794  1.00  0.00    -0.150 C  
HETATM    7  C   UNL     1     -10.533   7.753  69.067  1.00  0.00    -0.215 C  
HETATM    8  C   UNL     1     -11.069   6.323  68.961  1.00  0.00    -0.446 C  
HETATM    9  C   UNL     1     -10.511   8.464  67.703  1.00  0.00    -0.307 C  
HETATM   10  C   UNL     1      -9.270   8.189  66.845  1.00  0.00    -0.160 C  
ENDROOT
BRANCH  10  11
HETATM   11  O   UNL     1      -9.175   6.802  66.427  1.00  0.00    -0.160 OA 
BRANCH  11  12
HETATM   12  C   UNL     1      -8.492   6.454  65.304  1.00  0.00    -0.098 C  
HETATM   13  O   UNL     1      -8.081   7.207  64.436  1.00  0.00    -0.125 OA 
BRANCH  12  14
HETATM   14  C   UNL     1      -8.299   4.975  65.322  1.00  0.00    -0.135 A  
HETATM   15  C   UNL     1      -7.660   4.392  66.434  1.00  0.00    -0.086 A  
HETATM   16  C   UNL     1      -7.435   3.016  66.492  1.00  0.00    -0.075 A  
HETATM   17  C   UNL     1      -7.861   2.208  65.440  1.00  0.00    -0.077 A  
HETATM   18  C   UNL     1      -8.489   2.780  64.331  1.00  0.00    -0.090 A  
HETATM   19  C   UNL     1      -8.675   4.171  64.227  1.00  0.00    -0.127 A  
HETATM   20  N   UNL     1      -9.437   4.654  63.146  1.00  0.00    -0.341 NA 
HETATM   21  H2  UNL     1      -8.953   5.471  62.772  1.00  0.00     0.000 HD 
HETATM   22  H1  UNL     1      -9.709   4.072  62.354  1.00  0.00     0.000 HD 
ENDBRANCH  12  14
ENDBRANCH  11  12
ENDBRANCH  10  11
TORSDOF 3
ENDMDL
MODEL      231
REMARK 921   NORMALIZED FREE ENERGY PREDICTED BY IDOCK:   -2.59 KCAL/MOL
REMARK 922        TOTAL FREE ENERGY PREDICTED BY IDOCK:   -3.96 KCAL/MOL
REMARK 923 INTER-LIGAND FREE ENERGY PREDICTED BY IDOCK:   -3.15 KCAL/MOL
REMARK 924 INTRA-LIGAND FREE ENERGY PREDICTED BY IDOCK:   -0.81 KCAL/MOL
REMARK 927      BINDING AFFINITY PREDICTED BY RF-SCORE:    0.00 PKD
ROOT
HETATM    1  C   UNL     1      -5.681   9.983  67.567  1.00  0.00    -0.045 C  
HETATM    2  C   UNL     1      -7.215   9.958  67.707  1.00  0.00    -0.088 C  
HETATM    3  C   UNL     1      -7.738   8.528  68.064  1.00  0.00    -0.103 C  
HETATM    4  C   UNL     1      -7.804  10.548  66.421  1.00  0.00    -0.138 C  
HETATM    5  C   UNL     1      -7.195   8.047  69.435  1.00  0.00    -0.071 C  
HETATM    6  C   UNL     1      -7.747   8.872  70.600  1.00  0.00    -0.112 C  
HETATM    7  C   UNL     1      -9.280   8.976  70.621  1.00  0.00    -0.279 C  
HETATM    8  C   UNL     1      -9.902   7.774  71.336  1.00  0.00    -0.195 C  
HETATM    9  C   UNL     1      -9.898   9.204  69.230  1.00  0.00    -0.175 C  
HETATM   10  C   UNL     1      -9.286   8.366  68.101  1.00  0.00    -0.133 C  
ENDROOT
BRANCH  10  11
HETATM   11  O   UNL     1      -9.520   6.943  68.269  1.00  0.00    -0.128 OA 
BRANCH  11  12
HETATM   12  C   UNL     1     -10.372   6.271  67.450  1.00  0.00    -0.211 C  
HETATM   13  O   UNL     1     -11.345   6.729  66.875  1.00  0.00    -0.318 OA 
BRANCH  12  14
HETATM   14  C   UNL     1      -9.896   4.862  67.347  1.00  0.00    -0.213 A  
HETATM   15  C   UNL     1      -9.575   4.350  66.073  1.00  0.00    -0.190 A  
HETATM   16  C   UNL     1      -9.145   3.033  65.917  1.00  0.00    -0.141 A  
HETATM   17  C   UNL     1      -9.020   2.215  67.038  1.00  0.00    -0.150 A  
HETATM   18  C   UNL     1      -9.343   2.714  68.303  1.00  0.00    -0.258 A  
HETATM   19  C   UNL     1      -9.831   4.021  68.476  1.00  0.00     0.026 A  
HETATM   20  N   UNL     1     -10.002   4.491  69.793  1.00  0.00    -0.229 NA 
HETATM   21  H2  UNL     1     -10.896   4.982  69.828  1.00  0.00     0.000 HD 
HETATM   22  H1  UNL     1      -9.955   3.883  70.610  1.00  0.00     0.000 HD 
ENDBRANCH  12  14
ENDBRANCH  11  12
ENDBRANCH  10  11
TORSDOF 3
ENDMDL
MODEL      232
REMARK 921   NORMALIZED FREE ENERGY PREDICTED BY IDOCK:   -2.57 KCAL/MOL
REMARK 922        TOTAL FREE ENERGY PREDICTED BY IDOCK:   -3.94 KCAL/MOL
REMARK 923 INTER-LIGAND FREE ENERGY PREDICTED BY IDOCK:   -3.03 KCAL/MOL
REMARK 924 INTRA-LIGAND FREE ENERGY PREDICTED BY IDOCK:   -0.90 KCAL/MOL
REMARK 927      BINDING AFFINITY PREDICTED BY RF-SCORE:    0.00 PKD
ROOT
HETATM    1  C   UNL     1      -7.859   4.107  65.875  1.00  0.00    -0.094 C  
HETATM    2  C   UNL     1      -7.142   5.218  66.665  1.00  0.00    -0.069 C  
HETATM    3  C   UNL     1      -8.025   6.504  66.783  1.00  0.00    -0.108 C  
HETATM    4  C   UNL     1      -5.776   5.442  66.007  1.00  0.00    -0.018 C  
HETATM    5  C   UNL     1      -9.336   6.227  67.565  1.00  0.00    -0.113 C  
HETATM    6  C   UNL     1      -9.076   5.901  69.037  1.00  0.00    -0.123 C  
HETATM    7  C   UNL     1      -8.210   6.943  69.764  1.00  0.00    -0.131 C  
HETATM    8  C   UNL     1      -9.067   8.094  70.296  1.00  0.00    -0.151 C  
HETATM    9  C   UNL     1      -7.023   7.447  68.924  1.00  0.00    -0.078 C  
HETATM   10  C   UNL     1      -7.342   7.732  67.452  1.00  0.00    -0.092 C  
ENDROOT
BRANCH  10  11
HETATM   11  O   UNL     1      -8.275   8.831  67.284  1.00  0.00    -0.104 OA 
BRANCH  11  12
HETATM   12  C   UNL     1      -7.898  10.114  67.523  1.00  0.00    -0.102 C  
HETATM   13  O   UNL     1      -6.758  10.527  67.656  1.00  0.00    -0.071 OA 
BRANCH  12  14
HETATM   14  C   UNL     1      -9.129  10.956  67.568  1.00  0.00    -0.142 A  
HETATM   15  C   UNL     1     -10.303  10.466  66.963  1.00  0.00    -0.295 A  
HETATM   16  C   UNL     1     -11.476  11.222  66.958  1.00  0.00    -0.177 A  
HETATM   17  C   UNL     1     -11.488  12.472  67.572  1.00  0.00    -0.397 A  
HETATM   18  C   UNL     1     -10.325  12.967  68.168  1.00  0.00    -0.244 A  
HETATM   19  C   UNL     1      -9.117  12.246  68.136  1.00  0.00    -0.196 A  
HETATM   20  N   UNL     1      -8.030  12.749  68.876  1.00  0.00    -0.330 NA 
HETATM   21  H2  UNL     1      -7.198  12.665  68.292  1.00  0.00     0.000 HD 
HETATM   22  H1  UNL     1      -8.022  13.683  69.287  1.00  0.00     0.000 HD 
ENDBRANCH  12  14
ENDBRANCH  11  12
ENDBRANCH  10  11
TORSDOF 3
ENDMDL
MODEL      233
REMARK 921   NORMALIZED FREE ENERGY PREDICTED BY IDOCK:   -2.55 KCAL/MOL
REMARK 922        TOTAL FREE ENERGY PREDICTED BY IDOCK:   -3.91 KCAL/MOL
REMARK 923 INTER-LIGAND FREE ENERGY PREDICTED BY IDOCK:   -3.20 KCAL/MOL
REMARK 924 INTRA-LIGAND FREE ENERGY PREDICTED BY IDOCK:   -0.71 KCAL/MOL
REMARK 927      BINDING AFFINITY PREDICTED BY RF-SCORE:    0.00 PKD
ROOT
HETATM    1  C   UNL     1      -9.215  10.950  67.281  1.00  0.00    -0.160 C  
HETATM    2  C   UNL     1      -8.908  10.177  68.577  1.00  0.00    -0.127 C  
HETATM    3  C   UNL     1      -8.631   8.664  68.294  1.00  0.00    -0.138 C  
HETATM    4  C   UNL     1     -10.058  10.441  69.554  1.00  0.00    -0.246 C  
HETATM    5  C   UNL     1      -7.380   8.470  67.396  1.00  0.00    -0.089 C  
HETATM    6  C   UNL     1      -6.089   8.889  68.102  1.00  0.00    -0.050 C  
HETATM    7  C   UNL     1      -5.886   8.232  69.477  1.00  0.00    -0.030 C  
HETATM    8  C   UNL     1      -5.222   6.860  69.337  1.00  0.00    -0.014 C  
HETATM    9  C   UNL     1      -7.172   8.169  70.321  1.00  0.00    -0.052 C  
HETATM   10  C   UNL     1      -8.436   7.767  69.552  1.00  0.00    -0.131 C  
ENDROOT
BRANCH  10  11
HETATM   11  O   UNL     1      -8.377   6.407  69.049  1.00  0.00    -0.116 OA 
BRANCH  11  12
HETATM   12  C   UNL     1      -8.809   5.361  69.803  1.00  0.00    -0.110 C  
HETATM   13  O   UNL     1      -8.331   4.239  69.836  1.00  0.00    -0.061 OA 
BRANCH  12  14
HETATM   14  C   UNL     1      -9.967   5.828  70.618  1.00  0.00    -0.251 A  
HETATM   15  C   UNL     1     -11.169   6.156  69.958  1.00  0.00    -0.471 A  
HETATM   16  C   UNL     1     -12.275   6.617  70.670  1.00  0.00    -0.262 A  
HETATM   17  C   UNL     1     -12.195   6.744  72.055  1.00  0.00    -0.331 A  
HETATM   18  C   UNL     1     -11.005   6.428  72.716  1.00  0.00    -0.289 A  
HETATM   19  C   UNL     1      -9.860   6.014  72.011  1.00  0.00    -0.156 A  
HETATM   20  N   UNL     1      -8.747   5.583  72.759  1.00  0.00    -0.120 NA 
HETATM   21  H2  UNL     1      -7.915   5.992  72.331  1.00  0.00     0.000 HD 
HETATM   22  H1  UNL     1      -8.669   5.718  73.767  1.00  0.00     0.000 HD 
ENDBRANCH  12  14
ENDBRANCH  11  12
ENDBRANCH  10  11
TORSDOF 3
ENDMDL
MODEL      234
REMARK 921   NORMALIZED FREE ENERGY PREDICTED BY IDOCK:   -2.54 KCAL/MOL
REMARK 922        TOTAL FREE ENERGY PREDICTED BY IDOCK:   -3.90 KCAL/MOL
REMARK 923 INTER-LIGAND FREE ENERGY PREDICTED BY IDOCK:   -2.91 KCAL/MOL
REMARK 924 INTRA-LIGAND FREE ENERGY PREDICTED BY IDOCK:   -0.98 KCAL/MOL
REMARK 927      BINDING AFFINITY PREDICTED BY RF-SCORE:    0.00 PKD
ROOT
HETATM    1  C   UNL     1      -5.457   8.345  71.118  1.00  0.00    -0.033 C  
HETATM    2  C   UNL     1      -5.904   7.753  69.768  1.00  0.00    -0.023 C  
HETATM    3  C   UNL     1      -7.463   7.725  69.639  1.00  0.00    -0.090 C  
HETATM    4  C   UNL     1      -5.229   6.386  69.618  1.00  0.00    -0.013 C  
HETATM    5  C   UNL     1      -8.066   9.154  69.678  1.00  0.00    -0.106 C  
HETATM    6  C   UNL     1      -7.674   9.983  68.453  1.00  0.00    -0.084 C  
HETATM    7  C   UNL     1      -7.974   9.296  67.111  1.00  0.00    -0.106 C  
HETATM    8  C   UNL     1      -9.418   9.554  66.674  1.00  0.00    -0.222 C  
HETATM    9  C   UNL     1      -7.625   7.797  67.099  1.00  0.00    -0.100 C  
HETATM   10  C   UNL     1      -8.021   7.027  68.364  1.00  0.00    -0.123 C  
ENDROOT
BRANCH  10  11
HETATM   11  O   UNL     1      -9.458   6.966  68.557  1.00  0.00    -0.134 OA 
BRANCH  11  12
HETATM   12  C   UNL     1     -10.052   5.854  69.064  1.00  0.00    -0.185 C  
HETATM   13  O   UNL     1     -10.287   4.816  68.468  1.00  0.00    -0.046 OA 
BRANCH  12  14
HETATM   14  C   UNL     1     -10.349   6.105  70.504  1.00  0.00    -0.270 A  
HETATM   15  C   UNL     1     -11.322   7.070  70.833  1.00  0.00    -0.334 A  
HETATM   16  C   UNL     1     -11.623   7.359  72.164  1.00  0.00    -0.331 A  
HETATM   17  C   UNL     1     -10.961   6.675  73.181  1.00  0.00    -0.263 A  
HETATM   18  C   UNL     1      -9.989   5.722  72.861  1.00  0.00    -0.194 A  
HETATM   19  C   UNL     1      -9.631   5.456  71.528  1.00  0.00    -0.152 A  
HETATM   20  N   UNL     1      -8.746   4.387  71.285  1.00  0.00    -0.105 NA 
HETATM   21  H2  UNL     1      -8.068   4.704  70.591  1.00  0.00     0.000 HD 
HETATM   22  H1  UNL     1      -8.226   3.917  72.026  1.00  0.00     0.000 HD 
ENDBRANCH  12  14
ENDBRANCH  11  12
ENDBRANCH  10  11
TORSDOF 3
ENDMDL
MODEL      235
REMARK 921   NORMALIZED FREE ENERGY PREDICTED BY IDOCK:   -2.41 KCAL/MOL
REMARK 922        TOTAL FREE ENERGY PREDICTED BY IDOCK:   -3.74 KCAL/MOL
REMARK 923 INTER-LIGAND FREE ENERGY PREDICTED BY IDOCK:   -2.75 KCAL/MOL
REMARK 924 INTRA-LIGAND FREE ENERGY PREDICTED BY IDOCK:   -0.99 KCAL/MOL
REMARK 927      BINDING AFFINITY PREDICTED BY RF-SCORE:    0.00 PKD
ROOT
HETATM    1  C   UNL     1      -9.221   2.319  65.130  1.00  0.00    -0.099 C  
HETATM    2  C   UNL     1      -8.237   3.285  65.816  1.00  0.00    -0.094 C  
HETATM    3  C   UNL     1      -8.824   3.853  67.150  1.00  0.00    -0.133 C  
HETATM    4  C   UNL     1      -7.845   4.351  64.788  1.00  0.00    -0.089 C  
HETATM    5  C   UNL     1      -9.082   2.728  68.186  1.00  0.00    -0.228 C  
HETATM    6  C   UNL     1      -7.786   2.081  68.676  1.00  0.00    -0.047 C  
HETATM    7  C   UNL     1      -6.745   3.084  69.201  1.00  0.00    -0.037 C  
HETATM    8  C   UNL     1      -6.995   3.413  70.675  1.00  0.00    -0.033 C  
HETATM    9  C   UNL     1      -6.628   4.352  68.337  1.00  0.00    -0.046 C  
HETATM   10  C   UNL     1      -7.960   4.939  67.857  1.00  0.00    -0.093 C  
ENDROOT
BRANCH  10  11
HETATM   11  O   UNL     1      -8.780   5.432  68.948  1.00  0.00    -0.098 OA 
BRANCH  11  12
HETATM   12  C   UNL     1      -8.614   6.689  69.438  1.00  0.00    -0.135 C  
HETATM   13  O   UNL     1      -8.106   6.996  70.504  1.00  0.00    -0.111 OA 
BRANCH  12  14
HETATM   14  C   UNL     1      -9.141   7.651  68.427  1.00  0.00    -0.130 A  
HETATM   15  C   UNL     1      -8.316   8.718  68.019  1.00  0.00    -0.119 A  
HETATM   16  C   UNL     1      -8.767   9.658  67.092  1.00  0.00    -0.137 A  
HETATM   17  C   UNL     1     -10.046   9.532  66.554  1.00  0.00    -0.326 A  
HETATM   18  C   UNL     1     -10.871   8.480  66.960  1.00  0.00    -0.030 A  
HETATM   19  C   UNL     1     -10.458   7.554  67.935  1.00  0.00    -0.204 A  
HETATM   20  N   UNL     1     -11.291   6.448  68.187  1.00  0.00    -0.562 NA 
HETATM   21  H2  UNL     1     -11.334   6.322  69.199  1.00  0.00     0.000 HD 
HETATM   22  H1  UNL     1     -12.245   6.378  67.830  1.00  0.00     0.000 HD 
ENDBRANCH  12  14
ENDBRANCH  11  12
ENDBRANCH  10  11
TORSDOF 3
ENDMDL
MODEL      236
REMARK 921   NORMALIZED FREE ENERGY PREDICTED BY IDOCK:   -2.36 KCAL/MOL
REMARK 922        TOTAL FREE ENERGY PREDICTED BY IDOCK:   -3.68 KCAL/MOL
REMARK 923 INTER-LIGAND FREE ENERGY PREDICTED BY IDOCK:   -2.93 KCAL/MOL
REMARK 924 INTRA-LIGAND FREE ENERGY PREDICTED BY IDOCK:   -0.76 KCAL/MOL
REMARK 927      BINDING AFFINITY PREDICTED BY RF-SCORE:    0.00 PKD
ROOT
HETATM    1  C   UNL     1      -9.417   4.272  69.170  1.00  0.00    -0.245 C  
HETATM    2  C   UNL     1     -10.114   5.472  68.502  1.00  0.00    -0.240 C  
HETATM    3  C   UNL     1      -9.144   6.689  68.347  1.00  0.00    -0.124 C  
HETATM    4  C   UNL     1     -11.386   5.771  69.304  1.00  0.00     0.150 C  
HETATM    5  C   UNL     1      -7.944   6.348  67.424  1.00  0.00    -0.116 C  
HETATM    6  C   UNL     1      -8.373   6.115  65.975  1.00  0.00    -0.136 C  
HETATM    7  C   UNL     1      -9.217   7.255  65.381  1.00  0.00     0.400 C  
HETATM    8  C   UNL     1      -8.324   8.360  64.812  1.00  0.00    -0.151 C  
HETATM    9  C   UNL     1     -10.270   7.810  66.358  1.00  0.00    -0.053 C  
HETATM   10  C   UNL     1      -9.786   7.998  67.800  1.00  0.00    -0.156 C  
ENDROOT
BRANCH  10  11
HETATM   11  O   UNL     1      -8.752   9.011  67.916  1.00  0.00    -0.128 OA 
BRANCH  11  12
HETATM   12  C   UNL     1      -8.857  10.018  68.822  1.00  0.00    -0.137 C  
HETATM   13  O   UNL     1      -8.900  11.214  68.582  1.00  0.00    -0.159 OA 
BRANCH  12  14
HETATM   14  C   UNL     1      -8.939   9.410  70.181  1.00  0.00    -0.256 A  
HETATM   15  C   UNL     1      -7.755   8.934  70.779  1.00  0.00    -0.126 A  
HETATM   16  C   UNL     1      -7.779   8.337  72.040  1.00  0.00    -0.153 A  
HETATM   17  C   UNL     1      -8.988   8.223  72.721  1.00  0.00    -0.323 A  
HETATM   18  C   UNL     1     -10.167   8.687  72.131  1.00  0.00    -0.394 A  
HETATM   19  C   UNL     1     -10.174   9.240  70.838  1.00  0.00    -0.301 A  
HETATM   20  N   UNL     1     -11.375   9.808  70.372  1.00  0.00    -0.279 NA 
HETATM   21  H2  UNL     1     -11.500   9.507  69.405  1.00  0.00     0.000 HD 
HETATM   22  H1  UNL     1     -12.269   9.686  70.848  1.00  0.00     0.000 HD 
ENDBRANCH  12  14
ENDBRANCH  11  12
ENDBRANCH  10  11
TORSDOF 3
ENDMDL
MODEL      237
REMARK 921   NORMALIZED FREE ENERGY PREDICTED BY IDOCK:   -2.34 KCAL/MOL
REMARK 922        TOTAL FREE ENERGY PREDICTED BY IDOCK:   -3.66 KCAL/MOL
REMARK 923 INTER-LIGAND FREE ENERGY PREDICTED BY IDOCK:   -2.89 KCAL/MOL
REMARK 924 INTRA-LIGAND FREE ENERGY PREDICTED BY IDOCK:   -0.78 KCAL/MOL
REMARK 927      BINDING AFFINITY PREDICTED BY RF-SCORE:    0.00 PKD
ROOT
HETATM    1  C   UNL     1      -6.511  10.343  68.895  1.00  0.00    -0.052 C  
HETATM    2  C   UNL     1      -7.628  10.124  67.859  1.00  0.00    -0.089 C  
HETATM    3  C   UNL     1      -7.653   8.648  67.341  1.00  0.00    -0.093 C  
HETATM    4  C   UNL     1      -7.454  11.179  66.762  1.00  0.00    -0.146 C  
HETATM    5  C   UNL     1      -7.954   7.646  68.486  1.00  0.00    -0.123 C  
HETATM    6  C   UNL     1      -9.375   7.799  69.033  1.00  0.00    -0.150 C  
HETATM    7  C   UNL     1     -10.469   7.748  67.954  1.00  0.00    -0.263 C  
HETATM    8  C   UNL     1     -10.873   6.303  67.650  1.00  0.00    -0.433 C  
HETATM    9  C   UNL     1     -10.108   8.528  66.677  1.00  0.00    -0.364 C  
HETATM   10  C   UNL     1      -8.663   8.352  66.194  1.00  0.00    -0.151 C  
ENDROOT
BRANCH  10  11
HETATM   11  O   UNL     1      -8.377   6.994  65.770  1.00  0.00    -0.132 OA 
BRANCH  11  12
HETATM   12  C   UNL     1      -8.058   6.716  64.478  1.00  0.00    -0.073 C  
HETATM   13  O   UNL     1      -8.301   5.684  63.872  1.00  0.00    -0.124 OA 
BRANCH  12  14
HETATM   14  C   UNL     1      -7.377   7.911  63.903  1.00  0.00    -0.099 A  
HETATM   15  C   UNL     1      -8.124   8.790  63.094  1.00  0.00    -0.176 A  
HETATM   16  C   UNL     1      -7.531   9.911  62.514  1.00  0.00    -0.126 A  
HETATM   17  C   UNL     1      -6.183  10.171  62.749  1.00  0.00    -0.132 A  
HETATM   18  C   UNL     1      -5.433   9.300  63.544  1.00  0.00    -0.067 A  
HETATM   19  C   UNL     1      -5.998   8.134  64.093  1.00  0.00    -0.065 A  
HETATM   20  N   UNL     1      -5.216   7.384  64.992  1.00  0.00    -0.028 NA 
HETATM   21  H2  UNL     1      -5.336   6.400  64.754  1.00  0.00     0.000 HD 
HETATM   22  H1  UNL     1      -4.219   7.547  65.130  1.00  0.00     0.000 HD 
ENDBRANCH  12  14
ENDBRANCH  11  12
ENDBRANCH  10  11
TORSDOF 3
ENDMDL
MODEL      238
REMARK 921   NORMALIZED FREE ENERGY PREDICTED BY IDOCK:   -2.34 KCAL/MOL
REMARK 922        TOTAL FREE ENERGY PREDICTED BY IDOCK:   -3.66 KCAL/MOL
REMARK 923 INTER-LIGAND FREE ENERGY PREDICTED BY IDOCK:   -4.03 KCAL/MOL
REMARK 924 INTRA-LIGAND FREE ENERGY PREDICTED BY IDOCK:    0.37 KCAL/MOL
REMARK 927      BINDING AFFINITY PREDICTED BY RF-SCORE:    0.00 PKD
ROOT
HETATM    1  C   UNL     1      -7.351   9.390  70.976  1.00  0.00    -0.050 C  
HETATM    2  C   UNL     1      -8.823   9.173  70.582  1.00  0.00    -0.278 C  
HETATM    3  C   UNL     1      -9.173   7.652  70.474  1.00  0.00    -0.159 C  
HETATM    4  C   UNL     1      -9.081   9.977  69.303  1.00  0.00    -0.208 C  
HETATM    5  C   UNL     1      -9.004   6.930  71.837  1.00  0.00    -0.139 C  
HETATM    6  C   UNL     1     -10.023   7.403  72.875  1.00  0.00    -0.281 C  
HETATM    7  C   UNL     1     -11.482   7.338  72.395  1.00  0.00    -0.327 C  
HETATM    8  C   UNL     1     -12.074   5.946  72.627  1.00  0.00    -0.046 C  
HETATM    9  C   UNL     1     -11.670   7.812  70.943  1.00  0.00    -0.281 C  
HETATM   10  C   UNL     1     -10.604   7.325  69.956  1.00  0.00    -0.233 C  
ENDROOT
BRANCH  10  11
HETATM   11  O   UNL     1     -10.627   5.885  69.773  1.00  0.00    -0.243 OA 
BRANCH  11  12
HETATM   12  C   UNL     1      -9.717   5.265  68.976  1.00  0.00    -0.156 C  
HETATM   13  O   UNL     1      -9.353   4.102  69.052  1.00  0.00    -0.138 OA 
BRANCH  12  14
HETATM   14  C   UNL     1      -9.248   6.248  67.958  1.00  0.00    -0.116 A  
HETATM   15  C   UNL     1      -7.877   6.571  67.913  1.00  0.00    -0.108 A  
HETATM   16  C   UNL     1      -7.389   7.501  66.995  1.00  0.00    -0.094 A  
HETATM   17  C   UNL     1      -8.269   8.109  66.102  1.00  0.00    -0.117 A  
HETATM   18  C   UNL     1      -9.631   7.798  66.145  1.00  0.00    -0.104 A  
HETATM   19  C   UNL     1     -10.152   6.906  67.100  1.00  0.00    -0.209 A  
HETATM   20  N   UNL     1     -11.508   6.543  66.990  1.00  0.00    -0.743 NA 
HETATM   21  H2  UNL     1     -11.908   6.565  67.928  1.00  0.00     0.000 HD 
HETATM   22  H1  UNL     1     -12.162   7.019  66.368  1.00  0.00     0.000 HD 
ENDBRANCH  12  14
ENDBRANCH  11  12
ENDBRANCH  10  11
TORSDOF 3
ENDMDL
MODEL      239
REMARK 921   NORMALIZED FREE ENERGY PREDICTED BY IDOCK:   -2.32 KCAL/MOL
REMARK 922        TOTAL FREE ENERGY PREDICTED BY IDOCK:   -3.64 KCAL/MOL
REMARK 923 INTER-LIGAND FREE ENERGY PREDICTED BY IDOCK:   -2.76 KCAL/MOL
REMARK 924 INTRA-LIGAND FREE ENERGY PREDICTED BY IDOCK:   -0.89 KCAL/MOL
REMARK 927      BINDING AFFINITY PREDICTED BY RF-SCORE:    0.00 PKD
ROOT
HETATM    1  C   UNL     1      -8.278  12.389  67.480  1.00  0.00    -0.173 C  
HETATM    2  C   UNL     1      -8.864  11.389  68.493  1.00  0.00    -0.151 C  
HETATM    3  C   UNL     1      -8.341   9.936  68.238  1.00  0.00    -0.110 C  
HETATM    4  C   UNL     1     -10.389  11.532  68.454  1.00  0.00    -0.214 C  
HETATM    5  C   UNL     1      -6.803   9.843  68.414  1.00  0.00    -0.063 C  
HETATM    6  C   UNL     1      -6.370  10.072  69.864  1.00  0.00    -0.066 C  
HETATM    7  C   UNL     1      -7.095   9.177  70.882  1.00  0.00    -0.108 C  
HETATM    8  C   UNL     1      -6.399   7.820  71.015  1.00  0.00    -0.037 C  
HETATM    9  C   UNL     1      -8.602   9.028  70.602  1.00  0.00    -0.245 C  
HETATM   10  C   UNL     1      -8.973   8.826  69.129  1.00  0.00    -0.137 C  
ENDROOT
BRANCH  10  11
HETATM   11  O   UNL     1      -8.475   7.573  68.592  1.00  0.00    -0.128 OA 
BRANCH  11  12
HETATM   12  C   UNL     1      -9.319   6.543  68.317  1.00  0.00    -0.118 C  
HETATM   13  O   UNL     1     -10.254   6.163  69.002  1.00  0.00    -0.163 OA 
BRANCH  12  14
HETATM   14  C   UNL     1      -8.924   5.963  67.001  1.00  0.00    -0.116 A  
HETATM   15  C   UNL     1      -7.553   5.797  66.721  1.00  0.00    -0.096 A  
HETATM   16  C   UNL     1      -7.129   5.278  65.497  1.00  0.00    -0.067 A  
HETATM   17  C   UNL     1      -8.075   4.908  64.545  1.00  0.00    -0.112 A  
HETATM   18  C   UNL     1      -9.436   5.076  64.813  1.00  0.00     0.114 A  
HETATM   19  C   UNL     1      -9.884   5.649  66.017  1.00  0.00    -0.018 A  
HETATM   20  N   UNL     1     -11.269   5.657  66.268  1.00  0.00    -0.749 NA 
HETATM   21  H2  UNL     1     -11.507   6.576  66.643  1.00  0.00     0.000 HD 
HETATM   22  H1  UNL     1     -11.964   5.429  65.556  1.00  0.00     0.000 HD 
ENDBRANCH  12  14
ENDBRANCH  11  12
ENDBRANCH  10  11
TORSDOF 3
ENDMDL
MODEL      240
REMARK 921   NORMALIZED FREE ENERGY PREDICTED BY IDOCK:   -2.11 KCAL/MOL
REMARK 922        TOTAL FREE ENERGY PREDICTED BY IDOCK:   -3.40 KCAL/MOL
REMARK 923 INTER-LIGAND FREE ENERGY PREDICTED BY IDOCK:   -3.18 KCAL/MOL
REMARK 924 INTRA-LIGAND FREE ENERGY PREDICTED BY IDOCK:   -0.22 KCAL/MOL
REMARK 927      BINDING AFFINITY PREDICTED BY RF-SCORE:    0.00 PKD
ROOT
HETATM    1  C   UNL     1      -6.342  18.757  67.571  1.00  0.00    -0.192 C  
HETATM    2  C   UNL     1      -7.294  17.866  68.390  1.00  0.00    -0.259 C  
HETATM    3  C   UNL     1      -7.410  16.431  67.778  1.00  0.00    -0.153 C  
HETATM    4  C   UNL     1      -8.626  18.612  68.520  1.00  0.00    -0.370 C  
HETATM    5  C   UNL     1      -6.046  15.692  67.791  1.00  0.00    -0.178 C  
HETATM    6  C   UNL     1      -5.569  15.379  69.210  1.00  0.00    -0.097 C  
HETATM    7  C   UNL     1      -6.605  14.636  70.069  1.00  0.00    -0.161 C  
HETATM    8  C   UNL     1      -6.526  13.125  69.840  1.00  0.00     0.029 C  
HETATM    9  C   UNL     1      -8.038  15.173  69.900  1.00  0.00     0.137 C  
HETATM   10  C   UNL     1      -8.448  15.490  68.458  1.00  0.00    -0.163 C  
ENDROOT
BRANCH  10  11
HETATM   11  O   UNL     1      -8.503  14.308  67.618  1.00  0.00    -0.157 OA 
BRANCH  11  12
HETATM   12  C   UNL     1      -9.330  13.272  67.919  1.00  0.00    -0.214 C  
HETATM   13  O   UNL     1      -9.153  12.421  68.775  1.00  0.00    -0.022 OA 
BRANCH  12  14
HETATM   14  C   UNL     1     -10.526  13.363  67.032  1.00  0.00    -0.257 A  
HETATM   15  C   UNL     1     -11.742  13.814  67.584  1.00  0.00    -0.402 A  
HETATM   16  C   UNL     1     -12.895  13.898  66.804  1.00  0.00     0.418 A  
HETATM   17  C   UNL     1     -12.840  13.544  65.458  1.00  0.00    -0.406 A  
HETATM   18  C   UNL     1     -11.639  13.090  64.906  1.00  0.00    -0.362 A  
HETATM   19  C   UNL     1     -10.479  12.944  65.687  1.00  0.00    -0.277 A  
HETATM   20  N   UNL     1      -9.279  12.613  65.029  1.00  0.00    -0.095 NA 
HETATM   21  H2  UNL     1      -8.811  11.899  65.587  1.00  0.00     0.000 HD 
HETATM   22  H1  UNL     1      -9.245  12.310  64.055  1.00  0.00     0.000 HD 
ENDBRANCH  12  14
ENDBRANCH  11  12
ENDBRANCH  10  11
TORSDOF 3
ENDMDL
MODEL      241
REMARK 921   NORMALIZED FREE ENERGY PREDICTED BY IDOCK:   -2.07 KCAL/MOL
REMARK 922        TOTAL FREE ENERGY PREDICTED BY IDOCK:   -3.34 KCAL/MOL
REMARK 923 INTER-LIGAND FREE ENERGY PREDICTED BY IDOCK:   -2.38 KCAL/MOL
REMARK 924 INTRA-LIGAND FREE ENERGY PREDICTED BY IDOCK:   -0.96 KCAL/MOL
REMARK 927      BINDING AFFINITY PREDICTED BY RF-SCORE:    0.00 PKD
ROOT
HETATM    1  C   UNL     1      -8.207  12.042  66.604  1.00  0.00    -0.056 C  
HETATM    2  C   UNL     1      -8.320  11.176  67.873  1.00  0.00    -0.129 C  
HETATM    3  C   UNL     1      -8.403   9.653  67.526  1.00  0.00    -0.118 C  
HETATM    4  C   UNL     1      -9.503  11.707  68.690  1.00  0.00    -0.129 C  
HETATM    5  C   UNL     1      -7.119   9.160  66.808  1.00  0.00    -0.082 C  
HETATM    6  C   UNL     1      -5.892   9.197  67.721  1.00  0.00    -0.042 C  
HETATM    7  C   UNL     1      -6.087   8.469  69.061  1.00  0.00    -0.043 C  
HETATM    8  C   UNL     1      -5.787   6.974  68.922  1.00  0.00    -0.019 C  
HETATM    9  C   UNL     1      -7.462   8.725  69.702  1.00  0.00    -0.071 C  
HETATM   10  C   UNL     1      -8.649   8.699  68.732  1.00  0.00    -0.130 C  
ENDROOT
BRANCH  10  11
HETATM   11  O   UNL     1      -8.865   7.388  68.147  1.00  0.00    -0.128 OA 
BRANCH  11  12
HETATM   12  C   UNL     1      -9.500   6.407  68.841  1.00  0.00    -0.128 C  
HETATM   13  O   UNL     1     -10.143   6.540  69.870  1.00  0.00    -0.169 OA 
BRANCH  12  14
HETATM   14  C   UNL     1      -9.302   5.122  68.110  1.00  0.00    -0.148 A  
HETATM   15  C   UNL     1      -8.949   5.170  66.746  1.00  0.00    -0.113 A  
HETATM   16  C   UNL     1      -8.773   3.998  66.011  1.00  0.00    -0.116 A  
HETATM   17  C   UNL     1      -8.935   2.764  66.637  1.00  0.00    -0.165 A  
HETATM   18  C   UNL     1      -9.291   2.710  67.987  1.00  0.00    -0.255 A  
HETATM   19  C   UNL     1      -9.529   3.878  68.733  1.00  0.00    -0.155 A  
HETATM   20  N   UNL     1      -9.748   3.742  70.117  1.00  0.00    -0.189 NA 
HETATM   21  H2  UNL     1     -10.526   4.354  70.365  1.00  0.00     0.000 HD 
HETATM   22  H1  UNL     1      -9.912   2.842  70.568  1.00  0.00     0.000 HD 
ENDBRANCH  12  14
ENDBRANCH  11  12
ENDBRANCH  10  11
TORSDOF 3
ENDMDL
MODEL      242
REMARK 921   NORMALIZED FREE ENERGY PREDICTED BY IDOCK:   -1.90 KCAL/MOL
REMARK 922        TOTAL FREE ENERGY PREDICTED BY IDOCK:   -3.15 KCAL/MOL
REMARK 923 INTER-LIGAND FREE ENERGY PREDICTED BY IDOCK:   -4.37 KCAL/MOL
REMARK 924 INTRA-LIGAND FREE ENERGY PREDICTED BY IDOCK:    1.22 KCAL/MOL
REMARK 927      BINDING AFFINITY PREDICTED BY RF-SCORE:    0.00 PKD
ROOT
HETATM    1  C   UNL     1     -12.621  11.004  70.493  1.00  0.00    -0.390 C  
HETATM    2  C   UNL     1     -11.326  11.713  70.054  1.00  0.00    -0.176 C  
HETATM    3  C   UNL     1     -11.590  12.730  68.895  1.00  0.00    -0.362 C  
HETATM    4  C   UNL     1     -10.294  10.629  69.727  1.00  0.00    -0.146 C  
HETATM    5  C   UNL     1     -12.549  13.866  69.338  1.00  0.00     0.112 C  
HETATM    6  C   UNL     1     -11.923  14.772  70.400  1.00  0.00    -0.368 C  
HETATM    7  C   UNL     1     -10.547  15.335  70.010  1.00  0.00    -0.288 C  
HETATM    8  C   UNL     1     -10.691  16.612  69.178  1.00  0.00    -0.342 C  
HETATM    9  C   UNL     1      -9.634  14.301  69.326  1.00  0.00     0.175 C  
HETATM   10  C   UNL     1     -10.324  13.406  68.291  1.00  0.00    -0.249 C  
ENDROOT
BRANCH  10  11
HETATM   11  O   UNL     1     -10.799  14.149  67.137  1.00  0.00    -0.285 OA 
BRANCH  11  12
HETATM   12  C   UNL     1     -10.023  14.298  66.031  1.00  0.00    -0.319 C  
HETATM   13  O   UNL     1     -10.267  13.889  64.908  1.00  0.00    -0.395 OA 
BRANCH  12  14
HETATM   14  C   UNL     1      -8.816  15.084  66.417  1.00  0.00    -0.238 A  
HETATM   15  C   UNL     1      -8.782  16.460  66.116  1.00  0.00    -0.347 A  
HETATM   16  C   UNL     1      -7.668  17.236  66.436  1.00  0.00    -0.347 A  
HETATM   17  C   UNL     1      -6.580  16.644  67.074  1.00  0.00    -0.239 A  
HETATM   18  C   UNL     1      -6.604  15.278  67.369  1.00  0.00    -0.120 A  
HETATM   19  C   UNL     1      -7.693  14.466  67.005  1.00  0.00     0.114 A  
HETATM   20  N   UNL     1      -7.701  13.133  67.459  1.00  0.00    -0.160 NA 
HETATM   21  H2  UNL     1      -7.998  12.546  66.679  1.00  0.00     0.000 HD 
HETATM   22  H1  UNL     1      -6.888  12.687  67.884  1.00  0.00     0.000 HD 
ENDBRANCH  12  14
ENDBRANCH  11  12
ENDBRANCH  10  11
TORSDOF 3
ENDMDL
MODEL      243
REMARK 921   NORMALIZED FREE ENERGY PREDICTED BY IDOCK:   -1.90 KCAL/MOL
REMARK 922        TOTAL FREE ENERGY PREDICTED BY IDOCK:   -3.15 KCAL/MOL
REMARK 923 INTER-LIGAND FREE ENERGY PREDICTED BY IDOCK:   -2.28 KCAL/MOL
REMARK 924 INTRA-LIGAND FREE ENERGY PREDICTED BY IDOCK:   -0.86 KCAL/MOL
REMARK 927      BINDING AFFINITY PREDICTED BY RF-SCORE:    0.00 PKD
ROOT
HETATM    1  C   UNL     1      -9.305   2.312  65.199  1.00  0.00    -0.053 C  
HETATM    2  C   UNL     1      -8.412   3.499  65.603  1.00  0.00    -0.108 C  
HETATM    3  C   UNL     1      -9.214   4.576  66.407  1.00  0.00    -0.137 C  
HETATM    4  C   UNL     1      -7.742   4.026  64.330  1.00  0.00    -0.084 C  
HETATM    5  C   UNL     1      -9.760   4.002  67.741  1.00  0.00    -0.155 C  
HETATM    6  C   UNL     1      -8.641   3.657  68.726  1.00  0.00    -0.118 C  
HETATM    7  C   UNL     1      -7.657   4.810  68.985  1.00  0.00    -0.067 C  
HETATM    8  C   UNL     1      -8.176   5.737  70.086  1.00  0.00    -0.116 C  
HETATM    9  C   UNL     1      -7.273   5.584  67.711  1.00  0.00    -0.072 C  
HETATM   10  C   UNL     1      -8.433   5.878  66.753  1.00  0.00    -0.109 C  
ENDROOT
BRANCH  10  11
HETATM   11  O   UNL     1      -9.419   6.776  67.326  1.00  0.00    -0.129 OA 
BRANCH  11  12
HETATM   12  C   UNL     1      -9.458   8.089  66.978  1.00  0.00    -0.174 C  
HETATM   13  O   UNL     1     -10.208   8.608  66.168  1.00  0.00    -0.210 OA 
BRANCH  12  14
HETATM   14  C   UNL     1      -8.432   8.811  67.785  1.00  0.00    -0.125 A  
HETATM   15  C   UNL     1      -7.259   9.255  67.142  1.00  0.00    -0.087 A  
HETATM   16  C   UNL     1      -6.258   9.916  67.855  1.00  0.00    -0.051 A  
HETATM   17  C   UNL     1      -6.427  10.150  69.217  1.00  0.00    -0.047 A  
HETATM   18  C   UNL     1      -7.584   9.706  69.862  1.00  0.00    -0.138 A  
HETATM   19  C   UNL     1      -8.580   8.989  69.175  1.00  0.00    -0.133 A  
HETATM   20  N   UNL     1      -9.774   8.698  69.863  1.00  0.00    -0.171 NA 
HETATM   21  H2  UNL     1     -10.021   7.730  69.651  1.00  0.00     0.000 HD 
HETATM   22  H1  UNL     1      -9.882   8.827  70.869  1.00  0.00     0.000 HD 
ENDBRANCH  12  14
ENDBRANCH  11  12
ENDBRANCH  10  11
TORSDOF 3
ENDMDL
MODEL      244
REMARK 921   NORMALIZED FREE ENERGY PREDICTED BY IDOCK:   -1.81 KCAL/MOL
REMARK 922        TOTAL FREE ENERGY PREDICTED BY IDOCK:   -3.04 KCAL/MOL
REMARK 923 INTER-LIGAND FREE ENERGY PREDICTED BY IDOCK:   -2.08 KCAL/MOL
REMARK 924 INTRA-LIGAND FREE ENERGY PREDICTED BY IDOCK:   -0.96 KCAL/MOL
REMARK 927      BINDING AFFINITY PREDICTED BY RF-SCORE:    0.00 PKD
ROOT
HETATM    1  C   UNL     1      -5.827  10.419  67.816  1.00  0.00    -0.044 C  
HETATM    2  C   UNL     1      -7.048   9.813  68.532  1.00  0.00    -0.068 C  
HETATM    3  C   UNL     1      -6.867   8.279  68.782  1.00  0.00    -0.062 C  
HETATM    4  C   UNL     1      -8.291  10.181  67.716  1.00  0.00    -0.114 C  
HETATM    5  C   UNL     1      -5.661   7.991  69.714  1.00  0.00    -0.023 C  
HETATM    6  C   UNL     1      -5.891   8.505  71.137  1.00  0.00    -0.036 C  
HETATM    7  C   UNL     1      -7.206   8.022  71.772  1.00  0.00    -0.079 C  
HETATM    8  C   UNL     1      -7.028   6.650  72.426  1.00  0.00    -0.068 C  
HETATM    9  C   UNL     1      -8.400   8.049  70.801  1.00  0.00    -0.115 C  
HETATM   10  C   UNL     1      -8.100   7.544  69.385  1.00  0.00    -0.128 C  
ENDROOT
BRANCH  10  11
HETATM   11  O   UNL     1      -7.760   6.133  69.354  1.00  0.00    -0.095 OA 
BRANCH  11  12
HETATM   12  C   UNL     1      -8.485   5.253  68.614  1.00  0.00    -0.088 C  
HETATM   13  O   UNL     1      -8.811   5.378  67.445  1.00  0.00    -0.108 OA 
BRANCH  12  14
HETATM   14  C   UNL     1      -8.798   4.076  69.474  1.00  0.00    -0.143 A  
HETATM   15  C   UNL     1      -9.068   4.291  70.840  1.00  0.00    -0.186 A  
HETATM   16  C   UNL     1      -9.346   3.222  71.692  1.00  0.00    -0.207 A  
HETATM   17  C   UNL     1      -9.369   1.926  71.182  1.00  0.00    -0.192 A  
HETATM   18  C   UNL     1      -9.095   1.705  69.830  1.00  0.00    -0.147 A  
HETATM   19  C   UNL     1      -8.757   2.762  68.965  1.00  0.00    -0.084 A  
HETATM   20  N   UNL     1      -8.630   2.474  67.593  1.00  0.00    -0.093 NA 
HETATM   21  H2  UNL     1      -7.798   2.958  67.255  1.00  0.00     0.000 HD 
HETATM   22  H1  UNL     1      -8.601   1.523  67.225  1.00  0.00     0.000 HD 
ENDBRANCH  12  14
ENDBRANCH  11  12
ENDBRANCH  10  11
TORSDOF 3
ENDMDL
MODEL      245
REMARK 921   NORMALIZED FREE ENERGY PREDICTED BY IDOCK:   -1.67 KCAL/MOL
REMARK 922        TOTAL FREE ENERGY PREDICTED BY IDOCK:   -2.87 KCAL/MOL
REMARK 923 INTER-LIGAND FREE ENERGY PREDICTED BY IDOCK:   -2.35 KCAL/MOL
REMARK 924 INTRA-LIGAND FREE ENERGY PREDICTED BY IDOCK:   -0.52 KCAL/MOL
REMARK 927      BINDING AFFINITY PREDICTED BY RF-SCORE:    0.00 PKD
ROOT
HETATM    1  C   UNL     1      -5.562  13.739  67.585  1.00  0.00    -0.001 C  
HETATM    2  C   UNL     1      -5.813  12.447  68.384  1.00  0.00    -0.056 C  
HETATM    3  C   UNL     1      -6.915  11.560  67.715  1.00  0.00    -0.078 C  
HETATM    4  C   UNL     1      -6.114  12.851  69.831  1.00  0.00    -0.126 C  
HETATM    5  C   UNL     1      -6.488  11.089  66.300  1.00  0.00    -0.112 C  
HETATM    6  C   UNL     1      -5.304  10.121  66.343  1.00  0.00    -0.046 C  
HETATM    7  C   UNL     1      -5.510   8.923  67.283  1.00  0.00    -0.038 C  
HETATM    8  C   UNL     1      -6.254   7.790  66.573  1.00  0.00    -0.046 C  
HETATM    9  C   UNL     1      -6.172   9.300  68.621  1.00  0.00    -0.045 C  
HETATM   10  C   UNL     1      -7.336  10.292  68.513  1.00  0.00    -0.082 C  
ENDROOT
BRANCH  10  11
HETATM   11  O   UNL     1      -8.473   9.745  67.795  1.00  0.00    -0.120 OA 
BRANCH  11  12
HETATM   12  C   UNL     1      -9.632  10.446  67.680  1.00  0.00    -0.149 C  
HETATM   13  O   UNL     1      -9.882  11.314  66.860  1.00  0.00    -0.189 OA 
BRANCH  12  14
HETATM   14  C   UNL     1     -10.576   9.950  68.723  1.00  0.00    -0.246 A  
HETATM   15  C   UNL     1     -10.513   8.593  69.100  1.00  0.00    -0.223 A  
HETATM   16  C   UNL     1     -11.387   8.073  70.054  1.00  0.00    -0.014 A  
HETATM   17  C   UNL     1     -12.326   8.910  70.652  1.00  0.00     0.086 A  
HETATM   18  C   UNL     1     -12.399  10.254  70.278  1.00  0.00    -0.267 A  
HETATM   19  C   UNL     1     -11.566  10.786  69.278  1.00  0.00    -0.305 A  
HETATM   20  N   UNL     1     -11.607  12.176  69.057  1.00  0.00    -0.296 NA 
HETATM   21  H2  UNL     1     -11.612  12.325  68.048  1.00  0.00     0.000 HD 
HETATM   22  H1  UNL     1     -12.323  12.782  69.459  1.00  0.00     0.000 HD 
ENDBRANCH  12  14
ENDBRANCH  11  12
ENDBRANCH  10  11
TORSDOF 3
ENDMDL
MODEL      246
REMARK 921   NORMALIZED FREE ENERGY PREDICTED BY IDOCK:    9.33 KCAL/MOL
REMARK 922        TOTAL FREE ENERGY PREDICTED BY IDOCK:   10.05 KCAL/MOL
REMARK 923 INTER-LIGAND FREE ENERGY PREDICTED BY IDOCK:    6.58 KCAL/MOL
REMARK 924 INTRA-LIGAND FREE ENERGY PREDICTED BY IDOCK:    3.47 KCAL/MOL
REMARK 927      BINDING AFFINITY PREDICTED BY RF-SCORE:    0.00 PKD
ROOT
HETATM    1  C   UNL     1      -9.325  13.532  69.902  1.00  0.00     2.243 C  
HETATM    2  C   UNL     1      -8.402  14.733  70.180  1.00  0.00     0.776 C  
HETATM    3  C   UNL     1      -8.255  15.650  68.921  1.00  0.00    -0.204 C  
HETATM    4  C   UNL     1      -7.080  14.182  70.723  1.00  0.00     1.085 C  
HETATM    5  C   UNL     1      -9.615  16.268  68.502  1.00  0.00    -0.222 C  
HETATM    6  C   UNL     1     -10.147  17.259  69.540  1.00  0.00     0.012 C  
HETATM    7  C   UNL     1      -9.142  18.354  69.932  1.00  0.00     1.355 C  
HETATM    8  C   UNL     1      -9.204  19.531  68.954  1.00  0.00    -0.368 C  
HETATM    9  C   UNL     1      -7.706  17.831  70.115  1.00  0.00     2.100 C  
HETATM   10  C   UNL     1      -7.240  16.823  69.058  1.00  0.00    -0.225 C  
ENDROOT
BRANCH  10  11
HETATM   11  O   UNL     1      -7.146  17.406  67.732  1.00  0.00    -0.165 OA 
BRANCH  11  12
HETATM   12  C   UNL     1      -7.680  16.779  66.651  1.00  0.00    -0.273 C  
HETATM   13  O   UNL     1      -7.290  15.741  66.143  1.00  0.00     0.374 OA 
BRANCH  12  14
HETATM   14  C   UNL     1      -8.860  17.570  66.196  1.00  0.00    -0.160 A  
HETATM   15  C   UNL     1      -8.711  18.959  66.009  1.00  0.00    -0.031 A  
HETATM   16  C   UNL     1      -9.788  19.747  65.605  1.00  0.00    -0.120 A  
HETATM   17  C   UNL     1     -11.025  19.151  65.371  1.00  0.00     0.231 A  
HETATM   18  C   UNL     1     -11.182  17.775  65.560  1.00  0.00     0.776 A  
HETATM   19  C   UNL     1     -10.124  16.971  66.021  1.00  0.00    -0.302 A  
HETATM   20  N   UNL     1     -10.324  15.577  66.054  1.00  0.00    -0.306 NA 
HETATM   21  H2  UNL     1      -9.943  15.235  66.937  1.00  0.00     0.000 HD 
HETATM   22  H1  UNL     1     -11.239  15.144  65.928  1.00  0.00     0.000 HD 
ENDBRANCH  12  14
ENDBRANCH  11  12
ENDBRANCH  10  11
TORSDOF 3
ENDMDL
MODEL      247
REMARK 921   NORMALIZED FREE ENERGY PREDICTED BY IDOCK:   49.73 KCAL/MOL
REMARK 922        TOTAL FREE ENERGY PREDICTED BY IDOCK:   57.53 KCAL/MOL
REMARK 923 INTER-LIGAND FREE ENERGY PREDICTED BY IDOCK:   54.59 KCAL/MOL
REMARK 924 INTRA-LIGAND FREE ENERGY PREDICTED BY IDOCK:    2.95 KCAL/MOL
REMARK 927      BINDING AFFINITY PREDICTED BY RF-SCORE:    0.00 PKD
ROOT
HETATM    1  C   UNL     1     -11.665  14.989  71.878  1.00  0.00    -0.454 C  
HETATM    2  C   UNL     1     -10.365  14.209  72.143  1.00  0.00     5.145 C  
HETATM    3  C   UNL     1      -9.318  14.428  71.002  1.00  0.00     3.707 C  
HETATM    4  C   UNL     1     -10.746  12.745  72.384  1.00  0.00    10.907 C  
HETATM    5  C   UNL     1      -8.889  15.915  70.897  1.00  0.00     3.088 C  
HETATM    6  C   UNL     1      -8.102  16.380  72.124  1.00  0.00    11.743 C  
HETATM    7  C   UNL     1      -6.902  15.484  72.473  1.00  0.00     4.199 C  
HETATM    8  C   UNL     1      -5.662  15.892  71.674  1.00  0.00     0.669 C  
HETATM    9  C   UNL     1      -7.203  13.980  72.346  1.00  0.00     4.619 C  
HETATM   10  C   UNL     1      -8.016  13.581  71.109  1.00  0.00     6.483 C  
ENDROOT
BRANCH  10  11
HETATM   11  O   UNL     1      -7.300  13.818  69.869  1.00  0.00     0.328 OA 
BRANCH  11  12
HETATM   12  C   UNL     1      -7.599  13.119  68.742  1.00  0.00    -0.033 C  
HETATM   13  O   UNL     1      -7.417  13.478  67.590  1.00  0.00    -0.151 OA 
BRANCH  12  14
HETATM   14  C   UNL     1      -8.170  11.804  69.153  1.00  0.00     0.281 A  
HETATM   15  C   UNL     1      -9.120  11.777  70.193  1.00  0.00     3.294 A  
HETATM   16  C   UNL     1      -9.670  10.572  70.631  1.00  0.00     1.313 A  
HETATM   17  C   UNL     1      -9.283   9.381  70.022  1.00  0.00    -0.245 A  
HETATM   18  C   UNL     1      -8.337   9.399  68.994  1.00  0.00    -0.124 A  
HETATM   19  C   UNL     1      -7.728  10.597  68.576  1.00  0.00    -0.107 A  
HETATM   20  N   UNL     1      -6.889  10.549  67.446  1.00  0.00    -0.075 NA 
HETATM   21  H2  UNL     1      -6.062  11.107  67.656  1.00  0.00     0.000 HD 
HETATM   22  H1  UNL     1      -6.570   9.675  67.028  1.00  0.00     0.000 HD 
ENDBRANCH  12  14
ENDBRANCH  11  12
ENDBRANCH  10  11
TORSDOF 3
ENDMDL
