MODEL        1
REMARK 921   NORMALIZED FREE ENERGY PREDICTED BY IDOCK:   -7.37 KCAL/MOL
REMARK 922        TOTAL FREE ENERGY PREDICTED BY IDOCK:  -10.07 KCAL/MOL
REMARK 923 INTER-LIGAND FREE ENERGY PREDICTED BY IDOCK:   -9.10 KCAL/MOL
REMARK 924 INTRA-LIGAND FREE ENERGY PREDICTED BY IDOCK:   -0.97 KCAL/MOL
REMARK 927      BINDING AFFINITY PREDICTED BY RF-SCORE:    0.00 PKD
ROOT
HETATM    1  C   UNL     1      -9.962  18.460  67.424  1.00  0.00    -0.347 C  
HETATM    2  C   UNL     1      -9.335  17.034  67.310  1.00  0.00    -0.237 C  
HETATM    3  C   UNL     1     -10.486  18.205  66.003  1.00  0.00    -0.335 C  
HETATM    4  N   UNL     1      -9.982  16.937  65.971  1.00  0.00    -0.311 N  
HETATM    5  C   UNL     1      -9.800  15.799  68.089  1.00  0.00    -0.209 C  
HETATM    6  O   UNL     1     -11.418  16.372  63.718  1.00  0.00    -1.002 OA 
HETATM    7  O   UNL     1     -11.152  18.772  65.169  1.00  0.00    -0.422 OA 
HETATM    8  C   UNL     1     -10.835  15.841  65.972  1.00  0.00    -0.255 C  
HETATM    9  O   UNL     1     -12.423  14.592  64.638  1.00  0.00    -0.527 OA 
HETATM   10  C   UNL     1     -11.657  15.535  64.755  1.00  0.00    -0.256 C  
HETATM   11  C   UNL     1     -10.778  15.156  67.131  1.00  0.00    -0.310 C  
HETATM   12  C   UNL     1     -10.334  16.167  69.466  1.00  0.00    -0.282 C  
ENDROOT
BRANCH   1  13
HETATM   13  C   UNL     1      -8.979  19.608  67.573  1.00  0.00    -0.317 C  
HETATM   14  C   UNL     1      -7.596  19.189  67.094  1.00  0.00    -0.250 C  
HETATM   15  O   UNL     1      -9.415  20.687  66.755  1.00  0.00    -0.617 OA 
HETATM   16  H   UNL     1      -8.801  21.405  66.848  1.00  0.00     0.000 HD 
ENDBRANCH   1  13
BRANCH  11  17
HETATM   17  S   UNL     1     -11.721  13.799  67.614  1.00  0.00    -0.383 SA 
BRANCH  17  18
HETATM   18  C   UNL     1     -10.605  12.354  67.469  1.00  0.00    -0.219 C  
HETATM   19  C   UNL     1     -11.160  11.112  66.783  1.00  0.00    -0.214 C  
HETATM   20  N   UNL     1     -11.720  10.318  67.867  1.00  0.00    -0.621 NA 
HETATM   21  H   UNL     1     -11.830   9.334  67.619  1.00  0.00     0.000 HD 
HETATM   22  C   UNL     1     -10.871  10.516  69.065  1.00  0.00    -0.232 C  
HETATM   23  C   UNL     1     -10.112  11.821  68.807  1.00  0.00    -0.153 C  
BRANCH  22  24
HETATM   24  C   UNL     1     -11.757  10.491  70.346  1.00  0.00    -0.344 C  
HETATM   25  O   UNL     1     -12.387  11.497  70.696  1.00  0.00    -0.361 OA 
HETATM   26  N   UNL     1     -11.868   9.305  71.062  1.00  0.00    -0.295 N  
HETATM   27  C   UNL     1     -11.265   8.030  70.706  1.00  0.00    -0.265 C  
HETATM   28  C   UNL     1     -12.652   9.291  72.290  1.00  0.00    -0.332 C  
ENDBRANCH  22  24
ENDBRANCH  17  18
ENDBRANCH  11  17
TORSDOF 4
ENDMDL
MODEL        2
REMARK 921   NORMALIZED FREE ENERGY PREDICTED BY IDOCK:   -7.11 KCAL/MOL
REMARK 922        TOTAL FREE ENERGY PREDICTED BY IDOCK:   -9.74 KCAL/MOL
REMARK 923 INTER-LIGAND FREE ENERGY PREDICTED BY IDOCK:   -8.84 KCAL/MOL
REMARK 924 INTRA-LIGAND FREE ENERGY PREDICTED BY IDOCK:   -0.91 KCAL/MOL
REMARK 927      BINDING AFFINITY PREDICTED BY RF-SCORE:    0.00 PKD
ROOT
HETATM    1  C   UNL     1     -11.171  12.446  68.623  1.00  0.00    -0.314 C  
HETATM    2  C   UNL     1     -11.864  13.845  68.584  1.00  0.00    -0.372 C  
HETATM    3  C   UNL     1     -11.787  12.242  67.230  1.00  0.00    -0.260 C  
HETATM    4  N   UNL     1     -12.316  13.501  67.206  1.00  0.00    -0.236 N  
HETATM    5  C   UNL     1     -11.137  15.188  68.460  1.00  0.00    -0.281 C  
HETATM    6  O   UNL     1     -12.871  13.266  64.542  1.00  0.00    -0.665 OA 
HETATM    7  O   UNL     1     -11.806  11.400  66.364  1.00  0.00    -0.304 OA 
HETATM    8  C   UNL     1     -11.822  14.456  66.327  1.00  0.00    -0.379 C  
HETATM    9  O   UNL     1     -11.719  15.111  63.999  1.00  0.00    -0.268 OA 
HETATM   10  C   UNL     1     -12.088  14.325  64.857  1.00  0.00    -0.435 C  
HETATM   11  C   UNL     1     -11.153  15.434  66.968  1.00  0.00    -0.273 C  
HETATM   12  C   UNL     1      -9.773  15.157  69.134  1.00  0.00    -0.232 C  
ENDROOT
BRANCH   1  13
HETATM   13  C   UNL     1     -11.652  11.496  69.705  1.00  0.00    -0.333 C  
HETATM   14  C   UNL     1     -12.366  12.265  70.808  1.00  0.00    -0.383 C  
HETATM   15  O   UNL     1     -12.586  10.589  69.131  1.00  0.00    -0.740 OA 
HETATM   16  H   UNL     1     -12.887   9.995  69.808  1.00  0.00     0.000 HD 
ENDBRANCH   1  13
BRANCH  11  17
HETATM   17  S   UNL     1     -10.294  16.761  66.286  1.00  0.00    -0.284 SA 
BRANCH  17  18
HETATM   18  C   UNL     1     -10.367  18.088  67.546  1.00  0.00    -0.385 C  
HETATM   19  C   UNL     1     -11.065  19.384  67.154  1.00  0.00    -0.176 C  
HETATM   20  N   UNL     1     -10.001  20.223  66.622  1.00  0.00    -0.509 NA 
HETATM   21  H   UNL     1     -10.243  21.215  66.624  1.00  0.00     0.000 HD 
HETATM   22  C   UNL     1      -8.764  19.932  67.386  1.00  0.00    -0.336 C  
HETATM   23  C   UNL     1      -9.001  18.560  68.023  1.00  0.00    -0.319 C  
BRANCH  22  24
HETATM   24  C   UNL     1      -7.529  20.038  66.444  1.00  0.00    -0.288 C  
HETATM   25  O   UNL     1      -7.638  19.808  65.232  1.00  0.00    -0.353 OA 
HETATM   26  N   UNL     1      -6.311  20.445  66.976  1.00  0.00    -0.200 N  
HETATM   27  C   UNL     1      -6.070  20.841  68.354  1.00  0.00    -0.343 C  
HETATM   28  C   UNL     1      -5.141  20.493  66.109  1.00  0.00    -0.167 C  
ENDBRANCH  22  24
ENDBRANCH  17  18
ENDBRANCH  11  17
TORSDOF 4
ENDMDL
MODEL        3
REMARK 921   NORMALIZED FREE ENERGY PREDICTED BY IDOCK:   -7.03 KCAL/MOL
REMARK 922        TOTAL FREE ENERGY PREDICTED BY IDOCK:   -9.64 KCAL/MOL
REMARK 923 INTER-LIGAND FREE ENERGY PREDICTED BY IDOCK:   -8.57 KCAL/MOL
REMARK 924 INTRA-LIGAND FREE ENERGY PREDICTED BY IDOCK:   -1.07 KCAL/MOL
REMARK 927      BINDING AFFINITY PREDICTED BY RF-SCORE:    0.00 PKD
ROOT
HETATM    1  C   UNL     1      -9.038  17.666  68.085  1.00  0.00    -0.276 C  
HETATM    2  C   UNL     1      -8.272  16.655  67.173  1.00  0.00    -0.179 C  
HETATM    3  C   UNL     1      -9.971  17.852  66.879  1.00  0.00    -0.335 C  
HETATM    4  N   UNL     1      -9.315  16.910  66.140  1.00  0.00    -0.261 N  
HETATM    5  C   UNL     1      -8.241  15.136  67.369  1.00  0.00    -0.215 C  
HETATM    6  O   UNL     1     -11.329  16.887  64.295  1.00  0.00    -1.202 OA 
HETATM    7  O   UNL     1     -10.963  18.479  66.591  1.00  0.00    -0.171 OA 
HETATM    8  C   UNL     1      -9.932  15.705  65.829  1.00  0.00    -0.359 C  
HETATM    9  O   UNL     1     -11.664  14.679  64.484  1.00  0.00    -0.412 OA 
HETATM   10  C   UNL     1     -11.063  15.678  64.844  1.00  0.00    -0.402 C  
HETATM   11  C   UNL     1      -9.374  14.667  66.483  1.00  0.00    -0.288 C  
HETATM   12  C   UNL     1      -8.320  14.754  68.840  1.00  0.00    -0.163 C  
ENDROOT
BRANCH   1  13
HETATM   13  C   UNL     1      -8.259  18.895  68.516  1.00  0.00    -0.353 C  
HETATM   14  C   UNL     1      -6.765  18.673  68.321  1.00  0.00    -0.237 C  
HETATM   15  O   UNL     1      -8.648  19.990  67.696  1.00  0.00    -0.322 OA 
HETATM   16  H   UNL     1      -8.160  20.759  67.966  1.00  0.00     0.000 HD 
ENDBRANCH   1  13
BRANCH  11  17
HETATM   17  S   UNL     1      -9.867  13.018  66.483  1.00  0.00    -0.267 SA 
BRANCH  17  18
HETATM   18  C   UNL     1     -11.504  13.000  67.304  1.00  0.00    -0.332 C  
HETATM   19  C   UNL     1     -11.666  13.855  68.554  1.00  0.00    -0.355 C  
HETATM   20  N   UNL     1     -11.329  12.960  69.652  1.00  0.00    -0.474 NA 
HETATM   21  H   UNL     1     -11.699  13.279  70.548  1.00  0.00     0.000 HD 
HETATM   22  C   UNL     1     -11.791  11.599  69.292  1.00  0.00    -0.331 C  
HETATM   23  C   UNL     1     -11.944  11.618  67.768  1.00  0.00    -0.119 C  
BRANCH  22  24
HETATM   24  C   UNL     1     -10.800  10.541  69.859  1.00  0.00    -0.276 C  
HETATM   25  O   UNL     1      -9.666  10.417  69.378  1.00  0.00    -0.217 OA 
HETATM   26  N   UNL     1     -11.191   9.771  70.949  1.00  0.00    -0.332 N  
HETATM   27  C   UNL     1     -12.449   9.884  71.669  1.00  0.00    -0.415 C  
HETATM   28  C   UNL     1     -10.287   8.742  71.449  1.00  0.00    -0.278 C  
ENDBRANCH  22  24
ENDBRANCH  17  18
ENDBRANCH  11  17
TORSDOF 4
ENDMDL
MODEL        4
REMARK 921   NORMALIZED FREE ENERGY PREDICTED BY IDOCK:   -6.95 KCAL/MOL
REMARK 922        TOTAL FREE ENERGY PREDICTED BY IDOCK:   -9.55 KCAL/MOL
REMARK 923 INTER-LIGAND FREE ENERGY PREDICTED BY IDOCK:   -8.89 KCAL/MOL
REMARK 924 INTRA-LIGAND FREE ENERGY PREDICTED BY IDOCK:   -0.66 KCAL/MOL
REMARK 927      BINDING AFFINITY PREDICTED BY RF-SCORE:    0.00 PKD
ROOT
HETATM    1  C   UNL     1     -10.065  16.651  66.138  1.00  0.00    -0.361 C  
HETATM    2  C   UNL     1      -9.445  15.217  66.097  1.00  0.00    -0.326 C  
HETATM    3  C   UNL     1     -10.917  16.179  64.950  1.00  0.00    -0.349 C  
HETATM    4  N   UNL     1     -10.400  14.916  64.993  1.00  0.00    -0.392 N  
HETATM    5  C   UNL     1      -9.667  14.127  67.151  1.00  0.00    -0.248 C  
HETATM    6  O   UNL     1     -12.332  14.016  63.285  1.00  0.00    -0.718 OA 
HETATM    7  O   UNL     1     -11.784  16.613  64.230  1.00  0.00    -0.858 OA 
HETATM    8  C   UNL     1     -11.194  13.843  65.378  1.00  0.00    -0.306 C  
HETATM    9  O   UNL     1     -13.026  12.416  64.693  1.00  0.00    -0.793 OA 
HETATM   10  C   UNL     1     -12.282  13.357  64.467  1.00  0.00    -0.398 C  
HETATM   11  C   UNL     1     -10.833  13.350  66.579  1.00  0.00    -0.282 C  
HETATM   12  C   UNL     1      -9.854  14.715  68.542  1.00  0.00    -0.228 C  
ENDROOT
BRANCH   1  13
HETATM   13  C   UNL     1      -9.110  17.796  65.856  1.00  0.00     0.144 C  
HETATM   14  C   UNL     1      -9.266  18.889  66.904  1.00  0.00    -0.322 C  
HETATM   15  O   UNL     1      -7.777  17.305  65.933  1.00  0.00    -0.480 OA 
HETATM   16  H   UNL     1      -7.180  18.022  65.756  1.00  0.00     0.000 HD 
ENDBRANCH   1  13
BRANCH  11  17
HETATM   17  S   UNL     1     -11.587  12.099  67.488  1.00  0.00    -0.323 SA 
BRANCH  17  18
HETATM   18  C   UNL     1     -10.269  10.867  67.808  1.00  0.00    -0.180 C  
HETATM   19  C   UNL     1     -10.523   9.439  67.344  1.00  0.00    -0.278 C  
HETATM   20  N   UNL     1     -11.134   8.787  68.495  1.00  0.00    -0.412 NA 
HETATM   21  H   UNL     1     -11.062   7.770  68.456  1.00  0.00     0.000 HD 
HETATM   22  C   UNL     1     -10.527   9.359  69.720  1.00  0.00    -0.226 C  
HETATM   23  C   UNL     1      -9.929  10.699  69.282  1.00  0.00    -0.215 C  
BRANCH  22  24
HETATM   24  C   UNL     1     -11.596   9.433  70.850  1.00  0.00    -0.312 C  
HETATM   25  O   UNL     1     -12.176  10.497  71.101  1.00  0.00    -0.346 OA 
HETATM   26  N   UNL     1     -11.926   8.271  71.538  1.00  0.00    -0.286 N  
HETATM   27  C   UNL     1     -11.398   6.942  71.276  1.00  0.00    -0.279 C  
HETATM   28  C   UNL     1     -12.886   8.345  72.632  1.00  0.00    -0.119 C  
ENDBRANCH  22  24
ENDBRANCH  17  18
ENDBRANCH  11  17
TORSDOF 4
ENDMDL
MODEL        5
REMARK 921   NORMALIZED FREE ENERGY PREDICTED BY IDOCK:   -6.93 KCAL/MOL
REMARK 922        TOTAL FREE ENERGY PREDICTED BY IDOCK:   -9.52 KCAL/MOL
REMARK 923 INTER-LIGAND FREE ENERGY PREDICTED BY IDOCK:   -8.92 KCAL/MOL
REMARK 924 INTRA-LIGAND FREE ENERGY PREDICTED BY IDOCK:   -0.59 KCAL/MOL
REMARK 927      BINDING AFFINITY PREDICTED BY RF-SCORE:    0.00 PKD
ROOT
HETATM    1  C   UNL     1     -10.669  11.888  66.710  1.00  0.00    -0.282 C  
HETATM    2  C   UNL     1     -11.300  13.162  67.358  1.00  0.00    -0.306 C  
HETATM    3  C   UNL     1     -11.432  12.309  65.444  1.00  0.00    -0.354 C  
HETATM    4  N   UNL     1     -11.906  13.449  66.026  1.00  0.00    -0.363 N  
HETATM    5  C   UNL     1     -10.531  14.429  67.748  1.00  0.00    -0.245 C  
HETATM    6  O   UNL     1     -12.740  14.395  63.604  1.00  0.00    -0.773 OA 
HETATM    7  O   UNL     1     -11.577  11.927  64.307  1.00  0.00    -0.348 OA 
HETATM    8  C   UNL     1     -11.462  14.694  65.599  1.00  0.00    -0.340 C  
HETATM    9  O   UNL     1     -11.569  16.298  63.788  1.00  0.00    -0.952 OA 
HETATM   10  C   UNL     1     -11.882  15.215  64.257  1.00  0.00    -0.251 C  
HETATM   11  C   UNL     1     -10.689  15.300  66.521  1.00  0.00    -0.311 C  
HETATM   12  C   UNL     1      -9.108  14.114  68.185  1.00  0.00    -0.193 C  
ENDROOT
BRANCH   1  13
HETATM   13  C   UNL     1     -11.078  10.561  67.320  1.00  0.00    -0.213 C  
HETATM   14  C   UNL     1      -9.913   9.944  68.082  1.00  0.00    -0.175 C  
HETATM   15  O   UNL     1     -12.132  10.792  68.248  1.00  0.00    -0.805 OA 
HETATM   16  H   UNL     1     -12.387   9.961  68.630  1.00  0.00     0.000 HD 
ENDBRANCH   1  13
BRANCH  11  17
HETATM   17  S   UNL     1      -9.847  16.796  66.390  1.00  0.00    -0.312 SA 
BRANCH  17  18
HETATM   18  C   UNL     1      -9.640  17.391  68.110  1.00  0.00    -0.287 C  
HETATM   19  C   UNL     1     -10.520  18.551  68.556  1.00  0.00    -0.168 C  
HETATM   20  N   UNL     1      -9.730  19.739  68.263  1.00  0.00    -0.384 NA 
HETATM   21  H   UNL     1     -10.035  20.556  68.793  1.00  0.00     0.000 HD 
HETATM   22  C   UNL     1      -8.304  19.407  68.489  1.00  0.00    -0.363 C  
HETATM   23  C   UNL     1      -8.234  17.878  68.427  1.00  0.00    -0.303 C  
BRANCH  22  24
HETATM   24  C   UNL     1      -7.418  20.167  67.458  1.00  0.00    -0.297 C  
HETATM   25  O   UNL     1      -7.871  20.483  66.350  1.00  0.00    -0.177 OA 
HETATM   26  N   UNL     1      -6.127  20.531  67.821  1.00  0.00    -0.238 N  
HETATM   27  C   UNL     1      -5.510  20.312  69.120  1.00  0.00    -0.254 C  
HETATM   28  C   UNL     1      -5.276  21.194  66.841  1.00  0.00    -0.227 C  
ENDBRANCH  22  24
ENDBRANCH  17  18
ENDBRANCH  11  17
TORSDOF 4
ENDMDL
MODEL        6
REMARK 921   NORMALIZED FREE ENERGY PREDICTED BY IDOCK:   -6.74 KCAL/MOL
REMARK 922        TOTAL FREE ENERGY PREDICTED BY IDOCK:   -9.29 KCAL/MOL
REMARK 923 INTER-LIGAND FREE ENERGY PREDICTED BY IDOCK:   -8.34 KCAL/MOL
REMARK 924 INTRA-LIGAND FREE ENERGY PREDICTED BY IDOCK:   -0.95 KCAL/MOL
REMARK 927      BINDING AFFINITY PREDICTED BY RF-SCORE:    0.00 PKD
ROOT
HETATM    1  C   UNL     1     -11.325  14.972  65.534  1.00  0.00    -0.312 C  
HETATM    2  C   UNL     1      -9.841  14.504  65.670  1.00  0.00    -0.305 C  
HETATM    3  C   UNL     1     -11.446  13.858  64.482  1.00  0.00    -0.381 C  
HETATM    4  N   UNL     1     -10.164  13.435  64.683  1.00  0.00    -0.358 N  
HETATM    5  C   UNL     1      -9.250  13.784  66.887  1.00  0.00    -0.263 C  
HETATM    6  O   UNL     1     -10.639  11.161  63.247  1.00  0.00    -0.343 OA 
HETATM    7  O   UNL     1     -12.290  13.386  63.758  1.00  0.00    -0.644 OA 
HETATM    8  C   UNL     1      -9.914  12.202  65.270  1.00  0.00    -0.237 C  
HETATM    9  O   UNL     1     -10.004   9.808  64.918  1.00  0.00    -0.252 OA 
HETATM   10  C   UNL     1     -10.201  10.942  64.509  1.00  0.00    -0.356 C  
HETATM   11  C   UNL     1      -9.396  12.326  66.508  1.00  0.00    -0.230 C  
HETATM   12  C   UNL     1      -9.916  14.223  68.183  1.00  0.00    -0.230 C  
ENDROOT
BRANCH   1  13
HETATM   13  C   UNL     1     -11.532  16.387  65.027  1.00  0.00     0.118 C  
HETATM   14  C   UNL     1     -10.382  17.283  65.468  1.00  0.00    -0.108 C  
HETATM   15  O   UNL     1     -11.544  16.363  63.604  1.00  0.00    -1.514 OA 
HETATM   16  H   UNL     1     -11.673  17.249  63.287  1.00  0.00     0.000 HD 
ENDBRANCH   1  13
BRANCH  11  17
HETATM   17  S   UNL     1      -9.024  11.082  67.638  1.00  0.00    -0.143 SA 
BRANCH  17  18
HETATM   18  C   UNL     1     -10.631  10.309  68.058  1.00  0.00    -0.231 C  
HETATM   19  C   UNL     1     -11.578  11.109  68.942  1.00  0.00    -0.317 C  
HETATM   20  N   UNL     1     -11.250  10.690  70.298  1.00  0.00    -0.383 NA 
HETATM   21  H   UNL     1     -12.000  10.883  70.963  1.00  0.00     0.000 HD 
HETATM   22  C   UNL     1     -10.875   9.257  70.255  1.00  0.00    -0.246 C  
HETATM   23  C   UNL     1     -10.502   8.984  68.795  1.00  0.00    -0.230 C  
BRANCH  22  24
HETATM   24  C   UNL     1      -9.758   8.976  71.303  1.00  0.00    -0.301 C  
HETATM   25  O   UNL     1      -8.652   9.523  71.208  1.00  0.00    -0.247 OA 
HETATM   26  N   UNL     1     -10.039   8.138  72.376  1.00  0.00    -0.257 N  
HETATM   27  C   UNL     1     -11.322   7.514  72.661  1.00  0.00    -0.344 C  
HETATM   28  C   UNL     1      -8.981   7.829  73.329  1.00  0.00    -0.231 C  
ENDBRANCH  22  24
ENDBRANCH  17  18
ENDBRANCH  11  17
TORSDOF 4
ENDMDL
MODEL        7
REMARK 921   NORMALIZED FREE ENERGY PREDICTED BY IDOCK:   -6.61 KCAL/MOL
REMARK 922        TOTAL FREE ENERGY PREDICTED BY IDOCK:   -9.13 KCAL/MOL
REMARK 923 INTER-LIGAND FREE ENERGY PREDICTED BY IDOCK:   -8.22 KCAL/MOL
REMARK 924 INTRA-LIGAND FREE ENERGY PREDICTED BY IDOCK:   -0.91 KCAL/MOL
REMARK 927      BINDING AFFINITY PREDICTED BY RF-SCORE:    0.00 PKD
ROOT
HETATM    1  C   UNL     1     -11.099  10.412  70.023  1.00  0.00    -0.379 C  
HETATM    2  C   UNL     1     -11.963  11.042  68.884  1.00  0.00    -0.262 C  
HETATM    3  C   UNL     1     -10.596   9.450  68.935  1.00  0.00    -0.208 C  
HETATM    4  N   UNL     1     -11.313  10.075  67.955  1.00  0.00    -0.127 N  
HETATM    5  C   UNL     1     -11.738  12.428  68.269  1.00  0.00    -0.398 C  
HETATM    6  O   UNL     1      -9.948   8.712  66.022  1.00  0.00    -0.222 OA 
HETATM    7  O   UNL     1      -9.823   8.528  68.830  1.00  0.00    -0.168 OA 
HETATM    8  C   UNL     1     -10.665  10.790  66.956  1.00  0.00    -0.265 C  
HETATM    9  O   UNL     1      -9.290  10.582  64.975  1.00  0.00    -0.188 OA 
HETATM   10  C   UNL     1      -9.882  10.060  65.906  1.00  0.00    -0.264 C  
HETATM   11  C   UNL     1     -10.867  12.117  67.071  1.00  0.00    -0.247 C  
HETATM   12  C   UNL     1     -11.180  13.414  69.284  1.00  0.00    -0.275 C  
ENDROOT
BRANCH   1  13
HETATM   13  C   UNL     1     -11.869   9.775  71.166  1.00  0.00    -0.382 C  
HETATM   14  C   UNL     1     -13.025  10.669  71.591  1.00  0.00    -0.582 C  
HETATM   15  O   UNL     1     -12.415   8.541  70.714  1.00  0.00    -0.499 OA 
HETATM   16  H   UNL     1     -12.896   8.143  71.429  1.00  0.00     0.000 HD 
ENDBRANCH   1  13
BRANCH  11  17
HETATM   17  S   UNL     1     -10.187  13.384  66.126  1.00  0.00    -0.306 SA 
BRANCH  17  18
HETATM   18  C   UNL     1     -11.515  14.635  65.961  1.00  0.00    -0.332 C  
HETATM   19  C   UNL     1     -11.801  15.167  64.562  1.00  0.00    -0.330 C  
HETATM   20  N   UNL     1     -10.952  16.344  64.441  1.00  0.00    -1.115 NA 
HETATM   21  H   UNL     1     -11.265  16.983  63.709  1.00  0.00     0.000 HD 
HETATM   22  C   UNL     1     -10.875  16.991  65.773  1.00  0.00    -0.046 C  
HETATM   23  C   UNL     1     -11.272  15.900  66.771  1.00  0.00     0.035 C  
BRANCH  22  24
HETATM   24  C   UNL     1      -9.460  17.610  65.974  1.00  0.00    -0.066 C  
HETATM   25  O   UNL     1      -8.443  16.920  65.828  1.00  0.00    -0.492 OA 
HETATM   26  N   UNL     1      -9.356  18.964  66.272  1.00  0.00    -0.317 N  
HETATM   27  C   UNL     1     -10.459  19.906  66.371  1.00  0.00    -0.475 C  
HETATM   28  C   UNL     1      -8.037  19.535  66.514  1.00  0.00    -0.310 C  
ENDBRANCH  22  24
ENDBRANCH  17  18
ENDBRANCH  11  17
TORSDOF 4
ENDMDL
MODEL        8
REMARK 921   NORMALIZED FREE ENERGY PREDICTED BY IDOCK:   -6.51 KCAL/MOL
REMARK 922        TOTAL FREE ENERGY PREDICTED BY IDOCK:   -9.00 KCAL/MOL
REMARK 923 INTER-LIGAND FREE ENERGY PREDICTED BY IDOCK:   -8.51 KCAL/MOL
REMARK 924 INTRA-LIGAND FREE ENERGY PREDICTED BY IDOCK:   -0.49 KCAL/MOL
REMARK 927      BINDING AFFINITY PREDICTED BY RF-SCORE:    0.00 PKD
ROOT
HETATM    1  C   UNL     1      -9.273  10.686  65.572  1.00  0.00    -0.228 C  
HETATM    2  C   UNL     1     -10.642  10.691  66.324  1.00  0.00    -0.161 C  
HETATM    3  C   UNL     1     -10.041  11.371  64.431  1.00  0.00    -0.291 C  
HETATM    4  N   UNL     1     -11.201  11.420  65.150  1.00  0.00    -0.143 N  
HETATM    5  C   UNL     1     -10.975  11.553  67.547  1.00  0.00    -0.308 C  
HETATM    6  O   UNL     1     -12.313  13.124  63.328  1.00  0.00    -0.712 OA 
HETATM    7  O   UNL     1      -9.819  11.815  63.330  1.00  0.00    -0.392 OA 
HETATM    8  C   UNL     1     -11.707  12.638  65.587  1.00  0.00    -0.412 C  
HETATM    9  O   UNL     1     -12.779  14.686  64.868  1.00  0.00    -0.504 OA 
HETATM   10  C   UNL     1     -12.291  13.600  64.596  1.00  0.00    -0.371 C  
HETATM   11  C   UNL     1     -11.615  12.774  66.924  1.00  0.00    -0.366 C  
HETATM   12  C   UNL     1      -9.752  11.792  68.420  1.00  0.00    -0.197 C  
ENDROOT
BRANCH   1  13
HETATM   13  C   UNL     1      -8.695   9.319  65.254  1.00  0.00    -0.184 C  
HETATM   14  C   UNL     1      -9.276   8.266  66.187  1.00  0.00    -0.250 C  
HETATM   15  O   UNL     1      -9.058   8.971  63.923  1.00  0.00    -0.421 OA 
HETATM   16  H   UNL     1      -8.696   8.116  63.724  1.00  0.00     0.000 HD 
ENDBRANCH   1  13
BRANCH  11  17
HETATM   17  S   UNL     1     -12.022  14.142  67.886  1.00  0.00    -0.288 SA 
BRANCH  17  18
HETATM   18  C   UNL     1     -10.428  14.775  68.532  1.00  0.00    -0.249 C  
HETATM   19  C   UNL     1     -10.491  15.847  69.611  1.00  0.00    -0.295 C  
HETATM   20  N   UNL     1     -10.463  17.104  68.877  1.00  0.00    -0.348 NA 
HETATM   21  H   UNL     1     -10.173  17.893  69.456  1.00  0.00     0.000 HD 
HETATM   22  C   UNL     1      -9.602  16.918  67.685  1.00  0.00    -0.248 C  
HETATM   23  C   UNL     1      -9.541  15.404  67.467  1.00  0.00    -0.206 C  
BRANCH  22  24
HETATM   24  C   UNL     1     -10.165  17.751  66.496  1.00  0.00    -0.358 C  
HETATM   25  O   UNL     1     -10.645  17.188  65.503  1.00  0.00    -0.563 OA 
HETATM   26  N   UNL     1     -10.167  19.138  66.588  1.00  0.00    -0.378 N  
HETATM   27  C   UNL     1      -9.730  19.919  67.734  1.00  0.00    -0.392 C  
HETATM   28  C   UNL     1     -10.644  19.922  65.456  1.00  0.00    -0.237 C  
ENDBRANCH  22  24
ENDBRANCH  17  18
ENDBRANCH  11  17
TORSDOF 4
ENDMDL
MODEL        9
REMARK 921   NORMALIZED FREE ENERGY PREDICTED BY IDOCK:   -6.45 KCAL/MOL
REMARK 922        TOTAL FREE ENERGY PREDICTED BY IDOCK:   -8.93 KCAL/MOL
REMARK 923 INTER-LIGAND FREE ENERGY PREDICTED BY IDOCK:   -7.92 KCAL/MOL
REMARK 924 INTRA-LIGAND FREE ENERGY PREDICTED BY IDOCK:   -1.01 KCAL/MOL
REMARK 927      BINDING AFFINITY PREDICTED BY RF-SCORE:    0.00 PKD
ROOT
HETATM    1  C   UNL     1     -10.499  12.835  65.934  1.00  0.00    -0.295 C  
HETATM    2  C   UNL     1     -11.527  11.843  66.568  1.00  0.00    -0.314 C  
HETATM    3  C   UNL     1     -11.146  13.889  66.846  1.00  0.00    -0.301 C  
HETATM    4  N   UNL     1     -11.979  12.975  67.425  1.00  0.00    -0.351 N  
HETATM    5  C   UNL     1     -11.177  10.704  67.531  1.00  0.00    -0.326 C  
HETATM    6  O   UNL     1     -12.655  14.761  69.379  1.00  0.00    -0.115 OA 
HETATM    7  O   UNL     1     -11.016  15.061  67.107  1.00  0.00    -0.315 OA 
HETATM    8  C   UNL     1     -11.811  12.615  68.756  1.00  0.00    -0.300 C  
HETATM    9  O   UNL     1     -12.053  13.381  71.040  1.00  0.00    -0.296 OA 
HETATM   10  C   UNL     1     -12.144  13.595  69.842  1.00  0.00    -0.341 C  
HETATM   11  C   UNL     1     -11.367  11.349  68.886  1.00  0.00    -0.270 C  
HETATM   12  C   UNL     1      -9.803  10.119  67.238  1.00  0.00    -0.226 C  
ENDROOT
BRANCH   1  13
HETATM   13  C   UNL     1     -10.640  13.074  64.442  1.00  0.00    -0.409 C  
HETATM   14  C   UNL     1     -11.700  12.152  63.853  1.00  0.00    -0.546 C  
HETATM   15  O   UNL     1     -11.066  14.416  64.235  1.00  0.00    -0.606 OA 
HETATM   16  H   UNL     1     -11.155  14.565  63.301  1.00  0.00     0.000 HD 
ENDBRANCH   1  13
BRANCH  11  17
HETATM   17  S   UNL     1     -10.928  10.516  70.327  1.00  0.00    -0.153 SA 
BRANCH  17  18
HETATM   18  C   UNL     1     -12.266   9.298  70.611  1.00  0.00    -0.048 C  
HETATM   19  C   UNL     1     -13.181   9.534  71.806  1.00  0.00    -0.422 C  
HETATM   20  N   UNL     1     -12.553   8.800  72.895  1.00  0.00    -0.504 NA 
HETATM   21  H   UNL     1     -13.201   8.593  73.656  1.00  0.00     0.000 HD 
HETATM   22  C   UNL     1     -11.929   7.582  72.326  1.00  0.00    -0.263 C  
HETATM   23  C   UNL     1     -11.767   7.877  70.832  1.00  0.00    -0.271 C  
BRANCH  22  24
HETATM   24  C   UNL     1     -10.616   7.255  73.097  1.00  0.00    -0.355 C  
HETATM   25  O   UNL     1      -9.802   8.149  73.363  1.00  0.00    -0.237 OA 
HETATM   26  N   UNL     1     -10.397   5.952  73.528  1.00  0.00    -0.226 N  
HETATM   27  C   UNL     1     -11.314   4.834  73.372  1.00  0.00    -0.312 C  
HETATM   28  C   UNL     1      -9.146   5.631  74.203  1.00  0.00    -0.122 C  
ENDBRANCH  22  24
ENDBRANCH  17  18
ENDBRANCH  11  17
TORSDOF 4
ENDMDL
MODEL       10
REMARK 921   NORMALIZED FREE ENERGY PREDICTED BY IDOCK:   -6.45 KCAL/MOL
REMARK 922        TOTAL FREE ENERGY PREDICTED BY IDOCK:   -8.93 KCAL/MOL
REMARK 923 INTER-LIGAND FREE ENERGY PREDICTED BY IDOCK:   -8.00 KCAL/MOL
REMARK 924 INTRA-LIGAND FREE ENERGY PREDICTED BY IDOCK:   -0.93 KCAL/MOL
REMARK 927      BINDING AFFINITY PREDICTED BY RF-SCORE:    0.00 PKD
ROOT
HETATM    1  C   UNL     1      -8.755  18.251  66.458  1.00  0.00    -0.290 C  
HETATM    2  C   UNL     1      -9.720  17.558  67.474  1.00  0.00    -0.278 C  
HETATM    3  C   UNL     1      -7.671  18.013  67.520  1.00  0.00    -0.213 C  
HETATM    4  N   UNL     1      -8.531  17.351  68.348  1.00  0.00    -0.256 N  
HETATM    5  C   UNL     1     -10.350  16.173  67.290  1.00  0.00    -0.287 C  
HETATM    6  O   UNL     1      -6.451  16.482  69.891  1.00  0.00    -0.192 OA 
HETATM    7  O   UNL     1      -6.487  18.206  67.663  1.00  0.00    -0.184 OA 
HETATM    8  C   UNL     1      -8.381  15.988  68.574  1.00  0.00    -0.191 C  
HETATM    9  O   UNL     1      -7.006  14.322  69.666  1.00  0.00    -0.122 OA 
HETATM   10  C   UNL     1      -7.226  15.491  69.390  1.00  0.00    -0.204 C  
HETATM   11  C   UNL     1      -9.372  15.270  68.010  1.00  0.00    -0.197 C  
HETATM   12  C   UNL     1     -10.616  15.863  65.825  1.00  0.00    -0.368 C  
ENDROOT
BRANCH   1  13
HETATM   13  C   UNL     1      -9.061  19.702  66.136  1.00  0.00    -0.332 C  
HETATM   14  C   UNL     1     -10.222  20.202  66.984  1.00  0.00    -0.558 C  
HETATM   15  O   UNL     1      -7.918  20.488  66.454  1.00  0.00    -0.507 OA 
HETATM   16  H   UNL     1      -8.109  21.396  66.253  1.00  0.00     0.000 HD 
ENDBRANCH   1  13
BRANCH  11  17
HETATM   17  S   UNL     1      -9.545  13.559  67.948  1.00  0.00    -0.224 SA 
BRANCH  17  18
HETATM   18  C   UNL     1     -11.337  13.243  68.162  1.00  0.00    -0.288 C  
HETATM   19  C   UNL     1     -11.994  13.785  69.425  1.00  0.00    -0.347 C  
HETATM   20  N   UNL     1     -11.890  12.694  70.385  1.00  0.00    -0.549 NA 
HETATM   21  H   UNL     1     -12.559  12.779  71.151  1.00  0.00     0.000 HD 
HETATM   22  C   UNL     1     -12.025  11.418  69.643  1.00  0.00    -0.348 C  
HETATM   23  C   UNL     1     -11.702  11.765  68.187  1.00  0.00    -0.377 C  
BRANCH  22  24
HETATM   24  C   UNL     1     -11.120  10.333  70.297  1.00  0.00    -0.319 C  
HETATM   25  O   UNL     1      -9.948  10.184  69.929  1.00  0.00    -0.242 OA 
HETATM   26  N   UNL     1     -11.634   9.567  71.337  1.00  0.00    -0.369 N  
HETATM   27  C   UNL     1     -12.954   9.708  71.932  1.00  0.00    -0.435 C  
HETATM   28  C   UNL     1     -10.810   8.515  71.916  1.00  0.00    -0.322 C  
ENDBRANCH  22  24
ENDBRANCH  17  18
ENDBRANCH  11  17
TORSDOF 4
ENDMDL
MODEL       11
REMARK 921   NORMALIZED FREE ENERGY PREDICTED BY IDOCK:   -6.44 KCAL/MOL
REMARK 922        TOTAL FREE ENERGY PREDICTED BY IDOCK:   -8.91 KCAL/MOL
REMARK 923 INTER-LIGAND FREE ENERGY PREDICTED BY IDOCK:   -7.83 KCAL/MOL
REMARK 924 INTRA-LIGAND FREE ENERGY PREDICTED BY IDOCK:   -1.08 KCAL/MOL
REMARK 927      BINDING AFFINITY PREDICTED BY RF-SCORE:    0.00 PKD
ROOT
HETATM    1  C   UNL     1     -11.962  13.508  65.291  1.00  0.00    -0.397 C  
HETATM    2  C   UNL     1     -10.536  13.579  65.925  1.00  0.00    -0.284 C  
HETATM    3  C   UNL     1     -11.416  12.304  64.508  1.00  0.00    -0.341 C  
HETATM    4  N   UNL     1     -10.206  12.357  65.138  1.00  0.00    -0.281 N  
HETATM    5  C   UNL     1     -10.199  13.241  67.381  1.00  0.00    -0.229 C  
HETATM    6  O   UNL     1      -9.528   9.905  64.144  1.00  0.00    -0.280 OA 
HETATM    7  O   UNL     1     -11.809  11.498  63.698  1.00  0.00    -0.354 OA 
HETATM    8  C   UNL     1      -9.826  11.353  66.019  1.00  0.00    -0.223 C  
HETATM    9  O   UNL     1      -9.122   9.042  66.173  1.00  0.00    -0.170 OA 
HETATM   10  C   UNL     1      -9.484   9.990  65.495  1.00  0.00    -0.237 C  
HETATM   11  C   UNL     1      -9.798  11.784  67.296  1.00  0.00    -0.185 C  
HETATM   12  C   UNL     1     -11.346  13.580  68.321  1.00  0.00    -0.328 C  
ENDROOT
BRANCH   1  13
HETATM   13  C   UNL     1     -12.379  14.706  64.458  1.00  0.00    -0.398 C  
HETATM   14  C   UNL     1     -11.351  15.822  64.580  1.00  0.00    -0.343 C  
HETATM   15  O   UNL     1     -12.435  14.312  63.092  1.00  0.00    -1.102 OA 
HETATM   16  H   UNL     1     -12.696  15.062  62.571  1.00  0.00     0.000 HD 
ENDBRANCH   1  13
BRANCH  11  17
HETATM   17  S   UNL     1      -9.483  10.873  68.722  1.00  0.00    -0.173 SA 
BRANCH  17  18
HETATM   18  C   UNL     1     -11.011   9.912  69.032  1.00  0.00    -0.190 C  
HETATM   19  C   UNL     1     -12.014  10.497  70.017  1.00  0.00    -0.288 C  
HETATM   20  N   UNL     1     -11.635   9.929  71.303  1.00  0.00    -0.380 NA 
HETATM   21  H   UNL     1     -12.390   9.962  71.988  1.00  0.00     0.000 HD 
HETATM   22  C   UNL     1     -11.136   8.553  71.066  1.00  0.00    -0.260 C  
HETATM   23  C   UNL     1     -10.758   8.515  69.582  1.00  0.00    -0.200 C  
BRANCH  22  24
HETATM   24  C   UNL     1      -9.986   8.232  72.066  1.00  0.00    -0.257 C  
HETATM   25  O   UNL     1      -9.045   9.023  72.220  1.00  0.00    -0.351 OA 
HETATM   26  N   UNL     1     -10.058   7.067  72.820  1.00  0.00    -0.176 N  
HETATM   27  C   UNL     1     -11.150   6.108  72.811  1.00  0.00    -0.259 C  
HETATM   28  C   UNL     1      -8.958   6.736  73.717  1.00  0.00    -0.148 C  
ENDBRANCH  22  24
ENDBRANCH  17  18
ENDBRANCH  11  17
TORSDOF 4
ENDMDL
MODEL       12
REMARK 921   NORMALIZED FREE ENERGY PREDICTED BY IDOCK:   -6.43 KCAL/MOL
REMARK 922        TOTAL FREE ENERGY PREDICTED BY IDOCK:   -8.90 KCAL/MOL
REMARK 923 INTER-LIGAND FREE ENERGY PREDICTED BY IDOCK:   -7.83 KCAL/MOL
REMARK 924 INTRA-LIGAND FREE ENERGY PREDICTED BY IDOCK:   -1.07 KCAL/MOL
REMARK 927      BINDING AFFINITY PREDICTED BY RF-SCORE:    0.00 PKD
ROOT
HETATM    1  C   UNL     1      -8.997  11.179  65.593  1.00  0.00    -0.195 C  
HETATM    2  C   UNL     1      -9.913  11.383  66.842  1.00  0.00    -0.206 C  
HETATM    3  C   UNL     1     -10.295  11.300  64.780  1.00  0.00    -0.307 C  
HETATM    4  N   UNL     1     -11.049  11.545  65.891  1.00  0.00    -0.257 N  
HETATM    5  C   UNL     1      -9.931  12.632  67.731  1.00  0.00    -0.218 C  
HETATM    6  O   UNL     1     -13.168  12.304  64.343  1.00  0.00    -0.806 OA 
HETATM    7  O   UNL     1     -10.642  11.286  63.623  1.00  0.00    -0.362 OA 
HETATM    8  C   UNL     1     -11.619  12.796  66.093  1.00  0.00    -0.379 C  
HETATM    9  O   UNL     1     -13.347  14.309  65.329  1.00  0.00    -0.660 OA 
HETATM   10  C   UNL     1     -12.761  13.243  65.230  1.00  0.00    -0.412 C  
HETATM   11  C   UNL     1     -11.040  13.457  67.115  1.00  0.00    -0.286 C  
HETATM   12  C   UNL     1      -8.559  13.284  67.816  1.00  0.00    -0.184 C  
ENDROOT
BRANCH   1  13
HETATM   13  C   UNL     1      -8.282   9.844  65.505  1.00  0.00    -0.136 C  
HETATM   14  C   UNL     1      -8.363   9.108  66.835  1.00  0.00    -0.119 C  
HETATM   15  O   UNL     1      -8.932   9.044  64.524  1.00  0.00    -0.387 OA 
HETATM   16  H   UNL     1      -8.484   8.209  64.469  1.00  0.00     0.000 HD 
ENDBRANCH   1  13
BRANCH  11  17
HETATM   17  S   UNL     1     -11.349  15.061  67.658  1.00  0.00    -0.324 SA 
BRANCH  17  18
HETATM   18  C   UNL     1     -10.847  16.149  66.273  1.00  0.00    -0.135 C  
HETATM   19  C   UNL     1      -9.618  15.737  65.473  1.00  0.00    -0.167 C  
HETATM   20  N   UNL     1      -8.510  16.408  66.138  1.00  0.00    -0.345 NA 
HETATM   21  H   UNL     1      -7.687  16.496  65.542  1.00  0.00     0.000 HD 
HETATM   22  C   UNL     1      -9.000  17.715  66.637  1.00  0.00    -0.265 C  
HETATM   23  C   UNL     1     -10.524  17.575  66.697  1.00  0.00    -0.270 C  
BRANCH  22  24
HETATM   24  C   UNL     1      -8.298  18.060  67.983  1.00  0.00    -0.260 C  
HETATM   25  O   UNL     1      -8.231  17.222  68.892  1.00  0.00    -0.255 OA 
HETATM   26  N   UNL     1      -7.703  19.307  68.130  1.00  0.00    -0.286 N  
HETATM   27  C   UNL     1      -7.621  20.341  67.111  1.00  0.00    -0.315 C  
HETATM   28  C   UNL     1      -7.092  19.654  69.407  1.00  0.00    -0.291 C  
ENDBRANCH  22  24
ENDBRANCH  17  18
ENDBRANCH  11  17
TORSDOF 4
ENDMDL
MODEL       13
REMARK 921   NORMALIZED FREE ENERGY PREDICTED BY IDOCK:   -6.41 KCAL/MOL
REMARK 922        TOTAL FREE ENERGY PREDICTED BY IDOCK:   -8.88 KCAL/MOL
REMARK 923 INTER-LIGAND FREE ENERGY PREDICTED BY IDOCK:   -7.95 KCAL/MOL
REMARK 924 INTRA-LIGAND FREE ENERGY PREDICTED BY IDOCK:   -0.93 KCAL/MOL
REMARK 927      BINDING AFFINITY PREDICTED BY RF-SCORE:    0.00 PKD
ROOT
HETATM    1  C   UNL     1     -11.325  12.580  69.263  1.00  0.00    -0.307 C  
HETATM    2  C   UNL     1     -12.099  13.934  69.161  1.00  0.00    -0.338 C  
HETATM    3  C   UNL     1     -11.780  12.357  67.812  1.00  0.00    -0.350 C  
HETATM    4  N   UNL     1     -12.384  13.580  67.741  1.00  0.00    -0.129 N  
HETATM    5  C   UNL     1     -11.451  15.322  69.123  1.00  0.00    -0.330 C  
HETATM    6  O   UNL     1     -12.646  13.346  65.033  1.00  0.00    -0.539 OA 
HETATM    7  O   UNL     1     -11.656  11.527  66.943  1.00  0.00    -0.503 OA 
HETATM    8  C   UNL     1     -11.864  14.576  66.925  1.00  0.00    -0.377 C  
HETATM    9  O   UNL     1     -11.564  15.267  64.624  1.00  0.00    -0.404 OA 
HETATM   10  C   UNL     1     -11.968  14.448  65.434  1.00  0.00    -0.369 C  
HETATM   11  C   UNL     1     -11.328  15.586  67.638  1.00  0.00    -0.260 C  
HETATM   12  C   UNL     1     -10.164  15.367  69.933  1.00  0.00    -0.279 C  
ENDROOT
BRANCH   1  13
HETATM   13  C   UNL     1     -11.853  11.588  70.282  1.00  0.00    -0.342 C  
HETATM   14  C   UNL     1     -12.803  12.277  71.252  1.00  0.00    -0.337 C  
HETATM   15  O   UNL     1     -12.586  10.579  69.597  1.00  0.00    -0.570 OA 
HETATM   16  H   UNL     1     -12.916   9.958  70.235  1.00  0.00     0.000 HD 
ENDBRANCH   1  13
BRANCH  11  17
HETATM   17  S   UNL     1     -10.491  16.973  67.057  1.00  0.00    -0.236 SA 
BRANCH  17  18
HETATM   18  C   UNL     1      -8.926  16.336  66.349  1.00  0.00    -0.308 C  
HETATM   19  C   UNL     1      -8.166  15.296  67.162  1.00  0.00    -0.219 C  
HETATM   20  N   UNL     1      -7.247  16.074  67.980  1.00  0.00    -0.125 NA 
HETATM   21  H   UNL     1      -6.462  15.521  68.326  1.00  0.00     0.000 HD 
HETATM   22  C   UNL     1      -6.815  17.251  67.189  1.00  0.00    -0.177 C  
HETATM   23  C   UNL     1      -7.880  17.414  66.101  1.00  0.00    -0.293 C  
BRANCH  22  24
HETATM   24  C   UNL     1      -6.618  18.474  68.132  1.00  0.00    -0.221 C  
HETATM   25  O   UNL     1      -7.070  18.461  69.285  1.00  0.00    -0.243 OA 
HETATM   26  N   UNL     1      -5.882  19.562  67.676  1.00  0.00    -0.187 N  
HETATM   27  C   UNL     1      -5.215  19.664  66.389  1.00  0.00    -0.162 C  
HETATM   28  C   UNL     1      -5.741  20.730  68.536  1.00  0.00    -0.345 C  
ENDBRANCH  22  24
ENDBRANCH  17  18
ENDBRANCH  11  17
TORSDOF 4
ENDMDL
MODEL       14
REMARK 921   NORMALIZED FREE ENERGY PREDICTED BY IDOCK:   -6.41 KCAL/MOL
REMARK 922        TOTAL FREE ENERGY PREDICTED BY IDOCK:   -8.88 KCAL/MOL
REMARK 923 INTER-LIGAND FREE ENERGY PREDICTED BY IDOCK:   -8.02 KCAL/MOL
REMARK 924 INTRA-LIGAND FREE ENERGY PREDICTED BY IDOCK:   -0.86 KCAL/MOL
REMARK 927      BINDING AFFINITY PREDICTED BY RF-SCORE:    0.00 PKD
ROOT
HETATM    1  C   UNL     1     -11.857  12.988  65.380  1.00  0.00    -0.428 C  
HETATM    2  C   UNL     1     -10.644  12.777  66.342  1.00  0.00    -0.255 C  
HETATM    3  C   UNL     1     -11.074  12.098  64.402  1.00  0.00    -0.333 C  
HETATM    4  N   UNL     1     -10.068  11.882  65.299  1.00  0.00    -0.252 N  
HETATM    5  C   UNL     1     -10.672  11.950  67.632  1.00  0.00    -0.253 C  
HETATM    6  O   UNL     1      -9.046   9.885  63.739  1.00  0.00    -0.236 OA 
HETATM    7  O   UNL     1     -11.210  11.633  63.296  1.00  0.00    -0.347 OA 
HETATM    8  C   UNL     1      -9.878  10.622  65.853  1.00  0.00    -0.243 C  
HETATM    9  O   UNL     1      -9.129   8.368  65.388  1.00  0.00    -0.119 OA 
HETATM   10  C   UNL     1      -9.350   9.505  65.003  1.00  0.00    -0.229 C  
HETATM   11  C   UNL     1     -10.195  10.593  67.163  1.00  0.00    -0.216 C  
HETATM   12  C   UNL     1     -12.035  12.001  68.306  1.00  0.00    -0.244 C  
ENDROOT
BRANCH   1  13
HETATM   13  C   UNL     1     -12.104  14.415  64.926  1.00  0.00    -0.436 C  
HETATM   14  C   UNL     1     -10.849  15.256  65.109  1.00  0.00    -0.441 C  
HETATM   15  O   UNL     1     -12.422  14.401  63.539  1.00  0.00    -1.102 OA 
HETATM   16  H   UNL     1     -12.577  15.294  63.255  1.00  0.00     0.000 HD 
ENDBRANCH   1  13
BRANCH  11  17
HETATM   17  S   UNL     1     -10.210   9.239  68.225  1.00  0.00    -0.209 SA 
BRANCH  17  18
HETATM   18  C   UNL     1      -9.760   9.907  69.871  1.00  0.00    -0.235 C  
HETATM   19  C   UNL     1      -8.429   9.461  70.463  1.00  0.00    -0.212 C  
HETATM   20  N   UNL     1      -8.760   8.283  71.253  1.00  0.00    -0.139 NA 
HETATM   21  H   UNL     1      -8.053   8.070  71.958  1.00  0.00     0.000 HD 
HETATM   22  C   UNL     1     -10.108   8.487  71.835  1.00  0.00    -0.297 C  
HETATM   23  C   UNL     1     -10.760   9.567  70.967  1.00  0.00    -0.411 C  
BRANCH  22  24
HETATM   24  C   UNL     1     -10.862   7.126  71.902  1.00  0.00    -0.226 C  
HETATM   25  O   UNL     1     -11.523   6.723  70.936  1.00  0.00    -0.294 OA 
HETATM   26  N   UNL     1     -10.739   6.346  73.046  1.00  0.00    -0.247 N  
HETATM   27  C   UNL     1      -9.916   6.652  74.206  1.00  0.00    -0.345 C  
HETATM   28  C   UNL     1     -11.485   5.098  73.135  1.00  0.00    -0.272 C  
ENDBRANCH  22  24
ENDBRANCH  17  18
ENDBRANCH  11  17
TORSDOF 4
ENDMDL
MODEL       15
REMARK 921   NORMALIZED FREE ENERGY PREDICTED BY IDOCK:   -6.40 KCAL/MOL
REMARK 922        TOTAL FREE ENERGY PREDICTED BY IDOCK:   -8.87 KCAL/MOL
REMARK 923 INTER-LIGAND FREE ENERGY PREDICTED BY IDOCK:   -7.87 KCAL/MOL
REMARK 924 INTRA-LIGAND FREE ENERGY PREDICTED BY IDOCK:   -1.00 KCAL/MOL
REMARK 927      BINDING AFFINITY PREDICTED BY RF-SCORE:    0.00 PKD
ROOT
HETATM    1  C   UNL     1     -11.559   6.840  71.368  1.00  0.00    -0.350 C  
HETATM    2  C   UNL     1     -10.429   7.877  71.666  1.00  0.00    -0.209 C  
HETATM    3  C   UNL     1     -12.525   7.975  71.741  1.00  0.00    -0.324 C  
HETATM    4  N   UNL     1     -11.511   8.870  71.923  1.00  0.00    -0.355 N  
HETATM    5  C   UNL     1      -9.517   8.516  70.614  1.00  0.00    -0.203 C  
HETATM    6  O   UNL     1     -13.291  10.940  72.007  1.00  0.00    -0.448 OA 
HETATM    7  O   UNL     1     -13.716   8.163  71.809  1.00  0.00    -0.354 OA 
HETATM    8  C   UNL     1     -11.348   9.936  71.047  1.00  0.00    -0.386 C  
HETATM    9  O   UNL     1     -12.281  12.057  70.346  1.00  0.00    -0.334 OA 
HETATM   10  C   UNL     1     -12.335  11.065  71.056  1.00  0.00    -0.385 C  
HETATM   11  C   UNL     1     -10.244   9.802  70.286  1.00  0.00    -0.289 C  
HETATM   12  C   UNL     1      -9.242   7.571  69.454  1.00  0.00    -0.149 C  
ENDROOT
BRANCH   1  13
HETATM   13  C   UNL     1     -11.593   5.618  72.268  1.00  0.00    -0.181 C  
HETATM   14  C   UNL     1     -10.629   5.789  73.434  1.00  0.00    -0.283 C  
HETATM   15  O   UNL     1     -12.905   5.484  72.802  1.00  0.00    -0.394 OA 
HETATM   16  H   UNL     1     -12.926   4.719  73.365  1.00  0.00     0.000 HD 
ENDBRANCH   1  13
BRANCH  11  17
HETATM   17  S   UNL     1      -9.700  10.819  69.008  1.00  0.00    -0.154 SA 
BRANCH  17  18
HETATM   18  C   UNL     1     -10.821  10.473  67.600  1.00  0.00    -0.300 C  
HETATM   19  C   UNL     1     -10.181  10.005  66.300  1.00  0.00    -0.215 C  
HETATM   20  N   UNL     1      -9.944  11.231  65.550  1.00  0.00    -0.234 NA 
HETATM   21  H   UNL     1      -9.827  11.066  64.550  1.00  0.00     0.000 HD 
HETATM   22  C   UNL     1     -11.048  12.173  65.852  1.00  0.00    -0.318 C  
HETATM   23  C   UNL     1     -11.652  11.672  67.167  1.00  0.00    -0.291 C  
BRANCH  22  24
HETATM   24  C   UNL     1     -10.503  13.631  65.869  1.00  0.00    -0.296 C  
HETATM   25  O   UNL     1      -9.478  13.915  66.503  1.00  0.00    -0.276 OA 
HETATM   26  N   UNL     1     -11.158  14.601  65.119  1.00  0.00    -0.355 N  
HETATM   27  C   UNL     1     -12.306  14.383  64.254  1.00  0.00    -0.373 C  
HETATM   28  C   UNL     1     -10.684  15.978  65.175  1.00  0.00    -0.409 C  
ENDBRANCH  22  24
ENDBRANCH  17  18
ENDBRANCH  11  17
TORSDOF 4
ENDMDL
MODEL       16
REMARK 921   NORMALIZED FREE ENERGY PREDICTED BY IDOCK:   -6.34 KCAL/MOL
REMARK 922        TOTAL FREE ENERGY PREDICTED BY IDOCK:   -8.79 KCAL/MOL
REMARK 923 INTER-LIGAND FREE ENERGY PREDICTED BY IDOCK:   -7.43 KCAL/MOL
REMARK 924 INTRA-LIGAND FREE ENERGY PREDICTED BY IDOCK:   -1.36 KCAL/MOL
REMARK 927      BINDING AFFINITY PREDICTED BY RF-SCORE:    0.00 PKD
ROOT
HETATM    1  C   UNL     1     -11.171   6.982  71.975  1.00  0.00    -0.288 C  
HETATM    2  C   UNL     1     -10.024   7.794  71.293  1.00  0.00    -0.175 C  
HETATM    3  C   UNL     1     -11.895   8.334  72.076  1.00  0.00    -0.347 C  
HETATM    4  N   UNL     1     -10.901   8.993  71.412  1.00  0.00    -0.301 N  
HETATM    5  C   UNL     1      -9.638   7.705  69.812  1.00  0.00    -0.163 C  
HETATM    6  O   UNL     1     -12.487  11.198  71.129  1.00  0.00    -0.382 OA 
HETATM    7  O   UNL     1     -12.949   8.768  72.477  1.00  0.00    -0.397 OA 
HETATM    8  C   UNL     1     -11.123   9.506  70.140  1.00  0.00    -0.255 C  
HETATM    9  O   UNL     1     -12.270  11.238  68.898  1.00  0.00    -0.494 OA 
HETATM   10  C   UNL     1     -12.019  10.695  69.962  1.00  0.00    -0.329 C  
HETATM   11  C   UNL     1     -10.440   8.830  69.196  1.00  0.00    -0.217 C  
HETATM   12  C   UNL     1      -9.872   6.310  69.250  1.00  0.00    -0.167 C  
ENDROOT
BRANCH   1  13
HETATM   13  C   UNL     1     -10.821   6.318  73.294  1.00  0.00    -0.244 C  
HETATM   14  C   UNL     1      -9.500   5.570  73.179  1.00  0.00    -0.148 C  
HETATM   15  O   UNL     1     -10.665   7.329  74.284  1.00  0.00    -0.519 OA 
HETATM   16  H   UNL     1     -10.446   6.913  75.110  1.00  0.00     0.000 HD 
ENDBRANCH   1  13
BRANCH  11  17
HETATM   17  S   UNL     1     -10.485   9.046  67.489  1.00  0.00    -0.246 SA 
BRANCH  17  18
HETATM   18  C   UNL     1      -9.127  10.216  67.110  1.00  0.00    -0.135 C  
HETATM   19  C   UNL     1      -8.862  11.326  68.119  1.00  0.00    -0.159 C  
HETATM   20  N   UNL     1      -9.680  12.438  67.658  1.00  0.00    -0.191 NA 
HETATM   21  H   UNL     1      -9.368  13.337  68.028  1.00  0.00     0.000 HD 
HETATM   22  C   UNL     1      -9.707  12.404  66.177  1.00  0.00    -0.246 C  
HETATM   23  C   UNL     1      -9.314  10.972  65.802  1.00  0.00    -0.236 C  
BRANCH  22  24
HETATM   24  C   UNL     1     -11.098  12.881  65.666  1.00  0.00    -0.279 C  
HETATM   25  O   UNL     1     -12.077  12.123  65.702  1.00  0.00    -0.545 OA 
HETATM   26  N   UNL     1     -11.236  14.188  65.214  1.00  0.00    -0.314 N  
HETATM   27  C   UNL     1     -10.198  15.206  65.212  1.00  0.00    -0.368 C  
HETATM   28  C   UNL     1     -12.523  14.621  64.684  1.00  0.00    -0.286 C  
ENDBRANCH  22  24
ENDBRANCH  17  18
ENDBRANCH  11  17
TORSDOF 4
ENDMDL
MODEL       17
REMARK 921   NORMALIZED FREE ENERGY PREDICTED BY IDOCK:   -6.33 KCAL/MOL
REMARK 922        TOTAL FREE ENERGY PREDICTED BY IDOCK:   -8.78 KCAL/MOL
REMARK 923 INTER-LIGAND FREE ENERGY PREDICTED BY IDOCK:   -7.70 KCAL/MOL
REMARK 924 INTRA-LIGAND FREE ENERGY PREDICTED BY IDOCK:   -1.08 KCAL/MOL
REMARK 927      BINDING AFFINITY PREDICTED BY RF-SCORE:    0.00 PKD
ROOT
HETATM    1  C   UNL     1     -12.420  13.840  70.847  1.00  0.00    -0.451 C  
HETATM    2  C   UNL     1     -12.257  13.265  69.404  1.00  0.00    -0.158 C  
HETATM    3  C   UNL     1     -12.755  12.395  71.248  1.00  0.00    -0.248 C  
HETATM    4  N   UNL     1     -12.533  11.921  69.987  1.00  0.00    -0.088 N  
HETATM    5  C   UNL     1     -10.929  13.128  68.652  1.00  0.00    -0.296 C  
HETATM    6  O   UNL     1     -12.578   9.346  70.896  1.00  0.00    -0.249 OA 
HETATM    7  O   UNL     1     -13.036  11.776  72.247  1.00  0.00    -0.378 OA 
HETATM    8  C   UNL     1     -11.448  11.095  69.727  1.00  0.00    -0.312 C  
HETATM    9  O   UNL     1     -10.551   8.872  70.065  1.00  0.00    -0.210 OA 
HETATM   10  C   UNL     1     -11.440   9.688  70.247  1.00  0.00    -0.233 C  
HETATM   11  C   UNL     1     -10.512  11.710  68.977  1.00  0.00    -0.128 C  
HETATM   12  C   UNL     1      -9.950  14.231  69.027  1.00  0.00    -0.104 C  
ENDROOT
BRANCH   1  13
HETATM   13  C   UNL     1     -13.532  14.855  71.036  1.00  0.00    -0.371 C  
HETATM   14  C   UNL     1     -13.559  15.353  72.474  1.00  0.00    -0.634 C  
HETATM   15  O   UNL     1     -13.276  15.972  70.192  1.00  0.00    -0.610 OA 
HETATM   16  H   UNL     1     -13.973  16.607  70.310  1.00  0.00     0.000 HD 
ENDBRANCH   1  13
BRANCH  11  17
HETATM   17  S   UNL     1      -8.971  11.114  68.496  1.00  0.00    -0.160 SA 
BRANCH  17  18
HETATM   18  C   UNL     1      -9.272  10.170  66.955  1.00  0.00    -0.146 C  
HETATM   19  C   UNL     1      -8.198  10.235  65.877  1.00  0.00    -0.148 C  
HETATM   20  N   UNL     1      -8.596  11.353  65.034  1.00  0.00    -0.362 NA 
HETATM   21  H   UNL     1      -8.173  11.318  64.106  1.00  0.00     0.000 HD 
HETATM   22  C   UNL     1     -10.077  11.387  64.988  1.00  0.00    -0.274 C  
HETATM   23  C   UNL     1     -10.534  10.591  66.214  1.00  0.00    -0.250 C  
BRANCH  22  24
HETATM   24  C   UNL     1     -10.567  12.864  64.919  1.00  0.00    -0.323 C  
HETATM   25  O   UNL     1      -9.912  13.771  65.449  1.00  0.00    -0.294 OA 
HETATM   26  N   UNL     1     -11.726  13.154  64.209  1.00  0.00    -0.373 N  
HETATM   27  C   UNL     1     -12.530  12.204  63.459  1.00  0.00    -0.555 C  
HETATM   28  C   UNL     1     -12.217  14.526  64.187  1.00  0.00    -0.342 C  
ENDBRANCH  22  24
ENDBRANCH  17  18
ENDBRANCH  11  17
TORSDOF 4
ENDMDL
MODEL       18
REMARK 921   NORMALIZED FREE ENERGY PREDICTED BY IDOCK:   -6.31 KCAL/MOL
REMARK 922        TOTAL FREE ENERGY PREDICTED BY IDOCK:   -8.76 KCAL/MOL
REMARK 923 INTER-LIGAND FREE ENERGY PREDICTED BY IDOCK:   -7.78 KCAL/MOL
REMARK 924 INTRA-LIGAND FREE ENERGY PREDICTED BY IDOCK:   -0.98 KCAL/MOL
REMARK 927      BINDING AFFINITY PREDICTED BY RF-SCORE:    0.00 PKD
ROOT
HETATM    1  C   UNL     1     -11.027  12.959  65.790  1.00  0.00    -0.303 C  
HETATM    2  C   UNL     1     -11.255  11.414  65.827  1.00  0.00    -0.090 C  
HETATM    3  C   UNL     1     -11.663  12.958  67.189  1.00  0.00    -0.377 C  
HETATM    4  N   UNL     1     -11.779  11.598  67.210  1.00  0.00    -0.247 N  
HETATM    5  C   UNL     1     -10.149  10.359  65.937  1.00  0.00    -0.326 C  
HETATM    6  O   UNL     1     -12.356  11.642  69.879  1.00  0.00    -0.239 OA 
HETATM    7  O   UNL     1     -11.933  13.751  68.060  1.00  0.00    -0.361 OA 
HETATM    8  C   UNL     1     -11.007  10.839  68.080  1.00  0.00    -0.283 C  
HETATM    9  O   UNL     1     -10.686  10.240  70.403  1.00  0.00    -0.292 OA 
HETATM   10  C   UNL     1     -11.287  10.877  69.552  1.00  0.00    -0.283 C  
HETATM   11  C   UNL     1     -10.075  10.116  67.428  1.00  0.00    -0.205 C  
HETATM   12  C   UNL     1      -8.867  10.811  65.253  1.00  0.00    -0.200 C  
ENDROOT
BRANCH   1  13
HETATM   13  C   UNL     1     -11.787  13.717  64.717  1.00  0.00    -0.391 C  
HETATM   14  C   UNL     1     -11.982  12.844  63.486  1.00  0.00    -0.629 C  
HETATM   15  O   UNL     1     -13.074  14.052  65.223  1.00  0.00    -0.782 OA 
HETATM   16  H   UNL     1     -13.549  14.526  64.552  1.00  0.00     0.000 HD 
ENDBRANCH   1  13
BRANCH  11  17
HETATM   17  S   UNL     1      -8.843   9.116  68.096  1.00  0.00    -0.129 SA 
BRANCH  17  18
HETATM   18  C   UNL     1      -9.237   7.417  67.535  1.00  0.00    -0.130 C  
HETATM   19  C   UNL     1     -10.644   7.167  67.007  1.00  0.00    -0.343 C  
HETATM   20  N   UNL     1     -11.400   6.741  68.176  1.00  0.00    -0.558 NA 
HETATM   21  H   UNL     1     -12.251   6.233  67.932  1.00  0.00     0.000 HD 
HETATM   22  C   UNL     1     -10.492   5.956  69.046  1.00  0.00    -0.265 C  
HETATM   23  C   UNL     1      -9.079   6.359  68.618  1.00  0.00    -0.127 C  
BRANCH  22  24
HETATM   24  C   UNL     1     -10.846   6.214  70.541  1.00  0.00    -0.300 C  
HETATM   25  O   UNL     1     -11.481   7.223  70.874  1.00  0.00    -0.275 OA 
HETATM   26  N   UNL     1     -10.480   5.267  71.490  1.00  0.00    -0.223 N  
HETATM   27  C   UNL     1      -9.824   3.997  71.224  1.00  0.00    -0.172 C  
HETATM   28  C   UNL     1     -10.761   5.530  72.896  1.00  0.00    -0.249 C  
ENDBRANCH  22  24
ENDBRANCH  17  18
ENDBRANCH  11  17
TORSDOF 4
ENDMDL
MODEL       19
REMARK 921   NORMALIZED FREE ENERGY PREDICTED BY IDOCK:   -6.25 KCAL/MOL
REMARK 922        TOTAL FREE ENERGY PREDICTED BY IDOCK:   -8.68 KCAL/MOL
REMARK 923 INTER-LIGAND FREE ENERGY PREDICTED BY IDOCK:   -7.59 KCAL/MOL
REMARK 924 INTRA-LIGAND FREE ENERGY PREDICTED BY IDOCK:   -1.09 KCAL/MOL
REMARK 927      BINDING AFFINITY PREDICTED BY RF-SCORE:    0.00 PKD
ROOT
HETATM    1  C   UNL     1     -12.889  10.725  70.625  1.00  0.00    -0.377 C  
HETATM    2  C   UNL     1     -11.543  11.426  70.251  1.00  0.00    -0.243 C  
HETATM    3  C   UNL     1     -13.159  11.978  71.473  1.00  0.00    -0.261 C  
HETATM    4  N   UNL     1     -12.006  12.586  71.065  1.00  0.00     0.093 N  
HETATM    5  C   UNL     1     -11.198  11.996  68.871  1.00  0.00    -0.315 C  
HETATM    6  O   UNL     1     -12.830  14.964  72.125  1.00  0.00    -0.300 OA 
HETATM    7  O   UNL     1     -14.028  12.415  72.189  1.00  0.00    -0.181 OA 
HETATM    8  C   UNL     1     -12.053  13.708  70.248  1.00  0.00    -0.357 C  
HETATM    9  O   UNL     1     -12.602  16.065  70.185  1.00  0.00    -0.259 OA 
HETATM   10  C   UNL     1     -12.536  15.015  70.804  1.00  0.00    -0.352 C  
HETATM   11  C   UNL     1     -11.609  13.446  69.003  1.00  0.00    -0.312 C  
HETATM   12  C   UNL     1     -11.850  11.200  67.751  1.00  0.00    -0.098 C  
ENDROOT
BRANCH   1  13
HETATM   13  C   UNL     1     -12.767   9.420  71.391  1.00  0.00    -0.345 C  
HETATM   14  C   UNL     1     -11.309   9.128  71.716  1.00  0.00    -0.451 C  
HETATM   15  O   UNL     1     -13.471   9.549  72.621  1.00  0.00    -0.642 OA 
HETATM   16  H   UNL     1     -13.395   8.732  73.100  1.00  0.00     0.000 HD 
ENDBRANCH   1  13
BRANCH  11  17
HETATM   17  S   UNL     1     -11.577  14.497  67.640  1.00  0.00    -0.388 SA 
BRANCH  17  18
HETATM   18  C   UNL     1      -9.805  14.698  67.221  1.00  0.00    -0.231 C  
HETATM   19  C   UNL     1      -8.812  14.703  68.376  1.00  0.00    -0.181 C  
HETATM   20  N   UNL     1      -8.680  16.108  68.735  1.00  0.00    -0.227 NA 
HETATM   21  H   UNL     1      -7.825  16.303  69.257  1.00  0.00     0.000 HD 
HETATM   22  C   UNL     1      -8.791  16.909  67.493  1.00  0.00    -0.209 C  
HETATM   23  C   UNL     1      -9.490  15.993  66.486  1.00  0.00    -0.297 C  
BRANCH  22  24
HETATM   24  C   UNL     1      -9.513  18.255  67.799  1.00  0.00    -0.276 C  
HETATM   25  O   UNL     1     -10.369  18.322  68.691  1.00  0.00    -0.367 OA 
HETATM   26  N   UNL     1      -9.144  19.392  67.090  1.00  0.00    -0.295 N  
HETATM   27  C   UNL     1      -8.088  19.473  66.093  1.00  0.00    -0.333 C  
HETATM   28  C   UNL     1      -9.854  20.640  67.335  1.00  0.00    -0.387 C  
ENDBRANCH  22  24
ENDBRANCH  17  18
ENDBRANCH  11  17
TORSDOF 4
ENDMDL
MODEL       20
REMARK 921   NORMALIZED FREE ENERGY PREDICTED BY IDOCK:   -6.24 KCAL/MOL
REMARK 922        TOTAL FREE ENERGY PREDICTED BY IDOCK:   -8.68 KCAL/MOL
REMARK 923 INTER-LIGAND FREE ENERGY PREDICTED BY IDOCK:   -7.71 KCAL/MOL
REMARK 924 INTRA-LIGAND FREE ENERGY PREDICTED BY IDOCK:   -0.96 KCAL/MOL
REMARK 927      BINDING AFFINITY PREDICTED BY RF-SCORE:    0.00 PKD
ROOT
HETATM    1  C   UNL     1     -10.821  10.540  69.745  1.00  0.00    -0.335 C  
HETATM    2  C   UNL     1     -11.967  11.067  68.823  1.00  0.00    -0.225 C  
HETATM    3  C   UNL     1     -10.286   9.858  68.476  1.00  0.00    -0.196 C  
HETATM    4  N   UNL     1     -11.265  10.397  67.692  1.00  0.00    -0.294 N  
HETATM    5  C   UNL     1     -12.155  12.526  68.393  1.00  0.00    -0.123 C  
HETATM    6  O   UNL     1      -9.939   9.633  65.430  1.00  0.00    -0.316 OA 
HETATM    7  O   UNL     1      -9.351   9.169  68.146  1.00  0.00    -0.138 OA 
HETATM    8  C   UNL     1     -10.954  11.356  66.736  1.00  0.00    -0.291 C  
HETATM    9  O   UNL     1      -9.885  11.712  64.593  1.00  0.00    -0.244 OA 
HETATM   10  C   UNL     1     -10.196  10.960  65.504  1.00  0.00    -0.271 C  
HETATM   11  C   UNL     1     -11.428  12.573  67.066  1.00  0.00    -0.356 C  
HETATM   12  C   UNL     1     -11.685  13.497  69.465  1.00  0.00    -0.382 C  
ENDROOT
BRANCH   1  13
HETATM   13  C   UNL     1     -11.245   9.612  70.868  1.00  0.00    -0.352 C  
HETATM   14  C   UNL     1     -12.523  10.118  71.523  1.00  0.00    -0.526 C  
HETATM   15  O   UNL     1     -11.517   8.328  70.317  1.00  0.00    -0.435 OA 
HETATM   16  H   UNL     1     -11.782   7.747  71.020  1.00  0.00     0.000 HD 
ENDBRANCH   1  13
BRANCH  11  17
HETATM   17  S   UNL     1     -11.202  14.065  66.240  1.00  0.00    -0.328 SA 
BRANCH  17  18
HETATM   18  C   UNL     1      -9.428  14.473  66.448  1.00  0.00    -0.291 C  
HETATM   19  C   UNL     1      -8.793  14.150  67.794  1.00  0.00    -0.185 C  
HETATM   20  N   UNL     1      -8.958  15.367  68.576  1.00  0.00    -0.184 NA 
HETATM   21  H   UNL     1      -8.311  15.422  69.363  1.00  0.00     0.000 HD 
HETATM   22  C   UNL     1      -8.841  16.522  67.654  1.00  0.00    -0.192 C  
HETATM   23  C   UNL     1      -9.110  15.950  66.259  1.00  0.00    -0.379 C  
BRANCH  22  24
HETATM   24  C   UNL     1      -9.799  17.660  68.114  1.00  0.00    -0.318 C  
HETATM   25  O   UNL     1     -11.022  17.474  68.167  1.00  0.00    -0.316 OA 
HETATM   26  N   UNL     1      -9.254  18.875  68.514  1.00  0.00    -0.348 N  
HETATM   27  C   UNL     1      -7.837  19.192  68.597  1.00  0.00    -0.354 C  
HETATM   28  C   UNL     1     -10.149  19.961  68.894  1.00  0.00    -0.335 C  
ENDBRANCH  22  24
ENDBRANCH  17  18
ENDBRANCH  11  17
TORSDOF 4
ENDMDL
MODEL       21
REMARK 921   NORMALIZED FREE ENERGY PREDICTED BY IDOCK:   -6.22 KCAL/MOL
REMARK 922        TOTAL FREE ENERGY PREDICTED BY IDOCK:   -8.64 KCAL/MOL
REMARK 923 INTER-LIGAND FREE ENERGY PREDICTED BY IDOCK:   -7.56 KCAL/MOL
REMARK 924 INTRA-LIGAND FREE ENERGY PREDICTED BY IDOCK:   -1.08 KCAL/MOL
REMARK 927      BINDING AFFINITY PREDICTED BY RF-SCORE:    0.00 PKD
ROOT
HETATM    1  C   UNL     1     -10.694  12.051  66.176  1.00  0.00    -0.312 C  
HETATM    2  C   UNL     1      -9.684  13.093  66.754  1.00  0.00    -0.246 C  
HETATM    3  C   UNL     1     -11.250  11.987  67.607  1.00  0.00    -0.282 C  
HETATM    4  N   UNL     1     -10.396  12.953  68.055  1.00  0.00    -0.221 N  
HETATM    5  C   UNL     1      -9.683  14.593  66.438  1.00  0.00    -0.315 C  
HETATM    6  O   UNL     1     -11.806  13.185  70.384  1.00  0.00    -0.290 OA 
HETATM    7  O   UNL     1     -12.131  11.422  68.210  1.00  0.00    -0.606 OA 
HETATM    8  C   UNL     1     -10.879  14.200  68.431  1.00  0.00    -0.254 C  
HETATM    9  O   UNL     1     -12.142  15.386  70.122  1.00  0.00    -0.324 OA 
HETATM   10  C   UNL     1     -11.685  14.340  69.688  1.00  0.00    -0.308 C  
HETATM   11  C   UNL     1     -10.511  15.167  67.567  1.00  0.00    -0.258 C  
HETATM   12  C   UNL     1     -10.169  14.872  65.023  1.00  0.00    -0.365 C  
ENDROOT
BRANCH   1  13
HETATM   13  C   UNL     1     -10.090  10.765  65.642  1.00  0.00    -0.267 C  
HETATM   14  C   UNL     1      -8.580  10.904  65.507  1.00  0.00    -0.149 C  
HETATM   15  O   UNL     1     -10.350   9.720  66.572  1.00  0.00    -0.234 OA 
HETATM   16  H   UNL     1      -9.972   8.916  66.238  1.00  0.00     0.000 HD 
ENDBRANCH   1  13
BRANCH  11  17
HETATM   17  S   UNL     1     -10.955  16.829  67.575  1.00  0.00    -0.046 SA 
BRANCH  17  18
HETATM   18  C   UNL     1      -9.811  17.634  68.757  1.00  0.00    -0.334 C  
HETATM   19  C   UNL     1      -9.926  19.144  68.921  1.00  0.00    -0.416 C  
HETATM   20  N   UNL     1      -8.986  19.687  67.950  1.00  0.00    -0.319 NA 
HETATM   21  H   UNL     1      -8.712  20.647  68.161  1.00  0.00     0.000 HD 
HETATM   22  C   UNL     1      -7.829  18.765  67.868  1.00  0.00    -0.262 C  
HETATM   23  C   UNL     1      -8.339  17.432  68.423  1.00  0.00    -0.263 C  
BRANCH  22  24
HETATM   24  C   UNL     1      -7.289  18.728  66.408  1.00  0.00    -0.244 C  
HETATM   25  O   UNL     1      -7.602  17.807  65.643  1.00  0.00    -0.541 OA 
HETATM   26  N   UNL     1      -6.490  19.774  65.961  1.00  0.00    -0.196 N  
HETATM   27  C   UNL     1      -6.131  20.961  66.721  1.00  0.00    -0.251 C  
HETATM   28  C   UNL     1      -5.938  19.717  64.614  1.00  0.00    -0.261 C  
ENDBRANCH  22  24
ENDBRANCH  17  18
ENDBRANCH  11  17
TORSDOF 4
ENDMDL
MODEL       22
REMARK 921   NORMALIZED FREE ENERGY PREDICTED BY IDOCK:   -6.22 KCAL/MOL
REMARK 922        TOTAL FREE ENERGY PREDICTED BY IDOCK:   -8.64 KCAL/MOL
REMARK 923 INTER-LIGAND FREE ENERGY PREDICTED BY IDOCK:   -7.76 KCAL/MOL
REMARK 924 INTRA-LIGAND FREE ENERGY PREDICTED BY IDOCK:   -0.88 KCAL/MOL
REMARK 927      BINDING AFFINITY PREDICTED BY RF-SCORE:    0.00 PKD
ROOT
HETATM    1  C   UNL     1     -12.062  10.141  71.539  1.00  0.00    -0.442 C  
HETATM    2  C   UNL     1     -12.282  10.513  70.038  1.00  0.00    -0.250 C  
HETATM    3  C   UNL     1     -10.977   9.189  71.013  1.00  0.00    -0.305 C  
HETATM    4  N   UNL     1     -11.152   9.595  69.721  1.00  0.00    -0.236 N  
HETATM    5  C   UNL     1     -11.920  11.858  69.399  1.00  0.00    -0.350 C  
HETATM    6  O   UNL     1      -8.857   8.324  68.961  1.00  0.00    -0.142 OA 
HETATM    7  O   UNL     1     -10.168   8.408  71.453  1.00  0.00    -0.196 OA 
HETATM    8  C   UNL     1     -10.163  10.321  69.071  1.00  0.00    -0.210 C  
HETATM    9  O   UNL     1      -7.955  10.181  68.088  1.00  0.00    -0.102 OA 
HETATM   10  C   UNL     1      -8.882   9.648  68.676  1.00  0.00    -0.128 C  
HETATM   11  C   UNL     1     -10.532  11.599  68.855  1.00  0.00    -0.175 C  
HETATM   12  C   UNL     1     -12.065  13.009  70.383  1.00  0.00    -0.391 C  
ENDROOT
BRANCH   1  13
HETATM   13  C   UNL     1     -13.237   9.483  72.240  1.00  0.00    -0.421 C  
HETATM   14  C   UNL     1     -14.215   8.917  71.220  1.00  0.00    -0.162 C  
HETATM   15  O   UNL     1     -12.750   8.401  73.025  1.00  0.00    -0.697 OA 
HETATM   16  H   UNL     1     -13.485   7.989  73.463  1.00  0.00     0.000 HD 
ENDBRANCH   1  13
BRANCH  11  17
HETATM   17  S   UNL     1      -9.599  12.877  68.177  1.00  0.00    -0.217 SA 
BRANCH  17  18
HETATM   18  C   UNL     1     -10.694  13.678  66.946  1.00  0.00    -0.275 C  
HETATM   19  C   UNL     1     -10.042  14.218  65.681  1.00  0.00    -0.341 C  
HETATM   20  N   UNL     1      -9.721  15.602  65.999  1.00  0.00    -0.318 NA 
HETATM   21  H   UNL     1      -9.584  16.177  65.168  1.00  0.00     0.000 HD 
HETATM   22  C   UNL     1     -10.784  16.125  66.890  1.00  0.00    -0.247 C  
HETATM   23  C   UNL     1     -11.451  14.883  67.489  1.00  0.00    -0.361 C  
BRANCH  22  24
HETATM   24  C   UNL     1     -10.167  17.122  67.915  1.00  0.00    -0.330 C  
HETATM   25  O   UNL     1      -9.707  16.717  68.991  1.00  0.00    -0.260 OA 
HETATM   26  N   UNL     1     -10.094  18.469  67.581  1.00  0.00    -0.345 N  
HETATM   27  C   UNL     1     -10.501  19.060  66.316  1.00  0.00    -0.457 C  
HETATM   28  C   UNL     1      -9.567  19.413  68.558  1.00  0.00    -0.405 C  
ENDBRANCH  22  24
ENDBRANCH  17  18
ENDBRANCH  11  17
TORSDOF 4
ENDMDL
MODEL       23
REMARK 921   NORMALIZED FREE ENERGY PREDICTED BY IDOCK:   -6.19 KCAL/MOL
REMARK 922        TOTAL FREE ENERGY PREDICTED BY IDOCK:   -8.61 KCAL/MOL
REMARK 923 INTER-LIGAND FREE ENERGY PREDICTED BY IDOCK:   -8.15 KCAL/MOL
REMARK 924 INTRA-LIGAND FREE ENERGY PREDICTED BY IDOCK:   -0.46 KCAL/MOL
REMARK 927      BINDING AFFINITY PREDICTED BY RF-SCORE:    0.00 PKD
ROOT
HETATM    1  C   UNL     1     -11.632  10.452  70.718  1.00  0.00    -0.450 C  
HETATM    2  C   UNL     1     -12.053  11.151  69.386  1.00  0.00    -0.326 C  
HETATM    3  C   UNL     1     -10.599   9.712  69.854  1.00  0.00    -0.249 C  
HETATM    4  N   UNL     1     -10.950  10.397  68.726  1.00  0.00    -0.231 N  
HETATM    5  C   UNL     1     -11.811  12.626  69.047  1.00  0.00    -0.341 C  
HETATM    6  O   UNL     1      -8.740   9.469  67.417  1.00  0.00    -0.125 OA 
HETATM    7  O   UNL     1      -9.720   8.896  69.996  1.00  0.00    -0.165 OA 
HETATM    8  C   UNL     1     -10.072  11.309  68.155  1.00  0.00    -0.182 C  
HETATM    9  O   UNL     1      -8.007  11.526  66.911  1.00  0.00    -0.154 OA 
HETATM   10  C   UNL     1      -8.836  10.819  67.461  1.00  0.00    -0.128 C  
HETATM   11  C   UNL     1     -10.499  12.579  68.296  1.00  0.00    -0.234 C  
HETATM   12  C   UNL     1     -11.858  13.506  70.287  1.00  0.00    -0.327 C  
ENDROOT
BRANCH   1  13
HETATM   13  C   UNL     1     -12.688   9.584  71.376  1.00  0.00    -0.358 C  
HETATM   14  C   UNL     1     -12.036   8.516  72.242  1.00  0.00    -0.454 C  
HETATM   15  O   UNL     1     -13.487  10.404  72.222  1.00  0.00    -0.594 OA 
HETATM   16  H   UNL     1     -14.148   9.861  72.634  1.00  0.00     0.000 HD 
ENDBRANCH   1  13
BRANCH  11  17
HETATM   17  S   UNL     1      -9.696  14.031  67.836  1.00  0.00    -0.236 SA 
BRANCH  17  18
HETATM   18  C   UNL     1     -11.011  15.131  67.190  1.00  0.00    -0.326 C  
HETATM   19  C   UNL     1     -11.138  15.249  65.677  1.00  0.00    -0.308 C  
HETATM   20  N   UNL     1     -10.295  16.385  65.329  1.00  0.00    -0.618 NA 
HETATM   21  H   UNL     1     -10.528  16.786  64.420  1.00  0.00     0.000 HD 
HETATM   22  C   UNL     1     -10.380  17.372  66.431  1.00  0.00    -0.317 C  
HETATM   23  C   UNL     1     -10.878  16.578  67.642  1.00  0.00    -0.269 C  
BRANCH  22  24
HETATM   24  C   UNL     1      -9.006  18.083  66.606  1.00  0.00    -0.273 C  
HETATM   25  O   UNL     1      -7.987  17.626  66.072  1.00  0.00    -0.474 OA 
HETATM   26  N   UNL     1      -8.950  19.267  67.331  1.00  0.00    -0.291 N  
HETATM   27  C   UNL     1     -10.082  19.963  67.923  1.00  0.00    -0.436 C  
HETATM   28  C   UNL     1      -7.658  19.907  67.543  1.00  0.00    -0.283 C  
ENDBRANCH  22  24
ENDBRANCH  17  18
ENDBRANCH  11  17
TORSDOF 4
ENDMDL
MODEL       24
REMARK 921   NORMALIZED FREE ENERGY PREDICTED BY IDOCK:   -6.19 KCAL/MOL
REMARK 922        TOTAL FREE ENERGY PREDICTED BY IDOCK:   -8.61 KCAL/MOL
REMARK 923 INTER-LIGAND FREE ENERGY PREDICTED BY IDOCK:   -7.50 KCAL/MOL
REMARK 924 INTRA-LIGAND FREE ENERGY PREDICTED BY IDOCK:   -1.11 KCAL/MOL
REMARK 927      BINDING AFFINITY PREDICTED BY RF-SCORE:    0.00 PKD
ROOT
HETATM    1  C   UNL     1     -10.535  16.495  65.943  1.00  0.00    -0.335 C  
HETATM    2  C   UNL     1      -9.783  15.126  65.927  1.00  0.00    -0.350 C  
HETATM    3  C   UNL     1     -11.283  15.954  64.714  1.00  0.00    -0.355 C  
HETATM    4  N   UNL     1     -10.654  14.744  64.779  1.00  0.00    -0.388 N  
HETATM    5  C   UNL     1      -9.951  14.013  66.967  1.00  0.00    -0.257 C  
HETATM    6  O   UNL     1     -12.413  13.680  62.981  1.00  0.00    -0.719 OA 
HETATM    7  O   UNL     1     -12.153  16.311  63.956  1.00  0.00    -0.928 OA 
HETATM    8  C   UNL     1     -11.362  13.600  65.124  1.00  0.00    -0.309 C  
HETATM    9  O   UNL     1     -13.019  12.013  64.352  1.00  0.00    -0.600 OA 
HETATM   10  C   UNL     1     -12.357  13.021  64.162  1.00  0.00    -0.358 C  
HETATM   11  C   UNL     1     -11.012  13.135  66.339  1.00  0.00    -0.288 C  
HETATM   12  C   UNL     1     -10.256  14.572  68.349  1.00  0.00    -0.239 C  
ENDROOT
BRANCH   1  13
HETATM   13  C   UNL     1      -9.679  17.726  65.708  1.00  0.00     0.143 C  
HETATM   14  C   UNL     1     -10.129  18.867  66.609  1.00  0.00    -0.437 C  
HETATM   15  O   UNL     1      -8.332  17.413  66.041  1.00  0.00    -0.498 OA 
HETATM   16  H   UNL     1      -7.796  18.184  65.893  1.00  0.00     0.000 HD 
ENDBRANCH   1  13
BRANCH  11  17
HETATM   17  S   UNL     1     -11.687  11.813  67.210  1.00  0.00    -0.121 SA 
BRANCH  17  18
HETATM   18  C   UNL     1     -10.785  10.331  66.621  1.00  0.00    -0.113 C  
HETATM   19  C   UNL     1     -10.514   9.231  67.638  1.00  0.00    -0.264 C  
HETATM   20  N   UNL     1      -9.207   9.560  68.190  1.00  0.00    -0.130 NA 
HETATM   21  H   UNL     1      -8.752   8.760  68.631  1.00  0.00     0.000 HD 
HETATM   22  C   UNL     1      -8.392  10.159  67.107  1.00  0.00    -0.125 C  
HETATM   23  C   UNL     1      -9.403  10.635  66.060  1.00  0.00    -0.219 C  
BRANCH  22  24
HETATM   24  C   UNL     1      -7.461  11.258  67.697  1.00  0.00    -0.101 C  
HETATM   25  O   UNL     1      -7.770  11.854  68.738  1.00  0.00    -0.127 OA 
HETATM   26  N   UNL     1      -6.252  11.525  67.066  1.00  0.00    -0.119 N  
HETATM   27  C   UNL     1      -5.723  10.832  65.902  1.00  0.00    -0.145 C  
HETATM   28  C   UNL     1      -5.403  12.590  67.584  1.00  0.00    -0.111 C  
ENDBRANCH  22  24
ENDBRANCH  17  18
ENDBRANCH  11  17
TORSDOF 4
ENDMDL
MODEL       25
REMARK 921   NORMALIZED FREE ENERGY PREDICTED BY IDOCK:   -6.14 KCAL/MOL
REMARK 922        TOTAL FREE ENERGY PREDICTED BY IDOCK:   -8.54 KCAL/MOL
REMARK 923 INTER-LIGAND FREE ENERGY PREDICTED BY IDOCK:   -7.89 KCAL/MOL
REMARK 924 INTRA-LIGAND FREE ENERGY PREDICTED BY IDOCK:   -0.65 KCAL/MOL
REMARK 927      BINDING AFFINITY PREDICTED BY RF-SCORE:    0.00 PKD
ROOT
HETATM    1  C   UNL     1      -9.677  18.053  68.008  1.00  0.00    -0.309 C  
HETATM    2  C   UNL     1      -9.183  16.594  67.747  1.00  0.00    -0.214 C  
HETATM    3  C   UNL     1     -10.184  18.006  66.558  1.00  0.00    -0.382 C  
HETATM    4  N   UNL     1      -9.800  16.706  66.395  1.00  0.00    -0.276 N  
HETATM    5  C   UNL     1      -9.783  15.332  68.376  1.00  0.00    -0.213 C  
HETATM    6  O   UNL     1     -11.220  16.530  64.068  1.00  0.00    -0.967 OA 
HETATM    7  O   UNL     1     -10.771  18.721  65.781  1.00  0.00    -0.475 OA 
HETATM    8  C   UNL     1     -10.751  15.703  66.259  1.00  0.00    -0.295 C  
HETATM    9  O   UNL     1     -12.412  14.765  64.768  1.00  0.00    -0.401 OA 
HETATM   10  C   UNL     1     -11.565  15.612  65.002  1.00  0.00    -0.079 C  
HETATM   11  C   UNL     1     -10.790  14.893  67.336  1.00  0.00    -0.304 C  
HETATM   12  C   UNL     1     -10.317  15.597  69.776  1.00  0.00    -0.309 C  
ENDROOT
BRANCH   1  13
HETATM   13  C   UNL     1      -8.597  19.078  68.299  1.00  0.00    -0.331 C  
HETATM   14  C   UNL     1      -7.241  18.570  67.830  1.00  0.00    -0.247 C  
HETATM   15  O   UNL     1      -8.891  20.267  67.575  1.00  0.00    -0.335 OA 
HETATM   16  H   UNL     1      -8.215  20.908  67.757  1.00  0.00     0.000 HD 
ENDBRANCH   1  13
BRANCH  11  17
HETATM   17  S   UNL     1     -11.868  13.589  67.650  1.00  0.00    -0.349 SA 
BRANCH  17  18
HETATM   18  C   UNL     1     -10.798  12.165  68.079  1.00  0.00    -0.222 C  
HETATM   19  C   UNL     1      -9.292  12.376  67.994  1.00  0.00    -0.204 C  
HETATM   20  N   UNL     1      -8.945  11.971  66.639  1.00  0.00    -0.204 NA 
HETATM   21  H   UNL     1      -7.955  11.746  66.535  1.00  0.00     0.000 HD 
HETATM   22  C   UNL     1      -9.832  10.847  66.256  1.00  0.00    -0.216 C  
HETATM   23  C   UNL     1     -11.028  10.939  67.208  1.00  0.00    -0.355 C  
BRANCH  22  24
HETATM   24  C   UNL     1     -10.167  10.937  64.738  1.00  0.00    -0.333 C  
HETATM   25  O   UNL     1     -11.166  11.556  64.348  1.00  0.00    -0.321 OA 
HETATM   26  N   UNL     1      -9.299  10.353  63.823  1.00  0.00    -0.265 N  
HETATM   27  C   UNL     1      -8.045   9.687  64.138  1.00  0.00    -0.151 C  
HETATM   28  C   UNL     1      -9.636  10.388  62.405  1.00  0.00    -0.137 C  
ENDBRANCH  22  24
ENDBRANCH  17  18
ENDBRANCH  11  17
TORSDOF 4
ENDMDL
MODEL       26
REMARK 921   NORMALIZED FREE ENERGY PREDICTED BY IDOCK:   -6.11 KCAL/MOL
REMARK 922        TOTAL FREE ENERGY PREDICTED BY IDOCK:   -8.50 KCAL/MOL
REMARK 923 INTER-LIGAND FREE ENERGY PREDICTED BY IDOCK:   -7.31 KCAL/MOL
REMARK 924 INTRA-LIGAND FREE ENERGY PREDICTED BY IDOCK:   -1.19 KCAL/MOL
REMARK 927      BINDING AFFINITY PREDICTED BY RF-SCORE:    0.00 PKD
ROOT
HETATM    1  C   UNL     1      -9.673  18.353  67.444  1.00  0.00    -0.307 C  
HETATM    2  C   UNL     1      -9.105  16.915  67.225  1.00  0.00    -0.218 C  
HETATM    3  C   UNL     1     -10.301  18.180  66.052  1.00  0.00    -0.353 C  
HETATM    4  N   UNL     1      -9.844  16.899  65.931  1.00  0.00    -0.256 N  
HETATM    5  C   UNL     1      -9.558  15.661  67.981  1.00  0.00    -0.203 C  
HETATM    6  O   UNL     1     -11.448  16.482  63.760  1.00  0.00    -1.065 OA 
HETATM    7  O   UNL     1     -11.002  18.804  65.292  1.00  0.00    -0.531 OA 
HETATM    8  C   UNL     1     -10.732  15.831  65.943  1.00  0.00    -0.313 C  
HETATM    9  O   UNL     1     -12.448  14.694  64.670  1.00  0.00    -0.527 OA 
HETATM   10  C   UNL     1     -11.645  15.607  64.775  1.00  0.00    -0.218 C  
HETATM   11  C   UNL     1     -10.620  15.092  67.065  1.00  0.00    -0.300 C  
HETATM   12  C   UNL     1      -9.984  15.982  69.405  1.00  0.00    -0.262 C  
ENDROOT
BRANCH   1  13
HETATM   13  C   UNL     1      -8.645  19.462  67.573  1.00  0.00    -0.300 C  
HETATM   14  C   UNL     1      -7.428  18.971  68.345  1.00  0.00    -0.334 C  
HETATM   15  O   UNL     1      -8.214  19.836  66.270  1.00  0.00    -0.329 OA 
HETATM   16  H   UNL     1      -7.570  20.529  66.351  1.00  0.00     0.000 HD 
ENDBRANCH   1  13
BRANCH  11  17
HETATM   17  S   UNL     1     -11.573  13.745  67.554  1.00  0.00    -0.376 SA 
BRANCH  17  18
HETATM   18  C   UNL     1     -10.917  12.317  66.613  1.00  0.00    -0.278 C  
HETATM   19  C   UNL     1     -11.103  10.935  67.225  1.00  0.00    -0.283 C  
HETATM   20  N   UNL     1      -9.894  10.719  68.008  1.00  0.00    -0.162 NA 
HETATM   21  H   UNL     1      -9.723   9.732  68.206  1.00  0.00     0.000 HD 
HETATM   22  C   UNL     1      -8.766  11.366  67.296  1.00  0.00    -0.148 C  
HETATM   23  C   UNL     1      -9.418  12.386  66.358  1.00  0.00    -0.240 C  
BRANCH  22  24
HETATM   24  C   UNL     1      -7.757  11.946  68.330  1.00  0.00    -0.131 C  
HETATM   25  O   UNL     1      -8.004  13.000  68.930  1.00  0.00     0.006 OA 
HETATM   26  N   UNL     1      -6.595  11.234  68.607  1.00  0.00    -0.060 N  
HETATM   27  C   UNL     1      -6.233   9.940  68.052  1.00  0.00    -0.054 C  
HETATM   28  C   UNL     1      -5.623  11.799  69.533  1.00  0.00    -0.071 C  
ENDBRANCH  22  24
ENDBRANCH  17  18
ENDBRANCH  11  17
TORSDOF 4
ENDMDL
MODEL       27
REMARK 921   NORMALIZED FREE ENERGY PREDICTED BY IDOCK:   -6.11 KCAL/MOL
REMARK 922        TOTAL FREE ENERGY PREDICTED BY IDOCK:   -8.50 KCAL/MOL
REMARK 923 INTER-LIGAND FREE ENERGY PREDICTED BY IDOCK:   -7.57 KCAL/MOL
REMARK 924 INTRA-LIGAND FREE ENERGY PREDICTED BY IDOCK:   -0.93 KCAL/MOL
REMARK 927      BINDING AFFINITY PREDICTED BY RF-SCORE:    0.00 PKD
ROOT
HETATM    1  C   UNL     1     -10.889  13.523  68.789  1.00  0.00    -0.279 C  
HETATM    2  C   UNL     1     -10.977  12.073  68.213  1.00  0.00    -0.234 C  
HETATM    3  C   UNL     1     -11.872  13.021  69.858  1.00  0.00    -0.307 C  
HETATM    4  N   UNL     1     -11.865  11.748  69.364  1.00  0.00    -0.324 N  
HETATM    5  C   UNL     1      -9.848  11.037  68.251  1.00  0.00    -0.185 C  
HETATM    6  O   UNL     1     -13.135  10.824  71.599  1.00  0.00    -0.432 OA 
HETATM    7  O   UNL     1     -12.436  13.445  70.838  1.00  0.00    -0.361 OA 
HETATM    8  C   UNL     1     -11.287  10.715  70.090  1.00  0.00    -0.323 C  
HETATM    9  O   UNL     1     -11.545   9.307  72.043  1.00  0.00    -0.356 OA 
HETATM   10  C   UNL     1     -11.952  10.218  71.339  1.00  0.00    -0.327 C  
HETATM   11  C   UNL     1     -10.153  10.266  69.517  1.00  0.00    -0.235 C  
HETATM   12  C   UNL     1      -8.477  11.691  68.161  1.00  0.00    -0.156 C  
ENDROOT
BRANCH   1  13
HETATM   13  C   UNL     1     -11.401  14.629  67.885  1.00  0.00    -0.315 C  
HETATM   14  C   UNL     1     -12.069  14.040  66.650  1.00  0.00    -0.487 C  
HETATM   15  O   UNL     1     -12.380  15.379  68.595  1.00  0.00    -0.564 OA 
HETATM   16  H   UNL     1     -12.700  16.071  68.029  1.00  0.00     0.000 HD 
ENDBRANCH   1  13
BRANCH  11  17
HETATM   17  S   UNL     1      -9.058   9.076  70.107  1.00  0.00    -0.206 SA 
BRANCH  17  18
HETATM   18  C   UNL     1      -9.392   7.573  69.115  1.00  0.00    -0.147 C  
HETATM   19  C   UNL     1     -10.781   7.434  68.507  1.00  0.00    -0.098 C  
HETATM   20  N   UNL     1     -11.545   6.701  69.507  1.00  0.00    -0.640 NA 
HETATM   21  H   UNL     1     -12.376   6.254  69.119  1.00  0.00     0.000 HD 
HETATM   22  C   UNL     1     -10.630   5.740  70.166  1.00  0.00    -0.307 C  
HETATM   23  C   UNL     1      -9.222   6.274  69.891  1.00  0.00    -0.155 C  
BRANCH  22  24
HETATM   24  C   UNL     1     -11.017   5.593  71.667  1.00  0.00    -0.211 C  
HETATM   25  O   UNL     1     -11.847   6.353  72.182  1.00  0.00    -0.315 OA 
HETATM   26  N   UNL     1     -10.452   4.561  72.408  1.00  0.00    -0.190 N  
HETATM   27  C   UNL     1      -9.546   3.542  71.904  1.00  0.00    -0.148 C  
HETATM   28  C   UNL     1     -10.770   4.452  73.826  1.00  0.00    -0.271 C  
ENDBRANCH  22  24
ENDBRANCH  17  18
ENDBRANCH  11  17
TORSDOF 4
ENDMDL
MODEL       28
REMARK 921   NORMALIZED FREE ENERGY PREDICTED BY IDOCK:   -6.09 KCAL/MOL
REMARK 922        TOTAL FREE ENERGY PREDICTED BY IDOCK:   -8.49 KCAL/MOL
REMARK 923 INTER-LIGAND FREE ENERGY PREDICTED BY IDOCK:   -7.73 KCAL/MOL
REMARK 924 INTRA-LIGAND FREE ENERGY PREDICTED BY IDOCK:   -0.76 KCAL/MOL
REMARK 927      BINDING AFFINITY PREDICTED BY RF-SCORE:    0.00 PKD
ROOT
HETATM    1  C   UNL     1     -10.864   9.289  71.568  1.00  0.00    -0.442 C  
HETATM    2  C   UNL     1     -11.843   9.597  70.390  1.00  0.00    -0.155 C  
HETATM    3  C   UNL     1      -9.774   9.257  70.485  1.00  0.00    -0.260 C  
HETATM    4  N   UNL     1     -10.651   9.597  69.495  1.00  0.00    -0.218 N  
HETATM    5  C   UNL     1     -12.544  10.938  70.151  1.00  0.00    -0.304 C  
HETATM    6  O   UNL     1      -8.589  10.076  67.769  1.00  0.00    -0.118 OA 
HETATM    7  O   UNL     1      -8.579   9.094  70.409  1.00  0.00    -0.167 OA 
HETATM    8  C   UNL     1     -10.565  10.837  68.874  1.00  0.00    -0.216 C  
HETATM    9  O   UNL     1      -9.255  12.173  67.338  1.00  0.00    -0.173 OA 
HETATM   10  C   UNL     1      -9.421  11.130  67.950  1.00  0.00    -0.175 C  
HETATM   11  C   UNL     1     -11.600  11.637  69.196  1.00  0.00    -0.314 C  
HETATM   12  C   UNL     1     -12.852  11.656  71.456  1.00  0.00    -0.469 C  
ENDROOT
BRANCH   1  13
HETATM   13  C   UNL     1     -11.102   7.986  72.307  1.00  0.00    -0.331 C  
HETATM   14  C   UNL     1      -9.970   7.716  73.288  1.00  0.00    -0.379 C  
HETATM   15  O   UNL     1     -12.308   8.100  73.053  1.00  0.00    -0.666 OA 
HETATM   16  H   UNL     1     -12.457   7.284  73.515  1.00  0.00     0.000 HD 
ENDBRANCH   1  13
BRANCH  11  17
HETATM   17  S   UNL     1     -11.859  13.278  68.746  1.00  0.00    -0.316 SA 
BRANCH  17  18
HETATM   18  C   UNL     1     -10.817  14.265  69.884  1.00  0.00     0.070 C  
HETATM   19  C   UNL     1     -11.521  15.299  70.753  1.00  0.00    -0.325 C  
HETATM   20  N   UNL     1     -11.475  16.525  69.968  1.00  0.00    -0.364 NA 
HETATM   21  H   UNL     1     -11.607  17.362  70.536  1.00  0.00     0.000 HD 
HETATM   22  C   UNL     1     -10.199  16.538  69.215  1.00  0.00    -0.290 C  
HETATM   23  C   UNL     1      -9.739  15.078  69.181  1.00  0.00    -0.212 C  
BRANCH  22  24
HETATM   24  C   UNL     1     -10.415  17.212  67.827  1.00  0.00    -0.362 C  
HETATM   25  O   UNL     1     -10.701  16.532  66.834  1.00  0.00    -0.279 OA 
HETATM   26  N   UNL     1     -10.330  18.596  67.733  1.00  0.00    -0.391 N  
HETATM   27  C   UNL     1     -10.102  19.516  68.835  1.00  0.00    -0.401 C  
HETATM   28  C   UNL     1     -10.478  19.226  66.427  1.00  0.00    -0.474 C  
ENDBRANCH  22  24
ENDBRANCH  17  18
ENDBRANCH  11  17
TORSDOF 4
ENDMDL
MODEL       29
REMARK 921   NORMALIZED FREE ENERGY PREDICTED BY IDOCK:   -6.08 KCAL/MOL
REMARK 922        TOTAL FREE ENERGY PREDICTED BY IDOCK:   -8.47 KCAL/MOL
REMARK 923 INTER-LIGAND FREE ENERGY PREDICTED BY IDOCK:   -7.16 KCAL/MOL
REMARK 924 INTRA-LIGAND FREE ENERGY PREDICTED BY IDOCK:   -1.30 KCAL/MOL
REMARK 927      BINDING AFFINITY PREDICTED BY RF-SCORE:    0.00 PKD
ROOT
HETATM    1  C   UNL     1     -10.726  13.068  64.151  1.00  0.00    -0.429 C  
HETATM    2  C   UNL     1     -10.868  12.163  65.416  1.00  0.00    -0.294 C  
HETATM    3  C   UNL     1     -10.643  14.233  65.150  1.00  0.00    -0.406 C  
HETATM    4  N   UNL     1     -10.698  13.400  66.230  1.00  0.00    -0.285 N  
HETATM    5  C   UNL     1      -9.807  11.180  65.923  1.00  0.00    -0.275 C  
HETATM    6  O   UNL     1      -9.977  15.438  67.898  1.00  0.00    -0.220 OA 
HETATM    7  O   UNL     1     -10.502  15.432  65.130  1.00  0.00    -0.392 OA 
HETATM    8  C   UNL     1      -9.590  13.239  67.052  1.00  0.00    -0.243 C  
HETATM    9  O   UNL     1      -8.216  14.323  68.724  1.00  0.00    -0.145 OA 
HETATM   10  C   UNL     1      -9.159  14.360  67.950  1.00  0.00    -0.187 C  
HETATM   11  C   UNL     1      -9.045  12.012  66.932  1.00  0.00    -0.196 C  
HETATM   12  C   UNL     1      -8.999  10.581  64.782  1.00  0.00    -0.227 C  
ENDROOT
BRANCH   1  13
HETATM   13  C   UNL     1     -11.916  13.086  63.210  1.00  0.00    -0.421 C  
HETATM   14  C   UNL     1     -12.881  11.959  63.551  1.00  0.00    -0.435 C  
HETATM   15  O   UNL     1     -12.609  14.318  63.376  1.00  0.00    -1.067 OA 
HETATM   16  H   UNL     1     -13.354  14.329  62.787  1.00  0.00     0.000 HD 
ENDBRANCH   1  13
BRANCH  11  17
HETATM   17  S   UNL     1      -7.617  11.404  67.675  1.00  0.00    -0.115 SA 
BRANCH  17  18
HETATM   18  C   UNL     1      -8.160  10.717  69.284  1.00  0.00    -0.127 C  
HETATM   19  C   UNL     1      -7.241   9.704  69.955  1.00  0.00    -0.106 C  
HETATM   20  N   UNL     1      -7.710   8.413  69.472  1.00  0.00    -0.094 NA 
HETATM   21  H   UNL     1      -7.419   7.638  70.069  1.00  0.00     0.000 HD 
HETATM   22  C   UNL     1      -9.182   8.492  69.311  1.00  0.00    -0.153 C  
HETATM   23  C   UNL     1      -9.495   9.988  69.222  1.00  0.00    -0.227 C  
BRANCH  22  24
HETATM   24  C   UNL     1      -9.623   7.634  68.088  1.00  0.00    -0.149 C  
HETATM   25  O   UNL     1      -9.104   7.806  66.977  1.00  0.00    -0.129 OA 
HETATM   26  N   UNL     1     -10.573   6.637  68.275  1.00  0.00    -0.217 N  
HETATM   27  C   UNL     1     -11.184   6.264  69.541  1.00  0.00    -0.430 C  
HETATM   28  C   UNL     1     -11.028   5.868  67.124  1.00  0.00    -0.195 C  
ENDBRANCH  22  24
ENDBRANCH  17  18
ENDBRANCH  11  17
TORSDOF 4
ENDMDL
MODEL       30
REMARK 921   NORMALIZED FREE ENERGY PREDICTED BY IDOCK:   -6.07 KCAL/MOL
REMARK 922        TOTAL FREE ENERGY PREDICTED BY IDOCK:   -8.45 KCAL/MOL
REMARK 923 INTER-LIGAND FREE ENERGY PREDICTED BY IDOCK:   -7.28 KCAL/MOL
REMARK 924 INTRA-LIGAND FREE ENERGY PREDICTED BY IDOCK:   -1.18 KCAL/MOL
REMARK 927      BINDING AFFINITY PREDICTED BY RF-SCORE:    0.00 PKD
ROOT
HETATM    1  C   UNL     1     -10.984  12.645  68.298  1.00  0.00    -0.275 C  
HETATM    2  C   UNL     1     -11.447  11.203  67.916  1.00  0.00    -0.284 C  
HETATM    3  C   UNL     1     -11.835  12.446  69.562  1.00  0.00    -0.303 C  
HETATM    4  N   UNL     1     -12.158  11.163  69.225  1.00  0.00    -0.342 N  
HETATM    5  C   UNL     1     -10.547   9.962  67.892  1.00  0.00    -0.303 C  
HETATM    6  O   UNL     1     -13.154  10.707  71.727  1.00  0.00    -0.444 OA 
HETATM    7  O   UNL     1     -12.122  13.056  70.564  1.00  0.00    -0.355 OA 
HETATM    8  C   UNL     1     -11.665  10.095  69.963  1.00  0.00    -0.223 C  
HETATM    9  O   UNL     1     -11.827   8.935  72.082  1.00  0.00    -0.361 OA 
HETATM   10  C   UNL     1     -12.175   9.850  71.352  1.00  0.00    -0.408 C  
HETATM   11  C   UNL     1     -10.759   9.377  69.271  1.00  0.00    -0.211 C  
HETATM   12  C   UNL     1      -9.117  10.309  67.508  1.00  0.00    -0.146 C  
ENDROOT
BRANCH   1  13
HETATM   13  C   UNL     1     -11.432  13.756  67.366  1.00  0.00    -0.345 C  
HETATM   14  C   UNL     1     -12.085  13.173  66.120  1.00  0.00    -0.479 C  
HETATM   15  O   UNL     1     -12.404  14.548  68.038  1.00  0.00    -0.606 OA 
HETATM   16  H   UNL     1     -12.684  15.243  67.455  1.00  0.00     0.000 HD 
ENDBRANCH   1  13
BRANCH  11  17
HETATM   17  S   UNL     1      -9.821   8.039  69.812  1.00  0.00    -0.185 SA 
BRANCH  17  18
HETATM   18  C   UNL     1     -10.804   6.552  69.388  1.00  0.00    -0.308 C  
HETATM   19  C   UNL     1     -10.181   5.196  69.689  1.00  0.00    -0.267 C  
HETATM   20  N   UNL     1      -9.481   4.837  68.463  1.00  0.00    -0.137 NA 
HETATM   21  H   UNL     1      -9.295   3.836  68.393  1.00  0.00     0.000 HD 
HETATM   22  C   UNL     1     -10.267   5.357  67.319  1.00  0.00    -0.214 C  
HETATM   23  C   UNL     1     -11.160   6.451  67.911  1.00  0.00    -0.370 C  
BRANCH  22  24
HETATM   24  C   UNL     1      -9.304   5.810  66.183  1.00  0.00    -0.144 C  
HETATM   25  O   UNL     1      -8.666   6.866  66.280  1.00  0.00    -0.133 OA 
HETATM   26  N   UNL     1      -9.132   4.983  65.079  1.00  0.00    -0.138 N  
HETATM   27  C   UNL     1      -9.739   3.676  64.886  1.00  0.00    -0.172 C  
HETATM   28  C   UNL     1      -8.274   5.428  63.988  1.00  0.00    -0.125 C  
ENDBRANCH  22  24
ENDBRANCH  17  18
ENDBRANCH  11  17
TORSDOF 4
ENDMDL
MODEL       31
REMARK 921   NORMALIZED FREE ENERGY PREDICTED BY IDOCK:   -6.02 KCAL/MOL
REMARK 922        TOTAL FREE ENERGY PREDICTED BY IDOCK:   -8.40 KCAL/MOL
REMARK 923 INTER-LIGAND FREE ENERGY PREDICTED BY IDOCK:   -7.97 KCAL/MOL
REMARK 924 INTRA-LIGAND FREE ENERGY PREDICTED BY IDOCK:   -0.43 KCAL/MOL
REMARK 927      BINDING AFFINITY PREDICTED BY RF-SCORE:    0.00 PKD
ROOT
HETATM    1  C   UNL     1      -9.663   9.759  66.466  1.00  0.00    -0.267 C  
HETATM    2  C   UNL     1     -10.431  10.813  67.327  1.00  0.00    -0.237 C  
HETATM    3  C   UNL     1     -10.221  10.527  65.258  1.00  0.00    -0.282 C  
HETATM    4  N   UNL     1     -10.818  11.468  66.045  1.00  0.00    -0.286 N  
HETATM    5  C   UNL     1      -9.775  11.909  68.174  1.00  0.00    -0.194 C  
HETATM    6  O   UNL     1     -11.273  13.063  63.875  1.00  0.00    -0.394 OA 
HETATM    7  O   UNL     1     -10.166  10.478  64.052  1.00  0.00    -0.319 OA 
HETATM    8  C   UNL     1     -10.349  12.776  66.058  1.00  0.00    -0.276 C  
HETATM    9  O   UNL     1     -10.206  14.820  64.770  1.00  0.00    -0.349 OA 
HETATM   10  C   UNL     1     -10.559  13.655  64.862  1.00  0.00    -0.408 C  
HETATM   11  C   UNL     1      -9.756  13.089  67.227  1.00  0.00    -0.225 C  
HETATM   12  C   UNL     1      -8.434  11.462  68.737  1.00  0.00    -0.089 C  
ENDROOT
BRANCH   1  13
HETATM   13  C   UNL     1     -10.126   8.321  66.609  1.00  0.00    -0.281 C  
HETATM   14  C   UNL     1      -8.931   7.390  66.760  1.00  0.00    -0.159 C  
HETATM   15  O   UNL     1     -10.915   8.212  67.789  1.00  0.00    -0.492 OA 
HETATM   16  H   UNL     1     -11.204   7.312  67.878  1.00  0.00     0.000 HD 
ENDBRANCH   1  13
BRANCH  11  17
HETATM   17  S   UNL     1      -8.950  14.548  67.656  1.00  0.00    -0.202 SA 
BRANCH  17  18
HETATM   18  C   UNL     1     -10.276  15.795  67.861  1.00  0.00    -0.242 C  
HETATM   19  C   UNL     1     -10.159  16.748  69.044  1.00  0.00    -0.283 C  
HETATM   20  N   UNL     1     -10.888  16.087  70.117  1.00  0.00    -0.342 NA 
HETATM   21  H   UNL     1     -11.175  16.732  70.854  1.00  0.00     0.000 HD 
HETATM   22  C   UNL     1     -12.031  15.361  69.513  1.00  0.00    -0.334 C  
HETATM   23  C   UNL     1     -11.663  15.193  68.036  1.00  0.00    -0.304 C  
BRANCH  22  24
HETATM   24  C   UNL     1     -12.289  14.043  70.301  1.00  0.00    -0.358 C  
HETATM   25  O   UNL     1     -11.692  13.001  70.000  1.00  0.00    -0.289 OA 
HETATM   26  N   UNL     1     -13.164  14.066  71.381  1.00  0.00    -0.340 N  
HETATM   27  C   UNL     1     -13.850  15.238  71.901  1.00  0.00    -0.520 C  
HETATM   28  C   UNL     1     -13.451  12.824  72.086  1.00  0.00    -0.492 C  
ENDBRANCH  22  24
ENDBRANCH  17  18
ENDBRANCH  11  17
TORSDOF 4
ENDMDL
MODEL       32
REMARK 921   NORMALIZED FREE ENERGY PREDICTED BY IDOCK:   -5.98 KCAL/MOL
REMARK 922        TOTAL FREE ENERGY PREDICTED BY IDOCK:   -8.35 KCAL/MOL
REMARK 923 INTER-LIGAND FREE ENERGY PREDICTED BY IDOCK:   -7.23 KCAL/MOL
REMARK 924 INTRA-LIGAND FREE ENERGY PREDICTED BY IDOCK:   -1.11 KCAL/MOL
REMARK 927      BINDING AFFINITY PREDICTED BY RF-SCORE:    0.00 PKD
ROOT
HETATM    1  C   UNL     1      -9.614  17.572  68.560  1.00  0.00    -0.305 C  
HETATM    2  C   UNL     1      -9.930  16.616  67.365  1.00  0.00    -0.265 C  
HETATM    3  C   UNL     1     -10.727  16.810  69.297  1.00  0.00    -0.324 C  
HETATM    4  N   UNL     1     -10.922  15.950  68.255  1.00  0.00    -0.314 N  
HETATM    5  C   UNL     1      -9.008  15.501  66.858  1.00  0.00    -0.272 C  
HETATM    6  O   UNL     1     -12.452  14.322  69.825  1.00  0.00    -0.323 OA 
HETATM    7  O   UNL     1     -11.257  16.811  70.382  1.00  0.00    -0.158 OA 
HETATM    8  C   UNL     1     -10.577  14.610  68.375  1.00  0.00    -0.241 C  
HETATM    9  O   UNL     1     -11.186  12.516  69.426  1.00  0.00    -0.225 OA 
HETATM   10  C   UNL     1     -11.386  13.708  69.260  1.00  0.00    -0.269 C  
HETATM   11  C   UNL     1      -9.513  14.291  67.613  1.00  0.00    -0.211 C  
HETATM   12  C   UNL     1      -7.540  15.856  67.038  1.00  0.00    -0.264 C  
ENDROOT
BRANCH   1  13
HETATM   13  C   UNL     1      -9.871  19.048  68.316  1.00  0.00    -0.378 C  
HETATM   14  C   UNL     1     -10.801  19.236  67.124  1.00  0.00    -0.543 C  
HETATM   15  O   UNL     1     -10.516  19.592  69.462  1.00  0.00    -0.545 OA 
HETATM   16  H   UNL     1     -10.677  20.516  69.309  1.00  0.00     0.000 HD 
ENDBRANCH   1  13
BRANCH  11  17
HETATM   17  S   UNL     1      -8.682  12.786  67.519  1.00  0.00    -0.197 SA 
BRANCH  17  18
HETATM   18  C   UNL     1      -9.572  11.817  66.244  1.00  0.00    -0.225 C  
HETATM   19  C   UNL     1     -11.095  11.854  66.279  1.00  0.00    -0.314 C  
HETATM   20  N   UNL     1     -11.467  10.721  67.114  1.00  0.00    -0.363 NA 
HETATM   21  H   UNL     1     -12.432  10.423  66.968  1.00  0.00     0.000 HD 
HETATM   22  C   UNL     1     -10.487   9.635  66.874  1.00  0.00    -0.212 C  
HETATM   23  C   UNL     1      -9.260  10.328  66.275  1.00  0.00    -0.191 C  
BRANCH  22  24
HETATM   24  C   UNL     1     -10.243   8.848  68.196  1.00  0.00    -0.201 C  
HETATM   25  O   UNL     1      -9.987   9.447  69.249  1.00  0.00    -0.168 OA 
HETATM   26  N   UNL     1     -10.365   7.463  68.185  1.00  0.00    -0.187 N  
HETATM   27  C   UNL     1     -10.758   6.648  67.046  1.00  0.00    -0.366 C  
HETATM   28  C   UNL     1     -10.084   6.718  69.406  1.00  0.00    -0.171 C  
ENDBRANCH  22  24
ENDBRANCH  17  18
ENDBRANCH  11  17
TORSDOF 4
ENDMDL
MODEL       33
REMARK 921   NORMALIZED FREE ENERGY PREDICTED BY IDOCK:   -5.94 KCAL/MOL
REMARK 922        TOTAL FREE ENERGY PREDICTED BY IDOCK:   -8.30 KCAL/MOL
REMARK 923 INTER-LIGAND FREE ENERGY PREDICTED BY IDOCK:   -7.16 KCAL/MOL
REMARK 924 INTRA-LIGAND FREE ENERGY PREDICTED BY IDOCK:   -1.14 KCAL/MOL
REMARK 927      BINDING AFFINITY PREDICTED BY RF-SCORE:    0.00 PKD
ROOT
HETATM    1  C   UNL     1      -9.604   5.595  71.479  1.00  0.00    -0.184 C  
HETATM    2  C   UNL     1     -10.451   6.905  71.393  1.00  0.00    -0.209 C  
HETATM    3  C   UNL     1     -10.131   5.312  70.063  1.00  0.00    -0.266 C  
HETATM    4  N   UNL     1     -10.800   6.501  70.001  1.00  0.00    -0.259 N  
HETATM    5  C   UNL     1      -9.878   8.322  71.284  1.00  0.00    -0.225 C  
HETATM    6  O   UNL     1     -11.208   6.185  67.319  1.00  0.00    -0.288 OA 
HETATM    7  O   UNL     1     -10.016   4.467  69.207  1.00  0.00    -0.194 OA 
HETATM    8  C   UNL     1     -10.381   7.500  69.133  1.00  0.00    -0.212 C  
HETATM    9  O   UNL     1     -10.252   8.146  66.803  1.00  0.00    -0.280 OA 
HETATM   10  C   UNL     1     -10.565   7.329  67.654  1.00  0.00    -0.246 C  
HETATM   11  C   UNL     1      -9.857   8.554  69.789  1.00  0.00    -0.186 C  
HETATM   12  C   UNL     1      -8.551   8.453  72.016  1.00  0.00    -0.254 C  
ENDROOT
BRANCH   1  13
HETATM   13  C   UNL     1     -10.020   4.604  72.550  1.00  0.00    -0.168 C  
HETATM   14  C   UNL     1     -11.345   5.020  73.174  1.00  0.00    -0.397 C  
HETATM   15  O   UNL     1     -10.204   3.330  71.944  1.00  0.00    -0.127 OA 
HETATM   16  H   UNL     1     -10.464   2.710  72.615  1.00  0.00     0.000 HD 
ENDBRANCH   1  13
BRANCH  11  17
HETATM   17  S   UNL     1      -9.128   9.966  69.128  1.00  0.00    -0.184 SA 
BRANCH  17  18
HETATM   18  C   UNL     1     -10.324  11.320  69.434  1.00  0.00    -0.002 C  
HETATM   19  C   UNL     1     -11.801  10.951  69.467  1.00  0.00    -0.332 C  
HETATM   20  N   UNL     1     -12.251  11.132  68.094  1.00  0.00    -0.645 NA 
HETATM   21  H   UNL     1     -13.264  11.240  68.022  1.00  0.00     0.000 HD 
HETATM   22  C   UNL     1     -11.509  12.277  67.516  1.00  0.00    -0.347 C  
HETATM   23  C   UNL     1     -10.267  12.435  68.399  1.00  0.00    -0.227 C  
BRANCH  22  24
HETATM   24  C   UNL     1     -11.237  12.017  66.005  1.00  0.00    -0.335 C  
HETATM   25  O   UNL     1     -10.534  11.063  65.646  1.00  0.00    -0.254 OA 
HETATM   26  N   UNL     1     -11.837  12.844  65.063  1.00  0.00    -0.350 N  
HETATM   27  C   UNL     1     -12.761  13.931  65.344  1.00  0.00    -0.490 C  
HETATM   28  C   UNL     1     -11.542  12.638  63.651  1.00  0.00    -0.503 C  
ENDBRANCH  22  24
ENDBRANCH  17  18
ENDBRANCH  11  17
TORSDOF 4
ENDMDL
MODEL       34
REMARK 921   NORMALIZED FREE ENERGY PREDICTED BY IDOCK:   -5.94 KCAL/MOL
REMARK 922        TOTAL FREE ENERGY PREDICTED BY IDOCK:   -8.30 KCAL/MOL
REMARK 923 INTER-LIGAND FREE ENERGY PREDICTED BY IDOCK:   -7.32 KCAL/MOL
REMARK 924 INTRA-LIGAND FREE ENERGY PREDICTED BY IDOCK:   -0.98 KCAL/MOL
REMARK 927      BINDING AFFINITY PREDICTED BY RF-SCORE:    0.00 PKD
ROOT
HETATM    1  C   UNL     1     -10.993   6.258  69.912  1.00  0.00    -0.435 C  
HETATM    2  C   UNL     1     -10.165   7.583  69.909  1.00  0.00    -0.210 C  
HETATM    3  C   UNL     1     -11.697   6.851  71.143  1.00  0.00    -0.336 C  
HETATM    4  N   UNL     1     -11.000   8.023  71.062  1.00  0.00    -0.236 N  
HETATM    5  C   UNL     1     -10.281   8.695  68.861  1.00  0.00    -0.221 C  
HETATM    6  O   UNL     1     -12.677   9.199  72.869  1.00  0.00    -0.227 OA 
HETATM    7  O   UNL     1     -12.577   6.550  71.913  1.00  0.00    -0.341 OA 
HETATM    8  C   UNL     1     -11.646   9.202  70.714  1.00  0.00    -0.276 C  
HETATM    9  O   UNL     1     -13.203  10.886  71.490  1.00  0.00    -0.386 OA 
HETATM   10  C   UNL     1     -12.597   9.844  71.681  1.00  0.00    -0.424 C  
HETATM   11  C   UNL     1     -11.283   9.637  69.492  1.00  0.00    -0.109 C  
HETATM   12  C   UNL     1     -10.631   8.143  67.487  1.00  0.00    -0.291 C  
ENDROOT
BRANCH   1  13
HETATM   13  C   UNL     1     -10.206   4.983  70.149  1.00  0.00    -0.259 C  
HETATM   14  C   UNL     1      -8.722   5.220  69.904  1.00  0.00    -0.117 C  
HETATM   15  O   UNL     1     -10.367   4.595  71.509  1.00  0.00    -0.182 OA 
HETATM   16  H   UNL     1      -9.874   3.797  71.657  1.00  0.00     0.000 HD 
ENDBRANCH   1  13
BRANCH  11  17
HETATM   17  S   UNL     1     -11.892  10.988  68.617  1.00  0.00    -0.161 SA 
BRANCH  17  18
HETATM   18  C   UNL     1     -10.992  12.441  69.276  1.00  0.00    -0.087 C  
HETATM   19  C   UNL     1     -11.813  13.499  70.001  1.00  0.00    -0.301 C  
HETATM   20  N   UNL     1     -12.180  14.450  68.961  1.00  0.00    -0.541 NA 
HETATM   21  H   UNL     1     -12.443  15.362  69.335  1.00  0.00     0.000 HD 
HETATM   22  C   UNL     1     -11.057  14.527  67.996  1.00  0.00    -0.276 C  
HETATM   23  C   UNL     1     -10.254  13.242  68.213  1.00  0.00    -0.250 C  
BRANCH  22  24
HETATM   24  C   UNL     1     -11.615  14.742  66.558  1.00  0.00    -0.301 C  
HETATM   25  O   UNL     1     -12.645  14.164  66.188  1.00  0.00    -0.465 OA 
HETATM   26  N   UNL     1     -10.966  15.635  65.713  1.00  0.00    -0.288 N  
HETATM   27  C   UNL     1      -9.813  16.452  66.054  1.00  0.00    -0.335 C  
HETATM   28  C   UNL     1     -11.453  15.798  64.349  1.00  0.00    -0.263 C  
ENDBRANCH  22  24
ENDBRANCH  17  18
ENDBRANCH  11  17
TORSDOF 4
ENDMDL
MODEL       35
REMARK 921   NORMALIZED FREE ENERGY PREDICTED BY IDOCK:   -5.92 KCAL/MOL
REMARK 922        TOTAL FREE ENERGY PREDICTED BY IDOCK:   -8.27 KCAL/MOL
REMARK 923 INTER-LIGAND FREE ENERGY PREDICTED BY IDOCK:   -7.22 KCAL/MOL
REMARK 924 INTRA-LIGAND FREE ENERGY PREDICTED BY IDOCK:   -1.05 KCAL/MOL
REMARK 927      BINDING AFFINITY PREDICTED BY RF-SCORE:    0.00 PKD
ROOT
HETATM    1  C   UNL     1     -11.930   8.417  70.720  1.00  0.00    -0.122 C  
HETATM    2  C   UNL     1     -10.838   9.505  70.464  1.00  0.00    -0.292 C  
HETATM    3  C   UNL     1     -12.620   9.493  71.573  1.00  0.00    -0.373 C  
HETATM    4  N   UNL     1     -11.681  10.436  71.266  1.00  0.00    -0.303 N  
HETATM    5  C   UNL     1     -10.592  10.212  69.126  1.00  0.00    -0.247 C  
HETATM    6  O   UNL     1     -13.252  12.409  72.313  1.00  0.00    -0.473 OA 
HETATM    7  O   UNL     1     -13.625   9.618  72.231  1.00  0.00    -0.438 OA 
HETATM    8  C   UNL     1     -12.012  11.526  70.473  1.00  0.00    -0.344 C  
HETATM    9  O   UNL     1     -13.242  13.611  70.420  1.00  0.00     0.052 OA 
HETATM   10  C   UNL     1     -12.902  12.603  71.019  1.00  0.00    -0.166 C  
HETATM   11  C   UNL     1     -11.430  11.465  69.259  1.00  0.00    -0.303 C  
HETATM   12  C   UNL     1     -10.899   9.306  67.943  1.00  0.00    -0.181 C  
ENDROOT
BRANCH   1  13
HETATM   13  C   UNL     1     -11.470   7.177  71.464  1.00  0.00    -0.268 C  
HETATM   14  C   UNL     1      -9.949   7.129  71.530  1.00  0.00    -0.190 C  
HETATM   15  O   UNL     1     -11.962   7.238  72.798  1.00  0.00    -0.532 OA 
HETATM   16  H   UNL     1     -11.674   6.461  73.263  1.00  0.00     0.000 HD 
ENDBRANCH   1  13
BRANCH  11  17
HETATM   17  S   UNL     1     -11.629  12.535  67.926  1.00  0.00    -0.359 SA 
BRANCH  17  18
HETATM   18  C   UNL     1      -9.932  13.013  67.427  1.00  0.00    -0.228 C  
HETATM   19  C   UNL     1      -8.930  13.286  68.541  1.00  0.00    -0.058 C  
HETATM   20  N   UNL     1      -9.044  14.716  68.790  1.00  0.00    -0.214 NA 
HETATM   21  H   UNL     1      -8.226  15.100  69.264  1.00  0.00     0.000 HD 
HETATM   22  C   UNL     1      -9.326  15.384  67.497  1.00  0.00    -0.203 C  
HETATM   23  C   UNL     1      -9.872  14.281  66.587  1.00  0.00    -0.288 C  
BRANCH  22  24
HETATM   24  C   UNL     1     -10.270  16.600  67.730  1.00  0.00    -0.292 C  
HETATM   25  O   UNL     1     -11.332  16.464  68.352  1.00  0.00    -0.366 OA 
HETATM   26  N   UNL     1      -9.878  17.852  67.272  1.00  0.00    -0.298 N  
HETATM   27  C   UNL     1      -8.617  18.169  66.620  1.00  0.00    -0.267 C  
HETATM   28  C   UNL     1     -10.783  18.982  67.440  1.00  0.00    -0.473 C  
ENDBRANCH  22  24
ENDBRANCH  17  18
ENDBRANCH  11  17
TORSDOF 4
ENDMDL
MODEL       36
REMARK 921   NORMALIZED FREE ENERGY PREDICTED BY IDOCK:   -5.91 KCAL/MOL
REMARK 922        TOTAL FREE ENERGY PREDICTED BY IDOCK:   -8.26 KCAL/MOL
REMARK 923 INTER-LIGAND FREE ENERGY PREDICTED BY IDOCK:   -8.10 KCAL/MOL
REMARK 924 INTRA-LIGAND FREE ENERGY PREDICTED BY IDOCK:   -0.16 KCAL/MOL
REMARK 927      BINDING AFFINITY PREDICTED BY RF-SCORE:    0.00 PKD
ROOT
HETATM    1  C   UNL     1     -10.735  12.780  64.175  1.00  0.00    -0.441 C  
HETATM    2  C   UNL     1     -11.097  11.946  65.446  1.00  0.00    -0.306 C  
HETATM    3  C   UNL     1     -10.648  13.973  65.139  1.00  0.00    -0.386 C  
HETATM    4  N   UNL     1     -10.897  13.196  66.233  1.00  0.00    -0.278 N  
HETATM    5  C   UNL     1     -10.195  10.893  66.099  1.00  0.00    -0.304 C  
HETATM    6  O   UNL     1     -10.166  15.229  67.904  1.00  0.00    -0.232 OA 
HETATM    7  O   UNL     1     -10.392  15.153  65.097  1.00  0.00    -0.379 OA 
HETATM    8  C   UNL     1      -9.904  12.969  67.177  1.00  0.00    -0.230 C  
HETATM    9  O   UNL     1      -8.617  13.993  68.954  1.00  0.00    -0.084 OA 
HETATM   10  C   UNL     1      -9.465  14.083  68.080  1.00  0.00    -0.206 C  
HETATM   11  C   UNL     1      -9.468  11.694  67.157  1.00  0.00    -0.176 C  
HETATM   12  C   UNL     1      -9.331  10.174  65.073  1.00  0.00    -0.299 C  
ENDROOT
BRANCH   1  13
HETATM   13  C   UNL     1     -11.811  12.867  63.109  1.00  0.00    -0.208 C  
HETATM   14  C   UNL     1     -12.828  11.747  63.287  1.00  0.00    -0.224 C  
HETATM   15  O   UNL     1     -12.497  14.105  63.255  1.00  0.00    -1.146 OA 
HETATM   16  H   UNL     1     -13.170  14.159  62.588  1.00  0.00     0.000 HD 
ENDBRANCH   1  13
BRANCH  11  17
HETATM   17  S   UNL     1      -8.192  10.989  68.072  1.00  0.00    -0.128 SA 
BRANCH  17  18
HETATM   18  C   UNL     1      -8.912   9.488  68.836  1.00  0.00    -0.141 C  
HETATM   19  C   UNL     1     -10.070   8.821  68.105  1.00  0.00    -0.190 C  
HETATM   20  N   UNL     1     -11.261   9.438  68.672  1.00  0.00    -0.464 NA 
HETATM   21  H   UNL     1     -12.102   8.878  68.527  1.00  0.00     0.000 HD 
HETATM   22  C   UNL     1     -10.995   9.715  70.103  1.00  0.00    -0.275 C  
HETATM   23  C   UNL     1      -9.470   9.717  70.234  1.00  0.00    -0.300 C  
BRANCH  22  24
HETATM   24  C   UNL     1     -11.712  11.032  70.524  1.00  0.00    -0.318 C  
HETATM   25  O   UNL     1     -11.426  12.107  69.982  1.00  0.00    -0.212 OA 
HETATM   26  N   UNL     1     -12.716  10.972  71.485  1.00  0.00    -0.421 N  
HETATM   27  C   UNL     1     -13.218   9.767  72.124  1.00  0.00    -0.436 C  
HETATM   28  C   UNL     1     -13.352  12.209  71.921  1.00  0.00    -0.318 C  
ENDBRANCH  22  24
ENDBRANCH  17  18
ENDBRANCH  11  17
TORSDOF 4
ENDMDL
MODEL       37
REMARK 921   NORMALIZED FREE ENERGY PREDICTED BY IDOCK:   -5.88 KCAL/MOL
REMARK 922        TOTAL FREE ENERGY PREDICTED BY IDOCK:   -8.22 KCAL/MOL
REMARK 923 INTER-LIGAND FREE ENERGY PREDICTED BY IDOCK:   -7.12 KCAL/MOL
REMARK 924 INTRA-LIGAND FREE ENERGY PREDICTED BY IDOCK:   -1.10 KCAL/MOL
REMARK 927      BINDING AFFINITY PREDICTED BY RF-SCORE:    0.00 PKD
ROOT
HETATM    1  C   UNL     1     -11.784  13.794  66.429  1.00  0.00    -0.404 C  
HETATM    2  C   UNL     1     -10.524  14.698  66.243  1.00  0.00    -0.298 C  
HETATM    3  C   UNL     1     -10.799  12.619  66.332  1.00  0.00    -0.269 C  
HETATM    4  N   UNL     1      -9.716  13.445  66.243  1.00  0.00    -0.284 N  
HETATM    5  C   UNL     1      -9.909  15.591  67.326  1.00  0.00    -0.224 C  
HETATM    6  O   UNL     1      -8.020  11.344  66.652  1.00  0.00    -0.156 OA 
HETATM    7  O   UNL     1     -10.823  11.412  66.381  1.00  0.00    -0.269 OA 
HETATM    8  C   UNL     1      -8.796  13.513  67.281  1.00  0.00    -0.224 C  
HETATM    9  O   UNL     1      -7.024  12.312  68.411  1.00  0.00    -0.070 OA 
HETATM   10  C   UNL     1      -7.880  12.355  67.542  1.00  0.00    -0.169 C  
HETATM   11  C   UNL     1      -8.849  14.694  67.928  1.00  0.00    -0.170 C  
HETATM   12  C   UNL     1     -10.965  16.134  68.277  1.00  0.00    -0.340 C  
ENDROOT
BRANCH   1  13
HETATM   13  C   UNL     1     -12.828  13.876  65.331  1.00  0.00    -0.427 C  
HETATM   14  C   UNL     1     -12.365  14.815  64.225  1.00  0.00    -0.345 C  
HETATM   15  O   UNL     1     -12.993  12.582  64.763  1.00  0.00    -0.827 OA 
HETATM   16  H   UNL     1     -13.646  12.633  64.075  1.00  0.00     0.000 HD 
ENDBRANCH   1  13
BRANCH  11  17
HETATM   17  S   UNL     1      -7.972  15.184  69.326  1.00  0.00    -0.202 SA 
BRANCH  17  18
HETATM   18  C   UNL     1      -6.528  16.116  68.692  1.00  0.00    -0.120 C  
HETATM   19  C   UNL     1      -5.806  17.032  69.672  1.00  0.00    -0.217 C  
HETATM   20  N   UNL     1      -6.458  18.324  69.510  1.00  0.00    -0.234 NA 
HETATM   21  H   UNL     1      -5.886  19.099  69.847  1.00  0.00     0.000 HD 
HETATM   22  C   UNL     1      -6.839  18.468  68.085  1.00  0.00    -0.229 C  
HETATM   23  C   UNL     1      -6.855  17.041  67.529  1.00  0.00    -0.166 C  
BRANCH  22  24
HETATM   24  C   UNL     1      -8.180  19.251  67.977  1.00  0.00    -0.311 C  
HETATM   25  O   UNL     1      -8.941  19.337  68.950  1.00  0.00    -0.358 OA 
HETATM   26  N   UNL     1      -8.487  19.897  66.785  1.00  0.00    -0.315 N  
HETATM   27  C   UNL     1      -7.640  19.962  65.605  1.00  0.00    -0.227 C  
HETATM   28  C   UNL     1      -9.765  20.586  66.662  1.00  0.00    -0.267 C  
ENDBRANCH  22  24
ENDBRANCH  17  18
ENDBRANCH  11  17
TORSDOF 4
ENDMDL
MODEL       38
REMARK 921   NORMALIZED FREE ENERGY PREDICTED BY IDOCK:   -5.87 KCAL/MOL
REMARK 922        TOTAL FREE ENERGY PREDICTED BY IDOCK:   -8.21 KCAL/MOL
REMARK 923 INTER-LIGAND FREE ENERGY PREDICTED BY IDOCK:   -7.27 KCAL/MOL
REMARK 924 INTRA-LIGAND FREE ENERGY PREDICTED BY IDOCK:   -0.94 KCAL/MOL
REMARK 927      BINDING AFFINITY PREDICTED BY RF-SCORE:    0.00 PKD
ROOT
HETATM    1  C   UNL     1      -8.304   9.723  64.354  1.00  0.00    -0.169 C  
HETATM    2  C   UNL     1      -9.458   9.634  65.404  1.00  0.00    -0.278 C  
HETATM    3  C   UNL     1      -9.241  10.676  63.595  1.00  0.00    -0.259 C  
HETATM    4  N   UNL     1     -10.195  10.626  64.570  1.00  0.00    -0.349 N  
HETATM    5  C   UNL     1      -9.416  10.226  66.817  1.00  0.00    -0.198 C  
HETATM    6  O   UNL     1     -11.518  12.736  63.450  1.00  0.00    -0.490 OA 
HETATM    7  O   UNL     1      -9.232  11.336  62.583  1.00  0.00    -0.346 OA 
HETATM    8  C   UNL     1     -10.464  11.744  65.349  1.00  0.00    -0.272 C  
HETATM    9  O   UNL     1     -11.462  13.949  65.334  1.00  0.00    -0.303 OA 
HETATM   10  C   UNL     1     -11.160  12.925  64.742  1.00  0.00    -0.309 C  
HETATM   11  C   UNL     1     -10.056  11.583  66.623  1.00  0.00    -0.210 C  
HETATM   12  C   UNL     1      -8.008  10.210  67.394  1.00  0.00    -0.110 C  
ENDROOT
BRANCH   1  13
HETATM   13  C   UNL     1      -7.953   8.431  63.641  1.00  0.00    -0.159 C  
HETATM   14  C   UNL     1      -6.444   8.293  63.503  1.00  0.00    -0.076 C  
HETATM   15  O   UNL     1      -8.421   7.338  64.424  1.00  0.00    -0.359 OA 
HETATM   16  H   UNL     1      -8.201   6.530  63.977  1.00  0.00     0.000 HD 
ENDBRANCH   1  13
BRANCH  11  17
HETATM   17  S   UNL     1     -10.094  12.729  67.907  1.00  0.00    -0.237 SA 
BRANCH  17  18
HETATM   18  C   UNL     1     -11.817  12.703  68.531  1.00  0.00    -0.300 C  
HETATM   19  C   UNL     1     -12.102  13.465  69.819  1.00  0.00    -0.310 C  
HETATM   20  N   UNL     1     -11.917  12.478  70.873  1.00  0.00    -0.387 NA 
HETATM   21  H   UNL     1     -12.381  12.740  71.744  1.00  0.00     0.000 HD 
HETATM   22  C   UNL     1     -12.368  11.165  70.355  1.00  0.00    -0.344 C  
HETATM   23  C   UNL     1     -12.342  11.306  68.830  1.00  0.00     0.037 C  
BRANCH  22  24
HETATM   24  C   UNL     1     -11.476  10.033  70.945  1.00  0.00    -0.371 C  
HETATM   25  O   UNL     1     -10.288   9.929  70.615  1.00  0.00    -0.286 OA 
HETATM   26  N   UNL     1     -12.023   9.172  71.889  1.00  0.00    -0.370 N  
HETATM   27  C   UNL     1     -13.367   9.245  72.438  1.00  0.00    -0.449 C  
HETATM   28  C   UNL     1     -11.208   8.078  72.404  1.00  0.00    -0.369 C  
ENDBRANCH  22  24
ENDBRANCH  17  18
ENDBRANCH  11  17
TORSDOF 4
ENDMDL
MODEL       39
REMARK 921   NORMALIZED FREE ENERGY PREDICTED BY IDOCK:   -5.85 KCAL/MOL
REMARK 922        TOTAL FREE ENERGY PREDICTED BY IDOCK:   -8.18 KCAL/MOL
REMARK 923 INTER-LIGAND FREE ENERGY PREDICTED BY IDOCK:   -7.32 KCAL/MOL
REMARK 924 INTRA-LIGAND FREE ENERGY PREDICTED BY IDOCK:   -0.86 KCAL/MOL
REMARK 927      BINDING AFFINITY PREDICTED BY RF-SCORE:    0.00 PKD
ROOT
HETATM    1  C   UNL     1     -11.305  15.102  65.713  1.00  0.00    -0.238 C  
HETATM    2  C   UNL     1      -9.825  14.602  65.747  1.00  0.00    -0.328 C  
HETATM    3  C   UNL     1     -11.527  13.978  64.688  1.00  0.00    -0.383 C  
HETATM    4  N   UNL     1     -10.243  13.529  64.801  1.00  0.00    -0.367 N  
HETATM    5  C   UNL     1      -9.162  13.883  66.927  1.00  0.00    -0.269 C  
HETATM    6  O   UNL     1     -10.871  11.249  63.434  1.00  0.00    -0.369 OA 
HETATM    7  O   UNL     1     -12.432  13.517  64.034  1.00  0.00    -0.645 OA 
HETATM    8  C   UNL     1      -9.977  12.297  65.385  1.00  0.00    -0.244 C  
HETATM    9  O   UNL     1     -10.145   9.902  65.072  1.00  0.00    -0.286 OA 
HETATM   10  C   UNL     1     -10.346  11.035  64.664  1.00  0.00    -0.345 C  
HETATM   11  C   UNL     1      -9.367  12.425  66.579  1.00  0.00    -0.233 C  
HETATM   12  C   UNL     1      -9.721  14.353  68.262  1.00  0.00    -0.222 C  
ENDROOT
BRANCH   1  13
HETATM   13  C   UNL     1     -11.517  16.515  65.203  1.00  0.00     0.293 C  
HETATM   14  C   UNL     1     -10.358  17.410  65.619  1.00  0.00    -0.161 C  
HETATM   15  O   UNL     1     -11.555  16.484  63.781  1.00  0.00    -1.617 OA 
HETATM   16  H   UNL     1     -11.688  17.369  63.462  1.00  0.00     0.000 HD 
ENDBRANCH   1  13
BRANCH  11  17
HETATM   17  S   UNL     1      -8.940  11.186  67.696  1.00  0.00    -0.142 SA 
BRANCH  17  18
HETATM   18  C   UNL     1     -10.526  10.598  68.400  1.00  0.00    -0.188 C  
HETATM   19  C   UNL     1     -10.835  10.985  69.840  1.00  0.00    -0.077 C  
HETATM   20  N   UNL     1     -10.305   9.886  70.634  1.00  0.00    -0.367 NA 
HETATM   21  H   UNL     1     -10.715   9.839  71.567  1.00  0.00     0.000 HD 
HETATM   22  C   UNL     1     -10.490   8.634  69.862  1.00  0.00    -0.218 C  
HETATM   23  C   UNL     1     -10.670   9.083  68.409  1.00  0.00    -0.145 C  
BRANCH  22  24
HETATM   24  C   UNL     1      -9.296   7.671  70.130  1.00  0.00    -0.157 C  
HETATM   25  O   UNL     1      -8.326   8.041  70.805  1.00  0.00    -0.110 OA 
HETATM   26  N   UNL     1      -9.358   6.371  69.641  1.00  0.00    -0.145 N  
HETATM   27  C   UNL     1     -10.477   5.780  68.923  1.00  0.00    -0.256 C  
HETATM   28  C   UNL     1      -8.220   5.484  69.843  1.00  0.00    -0.105 C  
ENDBRANCH  22  24
ENDBRANCH  17  18
ENDBRANCH  11  17
TORSDOF 4
ENDMDL
MODEL       40
REMARK 921   NORMALIZED FREE ENERGY PREDICTED BY IDOCK:   -5.84 KCAL/MOL
REMARK 922        TOTAL FREE ENERGY PREDICTED BY IDOCK:   -8.18 KCAL/MOL
REMARK 923 INTER-LIGAND FREE ENERGY PREDICTED BY IDOCK:   -6.93 KCAL/MOL
REMARK 924 INTRA-LIGAND FREE ENERGY PREDICTED BY IDOCK:   -1.25 KCAL/MOL
REMARK 927      BINDING AFFINITY PREDICTED BY RF-SCORE:    0.00 PKD
ROOT
HETATM    1  C   UNL     1      -9.261  17.733  66.344  1.00  0.00    -0.257 C  
HETATM    2  C   UNL     1     -10.348  16.814  66.988  1.00  0.00    -0.300 C  
HETATM    3  C   UNL     1      -8.335  17.193  67.445  1.00  0.00    -0.190 C  
HETATM    4  N   UNL     1      -9.292  16.351  67.932  1.00  0.00    -0.213 N  
HETATM    5  C   UNL     1     -10.922  15.545  66.349  1.00  0.00    -0.238 C  
HETATM    6  O   UNL     1      -7.438  15.051  69.460  1.00  0.00    -0.189 OA 
HETATM    7  O   UNL     1      -7.186  17.313  67.800  1.00  0.00    -0.155 OA 
HETATM    8  C   UNL     1      -9.154  14.975  67.800  1.00  0.00    -0.180 C  
HETATM    9  O   UNL     1      -7.920  13.045  68.582  1.00  0.00    -0.116 OA 
HETATM   10  C   UNL     1      -8.117  14.249  68.605  1.00  0.00    -0.140 C  
HETATM   11  C   UNL     1     -10.042  14.459  66.928  1.00  0.00    -0.259 C  
HETATM   12  C   UNL     1     -10.972  15.648  64.832  1.00  0.00    -0.447 C  
ENDROOT
BRANCH   1  13
HETATM   13  C   UNL     1      -9.542  19.224  66.388  1.00  0.00    -0.371 C  
HETATM   14  C   UNL     1     -10.814  19.503  67.176  1.00  0.00    -0.555 C  
HETATM   15  O   UNL     1      -8.464  19.870  67.055  1.00  0.00    -0.302 OA 
HETATM   16  H   UNL     1      -8.640  20.803  67.082  1.00  0.00     0.000 HD 
ENDBRANCH   1  13
BRANCH  11  17
HETATM   17  S   UNL     1     -10.176  12.832  66.381  1.00  0.00    -0.258 SA 
BRANCH  17  18
HETATM   18  C   UNL     1     -11.502  12.083  67.398  1.00  0.00    -0.336 C  
HETATM   19  C   UNL     1     -11.759  12.697  68.769  1.00  0.00    -0.323 C  
HETATM   20  N   UNL     1     -10.910  11.934  69.673  1.00  0.00    -0.450 NA 
HETATM   21  H   UNL     1     -11.208  12.002  70.646  1.00  0.00     0.000 HD 
HETATM   22  C   UNL     1     -10.862  10.535  69.184  1.00  0.00    -0.237 C  
HETATM   23  C   UNL     1     -11.279  10.611  67.713  1.00  0.00    -0.383 C  
BRANCH  22  24
HETATM   24  C   UNL     1      -9.453   9.932  69.458  1.00  0.00    -0.223 C  
HETATM   25  O   UNL     1      -8.515  10.139  68.677  1.00  0.00    -0.111 OA 
HETATM   26  N   UNL     1      -9.251   9.199  70.622  1.00  0.00    -0.238 N  
HETATM   27  C   UNL     1     -10.233   8.968  71.669  1.00  0.00    -0.348 C  
HETATM   28  C   UNL     1      -7.949   8.587  70.856  1.00  0.00    -0.110 C  
ENDBRANCH  22  24
ENDBRANCH  17  18
ENDBRANCH  11  17
TORSDOF 4
ENDMDL
MODEL       41
REMARK 921   NORMALIZED FREE ENERGY PREDICTED BY IDOCK:   -5.83 KCAL/MOL
REMARK 922        TOTAL FREE ENERGY PREDICTED BY IDOCK:   -8.16 KCAL/MOL
REMARK 923 INTER-LIGAND FREE ENERGY PREDICTED BY IDOCK:   -7.05 KCAL/MOL
REMARK 924 INTRA-LIGAND FREE ENERGY PREDICTED BY IDOCK:   -1.11 KCAL/MOL
REMARK 927      BINDING AFFINITY PREDICTED BY RF-SCORE:    0.00 PKD
ROOT
HETATM    1  C   UNL     1     -10.082  11.503  68.953  1.00  0.00    -0.144 C  
HETATM    2  C   UNL     1     -10.660  12.641  68.051  1.00  0.00    -0.221 C  
HETATM    3  C   UNL     1      -8.710  11.966  68.438  1.00  0.00    -0.157 C  
HETATM    4  N   UNL     1      -9.251  12.993  67.719  1.00  0.00    -0.191 N  
HETATM    5  C   UNL     1     -11.304  13.933  68.564  1.00  0.00    -0.311 C  
HETATM    6  O   UNL     1      -6.776  14.081  67.325  1.00  0.00    -0.244 OA 
HETATM    7  O   UNL     1      -7.546  11.683  68.588  1.00  0.00    -0.123 OA 
HETATM    8  C   UNL     1      -9.025  14.311  68.096  1.00  0.00    -0.189 C  
HETATM    9  O   UNL     1      -7.357  16.063  68.197  1.00  0.00    -0.123 OA 
HETATM   10  C   UNL     1      -7.663  14.914  67.919  1.00  0.00    -0.141 C  
HETATM   11  C   UNL     1     -10.139  14.898  68.575  1.00  0.00    -0.232 C  
HETATM   12  C   UNL     1     -12.028  13.719  69.885  1.00  0.00    -0.412 C  
ENDROOT
BRANCH   1  13
HETATM   13  C   UNL     1     -10.487  10.089  68.579  1.00  0.00    -0.202 C  
HETATM   14  C   UNL     1     -10.747   9.262  69.831  1.00  0.00    -0.253 C  
HETATM   15  O   UNL     1     -11.698  10.145  67.834  1.00  0.00    -0.646 OA 
HETATM   16  H   UNL     1     -11.951   9.260  67.601  1.00  0.00     0.000 HD 
ENDBRANCH   1  13
BRANCH  11  17
HETATM   17  S   UNL     1     -10.309  16.475  69.244  1.00  0.00    -0.314 SA 
BRANCH  17  18
HETATM   18  C   UNL     1     -10.775  17.553  67.838  1.00  0.00    -0.339 C  
HETATM   19  C   UNL     1     -10.234  17.179  66.465  1.00  0.00    -0.322 C  
HETATM   20  N   UNL     1      -8.982  17.915  66.355  1.00  0.00    -0.383 NA 
HETATM   21  H   UNL     1      -8.674  18.027  65.388  1.00  0.00     0.000 HD 
HETATM   22  C   UNL     1      -9.149  19.210  67.057  1.00  0.00    -0.294 C  
HETATM   23  C   UNL     1     -10.336  19.002  68.002  1.00  0.00    -0.472 C  
BRANCH  22  24
HETATM   24  C   UNL     1      -7.807  19.617  67.734  1.00  0.00    -0.290 C  
HETATM   25  O   UNL     1      -7.610  19.384  68.934  1.00  0.00    -0.355 OA 
HETATM   26  N   UNL     1      -6.813  20.200  66.957  1.00  0.00    -0.219 N  
HETATM   27  C   UNL     1      -6.876  20.436  65.523  1.00  0.00    -0.250 C  
HETATM   28  C   UNL     1      -5.577  20.632  67.597  1.00  0.00    -0.222 C  
ENDBRANCH  22  24
ENDBRANCH  17  18
ENDBRANCH  11  17
TORSDOF 4
ENDMDL
MODEL       42
REMARK 921   NORMALIZED FREE ENERGY PREDICTED BY IDOCK:   -5.80 KCAL/MOL
REMARK 922        TOTAL FREE ENERGY PREDICTED BY IDOCK:   -8.12 KCAL/MOL
REMARK 923 INTER-LIGAND FREE ENERGY PREDICTED BY IDOCK:   -6.92 KCAL/MOL
REMARK 924 INTRA-LIGAND FREE ENERGY PREDICTED BY IDOCK:   -1.20 KCAL/MOL
REMARK 927      BINDING AFFINITY PREDICTED BY RF-SCORE:    0.00 PKD
ROOT
HETATM    1  C   UNL     1      -9.867  16.327  67.780  1.00  0.00    -0.237 C  
HETATM    2  C   UNL     1     -11.243  15.941  67.147  1.00  0.00    -0.060 C  
HETATM    3  C   UNL     1     -10.316  15.463  68.969  1.00  0.00    -0.243 C  
HETATM    4  N   UNL     1     -11.475  15.093  68.351  1.00  0.00    -0.319 N  
HETATM    5  C   UNL     1     -11.431  15.014  65.941  1.00  0.00    -0.224 C  
HETATM    6  O   UNL     1     -11.915  13.160  70.229  1.00  0.00    -0.335 OA 
HETATM    7  O   UNL     1      -9.885  15.105  70.039  1.00  0.00    -0.146 OA 
HETATM    8  C   UNL     1     -11.664  13.781  67.937  1.00  0.00    -0.360 C  
HETATM    9  O   UNL     1     -12.066  11.521  68.707  1.00  0.00    -0.439 OA 
HETATM   10  C   UNL     1     -11.873  12.700  68.956  1.00  0.00    -0.294 C  
HETATM   11  C   UNL     1     -11.655  13.667  66.594  1.00  0.00    -0.364 C  
HETATM   12  C   UNL     1     -10.271  15.116  64.963  1.00  0.00    -0.332 C  
ENDROOT
BRANCH   1  13
HETATM   13  C   UNL     1      -9.662  17.802  68.072  1.00  0.00    -0.304 C  
HETATM   14  C   UNL     1     -10.289  18.654  66.977  1.00  0.00    -0.445 C  
HETATM   15  O   UNL     1     -10.314  18.117  69.297  1.00  0.00    -0.437 OA 
HETATM   16  H   UNL     1     -10.185  19.040  69.480  1.00  0.00     0.000 HD 
ENDBRANCH   1  13
BRANCH  11  17
HETATM   17  S   UNL     1     -11.752  12.235  65.645  1.00  0.00    -0.332 SA 
BRANCH  17  18
HETATM   18  C   UNL     1     -10.017  11.752  65.312  1.00  0.00    -0.253 C  
HETATM   19  C   UNL     1      -9.788  10.605  64.336  1.00  0.00    -0.334 C  
HETATM   20  N   UNL     1      -9.747   9.417  65.176  1.00  0.00    -0.449 NA 
HETATM   21  H   UNL     1      -9.284   8.629  64.722  1.00  0.00     0.000 HD 
HETATM   22  C   UNL     1      -9.116   9.789  66.464  1.00  0.00    -0.153 C  
HETATM   23  C   UNL     1      -9.252  11.311  66.552  1.00  0.00    -0.200 C  
BRANCH  22  24
HETATM   24  C   UNL     1      -9.774   8.982  67.623  1.00  0.00    -0.156 C  
HETATM   25  O   UNL     1     -10.951   8.607  67.541  1.00  0.00    -0.111 OA 
HETATM   26  N   UNL     1      -9.002   8.646  68.729  1.00  0.00    -0.138 N  
HETATM   27  C   UNL     1      -7.588   8.934  68.906  1.00  0.00    -0.087 C  
HETATM   28  C   UNL     1      -9.628   7.939  69.839  1.00  0.00    -0.168 C  
ENDBRANCH  22  24
ENDBRANCH  17  18
ENDBRANCH  11  17
TORSDOF 4
ENDMDL
MODEL       43
REMARK 921   NORMALIZED FREE ENERGY PREDICTED BY IDOCK:   -5.80 KCAL/MOL
REMARK 922        TOTAL FREE ENERGY PREDICTED BY IDOCK:   -8.12 KCAL/MOL
REMARK 923 INTER-LIGAND FREE ENERGY PREDICTED BY IDOCK:   -7.75 KCAL/MOL
REMARK 924 INTRA-LIGAND FREE ENERGY PREDICTED BY IDOCK:   -0.37 KCAL/MOL
REMARK 927      BINDING AFFINITY PREDICTED BY RF-SCORE:    0.00 PKD
ROOT
HETATM    1  C   UNL     1     -11.138   6.574  69.720  1.00  0.00    -0.430 C  
HETATM    2  C   UNL     1     -10.314   7.882  69.947  1.00  0.00    -0.224 C  
HETATM    3  C   UNL     1     -11.869   6.962  71.015  1.00  0.00    -0.364 C  
HETATM    4  N   UNL     1     -11.175   8.131  71.137  1.00  0.00    -0.252 N  
HETATM    5  C   UNL     1     -10.412   9.148  69.088  1.00  0.00    -0.230 C  
HETATM    6  O   UNL     1     -12.893   9.003  73.073  1.00  0.00    -0.248 OA 
HETATM    7  O   UNL     1     -12.764   6.542  71.708  1.00  0.00    -0.320 OA 
HETATM    8  C   UNL     1     -11.818   9.351  70.970  1.00  0.00    -0.322 C  
HETATM    9  O   UNL     1     -13.396  10.889  71.972  1.00  0.00    -0.448 OA 
HETATM   10  C   UNL     1     -12.790   9.830  72.006  1.00  0.00    -0.401 C  
HETATM   11  C   UNL     1     -11.431   9.976  69.840  1.00  0.00    -0.215 C  
HETATM   12  C   UNL     1     -10.732   8.823  67.637  1.00  0.00    -0.206 C  
ENDROOT
BRANCH   1  13
HETATM   13  C   UNL     1     -10.351   5.277  69.766  1.00  0.00    -0.299 C  
HETATM   14  C   UNL     1      -9.430   5.171  68.559  1.00  0.00    -0.175 C  
HETATM   15  O   UNL     1      -9.540   5.279  70.935  1.00  0.00    -0.161 OA 
HETATM   16  H   UNL     1      -9.048   4.468  70.964  1.00  0.00     0.000 HD 
ENDBRANCH   1  13
BRANCH  11  17
HETATM   17  S   UNL     1     -12.026  11.450  69.181  1.00  0.00    -0.285 SA 
BRANCH  17  18
HETATM   18  C   UNL     1     -10.557  12.306  68.497  1.00  0.00    -0.234 C  
HETATM   19  C   UNL     1     -10.531  13.826  68.589  1.00  0.00    -0.239 C  
HETATM   20  N   UNL     1     -11.126  14.276  67.339  1.00  0.00    -0.295 NA 
HETATM   21  H   UNL     1     -10.885  15.241  67.112  1.00  0.00     0.000 HD 
HETATM   22  C   UNL     1     -10.734  13.321  66.276  1.00  0.00    -0.286 C  
HETATM   23  C   UNL     1     -10.328  12.043  67.015  1.00  0.00    -0.235 C  
BRANCH  22  24
HETATM   24  C   UNL     1     -11.898  13.170  65.252  1.00  0.00    -0.365 C  
HETATM   25  O   UNL     1     -13.009  13.663  65.483  1.00  0.00    -0.625 OA 
HETATM   26  N   UNL     1     -11.654  12.514  64.051  1.00  0.00    -0.377 N  
HETATM   27  C   UNL     1     -10.375  11.979  63.612  1.00  0.00    -0.450 C  
HETATM   28  C   UNL     1     -12.753  12.322  63.113  1.00  0.00    -0.063 C  
ENDBRANCH  22  24
ENDBRANCH  17  18
ENDBRANCH  11  17
TORSDOF 4
ENDMDL
MODEL       44
REMARK 921   NORMALIZED FREE ENERGY PREDICTED BY IDOCK:   -5.76 KCAL/MOL
REMARK 922        TOTAL FREE ENERGY PREDICTED BY IDOCK:   -8.07 KCAL/MOL
REMARK 923 INTER-LIGAND FREE ENERGY PREDICTED BY IDOCK:   -7.24 KCAL/MOL
REMARK 924 INTRA-LIGAND FREE ENERGY PREDICTED BY IDOCK:   -0.83 KCAL/MOL
REMARK 927      BINDING AFFINITY PREDICTED BY RF-SCORE:    0.00 PKD
ROOT
HETATM    1  C   UNL     1      -9.332  18.537  67.713  1.00  0.00    -0.308 C  
HETATM    2  C   UNL     1      -8.518  17.313  67.182  1.00  0.00    -0.205 C  
HETATM    3  C   UNL     1     -10.146  18.397  66.417  1.00  0.00    -0.403 C  
HETATM    4  N   UNL     1      -9.456  17.286  66.024  1.00  0.00    -0.174 N  
HETATM    5  C   UNL     1      -8.552  15.903  67.780  1.00  0.00    -0.164 C  
HETATM    6  O   UNL     1     -11.295  16.779  64.070  1.00  0.00    -1.153 OA 
HETATM    7  O   UNL     1     -11.088  18.928  65.880  1.00  0.00    -0.046 OA 
HETATM    8  C   UNL     1     -10.080  16.045  65.990  1.00  0.00    -0.341 C  
HETATM    9  O   UNL     1     -11.714  14.705  64.810  1.00  0.00    -0.391 OA 
HETATM   10  C   UNL     1     -11.117  15.761  64.945  1.00  0.00    -0.399 C  
HETATM   11  C   UNL     1      -9.615  15.219  66.947  1.00  0.00    -0.233 C  
HETATM   12  C   UNL     1      -8.776  15.932  69.284  1.00  0.00    -0.250 C  
ENDROOT
BRANCH   1  13
HETATM   13  C   UNL     1      -8.557  19.832  67.871  1.00  0.00    -0.313 C  
HETATM   14  C   UNL     1      -7.133  19.547  68.330  1.00  0.00    -0.330 C  
HETATM   15  O   UNL     1      -8.486  20.477  66.605  1.00  0.00    -0.521 OA 
HETATM   16  H   UNL     1      -8.001  21.287  66.704  1.00  0.00     0.000 HD 
ENDBRANCH   1  13
BRANCH  11  17
HETATM   17  S   UNL     1     -10.157  13.634  67.342  1.00  0.00    -0.243 SA 
BRANCH  17  18
HETATM   18  C   UNL     1      -8.694  12.778  68.038  1.00  0.00    -0.194 C  
HETATM   19  C   UNL     1      -7.518  12.536  67.102  1.00  0.00    -0.075 C  
HETATM   20  N   UNL     1      -7.769  11.218  66.536  1.00  0.00    -0.226 NA 
HETATM   21  H   UNL     1      -6.928  10.786  66.154  1.00  0.00     0.000 HD 
HETATM   22  C   UNL     1      -8.418  10.389  67.579  1.00  0.00    -0.115 C  
HETATM   23  C   UNL     1      -8.996  11.390  68.584  1.00  0.00    -0.133 C  
BRANCH  22  24
HETATM   24  C   UNL     1      -9.446   9.424  66.918  1.00  0.00    -0.156 C  
HETATM   25  O   UNL     1     -10.045   9.752  65.885  1.00  0.00    -0.282 OA 
HETATM   26  N   UNL     1      -9.644   8.167  67.478  1.00  0.00    -0.151 N  
HETATM   27  C   UNL     1      -8.936   7.621  68.625  1.00  0.00    -0.133 C  
HETATM   28  C   UNL     1     -10.644   7.282  66.895  1.00  0.00    -0.305 C  
ENDBRANCH  22  24
ENDBRANCH  17  18
ENDBRANCH  11  17
TORSDOF 4
ENDMDL
MODEL       45
REMARK 921   NORMALIZED FREE ENERGY PREDICTED BY IDOCK:   -5.75 KCAL/MOL
REMARK 922        TOTAL FREE ENERGY PREDICTED BY IDOCK:   -8.07 KCAL/MOL
REMARK 923 INTER-LIGAND FREE ENERGY PREDICTED BY IDOCK:   -7.20 KCAL/MOL
REMARK 924 INTRA-LIGAND FREE ENERGY PREDICTED BY IDOCK:   -0.87 KCAL/MOL
REMARK 927      BINDING AFFINITY PREDICTED BY RF-SCORE:    0.00 PKD
ROOT
HETATM    1  C   UNL     1      -9.571  11.030  65.821  1.00  0.00    -0.260 C  
HETATM    2  C   UNL     1     -10.835  10.371  66.460  1.00  0.00    -0.028 C  
HETATM    3  C   UNL     1     -10.252  12.365  66.160  1.00  0.00    -0.242 C  
HETATM    4  N   UNL     1     -11.305  11.750  66.773  1.00  0.00    -0.330 N  
HETATM    5  C   UNL     1     -10.858   9.610  67.789  1.00  0.00    -0.278 C  
HETATM    6  O   UNL     1     -12.142  14.127  67.827  1.00  0.00    -0.367 OA 
HETATM    7  O   UNL     1     -10.025  13.548  66.060  1.00  0.00    -0.295 OA 
HETATM    8  C   UNL     1     -11.479  11.855  68.147  1.00  0.00    -0.320 C  
HETATM    9  O   UNL     1     -12.105  13.364  69.934  1.00  0.00    -0.324 OA 
HETATM   10  C   UNL     1     -11.905  13.162  68.747  1.00  0.00    -0.324 C  
HETATM   11  C   UNL     1     -11.248  10.687  68.778  1.00  0.00    -0.279 C  
HETATM   12  C   UNL     1      -9.545   8.886  68.049  1.00  0.00    -0.167 C  
ENDROOT
BRANCH   1  13
HETATM   13  C   UNL     1      -9.352  10.755  64.344  1.00  0.00    -0.242 C  
HETATM   14  C   UNL     1      -8.784   9.357  64.143  1.00  0.00    -0.224 C  
HETATM   15  O   UNL     1     -10.609  10.814  63.680  1.00  0.00    -0.527 OA 
HETATM   16  H   UNL     1     -10.472  10.642  62.756  1.00  0.00     0.000 HD 
ENDBRANCH   1  13
BRANCH  11  17
HETATM   17  S   UNL     1     -11.247  10.371  70.470  1.00  0.00    -0.255 SA 
BRANCH  17  18
HETATM   18  C   UNL     1     -12.442   9.003  70.710  1.00  0.00     0.030 C  
HETATM   19  C   UNL     1     -13.352   9.080  71.929  1.00  0.00    -0.417 C  
HETATM   20  N   UNL     1     -12.628   8.362  72.968  1.00  0.00    -0.620 NA 
HETATM   21  H   UNL     1     -13.235   8.049  73.727  1.00  0.00     0.000 HD 
HETATM   22  C   UNL     1     -11.890   7.249  72.327  1.00  0.00    -0.248 C  
HETATM   23  C   UNL     1     -11.791   7.634  70.848  1.00  0.00    -0.272 C  
BRANCH  22  24
HETATM   24  C   UNL     1     -10.535   7.026  73.060  1.00  0.00    -0.277 C  
HETATM   25  O   UNL     1      -9.754   7.969  73.243  1.00  0.00    -0.286 OA 
HETATM   26  N   UNL     1     -10.238   5.760  73.552  1.00  0.00    -0.197 N  
HETATM   27  C   UNL     1     -11.106   4.595  73.496  1.00  0.00    -0.331 C  
HETATM   28  C   UNL     1      -8.948   5.534  74.192  1.00  0.00    -0.118 C  
ENDBRANCH  22  24
ENDBRANCH  17  18
ENDBRANCH  11  17
TORSDOF 4
ENDMDL
MODEL       46
REMARK 921   NORMALIZED FREE ENERGY PREDICTED BY IDOCK:   -5.75 KCAL/MOL
REMARK 922        TOTAL FREE ENERGY PREDICTED BY IDOCK:   -8.06 KCAL/MOL
REMARK 923 INTER-LIGAND FREE ENERGY PREDICTED BY IDOCK:   -7.64 KCAL/MOL
REMARK 924 INTRA-LIGAND FREE ENERGY PREDICTED BY IDOCK:   -0.43 KCAL/MOL
REMARK 927      BINDING AFFINITY PREDICTED BY RF-SCORE:    0.00 PKD
ROOT
HETATM    1  C   UNL     1      -9.555  11.203  65.259  1.00  0.00    -0.268 C  
HETATM    2  C   UNL     1     -10.147  12.049  66.432  1.00  0.00    -0.218 C  
HETATM    3  C   UNL     1     -10.551  11.967  64.373  1.00  0.00    -0.318 C  
HETATM    4  N   UNL     1     -10.991  12.735  65.413  1.00  0.00    -0.279 N  
HETATM    5  C   UNL     1      -9.406  13.163  67.180  1.00  0.00    -0.235 C  
HETATM    6  O   UNL     1     -12.292  14.407  63.689  1.00  0.00    -0.722 OA 
HETATM    7  O   UNL     1     -10.866  12.025  63.209  1.00  0.00    -0.397 OA 
HETATM    8  C   UNL     1     -10.711  14.095  65.451  1.00  0.00    -0.342 C  
HETATM    9  O   UNL     1     -11.235  16.234  64.444  1.00  0.00    -0.716 OA 
HETATM   10  C   UNL     1     -11.390  15.024  64.489  1.00  0.00    -0.287 C  
HETATM   11  C   UNL     1      -9.831  14.403  66.424  1.00  0.00    -0.295 C  
HETATM   12  C   UNL     1      -7.912  12.891  67.263  1.00  0.00    -0.151 C  
ENDROOT
BRANCH   1  13
HETATM   13  C   UNL     1      -9.764   9.703  65.350  1.00  0.00    -0.295 C  
HETATM   14  C   UNL     1      -8.425   8.979  65.363  1.00  0.00    -0.175 C  
HETATM   15  O   UNL     1     -10.429   9.411  66.574  1.00  0.00    -0.215 OA 
HETATM   16  H   UNL     1     -10.560   8.472  66.630  1.00  0.00     0.000 HD 
ENDBRANCH   1  13
BRANCH  11  17
HETATM   17  S   UNL     1      -9.125  15.933  66.777  1.00  0.00    -0.273 SA 
BRANCH  17  18
HETATM   18  C   UNL     1     -10.484  16.950  67.464  1.00  0.00    -0.328 C  
HETATM   19  C   UNL     1     -10.187  17.749  68.726  1.00  0.00    -0.373 C  
HETATM   20  N   UNL     1     -10.568  16.862  69.816  1.00  0.00    -0.250 NA 
HETATM   21  H   UNL     1     -10.734  17.361  70.691  1.00  0.00     0.000 HD 
HETATM   22  C   UNL     1     -11.741  16.072  69.373  1.00  0.00    -0.284 C  
HETATM   23  C   UNL     1     -11.721  16.148  67.844  1.00  0.00     0.132 C  
BRANCH  22  24
HETATM   24  C   UNL     1     -11.668  14.640  69.981  1.00  0.00    -0.294 C  
HETATM   25  O   UNL     1     -10.731  13.882  69.698  1.00  0.00    -0.026 OA 
HETATM   26  N   UNL     1     -12.646  14.244  70.885  1.00  0.00    -0.335 N  
HETATM   27  C   UNL     1     -13.739  15.066  71.378  1.00  0.00    -0.473 C  
HETATM   28  C   UNL     1     -12.612  12.886  71.414  1.00  0.00    -0.220 C  
ENDBRANCH  22  24
ENDBRANCH  17  18
ENDBRANCH  11  17
TORSDOF 4
ENDMDL
MODEL       47
REMARK 921   NORMALIZED FREE ENERGY PREDICTED BY IDOCK:   -5.75 KCAL/MOL
REMARK 922        TOTAL FREE ENERGY PREDICTED BY IDOCK:   -8.06 KCAL/MOL
REMARK 923 INTER-LIGAND FREE ENERGY PREDICTED BY IDOCK:   -7.05 KCAL/MOL
REMARK 924 INTRA-LIGAND FREE ENERGY PREDICTED BY IDOCK:   -1.01 KCAL/MOL
REMARK 927      BINDING AFFINITY PREDICTED BY RF-SCORE:    0.00 PKD
ROOT
HETATM    1  C   UNL     1     -11.577  13.237  65.353  1.00  0.00    -0.346 C  
HETATM    2  C   UNL     1     -10.038  13.218  65.623  1.00  0.00    -0.272 C  
HETATM    3  C   UNL     1     -11.258  12.268  64.204  1.00  0.00    -0.369 C  
HETATM    4  N   UNL     1      -9.931  12.224  64.518  1.00  0.00    -0.232 N  
HETATM    5  C   UNL     1      -9.362  12.569  66.836  1.00  0.00    -0.219 C  
HETATM    6  O   UNL     1      -9.558  10.095  62.849  1.00  0.00    -0.300 OA 
HETATM    7  O   UNL     1     -11.851  11.654  63.349  1.00  0.00    -0.415 OA 
HETATM    8  C   UNL     1      -9.365  11.061  65.024  1.00  0.00    -0.221 C  
HETATM    9  O   UNL     1      -8.684   8.806  64.462  1.00  0.00    -0.148 OA 
HETATM   10  C   UNL     1      -9.184   9.870  64.131  1.00  0.00    -0.262 C  
HETATM   11  C   UNL     1      -9.019  11.189  66.320  1.00  0.00    -0.193 C  
HETATM   12  C   UNL     1     -10.239  12.638  68.076  1.00  0.00    -0.230 C  
ENDROOT
BRANCH   1  13
HETATM   13  C   UNL     1     -12.164  14.576  64.947  1.00  0.00    -0.402 C  
HETATM   14  C   UNL     1     -11.103  15.666  65.021  1.00  0.00    -0.399 C  
HETATM   15  O   UNL     1     -12.605  14.488  63.597  1.00  0.00    -1.017 OA 
HETATM   16  H   UNL     1     -12.972  15.326  63.343  1.00  0.00     0.000 HD 
ENDBRANCH   1  13
BRANCH  11  17
HETATM   17  S   UNL     1      -8.381   9.988  67.376  1.00  0.00    -0.118 SA 
BRANCH  17  18
HETATM   18  C   UNL     1      -9.682   8.704  67.495  1.00  0.00    -0.165 C  
HETATM   19  C   UNL     1     -11.104   9.175  67.771  1.00  0.00     0.202 C  
HETATM   20  N   UNL     1     -11.221   9.144  69.222  1.00  0.00    -0.440 NA 
HETATM   21  H   UNL     1     -12.191   9.115  69.539  1.00  0.00     0.000 HD 
HETATM   22  C   UNL     1     -10.421   8.001  69.721  1.00  0.00    -0.227 C  
HETATM   23  C   UNL     1      -9.436   7.679  68.593  1.00  0.00    -0.151 C  
BRANCH  22  24
HETATM   24  C   UNL     1      -9.782   8.367  71.093  1.00  0.00    -0.186 C  
HETATM   25  O   UNL     1      -9.038   9.351  71.201  1.00  0.00    -0.250 OA 
HETATM   26  N   UNL     1     -10.101   7.600  72.208  1.00  0.00    -0.196 N  
HETATM   27  C   UNL     1     -11.035   6.486  72.241  1.00  0.00    -0.249 C  
HETATM   28  C   UNL     1      -9.464   7.906  73.483  1.00  0.00    -0.246 C  
ENDBRANCH  22  24
ENDBRANCH  17  18
ENDBRANCH  11  17
TORSDOF 4
ENDMDL
MODEL       48
REMARK 921   NORMALIZED FREE ENERGY PREDICTED BY IDOCK:   -5.74 KCAL/MOL
REMARK 922        TOTAL FREE ENERGY PREDICTED BY IDOCK:   -8.05 KCAL/MOL
REMARK 923 INTER-LIGAND FREE ENERGY PREDICTED BY IDOCK:   -7.16 KCAL/MOL
REMARK 924 INTRA-LIGAND FREE ENERGY PREDICTED BY IDOCK:   -0.89 KCAL/MOL
REMARK 927      BINDING AFFINITY PREDICTED BY RF-SCORE:    0.00 PKD
ROOT
HETATM    1  C   UNL     1      -9.025  16.888  67.130  1.00  0.00    -0.219 C  
HETATM    2  C   UNL     1     -10.465  16.600  66.596  1.00  0.00    -0.258 C  
HETATM    3  C   UNL     1      -9.674  16.867  68.523  1.00  0.00    -0.264 C  
HETATM    4  N   UNL     1     -10.902  16.544  68.020  1.00  0.00    -0.344 N  
HETATM    5  C   UNL     1     -10.926  15.281  65.966  1.00  0.00    -0.317 C  
HETATM    6  O   UNL     1     -11.828  15.968  70.524  1.00  0.00    -0.359 OA 
HETATM    7  O   UNL     1      -9.341  16.987  69.677  1.00  0.00     0.192 OA 
HETATM    8  C   UNL     1     -11.456  15.294  68.263  1.00  0.00    -0.347 C  
HETATM    9  O   UNL     1     -12.456  13.890  69.963  1.00  0.00    -0.329 OA 
HETATM   10  C   UNL     1     -11.939  14.948  69.640  1.00  0.00    -0.320 C  
HETATM   11  C   UNL     1     -11.503  14.536  67.150  1.00  0.00    -0.368 C  
HETATM   12  C   UNL     1      -9.800  14.593  65.208  1.00  0.00    -0.228 C  
ENDROOT
BRANCH   1  13
HETATM   13  C   UNL     1      -8.412  18.210  66.706  1.00  0.00    -0.259 C  
HETATM   14  C   UNL     1      -7.154  17.972  65.881  1.00  0.00    -0.302 C  
HETATM   15  O   UNL     1      -9.346  18.902  65.885  1.00  0.00    -0.454 OA 
HETATM   16  H   UNL     1      -8.962  19.729  65.620  1.00  0.00     0.000 HD 
ENDBRANCH   1  13
BRANCH  11  17
HETATM   17  S   UNL     1     -12.013  12.899  66.996  1.00  0.00    -0.246 SA 
BRANCH  17  18
HETATM   18  C   UNL     1     -10.503  11.893  67.249  1.00  0.00    -0.222 C  
HETATM   19  C   UNL     1     -10.499  10.484  66.670  1.00  0.00    -0.228 C  
HETATM   20  N   UNL     1     -10.997   9.646  67.752  1.00  0.00    -0.479 NA 
HETATM   21  H   UNL     1     -10.748   8.663  67.636  1.00  0.00     0.000 HD 
HETATM   22  C   UNL     1     -10.510  10.215  69.032  1.00  0.00    -0.219 C  
HETATM   23  C   UNL     1     -10.151  11.669  68.713  1.00  0.00    -0.169 C  
BRANCH  22  24
HETATM   24  C   UNL     1     -11.586  10.010  70.139  1.00  0.00    -0.252 C  
HETATM   25  O   UNL     1     -12.643  10.654  70.118  1.00  0.00    -0.318 OA 
HETATM   26  N   UNL     1     -11.362   9.055  71.124  1.00  0.00    -0.283 N  
HETATM   27  C   UNL     1     -10.215   8.165  71.207  1.00  0.00    -0.195 C  
HETATM   28  C   UNL     1     -12.340   8.899  72.193  1.00  0.00    -0.378 C  
ENDBRANCH  22  24
ENDBRANCH  17  18
ENDBRANCH  11  17
TORSDOF 4
ENDMDL
MODEL       49
REMARK 921   NORMALIZED FREE ENERGY PREDICTED BY IDOCK:   -5.73 KCAL/MOL
REMARK 922        TOTAL FREE ENERGY PREDICTED BY IDOCK:   -8.03 KCAL/MOL
REMARK 923 INTER-LIGAND FREE ENERGY PREDICTED BY IDOCK:   -7.37 KCAL/MOL
REMARK 924 INTRA-LIGAND FREE ENERGY PREDICTED BY IDOCK:   -0.67 KCAL/MOL
REMARK 927      BINDING AFFINITY PREDICTED BY RF-SCORE:    0.00 PKD
ROOT
HETATM    1  C   UNL     1     -10.398   6.506  66.831  1.00  0.00    -0.311 C  
HETATM    2  C   UNL     1      -9.136   7.344  67.214  1.00  0.00    -0.124 C  
HETATM    3  C   UNL     1     -10.614   6.375  68.347  1.00  0.00    -0.257 C  
HETATM    4  N   UNL     1      -9.543   7.171  68.637  1.00  0.00    -0.140 N  
HETATM    5  C   UNL     1      -8.981   8.854  67.004  1.00  0.00    -0.145 C  
HETATM    6  O   UNL     1     -10.327   7.355  71.247  1.00  0.00    -0.194 OA 
HETATM    7  O   UNL     1     -11.408   5.874  69.108  1.00  0.00    -0.298 OA 
HETATM    8  C   UNL     1      -9.732   8.428  69.198  1.00  0.00    -0.171 C  
HETATM    9  O   UNL     1     -10.376   9.597  71.218  1.00  0.00    -0.275 OA 
HETATM   10  C   UNL     1     -10.195   8.548  70.619  1.00  0.00    -0.197 C  
HETATM   11  C   UNL     1      -9.430   9.418  68.335  1.00  0.00    -0.141 C  
HETATM   12  C   UNL     1      -9.731   9.334  65.770  1.00  0.00    -0.339 C  
ENDROOT
BRANCH   1  13
HETATM   13  C   UNL     1     -10.135   5.211  66.085  1.00  0.00    -0.207 C  
HETATM   14  C   UNL     1      -9.587   4.153  67.033  1.00  0.00    -0.228 C  
HETATM   15  O   UNL     1     -11.368   4.731  65.561  1.00  0.00    -0.940 OA 
HETATM   16  H   UNL     1     -11.203   3.920  65.094  1.00  0.00     0.000 HD 
ENDBRANCH   1  13
BRANCH  11  17
HETATM   17  S   UNL     1      -9.603  11.116  68.557  1.00  0.00    -0.193 SA 
BRANCH  17  18
HETATM   18  C   UNL     1     -11.370  11.472  68.228  1.00  0.00    -0.286 C  
HETATM   19  C   UNL     1     -11.688  12.382  67.049  1.00  0.00    -0.353 C  
HETATM   20  N   UNL     1     -11.732  13.719  67.623  1.00  0.00    -0.346 NA 
HETATM   21  H   UNL     1     -12.246  14.382  67.041  1.00  0.00     0.000 HD 
HETATM   22  C   UNL     1     -12.285  13.610  68.994  1.00  0.00    -0.208 C  
HETATM   23  C   UNL     1     -12.088  12.144  69.390  1.00  0.00    -0.247 C  
BRANCH  22  24
HETATM   24  C   UNL     1     -11.602  14.659  69.920  1.00  0.00    -0.285 C  
HETATM   25  O   UNL     1     -10.424  14.990  69.736  1.00  0.00    -0.237 OA 
HETATM   26  N   UNL     1     -12.352  15.255  70.927  1.00  0.00    -0.343 N  
HETATM   27  C   UNL     1     -13.766  15.033  71.186  1.00  0.00    -0.414 C  
HETATM   28  C   UNL     1     -11.703  16.197  71.830  1.00  0.00    -0.491 C  
ENDBRANCH  22  24
ENDBRANCH  17  18
ENDBRANCH  11  17
TORSDOF 4
ENDMDL
MODEL       50
REMARK 921   NORMALIZED FREE ENERGY PREDICTED BY IDOCK:   -5.72 KCAL/MOL
REMARK 922        TOTAL FREE ENERGY PREDICTED BY IDOCK:   -8.03 KCAL/MOL
REMARK 923 INTER-LIGAND FREE ENERGY PREDICTED BY IDOCK:   -6.63 KCAL/MOL
REMARK 924 INTRA-LIGAND FREE ENERGY PREDICTED BY IDOCK:   -1.40 KCAL/MOL
REMARK 927      BINDING AFFINITY PREDICTED BY RF-SCORE:    0.00 PKD
ROOT
HETATM    1  C   UNL     1     -12.069  13.385  65.394  1.00  0.00    -0.457 C  
HETATM    2  C   UNL     1     -10.786  13.290  66.281  1.00  0.00    -0.286 C  
HETATM    3  C   UNL     1     -11.450  12.226  64.597  1.00  0.00    -0.336 C  
HETATM    4  N   UNL     1     -10.379  12.130  65.438  1.00  0.00    -0.261 N  
HETATM    5  C   UNL     1     -10.747  12.789  67.728  1.00  0.00    -0.237 C  
HETATM    6  O   UNL     1      -9.660   9.742  64.324  1.00  0.00    -0.236 OA 
HETATM    7  O   UNL     1     -11.727  11.533  63.647  1.00  0.00    -0.376 OA 
HETATM    8  C   UNL     1     -10.227  11.020  66.260  1.00  0.00    -0.245 C  
HETATM    9  O   UNL     1      -9.690   8.660  66.286  1.00  0.00    -0.244 OA 
HETATM   10  C   UNL     1      -9.866   9.693  65.661  1.00  0.00    -0.299 C  
HETATM   11  C   UNL     1     -10.416  11.323  67.559  1.00  0.00    -0.201 C  
HETATM   12  C   UNL     1     -12.030  13.119  68.475  1.00  0.00    -0.324 C  
ENDROOT
BRANCH   1  13
HETATM   13  C   UNL     1     -12.256  14.686  64.635  1.00  0.00    -0.434 C  
HETATM   14  C   UNL     1     -11.015  15.558  64.759  1.00  0.00    -0.416 C  
HETATM   15  O   UNL     1     -12.441  14.384  63.256  1.00  0.00    -1.099 OA 
HETATM   16  H   UNL     1     -12.558  15.198  62.781  1.00  0.00     0.000 HD 
ENDBRANCH   1  13
BRANCH  11  17
HETATM   17  S   UNL     1     -10.424  10.257  68.911  1.00  0.00    -0.226 SA 
BRANCH  17  18
HETATM   18  C   UNL     1      -8.707  10.266  69.549  1.00  0.00    -0.139 C  
HETATM   19  C   UNL     1      -7.583  10.318  68.523  1.00  0.00    -0.089 C  
HETATM   20  N   UNL     1      -7.266   8.922  68.260  1.00  0.00    -0.078 NA 
HETATM   21  H   UNL     1      -6.337   8.797  67.856  1.00  0.00     0.000 HD 
HETATM   22  C   UNL     1      -7.448   8.167  69.523  1.00  0.00    -0.087 C  
HETATM   23  C   UNL     1      -8.356   9.045  70.387  1.00  0.00    -0.180 C  
BRANCH  22  24
HETATM   24  C   UNL     1      -7.986   6.740  69.208  1.00  0.00    -0.115 C  
HETATM   25  O   UNL     1      -9.199   6.542  69.056  1.00  0.00    -0.131 OA 
HETATM   26  N   UNL     1      -7.078   5.699  69.049  1.00  0.00    -0.067 N  
HETATM   27  C   UNL     1      -5.629   5.813  69.099  1.00  0.00    -0.008 C  
HETATM   28  C   UNL     1      -7.580   4.353  68.807  1.00  0.00    -0.063 C  
ENDBRANCH  22  24
ENDBRANCH  17  18
ENDBRANCH  11  17
TORSDOF 4
ENDMDL
MODEL       51
REMARK 921   NORMALIZED FREE ENERGY PREDICTED BY IDOCK:   -5.70 KCAL/MOL
REMARK 922        TOTAL FREE ENERGY PREDICTED BY IDOCK:   -8.00 KCAL/MOL
REMARK 923 INTER-LIGAND FREE ENERGY PREDICTED BY IDOCK:   -7.23 KCAL/MOL
REMARK 924 INTRA-LIGAND FREE ENERGY PREDICTED BY IDOCK:   -0.76 KCAL/MOL
REMARK 927      BINDING AFFINITY PREDICTED BY RF-SCORE:    0.00 PKD
ROOT
HETATM    1  C   UNL     1     -10.398  15.348  67.035  1.00  0.00    -0.280 C  
HETATM    2  C   UNL     1     -11.633  14.437  66.746  1.00  0.00    -0.385 C  
HETATM    3  C   UNL     1     -10.950  15.427  68.466  1.00  0.00    -0.278 C  
HETATM    4  N   UNL     1     -11.976  14.570  68.190  1.00  0.00    -0.298 N  
HETATM    5  C   UNL     1     -11.575  12.931  66.469  1.00  0.00    -0.425 C  
HETATM    6  O   UNL     1     -12.542  14.317  70.851  1.00  0.00    -0.314 OA 
HETATM    7  O   UNL     1     -10.655  15.934  69.523  1.00  0.00    -0.237 OA 
HETATM    8  C   UNL     1     -12.006  13.302  68.756  1.00  0.00    -0.300 C  
HETATM    9  O   UNL     1     -12.348  12.084  70.820  1.00  0.00    -0.375 OA 
HETATM   10  C   UNL     1     -12.281  13.146  70.222  1.00  0.00    -0.306 C  
HETATM   11  C   UNL     1     -11.792  12.335  67.843  1.00  0.00    -0.293 C  
HETATM   12  C   UNL     1     -10.294  12.538  65.747  1.00  0.00    -0.288 C  
ENDROOT
BRANCH   1  13
HETATM   13  C   UNL     1     -10.346  16.659  66.271  1.00  0.00    -0.317 C  
HETATM   14  C   UNL     1      -8.950  17.261  66.343  1.00  0.00    -0.282 C  
HETATM   15  O   UNL     1     -10.638  16.399  64.903  1.00  0.00    -0.677 OA 
HETATM   16  H   UNL     1     -10.606  17.219  64.425  1.00  0.00     0.000 HD 
ENDBRANCH   1  13
BRANCH  11  17
HETATM   17  S   UNL     1     -11.644  10.640  68.100  1.00  0.00     0.008 SA 
BRANCH  17  18
HETATM   18  C   UNL     1      -9.958  10.394  68.774  1.00  0.00    -0.188 C  
HETATM   19  C   UNL     1      -9.029   9.466  68.004  1.00  0.00    -0.127 C  
HETATM   20  N   UNL     1      -9.243   8.157  68.605  1.00  0.00    -0.143 NA 
HETATM   21  H   UNL     1      -8.473   7.511  68.428  1.00  0.00     0.000 HD 
HETATM   22  C   UNL     1      -9.504   8.355  70.051  1.00  0.00    -0.164 C  
HETATM   23  C   UNL     1      -9.937   9.818  70.183  1.00  0.00    -0.315 C  
BRANCH  22  24
HETATM   24  C   UNL     1     -10.532   7.297  70.548  1.00  0.00    -0.217 C  
HETATM   25  O   UNL     1     -11.257   6.695  69.745  1.00  0.00    -0.315 OA 
HETATM   26  N   UNL     1     -10.588   7.001  71.905  1.00  0.00    -0.213 N  
HETATM   27  C   UNL     1      -9.728   7.557  72.938  1.00  0.00    -0.207 C  
HETATM   28  C   UNL     1     -11.585   6.051  72.382  1.00  0.00    -0.300 C  
ENDBRANCH  22  24
ENDBRANCH  17  18
ENDBRANCH  11  17
TORSDOF 4
ENDMDL
MODEL       52
REMARK 921   NORMALIZED FREE ENERGY PREDICTED BY IDOCK:   -5.69 KCAL/MOL
REMARK 922        TOTAL FREE ENERGY PREDICTED BY IDOCK:   -7.99 KCAL/MOL
REMARK 923 INTER-LIGAND FREE ENERGY PREDICTED BY IDOCK:   -8.26 KCAL/MOL
REMARK 924 INTRA-LIGAND FREE ENERGY PREDICTED BY IDOCK:    0.27 KCAL/MOL
REMARK 927      BINDING AFFINITY PREDICTED BY RF-SCORE:    0.00 PKD
ROOT
HETATM    1  C   UNL     1      -9.445   8.904  69.235  1.00  0.00    -0.161 C  
HETATM    2  C   UNL     1     -10.606   9.062  68.201  1.00  0.00    -0.171 C  
HETATM    3  C   UNL     1      -8.738   8.106  68.128  1.00  0.00    -0.136 C  
HETATM    4  N   UNL     1      -9.744   8.328  67.232  1.00  0.00    -0.163 N  
HETATM    5  C   UNL     1     -10.997  10.369  67.504  1.00  0.00    -0.358 C  
HETATM    6  O   UNL     1      -8.187   7.405  65.186  1.00  0.00    -0.131 OA 
HETATM    7  O   UNL     1      -7.688   7.534  67.956  1.00  0.00    -0.111 OA 
HETATM    8  C   UNL     1      -9.534   9.139  66.125  1.00  0.00    -0.245 C  
HETATM    9  O   UNL     1      -8.415   9.283  63.983  1.00  0.00    -0.175 OA 
HETATM   10  C   UNL     1      -8.654   8.663  65.007  1.00  0.00    -0.158 C  
HETATM   11  C   UNL     1     -10.213  10.300  66.212  1.00  0.00    -0.221 C  
HETATM   12  C   UNL     1     -10.748  11.580  68.391  1.00  0.00    -0.241 C  
ENDROOT
BRANCH   1  13
HETATM   13  C   UNL     1      -9.780   8.132  70.498  1.00  0.00    -0.174 C  
HETATM   14  C   UNL     1     -10.315   9.072  71.569  1.00  0.00    -0.412 C  
HETATM   15  O   UNL     1     -10.802   7.189  70.196  1.00  0.00    -0.243 OA 
HETATM   16  H   UNL     1     -11.011   6.706  70.986  1.00  0.00     0.000 HD 
ENDBRANCH   1  13
BRANCH  11  17
HETATM   17  S   UNL     1     -10.179  11.639  65.131  1.00  0.00    -0.286 SA 
BRANCH  17  18
HETATM   18  C   UNL     1     -11.935  12.055  64.816  1.00  0.00    -0.236 C  
HETATM   19  C   UNL     1     -12.342  12.309  63.370  1.00  0.00    -0.517 C  
HETATM   20  N   UNL     1     -12.178  13.745  63.193  1.00  0.00    -1.066 NA 
HETATM   21  H   UNL     1     -12.710  14.108  62.402  1.00  0.00     0.000 HD 
HETATM   22  C   UNL     1     -12.527  14.406  64.473  1.00  0.00    -0.339 C  
HETATM   23  C   UNL     1     -12.407  13.311  65.536  1.00  0.00    -0.533 C  
BRANCH  22  24
HETATM   24  C   UNL     1     -11.620  15.655  64.683  1.00  0.00    -0.249 C  
HETATM   25  O   UNL     1     -11.477  16.489  63.780  1.00  0.00    -1.065 OA 
HETATM   26  N   UNL     1     -11.013  15.844  65.919  1.00  0.00    -0.214 N  
HETATM   27  C   UNL     1     -11.178  14.999  67.091  1.00  0.00    -0.336 C  
HETATM   28  C   UNL     1     -10.121  16.982  66.102  1.00  0.00    -0.319 C  
ENDBRANCH  22  24
ENDBRANCH  17  18
ENDBRANCH  11  17
TORSDOF 4
ENDMDL
MODEL       53
REMARK 921   NORMALIZED FREE ENERGY PREDICTED BY IDOCK:   -5.65 KCAL/MOL
REMARK 922        TOTAL FREE ENERGY PREDICTED BY IDOCK:   -7.94 KCAL/MOL
REMARK 923 INTER-LIGAND FREE ENERGY PREDICTED BY IDOCK:   -7.05 KCAL/MOL
REMARK 924 INTRA-LIGAND FREE ENERGY PREDICTED BY IDOCK:   -0.89 KCAL/MOL
REMARK 927      BINDING AFFINITY PREDICTED BY RF-SCORE:    0.00 PKD
ROOT
HETATM    1  C   UNL     1     -11.150   6.720  71.635  1.00  0.00    -0.282 C  
HETATM    2  C   UNL     1     -10.093   7.847  71.868  1.00  0.00    -0.194 C  
HETATM    3  C   UNL     1     -12.192   7.832  71.829  1.00  0.00    -0.306 C  
HETATM    4  N   UNL     1     -11.237   8.799  71.957  1.00  0.00    -0.364 N  
HETATM    5  C   UNL     1      -9.158   8.417  70.796  1.00  0.00    -0.180 C  
HETATM    6  O   UNL     1     -13.124  10.759  71.718  1.00  0.00    -0.458 OA 
HETATM    7  O   UNL     1     -13.394   7.957  71.817  1.00  0.00    -0.332 OA 
HETATM    8  C   UNL     1     -11.082   9.769  70.975  1.00  0.00    -0.361 C  
HETATM    9  O   UNL     1     -12.083  11.742  69.993  1.00  0.00    -0.319 OA 
HETATM   10  C   UNL     1     -12.125  10.833  70.807  1.00  0.00    -0.372 C  
HETATM   11  C   UNL     1      -9.932   9.615  70.289  1.00  0.00    -0.270 C  
HETATM   12  C   UNL     1      -8.772   7.367  69.766  1.00  0.00    -0.141 C  
ENDROOT
BRANCH   1  13
HETATM   13  C   UNL     1     -11.170   5.605  72.665  1.00  0.00    -0.300 C  
HETATM   14  C   UNL     1     -10.514   6.065  73.959  1.00  0.00    -0.272 C  
HETATM   15  O   UNL     1     -12.524   5.279  72.954  1.00  0.00    -0.427 OA 
HETATM   16  H   UNL     1     -12.537   4.581  73.599  1.00  0.00     0.000 HD 
ENDBRANCH   1  13
BRANCH  11  17
HETATM   17  S   UNL     1      -9.372  10.514  68.932  1.00  0.00    -0.189 SA 
BRANCH  17  18
HETATM   18  C   UNL     1     -10.574  10.173  67.592  1.00  0.00    -0.265 C  
HETATM   19  C   UNL     1     -10.777   8.717  67.192  1.00  0.00    -0.134 C  
HETATM   20  N   UNL     1      -9.820   8.501  66.116  1.00  0.00    -0.447 NA 
HETATM   21  H   UNL     1     -10.055   7.695  65.535  1.00  0.00     0.000 HD 
HETATM   22  C   UNL     1      -9.714   9.758  65.338  1.00  0.00    -0.313 C  
HETATM   23  C   UNL     1     -10.234  10.852  66.274  1.00  0.00    -0.300 C  
BRANCH  22  24
HETATM   24  C   UNL     1      -8.253   9.939  64.830  1.00  0.00    -0.146 C  
HETATM   25  O   UNL     1      -7.300   9.890  65.619  1.00  0.00    -0.105 OA 
HETATM   26  N   UNL     1      -8.031  10.107  63.468  1.00  0.00    -0.159 N  
HETATM   27  C   UNL     1      -9.046  10.083  62.427  1.00  0.00    -0.293 C  
HETATM   28  C   UNL     1      -6.671  10.332  62.995  1.00  0.00    -0.126 C  
ENDBRANCH  22  24
ENDBRANCH  17  18
ENDBRANCH  11  17
TORSDOF 4
ENDMDL
MODEL       54
REMARK 921   NORMALIZED FREE ENERGY PREDICTED BY IDOCK:   -5.65 KCAL/MOL
REMARK 922        TOTAL FREE ENERGY PREDICTED BY IDOCK:   -7.94 KCAL/MOL
REMARK 923 INTER-LIGAND FREE ENERGY PREDICTED BY IDOCK:   -6.94 KCAL/MOL
REMARK 924 INTRA-LIGAND FREE ENERGY PREDICTED BY IDOCK:   -1.00 KCAL/MOL
REMARK 927      BINDING AFFINITY PREDICTED BY RF-SCORE:    0.00 PKD
ROOT
HETATM    1  C   UNL     1      -9.367   7.108  71.921  1.00  0.00    -0.150 C  
HETATM    2  C   UNL     1      -9.288   8.666  71.851  1.00  0.00    -0.287 C  
HETATM    3  C   UNL     1     -10.761   7.332  72.528  1.00  0.00    -0.262 C  
HETATM    4  N   UNL     1     -10.680   8.687  72.384  1.00  0.00    -0.308 N  
HETATM    5  C   UNL     1      -9.321   9.496  70.563  1.00  0.00    -0.296 C  
HETATM    6  O   UNL     1     -13.344   8.950  72.925  1.00  0.00    -0.333 OA 
HETATM    7  O   UNL     1     -11.687   6.672  72.933  1.00  0.00    -0.076 OA 
HETATM    8  C   UNL     1     -11.492   9.347  71.470  1.00  0.00    -0.397 C  
HETATM    9  O   UNL     1     -13.765  10.043  71.014  1.00  0.00    -0.241 OA 
HETATM   10  C   UNL     1     -12.963   9.471  71.735  1.00  0.00    -0.412 C  
HETATM   11  C   UNL     1     -10.791   9.830  70.426  1.00  0.00    -0.311 C  
HETATM   12  C   UNL     1      -8.676   8.759  69.399  1.00  0.00    -0.142 C  
ENDROOT
BRANCH   1  13
HETATM   13  C   UNL     1      -8.352   6.431  72.824  1.00  0.00    -0.118 C  
HETATM   14  C   UNL     1      -7.408   7.461  73.428  1.00  0.00    -0.094 C  
HETATM   15  O   UNL     1      -9.046   5.797  73.892  1.00  0.00    -0.126 OA 
HETATM   16  H   UNL     1      -8.411   5.373  74.457  1.00  0.00     0.000 HD 
ENDBRANCH   1  13
BRANCH  11  17
HETATM   17  S   UNL     1     -11.385  10.624  69.019  1.00  0.00    -0.276 SA 
BRANCH  17  18
HETATM   18  C   UNL     1     -10.767  12.344  69.133  1.00  0.00    -0.034 C  
HETATM   19  C   UNL     1     -11.776  13.424  69.502  1.00  0.00    -0.324 C  
HETATM   20  N   UNL     1     -12.280  13.902  68.222  1.00  0.00    -0.494 NA 
HETATM   21  H   UNL     1     -12.707  14.827  68.287  1.00  0.00     0.000 HD 
HETATM   22  C   UNL     1     -11.168  13.850  67.244  1.00  0.00    -0.312 C  
HETATM   23  C   UNL     1     -10.157  12.866  67.839  1.00  0.00    -0.232 C  
BRANCH  22  24
HETATM   24  C   UNL     1     -11.724  13.481  65.837  1.00  0.00    -0.352 C  
HETATM   25  O   UNL     1     -12.357  12.432  65.664  1.00  0.00    -0.639 OA 
HETATM   26  N   UNL     1     -11.542  14.375  64.788  1.00  0.00    -0.388 N  
HETATM   27  C   UNL     1     -10.909  15.681  64.876  1.00  0.00    -0.418 C  
HETATM   28  C   UNL     1     -12.013  14.010  63.458  1.00  0.00     0.086 C  
ENDBRANCH  22  24
ENDBRANCH  17  18
ENDBRANCH  11  17
TORSDOF 4
ENDMDL
MODEL       55
REMARK 921   NORMALIZED FREE ENERGY PREDICTED BY IDOCK:   -5.64 KCAL/MOL
REMARK 922        TOTAL FREE ENERGY PREDICTED BY IDOCK:   -7.93 KCAL/MOL
REMARK 923 INTER-LIGAND FREE ENERGY PREDICTED BY IDOCK:   -6.89 KCAL/MOL
REMARK 924 INTRA-LIGAND FREE ENERGY PREDICTED BY IDOCK:   -1.04 KCAL/MOL
REMARK 927      BINDING AFFINITY PREDICTED BY RF-SCORE:    0.00 PKD
ROOT
HETATM    1  C   UNL     1     -10.318   8.133  72.710  1.00  0.00    -0.384 C  
HETATM    2  C   UNL     1     -10.827   8.126  71.233  1.00  0.00    -0.237 C  
HETATM    3  C   UNL     1      -8.934   8.403  72.098  1.00  0.00    -0.223 C  
HETATM    4  N   UNL     1      -9.432   8.459  70.828  1.00  0.00    -0.163 N  
HETATM    5  C   UNL     1     -11.714   9.202  70.599  1.00  0.00    -0.256 C  
HETATM    6  O   UNL     1      -7.079   9.491  69.902  1.00  0.00    -0.063 OA 
HETATM    7  O   UNL     1      -7.801   8.592  72.472  1.00  0.00    -0.271 OA 
HETATM    8  C   UNL     1      -9.450   9.661  70.132  1.00  0.00    -0.253 C  
HETATM    9  O   UNL     1      -8.062  11.298  69.011  1.00  0.00    -0.127 OA 
HETATM   10  C   UNL     1      -8.163  10.260  69.646  1.00  0.00    -0.133 C  
HETATM   11  C   UNL     1     -10.702  10.131  69.965  1.00  0.00    -0.305 C  
HETATM   12  C   UNL     1     -12.667   9.819  71.613  1.00  0.00    -0.517 C  
ENDROOT
BRANCH   1  13
HETATM   13  C   UNL     1     -10.463   6.826  73.469  1.00  0.00    -0.330 C  
HETATM   14  C   UNL     1     -10.932   5.719  72.536  1.00  0.00    -0.309 C  
HETATM   15  O   UNL     1      -9.188   6.454  73.981  1.00  0.00    -0.134 OA 
HETATM   16  H   UNL     1      -9.279   5.637  74.455  1.00  0.00     0.000 HD 
ENDBRANCH   1  13
BRANCH  11  17
HETATM   17  S   UNL     1     -11.196  11.620  69.256  1.00  0.00    -0.257 SA 
BRANCH  17  18
HETATM   18  C   UNL     1     -11.467  11.248  67.483  1.00  0.00    -0.246 C  
HETATM   19  C   UNL     1     -10.291  10.672  66.704  1.00  0.00    -0.241 C  
HETATM   20  N   UNL     1      -9.616  11.838  66.151  1.00  0.00    -0.227 NA 
HETATM   21  H   UNL     1      -9.020  11.608  65.356  1.00  0.00     0.000 HD 
HETATM   22  C   UNL     1     -10.647  12.851  65.823  1.00  0.00    -0.275 C  
HETATM   23  C   UNL     1     -11.871  12.460  66.656  1.00  0.00    -0.394 C  
BRANCH  22  24
HETATM   24  C   UNL     1     -10.081  14.278  66.079  1.00  0.00    -0.318 C  
HETATM   25  O   UNL     1      -9.082  14.442  66.791  1.00  0.00    -0.248 OA 
HETATM   26  N   UNL     1     -10.686  15.363  65.454  1.00  0.00    -0.373 N  
HETATM   27  C   UNL     1     -11.798  15.300  64.519  1.00  0.00    -0.295 C  
HETATM   28  C   UNL     1     -10.194  16.706  65.734  1.00  0.00    -0.307 C  
ENDBRANCH  22  24
ENDBRANCH  17  18
ENDBRANCH  11  17
TORSDOF 4
ENDMDL
MODEL       56
REMARK 921   NORMALIZED FREE ENERGY PREDICTED BY IDOCK:   -5.60 KCAL/MOL
REMARK 922        TOTAL FREE ENERGY PREDICTED BY IDOCK:   -7.88 KCAL/MOL
REMARK 923 INTER-LIGAND FREE ENERGY PREDICTED BY IDOCK:   -7.10 KCAL/MOL
REMARK 924 INTRA-LIGAND FREE ENERGY PREDICTED BY IDOCK:   -0.78 KCAL/MOL
REMARK 927      BINDING AFFINITY PREDICTED BY RF-SCORE:    0.00 PKD
ROOT
HETATM    1  C   UNL     1     -10.566   6.267  71.251  1.00  0.00    -0.285 C  
HETATM    2  C   UNL     1     -11.381   7.276  70.380  1.00  0.00    -0.271 C  
HETATM    3  C   UNL     1     -10.438   5.449  69.956  1.00  0.00    -0.303 C  
HETATM    4  N   UNL     1     -11.094   6.391  69.216  1.00  0.00    -0.354 N  
HETATM    5  C   UNL     1     -10.905   8.674  69.969  1.00  0.00    -0.226 C  
HETATM    6  O   UNL     1     -10.331   5.169  66.896  1.00  0.00    -0.224 OA 
HETATM    7  O   UNL     1      -9.926   4.421  69.582  1.00  0.00    -0.222 OA 
HETATM    8  C   UNL     1     -10.416   7.130  68.256  1.00  0.00    -0.198 C  
HETATM    9  O   UNL     1      -9.373   7.021  66.074  1.00  0.00    -0.096 OA 
HETATM   10  C   UNL     1      -9.959   6.467  66.990  1.00  0.00    -0.166 C  
HETATM   11  C   UNL     1     -10.280   8.422  68.615  1.00  0.00    -0.201 C  
HETATM   12  C   UNL     1     -10.012   9.301  71.029  1.00  0.00    -0.364 C  
ENDROOT
BRANCH   1  13
HETATM   13  C   UNL     1     -11.326   5.600  72.382  1.00  0.00    -0.270 C  
HETATM   14  C   UNL     1     -10.534   5.690  73.680  1.00  0.00    -0.289 C  
HETATM   15  O   UNL     1     -12.555   6.291  72.573  1.00  0.00    -0.541 OA 
HETATM   16  H   UNL     1     -13.030   5.874  73.281  1.00  0.00     0.000 HD 
ENDBRANCH   1  13
BRANCH  11  17
HETATM   17  S   UNL     1      -9.432   9.673  67.791  1.00  0.00    -0.127 SA 
BRANCH  17  18
HETATM   18  C   UNL     1     -10.570  10.249  66.476  1.00  0.00    -0.132 C  
HETATM   19  C   UNL     1      -9.995  10.400  65.074  1.00  0.00    -0.330 C  
HETATM   20  N   UNL     1      -9.546  11.784  65.013  1.00  0.00    -0.388 NA 
HETATM   21  H   UNL     1      -9.443  12.124  64.057  1.00  0.00     0.000 HD 
HETATM   22  C   UNL     1     -10.484  12.605  65.816  1.00  0.00    -0.277 C  
HETATM   23  C   UNL     1     -11.185  11.614  66.750  1.00  0.00    -0.371 C  
BRANCH  22  24
HETATM   24  C   UNL     1      -9.706  13.759  66.513  1.00  0.00    -0.293 C  
HETATM   25  O   UNL     1      -8.890  13.517  67.412  1.00  0.00    -0.199 OA 
HETATM   26  N   UNL     1      -9.906  15.064  66.076  1.00  0.00    -0.299 N  
HETATM   27  C   UNL     1     -10.754  15.475  64.969  1.00  0.00    -0.441 C  
HETATM   28  C   UNL     1      -9.221  16.152  66.762  1.00  0.00    -0.231 C  
ENDBRANCH  22  24
ENDBRANCH  17  18
ENDBRANCH  11  17
TORSDOF 4
ENDMDL
MODEL       57
REMARK 921   NORMALIZED FREE ENERGY PREDICTED BY IDOCK:   -5.59 KCAL/MOL
REMARK 922        TOTAL FREE ENERGY PREDICTED BY IDOCK:   -7.86 KCAL/MOL
REMARK 923 INTER-LIGAND FREE ENERGY PREDICTED BY IDOCK:   -7.09 KCAL/MOL
REMARK 924 INTRA-LIGAND FREE ENERGY PREDICTED BY IDOCK:   -0.78 KCAL/MOL
REMARK 927      BINDING AFFINITY PREDICTED BY RF-SCORE:    0.00 PKD
ROOT
HETATM    1  C   UNL     1     -10.059   8.004  68.439  1.00  0.00    -0.221 C  
HETATM    2  C   UNL     1     -10.597   9.069  67.429  1.00  0.00    -0.239 C  
HETATM    3  C   UNL     1      -8.708   8.205  67.735  1.00  0.00    -0.130 C  
HETATM    4  N   UNL     1      -9.201   9.182  66.919  1.00  0.00    -0.143 N  
HETATM    5  C   UNL     1     -11.025  10.494  67.793  1.00  0.00    -0.372 C  
HETATM    6  O   UNL     1      -6.676   9.868  66.135  1.00  0.00    -0.084 OA 
HETATM    7  O   UNL     1      -7.575   7.795  67.819  1.00  0.00    -0.107 OA 
HETATM    8  C   UNL     1      -8.783  10.499  67.065  1.00  0.00    -0.130 C  
HETATM    9  O   UNL     1      -6.922  12.012  66.740  1.00  0.00    -0.079 OA 
HETATM   10  C   UNL     1      -7.389  10.886  66.672  1.00  0.00    -0.139 C  
HETATM   11  C   UNL     1      -9.762  11.289  67.548  1.00  0.00    -0.177 C  
HETATM   12  C   UNL     1     -11.618  10.567  69.192  1.00  0.00    -0.295 C  
ENDROOT
BRANCH   1  13
HETATM   13  C   UNL     1     -10.664   6.617  68.327  1.00  0.00    -0.257 C  
HETATM   14  C   UNL     1     -11.410   6.258  69.605  1.00  0.00    -0.492 C  
HETATM   15  O   UNL     1     -11.605   6.616  67.259  1.00  0.00    -0.747 OA 
HETATM   16  H   UNL     1     -11.983   5.748  67.189  1.00  0.00     0.000 HD 
ENDBRANCH   1  13
BRANCH  11  17
HETATM   17  S   UNL     1      -9.672  12.954  67.978  1.00  0.00    -0.227 SA 
BRANCH  17  18
HETATM   18  C   UNL     1     -10.879  13.803  66.892  1.00  0.00    -0.285 C  
HETATM   19  C   UNL     1     -10.657  13.699  65.389  1.00  0.00    -0.317 C  
HETATM   20  N   UNL     1      -9.844  14.862  65.060  1.00  0.00    -0.386 NA 
HETATM   21  H   UNL     1      -9.888  15.106  64.070  1.00  0.00     0.000 HD 
HETATM   22  C   UNL     1     -10.261  15.975  65.945  1.00  0.00    -0.365 C  
HETATM   23  C   UNL     1     -10.967  15.304  67.127  1.00  0.00    -0.331 C  
BRANCH  22  24
HETATM   24  C   UNL     1      -9.024  16.850  66.304  1.00  0.00    -0.270 C  
HETATM   25  O   UNL     1      -7.905  16.338  66.435  1.00  0.00    -0.278 OA 
HETATM   26  N   UNL     1      -9.187  18.226  66.425  1.00  0.00    -0.290 N  
HETATM   27  C   UNL     1     -10.419  18.964  66.198  1.00  0.00    -0.457 C  
HETATM   28  C   UNL     1      -8.044  19.042  66.814  1.00  0.00    -0.269 C  
ENDBRANCH  22  24
ENDBRANCH  17  18
ENDBRANCH  11  17
TORSDOF 4
ENDMDL
MODEL       58
REMARK 921   NORMALIZED FREE ENERGY PREDICTED BY IDOCK:   -5.59 KCAL/MOL
REMARK 922        TOTAL FREE ENERGY PREDICTED BY IDOCK:   -7.86 KCAL/MOL
REMARK 923 INTER-LIGAND FREE ENERGY PREDICTED BY IDOCK:   -6.88 KCAL/MOL
REMARK 924 INTRA-LIGAND FREE ENERGY PREDICTED BY IDOCK:   -0.98 KCAL/MOL
REMARK 927      BINDING AFFINITY PREDICTED BY RF-SCORE:    0.00 PKD
ROOT
HETATM    1  C   UNL     1     -11.881  14.067  68.204  1.00  0.00    -0.402 C  
HETATM    2  C   UNL     1     -10.543  13.260  68.229  1.00  0.00    -0.251 C  
HETATM    3  C   UNL     1     -11.689  14.093  66.680  1.00  0.00    -0.403 C  
HETATM    4  N   UNL     1     -10.561  13.326  66.740  1.00  0.00    -0.274 N  
HETATM    5  C   UNL     1     -10.414  11.774  68.579  1.00  0.00    -0.233 C  
HETATM    6  O   UNL     1     -10.619  12.946  64.036  1.00  0.00    -0.405 OA 
HETATM    7  O   UNL     1     -12.263  14.512  65.703  1.00  0.00    -0.351 OA 
HETATM    8  C   UNL     1     -10.565  12.030  66.241  1.00  0.00    -0.252 C  
HETATM    9  O   UNL     1     -10.622  10.711  64.211  1.00  0.00    -0.298 OA 
HETATM   10  C   UNL     1     -10.631  11.801  64.760  1.00  0.00    -0.301 C  
HETATM   11  C   UNL     1     -10.479  11.110  67.221  1.00  0.00    -0.226 C  
HETATM   12  C   UNL     1     -11.453  11.342  69.603  1.00  0.00    -0.380 C  
ENDROOT
BRANCH   1  13
HETATM   13  C   UNL     1     -11.856  15.416  68.898  1.00  0.00    -0.329 C  
HETATM   14  C   UNL     1     -10.996  15.353  70.153  1.00  0.00    -0.327 C  
HETATM   15  O   UNL     1     -11.272  16.370  68.018  1.00  0.00    -0.325 OA 
HETATM   16  H   UNL     1     -11.257  17.214  68.453  1.00  0.00     0.000 HD 
ENDBRANCH   1  13
BRANCH  11  17
HETATM   17  S   UNL     1     -10.548   9.395  67.083  1.00  0.00    -0.170 SA 
BRANCH  17  18
HETATM   18  C   UNL     1      -8.993   8.784  67.835  1.00  0.00    -0.140 C  
HETATM   19  C   UNL     1      -8.450   7.454  67.329  1.00  0.00    -0.118 C  
HETATM   20  N   UNL     1      -9.036   6.461  68.218  1.00  0.00    -0.116 NA 
HETATM   21  H   UNL     1      -8.523   5.578  68.216  1.00  0.00     0.000 HD 
HETATM   22  C   UNL     1      -9.141   7.061  69.569  1.00  0.00    -0.146 C  
HETATM   23  C   UNL     1      -9.080   8.574  69.340  1.00  0.00    -0.150 C  
BRANCH  22  24
HETATM   24  C   UNL     1     -10.423   6.535  70.279  1.00  0.00    -0.216 C  
HETATM   25  O   UNL     1     -11.417   6.201  69.620  1.00  0.00    -0.429 OA 
HETATM   26  N   UNL     1     -10.418   6.399  71.662  1.00  0.00    -0.213 N  
HETATM   27  C   UNL     1      -9.289   6.659  72.542  1.00  0.00    -0.137 C  
HETATM   28  C   UNL     1     -11.633   5.959  72.335  1.00  0.00    -0.288 C  
ENDBRANCH  22  24
ENDBRANCH  17  18
ENDBRANCH  11  17
TORSDOF 4
ENDMDL
MODEL       59
REMARK 921   NORMALIZED FREE ENERGY PREDICTED BY IDOCK:   -5.56 KCAL/MOL
REMARK 922        TOTAL FREE ENERGY PREDICTED BY IDOCK:   -7.83 KCAL/MOL
REMARK 923 INTER-LIGAND FREE ENERGY PREDICTED BY IDOCK:   -6.94 KCAL/MOL
REMARK 924 INTRA-LIGAND FREE ENERGY PREDICTED BY IDOCK:   -0.90 KCAL/MOL
REMARK 927      BINDING AFFINITY PREDICTED BY RF-SCORE:    0.00 PKD
ROOT
HETATM    1  C   UNL     1     -11.034   6.308  69.683  1.00  0.00    -0.440 C  
HETATM    2  C   UNL     1     -10.079   7.541  69.764  1.00  0.00    -0.194 C  
HETATM    3  C   UNL     1     -11.773   6.962  70.861  1.00  0.00    -0.361 C  
HETATM    4  N   UNL     1     -10.958   8.058  70.852  1.00  0.00    -0.239 N  
HETATM    5  C   UNL     1      -9.996   8.665  68.726  1.00  0.00    -0.194 C  
HETATM    6  O   UNL     1     -12.651   9.389  72.532  1.00  0.00    -0.285 OA 
HETATM    7  O   UNL     1     -12.740   6.749  71.553  1.00  0.00    -0.355 OA 
HETATM    8  C   UNL     1     -11.451   9.299  70.469  1.00  0.00    -0.248 C  
HETATM    9  O   UNL     1     -12.889  11.128  71.137  1.00  0.00    -0.378 OA 
HETATM   10  C   UNL     1     -12.408  10.029  71.363  1.00  0.00    -0.415 C  
HETATM   11  C   UNL     1     -10.947   9.700  69.285  1.00  0.00    -0.168 C  
HETATM   12  C   UNL     1     -10.286   8.158  67.321  1.00  0.00    -0.373 C  
ENDROOT
BRANCH   1  13
HETATM   13  C   UNL     1     -10.401   4.958  69.966  1.00  0.00    -0.172 C  
HETATM   14  C   UNL     1      -8.981   4.911  69.419  1.00  0.00    -0.133 C  
HETATM   15  O   UNL     1     -10.331   4.776  71.376  1.00  0.00    -0.190 OA 
HETATM   16  H   UNL     1      -9.935   3.931  71.553  1.00  0.00     0.000 HD 
ENDBRANCH   1  13
BRANCH  11  17
HETATM   17  S   UNL     1     -11.343  11.111  68.382  1.00  0.00    -0.310 SA 
BRANCH  17  18
HETATM   18  C   UNL     1      -9.787  11.611  67.554  1.00  0.00    -0.188 C  
HETATM   19  C   UNL     1      -8.584  11.893  68.444  1.00  0.00    -0.152 C  
HETATM   20  N   UNL     1      -8.663  13.321  68.719  1.00  0.00    -0.374 NA 
HETATM   21  H   UNL     1      -7.770  13.715  69.020  1.00  0.00     0.000 HD 
HETATM   22  C   UNL     1      -9.207  13.990  67.513  1.00  0.00    -0.197 C  
HETATM   23  C   UNL     1      -9.913  12.882  66.726  1.00  0.00    -0.243 C  
BRANCH  22  24
HETATM   24  C   UNL     1     -10.099  15.193  67.938  1.00  0.00    -0.222 C  
HETATM   25  O   UNL     1     -10.962  15.059  68.816  1.00  0.00    -0.237 OA 
HETATM   26  N   UNL     1      -9.878  16.434  67.352  1.00  0.00    -0.240 N  
HETATM   27  C   UNL     1      -8.836  16.750  66.387  1.00  0.00    -0.296 C  
HETATM   28  C   UNL     1     -10.746  17.549  67.706  1.00  0.00    -0.332 C  
ENDBRANCH  22  24
ENDBRANCH  17  18
ENDBRANCH  11  17
TORSDOF 4
ENDMDL
MODEL       60
REMARK 921   NORMALIZED FREE ENERGY PREDICTED BY IDOCK:   -5.52 KCAL/MOL
REMARK 922        TOTAL FREE ENERGY PREDICTED BY IDOCK:   -7.78 KCAL/MOL
REMARK 923 INTER-LIGAND FREE ENERGY PREDICTED BY IDOCK:   -6.48 KCAL/MOL
REMARK 924 INTRA-LIGAND FREE ENERGY PREDICTED BY IDOCK:   -1.30 KCAL/MOL
REMARK 927      BINDING AFFINITY PREDICTED BY RF-SCORE:    0.00 PKD
ROOT
HETATM    1  C   UNL     1     -10.447  16.807  66.861  1.00  0.00    -0.269 C  
HETATM    2  C   UNL     1      -9.277  15.847  67.248  1.00  0.00    -0.206 C  
HETATM    3  C   UNL     1     -10.561  15.951  65.590  1.00  0.00    -0.378 C  
HETATM    4  N   UNL     1      -9.581  15.093  65.998  1.00  0.00    -0.312 N  
HETATM    5  C   UNL     1      -9.319  14.814  68.379  1.00  0.00    -0.197 C  
HETATM    6  O   UNL     1     -10.236  13.329  64.018  1.00  0.00    -0.366 OA 
HETATM    7  O   UNL     1     -11.244  15.896  64.595  1.00  0.00    -0.456 OA 
HETATM    8  C   UNL     1      -9.890  13.782  66.337  1.00  0.00    -0.298 C  
HETATM    9  O   UNL     1     -10.559  11.633  65.447  1.00  0.00    -0.264 OA 
HETATM   10  C   UNL     1     -10.285  12.808  65.267  1.00  0.00    -0.279 C  
HETATM   11  C   UNL     1      -9.759  13.557  67.659  1.00  0.00    -0.229 C  
HETATM   12  C   UNL     1     -10.189  15.279  69.537  1.00  0.00    -0.265 C  
ENDROOT
BRANCH   1  13
HETATM   13  C   UNL     1     -10.070  18.262  66.649  1.00  0.00    -0.375 C  
HETATM   14  C   UNL     1      -8.556  18.426  66.665  1.00  0.00    -0.289 C  
HETATM   15  O   UNL     1     -10.539  18.671  65.369  1.00  0.00    -0.572 OA 
HETATM   16  H   UNL     1     -10.302  19.581  65.237  1.00  0.00     0.000 HD 
ENDBRANCH   1  13
BRANCH  11  17
HETATM   17  S   UNL     1     -10.126  12.123  68.538  1.00  0.00    -0.149 SA 
BRANCH  17  18
HETATM   18  C   UNL     1      -8.534  11.231  68.701  1.00  0.00    -0.143 C  
HETATM   19  C   UNL     1      -7.653  11.146  67.461  1.00  0.00    -0.108 C  
HETATM   20  N   UNL     1      -8.053   9.904  66.815  1.00  0.00    -0.116 NA 
HETATM   21  H   UNL     1      -7.347   9.550  66.170  1.00  0.00     0.000 HD 
HETATM   22  C   UNL     1      -8.402   8.930  67.876  1.00  0.00    -0.118 C  
HETATM   23  C   UNL     1      -8.684   9.776  69.121  1.00  0.00    -0.155 C  
BRANCH  22  24
HETATM   24  C   UNL     1      -9.574   8.025  67.393  1.00  0.00    -0.153 C  
HETATM   25  O   UNL     1     -10.487   8.493  66.699  1.00  0.00    -0.289 OA 
HETATM   26  N   UNL     1      -9.554   6.672  67.711  1.00  0.00    -0.123 N  
HETATM   27  C   UNL     1      -8.497   5.978  68.429  1.00  0.00    -0.112 C  
HETATM   28  C   UNL     1     -10.675   5.833  67.307  1.00  0.00    -0.261 C  
ENDBRANCH  22  24
ENDBRANCH  17  18
ENDBRANCH  11  17
TORSDOF 4
ENDMDL
MODEL       61
REMARK 921   NORMALIZED FREE ENERGY PREDICTED BY IDOCK:   -5.52 KCAL/MOL
REMARK 922        TOTAL FREE ENERGY PREDICTED BY IDOCK:   -7.78 KCAL/MOL
REMARK 923 INTER-LIGAND FREE ENERGY PREDICTED BY IDOCK:   -6.99 KCAL/MOL
REMARK 924 INTRA-LIGAND FREE ENERGY PREDICTED BY IDOCK:   -0.78 KCAL/MOL
REMARK 927      BINDING AFFINITY PREDICTED BY RF-SCORE:    0.00 PKD
ROOT
HETATM    1  C   UNL     1     -11.776  13.153  65.312  1.00  0.00    -0.375 C  
HETATM    2  C   UNL     1     -10.339  13.154  65.927  1.00  0.00    -0.290 C  
HETATM    3  C   UNL     1     -11.203  12.151  64.298  1.00  0.00    -0.347 C  
HETATM    4  N   UNL     1      -9.982  12.127  64.908  1.00  0.00    -0.245 N  
HETATM    5  C   UNL     1      -9.957  12.549  67.281  1.00  0.00    -0.211 C  
HETATM    6  O   UNL     1      -9.238   9.949  63.436  1.00  0.00    -0.260 OA 
HETATM    7  O   UNL     1     -11.585  11.506  63.350  1.00  0.00    -0.363 OA 
HETATM    8  C   UNL     1      -9.547  10.984  65.566  1.00  0.00    -0.222 C  
HETATM    9  O   UNL     1      -8.755   8.719  65.247  1.00  0.00    -0.182 OA 
HETATM   10  C   UNL     1      -9.167   9.767  64.776  1.00  0.00    -0.261 C  
HETATM   11  C   UNL     1      -9.505  11.155  66.902  1.00  0.00    -0.185 C  
HETATM   12  C   UNL     1     -11.094  12.649  68.287  1.00  0.00    -0.295 C  
ENDROOT
BRANCH   1  13
HETATM   13  C   UNL     1     -12.255  14.475  64.740  1.00  0.00    -0.431 C  
HETATM   14  C   UNL     1     -11.168  15.533  64.865  1.00  0.00    -0.396 C  
HETATM   15  O   UNL     1     -12.533  14.296  63.356  1.00  0.00    -1.125 OA 
HETATM   16  H   UNL     1     -12.833  15.123  62.998  1.00  0.00     0.000 HD 
ENDBRANCH   1  13
BRANCH  11  17
HETATM   17  S   UNL     1      -9.125   9.993  68.114  1.00  0.00    -0.121 SA 
BRANCH  17  18
HETATM   18  C   UNL     1     -10.633   8.969  68.297  1.00  0.00    -0.163 C  
HETATM   19  C   UNL     1     -10.827   8.245  69.622  1.00  0.00    -0.150 C  
HETATM   20  N   UNL     1     -10.210   6.942  69.418  1.00  0.00    -0.177 NA 
HETATM   21  H   UNL     1     -10.538   6.241  70.083  1.00  0.00     0.000 HD 
HETATM   22  C   UNL     1     -10.433   6.546  68.008  1.00  0.00    -0.216 C  
HETATM   23  C   UNL     1     -10.745   7.851  67.270  1.00  0.00    -0.299 C  
BRANCH  22  24
HETATM   24  C   UNL     1      -9.201   5.750  67.484  1.00  0.00    -0.108 C  
HETATM   25  O   UNL     1      -8.102   5.849  68.045  1.00  0.00    -0.104 OA 
HETATM   26  N   UNL     1      -9.367   4.887  66.407  1.00  0.00    -0.136 N  
HETATM   27  C   UNL     1     -10.619   4.602  65.725  1.00  0.00    -0.223 C  
HETATM   28  C   UNL     1      -8.206   4.182  65.880  1.00  0.00    -0.109 C  
ENDBRANCH  22  24
ENDBRANCH  17  18
ENDBRANCH  11  17
TORSDOF 4
ENDMDL
MODEL       62
REMARK 921   NORMALIZED FREE ENERGY PREDICTED BY IDOCK:   -5.51 KCAL/MOL
REMARK 922        TOTAL FREE ENERGY PREDICTED BY IDOCK:   -7.77 KCAL/MOL
REMARK 923 INTER-LIGAND FREE ENERGY PREDICTED BY IDOCK:   -7.35 KCAL/MOL
REMARK 924 INTRA-LIGAND FREE ENERGY PREDICTED BY IDOCK:   -0.42 KCAL/MOL
REMARK 927      BINDING AFFINITY PREDICTED BY RF-SCORE:    0.00 PKD
ROOT
HETATM    1  C   UNL     1     -10.872  10.174  70.825  1.00  0.00    -0.241 C  
HETATM    2  C   UNL     1     -11.368  10.606  69.408  1.00  0.00    -0.284 C  
HETATM    3  C   UNL     1      -9.596   9.718  70.100  1.00  0.00    -0.237 C  
HETATM    4  N   UNL     1     -10.039  10.174  68.892  1.00  0.00    -0.189 N  
HETATM    5  C   UNL     1     -11.549  12.053  68.938  1.00  0.00    -0.377 C  
HETATM    6  O   UNL     1      -7.550   9.863  67.811  1.00  0.00    -0.090 OA 
HETATM    7  O   UNL     1      -8.530   9.221  70.373  1.00  0.00    -0.167 OA 
HETATM    8  C   UNL     1      -9.427  11.262  68.283  1.00  0.00    -0.190 C  
HETATM    9  O   UNL     1      -7.422  11.999  67.144  1.00  0.00    -0.142 OA 
HETATM   10  C   UNL     1      -8.046  11.119  67.715  1.00  0.00    -0.117 C  
HETATM   11  C   UNL     1     -10.223  12.349  68.272  1.00  0.00    -0.229 C  
HETATM   12  C   UNL     1     -11.961  12.971  70.079  1.00  0.00    -0.383 C  
ENDROOT
BRANCH   1  13
HETATM   13  C   UNL     1     -11.675   9.080  71.505  1.00  0.00    -0.345 C  
HETATM   14  C   UNL     1     -13.028   9.614  71.954  1.00  0.00    -0.527 C  
HETATM   15  O   UNL     1     -11.908   8.036  70.566  1.00  0.00    -0.463 OA 
HETATM   16  H   UNL     1     -12.410   7.352  70.992  1.00  0.00     0.000 HD 
ENDBRANCH   1  13
BRANCH  11  17
HETATM   17  S   UNL     1      -9.852  13.935  67.716  1.00  0.00    -0.243 SA 
BRANCH  17  18
HETATM   18  C   UNL     1     -10.790  14.136  66.155  1.00  0.00    -0.296 C  
HETATM   19  C   UNL     1     -12.224  13.624  66.134  1.00  0.00    -0.444 C  
HETATM   20  N   UNL     1     -12.113  12.253  65.657  1.00  0.00    -0.578 NA 
HETATM   21  H   UNL     1     -12.992  11.893  65.283  1.00  0.00     0.000 HD 
HETATM   22  C   UNL     1     -11.005  12.199  64.673  1.00  0.00    -0.312 C  
HETATM   23  C   UNL     1     -10.153  13.438  64.962  1.00  0.00    -0.261 C  
BRANCH  22  24
HETATM   24  C   UNL     1     -10.270  10.831  64.785  1.00  0.00    -0.334 C  
HETATM   25  O   UNL     1     -10.525  10.052  65.713  1.00  0.00    -0.169 OA 
HETATM   26  N   UNL     1      -9.359  10.475  63.797  1.00  0.00    -0.256 N  
HETATM   27  C   UNL     1      -9.044  11.248  62.606  1.00  0.00    -0.283 C  
HETATM   28  C   UNL     1      -8.630   9.221  63.926  1.00  0.00    -0.192 C  
ENDBRANCH  22  24
ENDBRANCH  17  18
ENDBRANCH  11  17
TORSDOF 4
ENDMDL
MODEL       63
REMARK 921   NORMALIZED FREE ENERGY PREDICTED BY IDOCK:   -5.50 KCAL/MOL
REMARK 922        TOTAL FREE ENERGY PREDICTED BY IDOCK:   -7.76 KCAL/MOL
REMARK 923 INTER-LIGAND FREE ENERGY PREDICTED BY IDOCK:   -7.33 KCAL/MOL
REMARK 924 INTRA-LIGAND FREE ENERGY PREDICTED BY IDOCK:   -0.43 KCAL/MOL
REMARK 927      BINDING AFFINITY PREDICTED BY RF-SCORE:    0.00 PKD
ROOT
HETATM    1  C   UNL     1      -8.410  18.640  66.701  1.00  0.00    -0.297 C  
HETATM    2  C   UNL     1      -9.211  17.634  67.588  1.00  0.00    -0.245 C  
HETATM    3  C   UNL     1      -7.334  18.552  67.794  1.00  0.00    -0.229 C  
HETATM    4  N   UNL     1      -8.034  17.619  68.503  1.00  0.00    -0.276 N  
HETATM    5  C   UNL     1      -9.483  16.168  67.235  1.00  0.00    -0.231 C  
HETATM    6  O   UNL     1      -5.854  17.103  70.067  1.00  0.00    -0.232 OA 
HETATM    7  O   UNL     1      -6.236  19.001  68.020  1.00  0.00    -0.211 OA 
HETATM    8  C   UNL     1      -7.568  16.314  68.603  1.00  0.00    -0.188 C  
HETATM    9  O   UNL     1      -5.867  14.911  69.601  1.00  0.00    -0.099 OA 
HETATM   10  C   UNL     1      -6.352  16.017  69.429  1.00  0.00    -0.169 C  
HETATM   11  C   UNL     1      -8.340  15.448  67.917  1.00  0.00    -0.144 C  
HETATM   12  C   UNL     1      -9.622  15.964  65.734  1.00  0.00    -0.339 C  
ENDROOT
BRANCH   1  13
HETATM   13  C   UNL     1      -9.046  20.005  66.506  1.00  0.00    -0.356 C  
HETATM   14  C   UNL     1     -10.431  20.042  67.137  1.00  0.00    -0.513 C  
HETATM   15  O   UNL     1      -8.241  20.978  67.162  1.00  0.00    -0.562 OA 
HETATM   16  H   UNL     1      -8.639  21.832  67.040  1.00  0.00     0.000 HD 
ENDBRANCH   1  13
BRANCH  11  17
HETATM   17  S   UNL     1      -8.094  13.761  67.677  1.00  0.00    -0.192 SA 
BRANCH  17  18
HETATM   18  C   UNL     1      -9.539  12.944  68.453  1.00  0.00    -0.176 C  
HETATM   19  C   UNL     1      -9.469  11.434  68.637  1.00  0.00    -0.163 C  
HETATM   20  N   UNL     1     -10.067  10.892  67.425  1.00  0.00    -0.186 NA 
HETATM   21  H   UNL     1     -10.386   9.930  67.538  1.00  0.00     0.000 HD 
HETATM   22  C   UNL     1     -11.151  11.810  67.000  1.00  0.00    -0.304 C  
HETATM   23  C   UNL     1     -10.841  13.142  67.690  1.00  0.00    -0.269 C  
BRANCH  22  24
HETATM   24  C   UNL     1     -11.223  11.853  65.445  1.00  0.00    -0.295 C  
HETATM   25  O   UNL     1     -10.636  11.004  64.763  1.00  0.00    -0.319 OA 
HETATM   26  N   UNL     1     -11.999  12.832  64.836  1.00  0.00    -0.377 N  
HETATM   27  C   UNL     1     -12.817  13.823  65.518  1.00  0.00    -0.419 C  
HETATM   28  C   UNL     1     -12.026  12.910  63.381  1.00  0.00    -0.537 C  
ENDBRANCH  22  24
ENDBRANCH  17  18
ENDBRANCH  11  17
TORSDOF 4
ENDMDL
MODEL       64
REMARK 921   NORMALIZED FREE ENERGY PREDICTED BY IDOCK:   -5.50 KCAL/MOL
REMARK 922        TOTAL FREE ENERGY PREDICTED BY IDOCK:   -7.75 KCAL/MOL
REMARK 923 INTER-LIGAND FREE ENERGY PREDICTED BY IDOCK:   -8.15 KCAL/MOL
REMARK 924 INTRA-LIGAND FREE ENERGY PREDICTED BY IDOCK:    0.40 KCAL/MOL
REMARK 927      BINDING AFFINITY PREDICTED BY RF-SCORE:    0.00 PKD
ROOT
HETATM    1  C   UNL     1      -8.712  18.376  66.370  1.00  0.00    -0.263 C  
HETATM    2  C   UNL     1      -9.711  17.513  67.207  1.00  0.00    -0.276 C  
HETATM    3  C   UNL     1      -7.735  18.144  67.533  1.00  0.00    -0.218 C  
HETATM    4  N   UNL     1      -8.612  17.337  68.199  1.00  0.00    -0.235 N  
HETATM    5  C   UNL     1     -10.176  16.099  66.843  1.00  0.00    -0.283 C  
HETATM    6  O   UNL     1      -6.642  16.525  69.907  1.00  0.00    -0.169 OA 
HETATM    7  O   UNL     1      -6.599  18.428  67.830  1.00  0.00    -0.203 OA 
HETATM    8  C   UNL     1      -8.355  15.979  68.335  1.00  0.00    -0.178 C  
HETATM    9  O   UNL     1      -6.953  14.352  69.452  1.00  0.00    -0.132 OA 
HETATM   10  C   UNL     1      -7.254  15.516  69.242  1.00  0.00    -0.196 C  
HETATM   11  C   UNL     1      -9.201  15.227  67.603  1.00  0.00    -0.187 C  
HETATM   12  C   UNL     1     -10.245  15.897  65.337  1.00  0.00    -0.354 C  
ENDROOT
BRANCH   1  13
HETATM   13  C   UNL     1      -9.122  19.817  66.127  1.00  0.00    -0.343 C  
HETATM   14  C   UNL     1     -10.638  19.949  66.142  1.00  0.00    -0.526 C  
HETATM   15  O   UNL     1      -8.604  20.621  67.181  1.00  0.00    -0.494 OA 
HETATM   16  H   UNL     1      -8.860  21.522  67.028  1.00  0.00     0.000 HD 
ENDBRANCH   1  13
BRANCH  11  17
HETATM   17  S   UNL     1      -9.196  13.519  67.388  1.00  0.00    -0.234 SA 
BRANCH  17  18
HETATM   18  C   UNL     1     -10.933  12.992  67.636  1.00  0.00    -0.254 C  
HETATM   19  C   UNL     1     -12.022  13.895  67.072  1.00  0.00    -0.424 C  
HETATM   20  N   UNL     1     -12.349  14.797  68.167  1.00  0.00    -0.572 NA 
HETATM   21  H   UNL     1     -13.266  15.233  68.059  1.00  0.00     0.000 HD 
HETATM   22  C   UNL     1     -12.219  14.041  69.436  1.00  0.00    -0.292 C  
HETATM   23  C   UNL     1     -11.327  12.843  69.098  1.00  0.00    -0.329 C  
BRANCH  22  24
HETATM   24  C   UNL     1     -11.690  14.985  70.556  1.00  0.00    -0.297 C  
HETATM   25  O   UNL     1     -10.506  15.347  70.569  1.00  0.00    -0.280 OA 
HETATM   26  N   UNL     1     -12.581  15.455  71.514  1.00  0.00    -0.360 N  
HETATM   27  C   UNL     1     -14.010  15.191  71.556  1.00  0.00    -0.522 C  
HETATM   28  C   UNL     1     -12.080  16.294  72.595  1.00  0.00    -0.534 C  
ENDBRANCH  22  24
ENDBRANCH  17  18
ENDBRANCH  11  17
TORSDOF 4
ENDMDL
MODEL       65
REMARK 921   NORMALIZED FREE ENERGY PREDICTED BY IDOCK:   -5.45 KCAL/MOL
REMARK 922        TOTAL FREE ENERGY PREDICTED BY IDOCK:   -7.70 KCAL/MOL
REMARK 923 INTER-LIGAND FREE ENERGY PREDICTED BY IDOCK:   -6.41 KCAL/MOL
REMARK 924 INTRA-LIGAND FREE ENERGY PREDICTED BY IDOCK:   -1.29 KCAL/MOL
REMARK 927      BINDING AFFINITY PREDICTED BY RF-SCORE:    0.00 PKD
ROOT
HETATM    1  C   UNL     1      -9.189  15.764  67.197  1.00  0.00    -0.224 C  
HETATM    2  C   UNL     1      -9.550  14.426  67.918  1.00  0.00    -0.219 C  
HETATM    3  C   UNL     1      -7.737  15.269  67.281  1.00  0.00    -0.211 C  
HETATM    4  N   UNL     1      -8.102  14.081  67.846  1.00  0.00    -0.141 N  
HETATM    5  C   UNL     1     -10.293  13.249  67.277  1.00  0.00    -0.247 C  
HETATM    6  O   UNL     1      -5.602  13.062  67.432  1.00  0.00    -0.297 OA 
HETATM    7  O   UNL     1      -6.635  15.638  66.949  1.00  0.00    -0.258 OA 
HETATM    8  C   UNL     1      -7.966  12.894  67.137  1.00  0.00    -0.099 C  
HETATM    9  O   UNL     1      -6.363  11.297  66.278  1.00  0.00    -0.125 OA 
HETATM   10  C   UNL     1      -6.599  12.337  66.871  1.00  0.00     0.067 C  
HETATM   11  C   UNL     1      -9.159  12.372  66.791  1.00  0.00    -0.212 C  
HETATM   12  C   UNL     1     -11.293  13.715  66.230  1.00  0.00    -0.325 C  
ENDROOT
BRANCH   1  13
HETATM   13  C   UNL     1      -9.500  17.037  67.963  1.00  0.00    -0.256 C  
HETATM   14  C   UNL     1     -10.494  16.754  69.082  1.00  0.00    -0.343 C  
HETATM   15  O   UNL     1      -8.299  17.515  68.558  1.00  0.00    -0.263 OA 
HETATM   16  H   UNL     1      -8.494  18.311  69.037  1.00  0.00     0.000 HD 
ENDBRANCH   1  13
BRANCH  11  17
HETATM   17  S   UNL     1      -9.474  10.977  65.833  1.00  0.00    -0.224 SA 
BRANCH  17  18
HETATM   18  C   UNL     1      -9.085   9.548  66.910  1.00  0.00    -0.135 C  
HETATM   19  C   UNL     1      -9.928   8.292  66.733  1.00  0.00    -0.285 C  
HETATM   20  N   UNL     1     -11.022   8.453  67.682  1.00  0.00    -0.483 NA 
HETATM   21  H   UNL     1     -11.476   7.569  67.913  1.00  0.00     0.000 HD 
HETATM   22  C   UNL     1     -10.493   9.156  68.875  1.00  0.00    -0.218 C  
HETATM   23  C   UNL     1      -9.211   9.846  68.397  1.00  0.00    -0.130 C  
BRANCH  22  24
HETATM   24  C   UNL     1     -11.589  10.094  69.460  1.00  0.00    -0.118 C  
HETATM   25  O   UNL     1     -12.204  10.880  68.727  1.00  0.00    -0.518 OA 
HETATM   26  N   UNL     1     -11.902  10.000  70.811  1.00  0.00    -0.321 N  
HETATM   27  C   UNL     1     -11.331   9.055  71.758  1.00  0.00    -0.377 C  
HETATM   28  C   UNL     1     -12.888  10.913  71.374  1.00  0.00    -0.449 C  
ENDBRANCH  22  24
ENDBRANCH  17  18
ENDBRANCH  11  17
TORSDOF 4
ENDMDL
MODEL       66
REMARK 921   NORMALIZED FREE ENERGY PREDICTED BY IDOCK:   -5.45 KCAL/MOL
REMARK 922        TOTAL FREE ENERGY PREDICTED BY IDOCK:   -7.70 KCAL/MOL
REMARK 923 INTER-LIGAND FREE ENERGY PREDICTED BY IDOCK:   -7.22 KCAL/MOL
REMARK 924 INTRA-LIGAND FREE ENERGY PREDICTED BY IDOCK:   -0.47 KCAL/MOL
REMARK 927      BINDING AFFINITY PREDICTED BY RF-SCORE:    0.00 PKD
ROOT
HETATM    1  C   UNL     1     -10.331   5.929  71.274  1.00  0.00    -0.276 C  
HETATM    2  C   UNL     1     -11.065   7.288  71.035  1.00  0.00    -0.258 C  
HETATM    3  C   UNL     1     -10.593   5.672  69.781  1.00  0.00    -0.329 C  
HETATM    4  N   UNL     1     -11.164   6.898  69.600  1.00  0.00    -0.263 N  
HETATM    5  C   UNL     1     -10.398   8.667  71.049  1.00  0.00    -0.275 C  
HETATM    6  O   UNL     1     -11.068   6.594  66.888  1.00  0.00    -0.400 OA 
HETATM    7  O   UNL     1     -10.367   4.817  68.958  1.00  0.00    -0.111 OA 
HETATM    8  C   UNL     1     -10.526   7.866  68.835  1.00  0.00    -0.190 C  
HETATM    9  O   UNL     1      -9.914   8.491  66.578  1.00  0.00    -0.259 OA 
HETATM   10  C   UNL     1     -10.434   7.699  67.348  1.00  0.00    -0.297 C  
HETATM   11  C   UNL     1     -10.076   8.889  69.587  1.00  0.00    -0.200 C  
HETATM   12  C   UNL     1      -9.230   8.720  72.022  1.00  0.00    -0.294 C  
ENDROOT
BRANCH   1  13
HETATM   13  C   UNL     1     -11.004   4.971  72.239  1.00  0.00    -0.092 C  
HETATM   14  C   UNL     1     -10.089   3.793  72.544  1.00  0.00    -0.235 C  
HETATM   15  O   UNL     1     -11.254   5.657  73.460  1.00  0.00    -0.455 OA 
HETATM   16  H   UNL     1     -11.675   5.057  74.064  1.00  0.00     0.000 HD 
ENDBRANCH   1  13
BRANCH  11  17
HETATM   17  S   UNL     1      -9.149  10.251  69.088  1.00  0.00    -0.189 SA 
BRANCH  17  18
HETATM   18  C   UNL     1     -10.272  11.246  68.036  1.00  0.00    -0.183 C  
HETATM   19  C   UNL     1      -9.977  12.735  67.916  1.00  0.00    -0.229 C  
HETATM   20  N   UNL     1     -10.757  13.348  68.982  1.00  0.00    -0.393 NA 
HETATM   21  H   UNL     1     -10.921  14.343  68.828  1.00  0.00     0.000 HD 
HETATM   22  C   UNL     1     -12.013  12.575  69.131  1.00  0.00    -0.236 C  
HETATM   23  C   UNL     1     -11.725  11.215  68.489  1.00  0.00    -0.368 C  
BRANCH  22  24
HETATM   24  C   UNL     1     -12.433  12.541  70.630  1.00  0.00    -0.238 C  
HETATM   25  O   UNL     1     -12.377  11.487  71.276  1.00  0.00    -0.306 OA 
HETATM   26  N   UNL     1     -12.825  13.724  71.244  1.00  0.00    -0.352 N  
HETATM   27  C   UNL     1     -12.840  15.043  70.631  1.00  0.00    -0.363 C  
HETATM   28  C   UNL     1     -13.271  13.687  72.631  1.00  0.00    -0.430 C  
ENDBRANCH  22  24
ENDBRANCH  17  18
ENDBRANCH  11  17
TORSDOF 4
ENDMDL
MODEL       67
REMARK 921   NORMALIZED FREE ENERGY PREDICTED BY IDOCK:   -5.45 KCAL/MOL
REMARK 922        TOTAL FREE ENERGY PREDICTED BY IDOCK:   -7.69 KCAL/MOL
REMARK 923 INTER-LIGAND FREE ENERGY PREDICTED BY IDOCK:   -7.00 KCAL/MOL
REMARK 924 INTRA-LIGAND FREE ENERGY PREDICTED BY IDOCK:   -0.69 KCAL/MOL
REMARK 927      BINDING AFFINITY PREDICTED BY RF-SCORE:    0.00 PKD
ROOT
HETATM    1  C   UNL     1     -10.834  16.250  66.331  1.00  0.00    -0.100 C  
HETATM    2  C   UNL     1      -9.776  15.107  66.203  1.00  0.00    -0.310 C  
HETATM    3  C   UNL     1     -11.408  15.693  65.019  1.00  0.00    -0.253 C  
HETATM    4  N   UNL     1     -10.509  14.666  64.982  1.00  0.00    -0.417 N  
HETATM    5  C   UNL     1      -9.694  13.874  67.109  1.00  0.00    -0.244 C  
HETATM    6  O   UNL     1     -11.928  13.432  63.002  1.00  0.00    -0.306 OA 
HETATM    7  O   UNL     1     -12.323  15.920  64.264  1.00  0.00    -0.491 OA 
HETATM    8  C   UNL     1     -10.930  13.355  65.170  1.00  0.00    -0.303 C  
HETATM    9  O   UNL     1     -12.146  11.523  64.158  1.00  0.00    -0.156 OA 
HETATM   10  C   UNL     1     -11.740  12.673  64.108  1.00  0.00    -0.400 C  
HETATM   11  C   UNL     1     -10.502  12.849  66.343  1.00  0.00    -0.267 C  
HETATM   12  C   UNL     1     -10.150  14.183  68.528  1.00  0.00    -0.243 C  
ENDROOT
BRANCH   1  13
HETATM   13  C   UNL     1     -10.292  17.666  66.268  1.00  0.00    -0.342 C  
HETATM   14  C   UNL     1      -8.772  17.651  66.182  1.00  0.00    -0.141 C  
HETATM   15  O   UNL     1     -10.789  18.291  65.090  1.00  0.00    -0.656 OA 
HETATM   16  H   UNL     1     -10.449  19.177  65.051  1.00  0.00     0.000 HD 
ENDBRANCH   1  13
BRANCH  11  17
HETATM   17  S   UNL     1     -10.859  11.314  67.036  1.00  0.00    -0.288 SA 
BRANCH  17  18
HETATM   18  C   UNL     1      -9.405  10.896  68.068  1.00  0.00    -0.160 C  
HETATM   19  C   UNL     1      -8.427   9.870  67.511  1.00  0.00    -0.115 C  
HETATM   20  N   UNL     1      -8.907   8.594  68.023  1.00  0.00    -0.141 NA 
HETATM   21  H   UNL     1      -8.190   7.869  68.012  1.00  0.00     0.000 HD 
HETATM   22  C   UNL     1      -9.467   8.827  69.376  1.00  0.00    -0.161 C  
HETATM   23  C   UNL     1      -9.764  10.328  69.434  1.00  0.00    -0.242 C  
BRANCH  22  24
HETATM   24  C   UNL     1     -10.685   7.886  69.609  1.00  0.00    -0.218 C  
HETATM   25  O   UNL     1     -11.111   7.167  68.694  1.00  0.00    -0.086 OA 
HETATM   26  N   UNL     1     -11.257   7.827  70.874  1.00  0.00    -0.267 N  
HETATM   27  C   UNL     1     -10.793   8.537  72.056  1.00  0.00    -0.335 C  
HETATM   28  C   UNL     1     -12.431   6.989  71.083  1.00  0.00    -0.362 C  
ENDBRANCH  22  24
ENDBRANCH  17  18
ENDBRANCH  11  17
TORSDOF 4
ENDMDL
MODEL       68
REMARK 921   NORMALIZED FREE ENERGY PREDICTED BY IDOCK:   -5.38 KCAL/MOL
REMARK 922        TOTAL FREE ENERGY PREDICTED BY IDOCK:   -7.61 KCAL/MOL
REMARK 923 INTER-LIGAND FREE ENERGY PREDICTED BY IDOCK:   -6.77 KCAL/MOL
REMARK 924 INTRA-LIGAND FREE ENERGY PREDICTED BY IDOCK:   -0.84 KCAL/MOL
REMARK 927      BINDING AFFINITY PREDICTED BY RF-SCORE:    0.00 PKD
ROOT
HETATM    1  C   UNL     1      -9.974   7.596  68.430  1.00  0.00    -0.192 C  
HETATM    2  C   UNL     1      -9.426   9.002  68.832  1.00  0.00    -0.151 C  
HETATM    3  C   UNL     1     -10.725   7.645  69.769  1.00  0.00    -0.240 C  
HETATM    4  N   UNL     1     -10.280   8.905  70.050  1.00  0.00    -0.192 N  
HETATM    5  C   UNL     1      -9.808  10.325  68.160  1.00  0.00    -0.166 C  
HETATM    6  O   UNL     1     -12.074   9.133  72.097  1.00  0.00    -0.362 OA 
HETATM    7  O   UNL     1     -11.493   6.960  70.401  1.00  0.00    -0.308 OA 
HETATM    8  C   UNL     1     -11.162   9.978  70.058  1.00  0.00    -0.288 C  
HETATM    9  O   UNL     1     -12.986  11.008  71.272  1.00  0.00    -0.386 OA 
HETATM   10  C   UNL     1     -12.177  10.101  71.156  1.00  0.00    -0.389 C  
HETATM   11  C   UNL     1     -10.948  10.816  69.025  1.00  0.00    -0.240 C  
HETATM   12  C   UNL     1     -10.103  10.142  66.679  1.00  0.00    -0.283 C  
ENDROOT
BRANCH   1  13
HETATM   13  C   UNL     1      -8.940   6.494  68.290  1.00  0.00    -0.121 C  
HETATM   14  C   UNL     1      -7.737   6.779  69.180  1.00  0.00    -0.106 C  
HETATM   15  O   UNL     1      -9.520   5.269  68.721  1.00  0.00    -0.116 OA 
HETATM   16  H   UNL     1      -8.872   4.580  68.634  1.00  0.00     0.000 HD 
ENDBRANCH   1  13
BRANCH  11  17
HETATM   17  S   UNL     1     -11.852  12.212  68.580  1.00  0.00    -0.254 SA 
BRANCH  17  18
HETATM   18  C   UNL     1     -11.425  13.486  69.826  1.00  0.00    -0.175 C  
HETATM   19  C   UNL     1     -12.544  14.408  70.291  1.00  0.00    -0.323 C  
HETATM   20  N   UNL     1     -12.471  15.551  69.391  1.00  0.00    -0.597 NA 
HETATM   21  H   UNL     1     -12.927  16.381  69.770  1.00  0.00     0.000 HD 
HETATM   22  C   UNL     1     -11.045  15.780  69.058  1.00  0.00    -0.282 C  
HETATM   23  C   UNL     1     -10.343  14.455  69.368  1.00  0.00    -0.047 C  
BRANCH  22  24
HETATM   24  C   UNL     1     -10.924  16.282  67.589  1.00  0.00    -0.245 C  
HETATM   25  O   UNL     1     -11.249  15.552  66.644  1.00  0.00    -0.252 OA 
HETATM   26  N   UNL     1     -10.491  17.582  67.357  1.00  0.00    -0.350 N  
HETATM   27  C   UNL     1     -10.175  18.573  68.374  1.00  0.00    -0.372 C  
HETATM   28  C   UNL     1     -10.324  18.039  65.983  1.00  0.00    -0.331 C  
ENDBRANCH  22  24
ENDBRANCH  17  18
ENDBRANCH  11  17
TORSDOF 4
ENDMDL
MODEL       69
REMARK 921   NORMALIZED FREE ENERGY PREDICTED BY IDOCK:   -5.37 KCAL/MOL
REMARK 922        TOTAL FREE ENERGY PREDICTED BY IDOCK:   -7.59 KCAL/MOL
REMARK 923 INTER-LIGAND FREE ENERGY PREDICTED BY IDOCK:   -6.77 KCAL/MOL
REMARK 924 INTRA-LIGAND FREE ENERGY PREDICTED BY IDOCK:   -0.82 KCAL/MOL
REMARK 927      BINDING AFFINITY PREDICTED BY RF-SCORE:    0.00 PKD
ROOT
HETATM    1  C   UNL     1     -11.442  14.342  67.494  1.00  0.00    -0.370 C  
HETATM    2  C   UNL     1     -10.025  14.250  66.842  1.00  0.00    -0.263 C  
HETATM    3  C   UNL     1     -11.973  14.092  66.074  1.00  0.00    -0.413 C  
HETATM    4  N   UNL     1     -10.717  13.949  65.557  1.00  0.00    -0.291 N  
HETATM    5  C   UNL     1      -9.026  13.108  67.056  1.00  0.00    -0.228 C  
HETATM    6  O   UNL     1     -11.740  12.959  63.226  1.00  0.00    -0.521 OA 
HETATM    7  O   UNL     1     -13.036  13.967  65.515  1.00  0.00    -0.713 OA 
HETATM    8  C   UNL     1     -10.281  12.712  65.100  1.00  0.00    -0.280 C  
HETATM    9  O   UNL     1     -10.537  11.071  63.339  1.00  0.00    -0.338 OA 
HETATM   10  C   UNL     1     -10.857  12.137  63.840  1.00  0.00    -0.406 C  
HETATM   11  C   UNL     1      -9.328  12.186  65.895  1.00  0.00    -0.130 C  
HETATM   12  C   UNL     1      -9.140  12.511  68.451  1.00  0.00    -0.135 C  
ENDROOT
BRANCH   1  13
HETATM   13  C   UNL     1     -11.804  15.681  68.111  1.00  0.00    -0.083 C  
HETATM   14  C   UNL     1     -11.830  15.577  69.630  1.00  0.00    -0.384 C  
HETATM   15  O   UNL     1     -10.805  16.630  67.756  1.00  0.00    -0.340 OA 
HETATM   16  H   UNL     1     -11.032  17.467  68.142  1.00  0.00     0.000 HD 
ENDBRANCH   1  13
BRANCH  11  17
HETATM   17  S   UNL     1      -8.573  10.644  65.776  1.00  0.00    -0.183 SA 
BRANCH  17  18
HETATM   18  C   UNL     1      -9.897   9.426  66.120  1.00  0.00    -0.285 C  
HETATM   19  C   UNL     1     -11.120   9.923  66.879  1.00  0.00     0.170 C  
HETATM   20  N   UNL     1     -10.805   9.675  68.279  1.00  0.00    -0.406 NA 
HETATM   21  H   UNL     1     -11.635   9.649  68.872  1.00  0.00     0.000 HD 
HETATM   22  C   UNL     1     -10.006   8.429  68.354  1.00  0.00    -0.187 C  
HETATM   23  C   UNL     1      -9.436   8.234  66.947  1.00  0.00    -0.240 C  
BRANCH  22  24
HETATM   24  C   UNL     1      -8.957   8.547  69.499  1.00  0.00    -0.149 C  
HETATM   25  O   UNL     1      -7.872   9.109  69.305  1.00  0.00    -0.090 OA 
HETATM   26  N   UNL     1      -9.280   8.055  70.759  1.00  0.00    -0.155 N  
HETATM   27  C   UNL     1     -10.552   7.466  71.147  1.00  0.00    -0.222 C  
HETATM   28  C   UNL     1      -8.281   8.114  71.819  1.00  0.00    -0.130 C  
ENDBRANCH  22  24
ENDBRANCH  17  18
ENDBRANCH  11  17
TORSDOF 4
ENDMDL
MODEL       70
REMARK 921   NORMALIZED FREE ENERGY PREDICTED BY IDOCK:   -5.36 KCAL/MOL
REMARK 922        TOTAL FREE ENERGY PREDICTED BY IDOCK:   -7.58 KCAL/MOL
REMARK 923 INTER-LIGAND FREE ENERGY PREDICTED BY IDOCK:   -6.92 KCAL/MOL
REMARK 924 INTRA-LIGAND FREE ENERGY PREDICTED BY IDOCK:   -0.66 KCAL/MOL
REMARK 927      BINDING AFFINITY PREDICTED BY RF-SCORE:    0.00 PKD
ROOT
HETATM    1  C   UNL     1      -9.893   7.709  68.442  1.00  0.00    -0.176 C  
HETATM    2  C   UNL     1     -10.415   8.798  67.451  1.00  0.00    -0.279 C  
HETATM    3  C   UNL     1      -8.540   7.900  67.738  1.00  0.00    -0.128 C  
HETATM    4  N   UNL     1      -9.019   8.898  66.939  1.00  0.00    -0.125 N  
HETATM    5  C   UNL     1     -10.821  10.224  67.839  1.00  0.00    -0.337 C  
HETATM    6  O   UNL     1      -6.485   9.556  66.162  1.00  0.00    -0.067 OA 
HETATM    7  O   UNL     1      -7.413   7.471  67.814  1.00  0.00    -0.096 OA 
HETATM    8  C   UNL     1      -8.580  10.205  67.106  1.00  0.00    -0.125 C  
HETATM    9  O   UNL     1      -6.696  11.694  66.802  1.00  0.00    -0.135 OA 
HETATM   10  C   UNL     1      -7.180  10.577  66.717  1.00  0.00    -0.114 C  
HETATM   11  C   UNL     1      -9.545  11.003  67.604  1.00  0.00    -0.168 C  
HETATM   12  C   UNL     1     -11.410  10.283  69.240  1.00  0.00    -0.253 C  
ENDROOT
BRANCH   1  13
HETATM   13  C   UNL     1     -10.520   6.334  68.309  1.00  0.00    -0.228 C  
HETATM   14  C   UNL     1     -11.157   5.911  69.625  1.00  0.00    -0.414 C  
HETATM   15  O   UNL     1     -11.548   6.397  67.327  1.00  0.00    -0.695 OA 
HETATM   16  H   UNL     1     -11.941   5.536  67.244  1.00  0.00     0.000 HD 
ENDBRANCH   1  13
BRANCH  11  17
HETATM   17  S   UNL     1      -9.428  12.659  68.061  1.00  0.00    -0.211 SA 
BRANCH  17  18
HETATM   18  C   UNL     1     -10.974  13.439  67.463  1.00  0.00    -0.267 C  
HETATM   19  C   UNL     1     -10.845  14.765  66.726  1.00  0.00    -0.316 C  
HETATM   20  N   UNL     1     -10.975  15.775  67.767  1.00  0.00    -0.316 NA 
HETATM   21  H   UNL     1     -11.233  16.690  67.399  1.00  0.00     0.000 HD 
HETATM   22  C   UNL     1     -11.935  15.269  68.777  1.00  0.00    -0.251 C  
HETATM   23  C   UNL     1     -11.973  13.752  68.569  1.00  0.00    -0.402 C  
BRANCH  22  24
HETATM   24  C   UNL     1     -11.506  15.747  70.195  1.00  0.00    -0.361 C  
HETATM   25  O   UNL     1     -10.372  16.203  70.391  1.00  0.00    -0.063 OA 
HETATM   26  N   UNL     1     -12.434  15.701  71.229  1.00  0.00    -0.416 N  
HETATM   27  C   UNL     1     -13.823  15.286  71.113  1.00  0.00    -0.417 C  
HETATM   28  C   UNL     1     -12.021  16.097  72.569  1.00  0.00    -0.561 C  
ENDBRANCH  22  24
ENDBRANCH  17  18
ENDBRANCH  11  17
TORSDOF 4
ENDMDL
MODEL       71
REMARK 921   NORMALIZED FREE ENERGY PREDICTED BY IDOCK:   -5.35 KCAL/MOL
REMARK 922        TOTAL FREE ENERGY PREDICTED BY IDOCK:   -7.57 KCAL/MOL
REMARK 923 INTER-LIGAND FREE ENERGY PREDICTED BY IDOCK:   -6.58 KCAL/MOL
REMARK 924 INTRA-LIGAND FREE ENERGY PREDICTED BY IDOCK:   -1.00 KCAL/MOL
REMARK 927      BINDING AFFINITY PREDICTED BY RF-SCORE:    0.00 PKD
ROOT
HETATM    1  C   UNL     1     -11.405   8.349  71.785  1.00  0.00    -0.366 C  
HETATM    2  C   UNL     1     -11.370   8.246  70.227  1.00  0.00    -0.129 C  
HETATM    3  C   UNL     1     -10.349   7.233  71.756  1.00  0.00    -0.196 C  
HETATM    4  N   UNL     1     -10.296   7.225  70.392  1.00  0.00    -0.205 N  
HETATM    5  C   UNL     1     -10.794   9.309  69.284  1.00  0.00    -0.170 C  
HETATM    6  O   UNL     1      -8.044   5.681  70.440  1.00  0.00    -0.100 OA 
HETATM    7  O   UNL     1      -9.689   6.592  72.539  1.00  0.00    -0.158 OA 
HETATM    8  C   UNL     1      -9.160   7.669  69.728  1.00  0.00    -0.147 C  
HETATM    9  O   UNL     1      -6.856   7.133  69.214  1.00  0.00    -0.054 OA 
HETATM   10  C   UNL     1      -7.904   6.850  69.773  1.00  0.00    -0.115 C  
HETATM   11  C   UNL     1      -9.372   8.832  69.082  1.00  0.00    -0.149 C  
HETATM   12  C   UNL     1     -10.972  10.714  69.840  1.00  0.00    -0.337 C  
ENDROOT
BRANCH   1  13
HETATM   13  C   UNL     1     -12.725   7.994  72.445  1.00  0.00    -0.140 C  
HETATM   14  C   UNL     1     -13.880   8.672  71.721  1.00  0.00    -0.472 C  
HETATM   15  O   UNL     1     -12.917   6.587  72.350  1.00  0.00    -0.533 OA 
HETATM   16  H   UNL     1     -13.743   6.366  72.762  1.00  0.00     0.000 HD 
ENDBRANCH   1  13
BRANCH  11  17
HETATM   17  S   UNL     1      -8.236   9.794  68.217  1.00  0.00    -0.106 SA 
BRANCH  17  18
HETATM   18  C   UNL     1      -8.536   9.429  66.447  1.00  0.00    -0.134 C  
HETATM   19  C   UNL     1      -7.736  10.226  65.426  1.00  0.00    -0.146 C  
HETATM   20  N   UNL     1      -8.576  11.377  65.125  1.00  0.00    -0.373 NA 
HETATM   21  H   UNL     1      -8.334  11.821  64.238  1.00  0.00     0.000 HD 
HETATM   22  C   UNL     1      -9.990  10.938  65.181  1.00  0.00    -0.284 C  
HETATM   23  C   UNL     1      -9.977   9.651  66.010  1.00  0.00    -0.344 C  
BRANCH  22  24
HETATM   24  C   UNL     1     -10.876  12.092  65.736  1.00  0.00    -0.287 C  
HETATM   25  O   UNL     1     -10.651  12.579  66.851  1.00  0.00    -0.233 OA 
HETATM   26  N   UNL     1     -11.894  12.601  64.938  1.00  0.00    -0.365 N  
HETATM   27  C   UNL     1     -12.200  12.191  63.576  1.00  0.00    -0.567 C  
HETATM   28  C   UNL     1     -12.760  13.643  65.474  1.00  0.00    -0.466 C  
ENDBRANCH  22  24
ENDBRANCH  17  18
ENDBRANCH  11  17
TORSDOF 4
ENDMDL
MODEL       72
REMARK 921   NORMALIZED FREE ENERGY PREDICTED BY IDOCK:   -5.35 KCAL/MOL
REMARK 922        TOTAL FREE ENERGY PREDICTED BY IDOCK:   -7.57 KCAL/MOL
REMARK 923 INTER-LIGAND FREE ENERGY PREDICTED BY IDOCK:   -6.78 KCAL/MOL
REMARK 924 INTRA-LIGAND FREE ENERGY PREDICTED BY IDOCK:   -0.78 KCAL/MOL
REMARK 927      BINDING AFFINITY PREDICTED BY RF-SCORE:    0.00 PKD
ROOT
HETATM    1  C   UNL     1     -10.626   5.925  71.471  1.00  0.00    -0.300 C  
HETATM    2  C   UNL     1     -11.491   7.006  70.747  1.00  0.00    -0.318 C  
HETATM    3  C   UNL     1     -10.540   5.253  70.091  1.00  0.00    -0.227 C  
HETATM    4  N   UNL     1     -11.239   6.256  69.484  1.00  0.00    -0.413 N  
HETATM    5  C   UNL     1     -11.053   8.448  70.471  1.00  0.00    -0.267 C  
HETATM    6  O   UNL     1     -10.553   5.305  67.017  1.00  0.00    -0.244 OA 
HETATM    7  O   UNL     1     -10.028   4.281  69.589  1.00  0.00    -0.214 OA 
HETATM    8  C   UNL     1     -10.611   7.107  68.583  1.00  0.00    -0.189 C  
HETATM    9  O   UNL     1      -9.656   7.253  66.363  1.00  0.00    -0.172 OA 
HETATM   10  C   UNL     1     -10.196   6.593  67.237  1.00  0.00    -0.198 C  
HETATM   11  C   UNL     1     -10.479   8.355  69.074  1.00  0.00    -0.201 C  
HETATM   12  C   UNL     1     -10.126   8.976  71.556  1.00  0.00    -0.409 C  
ENDROOT
BRANCH   1  13
HETATM   13  C   UNL     1     -11.330   5.127  72.553  1.00  0.00    -0.122 C  
HETATM   14  C   UNL     1     -10.609   5.286  73.884  1.00  0.00    -0.335 C  
HETATM   15  O   UNL     1     -12.650   5.636  72.707  1.00  0.00    -0.491 OA 
HETATM   16  H   UNL     1     -13.090   5.136  73.385  1.00  0.00     0.000 HD 
ENDBRANCH   1  13
BRANCH  11  17
HETATM   17  S   UNL     1      -9.684   9.703  68.357  1.00  0.00    -0.153 SA 
BRANCH  17  18
HETATM   18  C   UNL     1     -10.964  10.548  67.356  1.00  0.00    -0.288 C  
HETATM   19  C   UNL     1     -10.586  10.947  65.935  1.00  0.00    -0.178 C  
HETATM   20  N   UNL     1     -10.076  12.305  66.063  1.00  0.00    -0.243 NA 
HETATM   21  H   UNL     1     -10.090  12.817  65.181  1.00  0.00     0.000 HD 
HETATM   22  C   UNL     1     -10.845  12.984  67.134  1.00  0.00    -0.260 C  
HETATM   23  C   UNL     1     -11.459  11.853  67.964  1.00  0.00    -0.389 C  
BRANCH  22  24
HETATM   24  C   UNL     1      -9.915  13.964  67.907  1.00  0.00    -0.242 C  
HETATM   25  O   UNL     1      -8.689  13.789  67.924  1.00  0.00    -0.162 OA 
HETATM   26  N   UNL     1     -10.478  15.067  68.538  1.00  0.00    -0.227 N  
HETATM   27  C   UNL     1     -11.882  15.444  68.511  1.00  0.00    -0.272 C  
HETATM   28  C   UNL     1      -9.618  15.957  69.308  1.00  0.00    -0.266 C  
ENDBRANCH  22  24
ENDBRANCH  17  18
ENDBRANCH  11  17
TORSDOF 4
ENDMDL
MODEL       73
REMARK 921   NORMALIZED FREE ENERGY PREDICTED BY IDOCK:   -5.25 KCAL/MOL
REMARK 922        TOTAL FREE ENERGY PREDICTED BY IDOCK:   -7.44 KCAL/MOL
REMARK 923 INTER-LIGAND FREE ENERGY PREDICTED BY IDOCK:   -6.77 KCAL/MOL
REMARK 924 INTRA-LIGAND FREE ENERGY PREDICTED BY IDOCK:   -0.67 KCAL/MOL
REMARK 927      BINDING AFFINITY PREDICTED BY RF-SCORE:    0.00 PKD
ROOT
HETATM    1  C   UNL     1      -9.361  10.549  67.561  1.00  0.00    -0.162 C  
HETATM    2  C   UNL     1     -10.899  10.801  67.448  1.00  0.00    -0.290 C  
HETATM    3  C   UNL     1      -9.419  10.300  66.045  1.00  0.00    -0.185 C  
HETATM    4  N   UNL     1     -10.750  10.598  65.979  1.00  0.00    -0.118 N  
HETATM    5  C   UNL     1     -11.586  12.161  67.614  1.00  0.00    -0.413 C  
HETATM    6  O   UNL     1     -10.639  10.699  63.252  1.00  0.00    -0.035 OA 
HETATM    7  O   UNL     1      -8.663  10.028  65.144  1.00  0.00    -0.145 OA 
HETATM    8  C   UNL     1     -11.183  11.746  65.328  1.00  0.00    -0.254 C  
HETATM    9  O   UNL     1     -11.464  12.782  63.158  1.00  0.00    -0.408 OA 
HETATM   10  C   UNL     1     -11.098  11.833  63.834  1.00  0.00    -0.408 C  
HETATM   11  C   UNL     1     -11.668  12.663  66.189  1.00  0.00    -0.406 C  
HETATM   12  C   UNL     1     -10.852  13.047  68.609  1.00  0.00    -0.287 C  
ENDROOT
BRANCH   1  13
HETATM   13  C   UNL     1      -8.943   9.363  68.411  1.00  0.00    -0.128 C  
HETATM   14  C   UNL     1      -9.876   9.209  69.604  1.00  0.00    -0.188 C  
HETATM   15  O   UNL     1      -9.043   8.182  67.624  1.00  0.00    -0.134 OA 
HETATM   16  H   UNL     1      -8.781   7.440  68.156  1.00  0.00     0.000 HD 
ENDBRANCH   1  13
BRANCH  11  17
HETATM   17  S   UNL     1     -12.220  14.257  65.848  1.00  0.00    -0.377 SA 
BRANCH  17  18
HETATM   18  C   UNL     1     -10.842  15.068  64.952  1.00  0.00    -0.411 C  
HETATM   19  C   UNL     1      -9.426  14.721  65.392  1.00  0.00     0.150 C  
HETATM   20  N   UNL     1      -9.101  15.727  66.394  1.00  0.00    -0.293 NA 
HETATM   21  H   UNL     1      -8.096  15.828  66.540  1.00  0.00     0.000 HD 
HETATM   22  C   UNL     1      -9.754  16.997  65.996  1.00  0.00    -0.218 C  
HETATM   23  C   UNL     1     -10.869  16.588  65.029  1.00  0.00    -0.245 C  
BRANCH  22  24
HETATM   24  C   UNL     1     -10.210  17.773  67.266  1.00  0.00    -0.350 C  
HETATM   25  O   UNL     1     -10.885  17.212  68.140  1.00  0.00    -0.373 OA 
HETATM   26  N   UNL     1      -9.805  19.092  67.429  1.00  0.00    -0.317 N  
HETATM   27  C   UNL     1      -8.933  19.836  66.534  1.00  0.00    -0.371 C  
HETATM   28  C   UNL     1     -10.275  19.839  68.589  1.00  0.00    -0.405 C  
ENDBRANCH  22  24
ENDBRANCH  17  18
ENDBRANCH  11  17
TORSDOF 4
ENDMDL
MODEL       74
REMARK 921   NORMALIZED FREE ENERGY PREDICTED BY IDOCK:   -5.25 KCAL/MOL
REMARK 922        TOTAL FREE ENERGY PREDICTED BY IDOCK:   -7.44 KCAL/MOL
REMARK 923 INTER-LIGAND FREE ENERGY PREDICTED BY IDOCK:   -6.59 KCAL/MOL
REMARK 924 INTRA-LIGAND FREE ENERGY PREDICTED BY IDOCK:   -0.85 KCAL/MOL
REMARK 927      BINDING AFFINITY PREDICTED BY RF-SCORE:    0.00 PKD
ROOT
HETATM    1  C   UNL     1      -6.513  19.101  67.201  1.00  0.00    -0.192 C  
HETATM    2  C   UNL     1      -7.115  18.008  66.260  1.00  0.00    -0.272 C  
HETATM    3  C   UNL     1      -7.968  19.555  67.394  1.00  0.00    -0.270 C  
HETATM    4  N   UNL     1      -8.459  18.542  66.622  1.00  0.00    -0.270 N  
HETATM    5  C   UNL     1      -7.165  16.508  66.568  1.00  0.00    -0.187 C  
HETATM    6  O   UNL     1     -11.002  19.061  67.473  1.00  0.00    -0.443 OA 
HETATM    7  O   UNL     1      -8.579  20.395  68.012  1.00  0.00    -0.151 OA 
HETATM    8  C   UNL     1      -9.201  17.517  67.194  1.00  0.00    -0.243 C  
HETATM    9  O   UNL     1     -11.333  16.967  68.200  1.00  0.00    -0.217 OA 
HETATM   10  C   UNL     1     -10.587  17.792  67.698  1.00  0.00    -0.379 C  
HETATM   11  C   UNL     1      -8.534  16.346  67.191  1.00  0.00    -0.183 C  
HETATM   12  C   UNL     1      -5.975  16.062  67.405  1.00  0.00    -0.160 C  
ENDROOT
BRANCH   1  13
HETATM   13  C   UNL     1      -5.587  20.107  66.543  1.00  0.00    -0.170 C  
HETATM   14  C   UNL     1      -5.975  20.314  65.086  1.00  0.00    -0.260 C  
HETATM   15  O   UNL     1      -5.723  21.356  67.212  1.00  0.00    -0.294 OA 
HETATM   16  H   UNL     1      -5.144  21.985  66.800  1.00  0.00     0.000 HD 
ENDBRANCH   1  13
BRANCH  11  17
HETATM   17  S   UNL     1      -9.017  14.843  67.877  1.00  0.00    -0.181 SA 
BRANCH  17  18
HETATM   18  C   UNL     1      -9.833  13.927  66.516  1.00  0.00    -0.290 C  
HETATM   19  C   UNL     1     -11.339  14.098  66.367  1.00  0.00    -0.338 C  
HETATM   20  N   UNL     1     -11.908  13.020  67.165  1.00  0.00    -0.379 NA 
HETATM   21  H   UNL     1     -12.871  12.804  66.907  1.00  0.00     0.000 HD 
HETATM   22  C   UNL     1     -11.007  11.848  67.056  1.00  0.00    -0.278 C  
HETATM   23  C   UNL     1      -9.661  12.417  66.601  1.00  0.00    -0.230 C  
BRANCH  22  24
HETATM   24  C   UNL     1     -10.992  11.072  68.406  1.00  0.00    -0.230 C  
HETATM   25  O   UNL     1     -11.267  11.647  69.468  1.00  0.00    -0.248 OA 
HETATM   26  N   UNL     1     -10.715   9.709  68.395  1.00  0.00    -0.225 N  
HETATM   27  C   UNL     1     -10.478   8.895  67.214  1.00  0.00    -0.277 C  
HETATM   28  C   UNL     1     -10.647   8.991  69.660  1.00  0.00    -0.224 C  
ENDBRANCH  22  24
ENDBRANCH  17  18
ENDBRANCH  11  17
TORSDOF 4
ENDMDL
MODEL       75
REMARK 921   NORMALIZED FREE ENERGY PREDICTED BY IDOCK:   -5.22 KCAL/MOL
REMARK 922        TOTAL FREE ENERGY PREDICTED BY IDOCK:   -7.41 KCAL/MOL
REMARK 923 INTER-LIGAND FREE ENERGY PREDICTED BY IDOCK:   -6.73 KCAL/MOL
REMARK 924 INTRA-LIGAND FREE ENERGY PREDICTED BY IDOCK:   -0.68 KCAL/MOL
REMARK 927      BINDING AFFINITY PREDICTED BY RF-SCORE:    0.00 PKD
ROOT
HETATM    1  C   UNL     1     -10.682  16.582  66.059  1.00  0.00    -0.180 C  
HETATM    2  C   UNL     1      -9.641  15.426  65.915  1.00  0.00    -0.351 C  
HETATM    3  C   UNL     1     -11.340  15.974  64.811  1.00  0.00    -0.280 C  
HETATM    4  N   UNL     1     -10.451  14.939  64.763  1.00  0.00    -0.350 N  
HETATM    5  C   UNL     1      -9.508  14.232  66.866  1.00  0.00    -0.272 C  
HETATM    6  O   UNL     1     -11.999  13.633  62.930  1.00  0.00    -0.084 OA 
HETATM    7  O   UNL     1     -12.300  16.176  64.106  1.00  0.00    -0.623 OA 
HETATM    8  C   UNL     1     -10.867  13.641  65.033  1.00  0.00    -0.352 C  
HETATM    9  O   UNL     1     -12.154  11.777  64.178  1.00  0.00    -0.301 OA 
HETATM   10  C   UNL     1     -11.745  12.921  64.054  1.00  0.00    -0.434 C  
HETATM   11  C   UNL     1     -10.369  13.182  66.198  1.00  0.00    -0.284 C  
HETATM   12  C   UNL     1      -9.872  14.605  68.296  1.00  0.00    -0.222 C  
ENDROOT
BRANCH   1  13
HETATM   13  C   UNL     1     -10.137  17.990  65.902  1.00  0.00    -0.162 C  
HETATM   14  C   UNL     1     -10.535  18.850  67.093  1.00  0.00    -0.509 C  
HETATM   15  O   UNL     1      -8.716  17.926  65.865  1.00  0.00    -0.508 OA 
HETATM   16  H   UNL     1      -8.376  18.807  65.766  1.00  0.00     0.000 HD 
ENDBRANCH   1  13
BRANCH  11  17
HETATM   17  S   UNL     1     -10.690  11.681  66.976  1.00  0.00    -0.266 SA 
BRANCH  17  18
HETATM   18  C   UNL     1      -9.045  10.959  67.338  1.00  0.00    -0.140 C  
HETATM   19  C   UNL     1      -8.177  10.574  66.147  1.00  0.00    -0.151 C  
HETATM   20  N   UNL     1      -8.510   9.181  65.889  1.00  0.00    -0.135 NA 
HETATM   21  H   UNL     1      -7.792   8.697  65.349  1.00  0.00     0.000 HD 
HETATM   22  C   UNL     1      -8.787   8.528  67.190  1.00  0.00    -0.129 C  
HETATM   23  C   UNL     1      -9.104   9.675  68.154  1.00  0.00    -0.123 C  
BRANCH  22  24
HETATM   24  C   UNL     1      -9.909   7.463  67.015  1.00  0.00    -0.209 C  
HETATM   25  O   UNL     1     -11.087   7.738  67.276  1.00  0.00    -0.118 OA 
HETATM   26  N   UNL     1      -9.574   6.211  66.511  1.00  0.00    -0.157 N  
HETATM   27  C   UNL     1      -8.253   5.792  66.071  1.00  0.00    -0.114 C  
HETATM   28  C   UNL     1     -10.611   5.194  66.396  1.00  0.00    -0.276 C  
ENDBRANCH  22  24
ENDBRANCH  17  18
ENDBRANCH  11  17
TORSDOF 4
ENDMDL
MODEL       76
REMARK 921   NORMALIZED FREE ENERGY PREDICTED BY IDOCK:   -5.22 KCAL/MOL
REMARK 922        TOTAL FREE ENERGY PREDICTED BY IDOCK:   -7.41 KCAL/MOL
REMARK 923 INTER-LIGAND FREE ENERGY PREDICTED BY IDOCK:   -6.91 KCAL/MOL
REMARK 924 INTRA-LIGAND FREE ENERGY PREDICTED BY IDOCK:   -0.50 KCAL/MOL
REMARK 927      BINDING AFFINITY PREDICTED BY RF-SCORE:    0.00 PKD
ROOT
HETATM    1  C   UNL     1     -10.747  12.519  64.065  1.00  0.00    -0.449 C  
HETATM    2  C   UNL     1     -10.870  11.213  64.914  1.00  0.00    -0.190 C  
HETATM    3  C   UNL     1     -10.644  13.238  65.420  1.00  0.00    -0.296 C  
HETATM    4  N   UNL     1     -10.684  12.067  66.121  1.00  0.00    -0.265 N  
HETATM    5  C   UNL     1      -9.803  10.117  65.009  1.00  0.00    -0.392 C  
HETATM    6  O   UNL     1      -9.929  13.357  68.407  1.00  0.00    -0.235 OA 
HETATM    7  O   UNL     1     -10.501  14.362  65.838  1.00  0.00    -0.286 OA 
HETATM    8  C   UNL     1      -9.563  11.620  66.809  1.00  0.00    -0.192 C  
HETATM    9  O   UNL     1      -8.158  12.024  68.739  1.00  0.00    -0.100 OA 
HETATM   10  C   UNL     1      -9.114  12.337  68.047  1.00  0.00    -0.191 C  
HETATM   11  C   UNL     1      -9.022  10.525  66.239  1.00  0.00    -0.158 C  
HETATM   12  C   UNL     1      -9.016   9.980  63.714  1.00  0.00    -0.274 C  
ENDROOT
BRANCH   1  13
HETATM   13  C   UNL     1     -11.953  12.875  63.216  1.00  0.00    -0.440 C  
HETATM   14  C   UNL     1     -13.141  11.998  63.585  1.00  0.00    -0.186 C  
HETATM   15  O   UNL     1     -12.310  14.227  63.479  1.00  0.00    -1.080 OA 
HETATM   16  H   UNL     1     -13.065  14.450  62.947  1.00  0.00     0.000 HD 
ENDBRANCH   1  13
BRANCH  11  17
HETATM   17  S   UNL     1      -7.583   9.692  66.685  1.00  0.00    -0.098 SA 
BRANCH  17  18
HETATM   18  C   UNL     1      -8.082   7.944  66.908  1.00  0.00    -0.115 C  
HETATM   19  C   UNL     1      -9.425   7.523  66.325  1.00  0.00    -0.096 C  
HETATM   20  N   UNL     1     -10.372   7.723  67.412  1.00  0.00    -0.257 NA 
HETATM   21  H   UNL     1     -11.233   7.189  67.289  1.00  0.00     0.000 HD 
HETATM   22  C   UNL     1      -9.680   7.410  68.685  1.00  0.00    -0.152 C  
HETATM   23  C   UNL     1      -8.186   7.515  68.365  1.00  0.00    -0.125 C  
BRANCH  22  24
HETATM   24  C   UNL     1     -10.199   8.353  69.811  1.00  0.00    -0.207 C  
HETATM   25  O   UNL     1      -9.940   9.563  69.789  1.00  0.00    -0.186 OA 
HETATM   26  N   UNL     1     -11.002   7.822  70.814  1.00  0.00    -0.248 N  
HETATM   27  C   UNL     1     -11.464   6.446  70.902  1.00  0.00    -0.344 C  
HETATM   28  C   UNL     1     -11.445   8.689  71.898  1.00  0.00    -0.348 C  
ENDBRANCH  22  24
ENDBRANCH  17  18
ENDBRANCH  11  17
TORSDOF 4
ENDMDL
MODEL       77
REMARK 921   NORMALIZED FREE ENERGY PREDICTED BY IDOCK:   -5.21 KCAL/MOL
REMARK 922        TOTAL FREE ENERGY PREDICTED BY IDOCK:   -7.40 KCAL/MOL
REMARK 923 INTER-LIGAND FREE ENERGY PREDICTED BY IDOCK:   -6.11 KCAL/MOL
REMARK 924 INTRA-LIGAND FREE ENERGY PREDICTED BY IDOCK:   -1.29 KCAL/MOL
REMARK 927      BINDING AFFINITY PREDICTED BY RF-SCORE:    0.00 PKD
ROOT
HETATM    1  C   UNL     1     -11.848  11.107  68.699  1.00  0.00    -0.357 C  
HETATM    2  C   UNL     1     -11.081  10.830  70.032  1.00  0.00    -0.255 C  
HETATM    3  C   UNL     1     -10.855  10.116  68.071  1.00  0.00    -0.270 C  
HETATM    4  N   UNL     1     -10.258   9.849  69.270  1.00  0.00    -0.195 N  
HETATM    5  C   UNL     1     -11.643  10.060  71.232  1.00  0.00    -0.430 C  
HETATM    6  O   UNL     1      -8.941   7.713  68.191  1.00  0.00    -0.128 OA 
HETATM    7  O   UNL     1     -10.632   9.621  66.992  1.00  0.00    -0.241 OA 
HETATM    8  C   UNL     1     -10.397   8.601  69.863  1.00  0.00    -0.209 C  
HETATM    9  O   UNL     1      -9.746   6.274  69.710  1.00  0.00    -0.158 OA 
HETATM   10  C   UNL     1      -9.709   7.410  69.264  1.00  0.00    -0.165 C  
HETATM   11  C   UNL     1     -11.160   8.650  70.973  1.00  0.00    -0.264 C  
HETATM   12  C   UNL     1     -13.145  10.253  71.374  1.00  0.00    -0.512 C  
ENDROOT
BRANCH   1  13
HETATM   13  C   UNL     1     -11.782  12.530  68.178  1.00  0.00    -0.348 C  
HETATM   14  C   UNL     1     -10.432  13.154  68.502  1.00  0.00    -0.262 C  
HETATM   15  O   UNL     1     -11.922  12.503  66.762  1.00  0.00    -0.518 OA 
HETATM   16  H   UNL     1     -11.881  13.394  66.436  1.00  0.00     0.000 HD 
ENDBRANCH   1  13
BRANCH  11  17
HETATM   17  S   UNL     1     -11.679   7.345  71.968  1.00  0.00    -0.298 SA 
BRANCH  17  18
HETATM   18  C   UNL     1     -10.438   7.233  73.311  1.00  0.00    -0.370 C  
HETATM   19  C   UNL     1      -8.984   7.496  72.939  1.00  0.00    -0.158 C  
HETATM   20  N   UNL     1      -8.451   6.182  72.609  1.00  0.00    -0.121 NA 
HETATM   21  H   UNL     1      -7.432   6.146  72.659  1.00  0.00     0.000 HD 
HETATM   22  C   UNL     1      -9.105   5.187  73.492  1.00  0.00    -0.124 C  
HETATM   23  C   UNL     1     -10.384   5.870  73.986  1.00  0.00    -0.295 C  
BRANCH  22  24
HETATM   24  C   UNL     1      -9.306   3.851  72.719  1.00  0.00    -0.112 C  
HETATM   25  O   UNL     1     -10.197   3.743  71.867  1.00  0.00    -0.155 OA 
HETATM   26  N   UNL     1      -8.435   2.795  72.965  1.00  0.00    -0.071 N  
HETATM   27  C   UNL     1      -7.290   2.822  73.860  1.00  0.00    -0.046 C  
HETATM   28  C   UNL     1      -8.653   1.526  72.284  1.00  0.00    -0.053 C  
ENDBRANCH  22  24
ENDBRANCH  17  18
ENDBRANCH  11  17
TORSDOF 4
ENDMDL
MODEL       78
REMARK 921   NORMALIZED FREE ENERGY PREDICTED BY IDOCK:   -5.20 KCAL/MOL
REMARK 922        TOTAL FREE ENERGY PREDICTED BY IDOCK:   -7.39 KCAL/MOL
REMARK 923 INTER-LIGAND FREE ENERGY PREDICTED BY IDOCK:   -6.58 KCAL/MOL
REMARK 924 INTRA-LIGAND FREE ENERGY PREDICTED BY IDOCK:   -0.81 KCAL/MOL
REMARK 927      BINDING AFFINITY PREDICTED BY RF-SCORE:    0.00 PKD
ROOT
HETATM    1  C   UNL     1     -10.444  16.482  67.459  1.00  0.00    -0.310 C  
HETATM    2  C   UNL     1     -11.579  15.549  66.927  1.00  0.00     0.099 C  
HETATM    3  C   UNL     1     -11.022  16.178  68.851  1.00  0.00    -0.324 C  
HETATM    4  N   UNL     1     -11.953  15.314  68.350  1.00  0.00    -0.249 N  
HETATM    5  C   UNL     1     -11.367  14.159  66.317  1.00  0.00    -0.340 C  
HETATM    6  O   UNL     1     -12.527  14.405  70.861  1.00  0.00    -0.308 OA 
HETATM    7  O   UNL     1     -10.794  16.454  70.004  1.00  0.00    -0.345 OA 
HETATM    8  C   UNL     1     -11.864  13.953  68.612  1.00  0.00    -0.372 C  
HETATM    9  O   UNL     1     -12.111  12.267  70.331  1.00  0.00    -0.355 OA 
HETATM   10  C   UNL     1     -12.142  13.440  69.993  1.00  0.00    -0.334 C  
HETATM   11  C   UNL     1     -11.542  13.246  67.511  1.00  0.00    -0.346 C  
HETATM   12  C   UNL     1     -10.044  14.065  65.572  1.00  0.00    -0.343 C  
ENDROOT
BRANCH   1  13
HETATM   13  C   UNL     1     -10.513  17.931  67.016  1.00  0.00    -0.340 C  
HETATM   14  C   UNL     1      -9.316  18.707  67.546  1.00  0.00    -0.301 C  
HETATM   15  O   UNL     1     -10.466  17.974  65.594  1.00  0.00    -0.619 OA 
HETATM   16  H   UNL     1     -10.510  18.881  65.317  1.00  0.00     0.000 HD 
ENDBRANCH   1  13
BRANCH  11  17
HETATM   17  S   UNL     1     -11.229  11.559  67.381  1.00  0.00    -0.302 SA 
BRANCH  17  18
HETATM   18  C   UNL     1      -9.587  11.307  68.154  1.00  0.00    -0.186 C  
HETATM   19  C   UNL     1      -8.386  11.212  67.222  1.00  0.00    -0.135 C  
HETATM   20  N   UNL     1      -8.252   9.788  66.946  1.00  0.00    -0.117 NA 
HETATM   21  H   UNL     1      -7.321   9.537  66.613  1.00  0.00     0.000 HD 
HETATM   22  C   UNL     1      -8.644   9.047  68.168  1.00  0.00    -0.130 C  
HETATM   23  C   UNL     1      -9.486  10.035  68.982  1.00  0.00    -0.190 C  
BRANCH  22  24
HETATM   24  C   UNL     1      -9.354   7.719  67.772  1.00  0.00    -0.143 C  
HETATM   25  O   UNL     1     -10.546   7.717  67.437  1.00  0.00    -0.274 OA 
HETATM   26  N   UNL     1      -8.615   6.543  67.751  1.00  0.00    -0.117 N  
HETATM   27  C   UNL     1      -7.191   6.422  68.023  1.00  0.00    -0.087 C  
HETATM   28  C   UNL     1      -9.287   5.290  67.433  1.00  0.00    -0.116 C  
ENDBRANCH  22  24
ENDBRANCH  17  18
ENDBRANCH  11  17
TORSDOF 4
ENDMDL
MODEL       79
REMARK 921   NORMALIZED FREE ENERGY PREDICTED BY IDOCK:   -5.17 KCAL/MOL
REMARK 922        TOTAL FREE ENERGY PREDICTED BY IDOCK:   -7.35 KCAL/MOL
REMARK 923 INTER-LIGAND FREE ENERGY PREDICTED BY IDOCK:   -6.34 KCAL/MOL
REMARK 924 INTRA-LIGAND FREE ENERGY PREDICTED BY IDOCK:   -1.02 KCAL/MOL
REMARK 927      BINDING AFFINITY PREDICTED BY RF-SCORE:    0.00 PKD
ROOT
HETATM    1  C   UNL     1     -11.831  13.525  68.576  1.00  0.00    -0.398 C  
HETATM    2  C   UNL     1     -10.464  12.809  68.330  1.00  0.00    -0.243 C  
HETATM    3  C   UNL     1     -11.816  13.795  67.063  1.00  0.00    -0.410 C  
HETATM    4  N   UNL     1     -10.656  13.100  66.881  1.00  0.00    -0.261 N  
HETATM    5  C   UNL     1     -10.228  11.298  68.425  1.00  0.00    -0.205 C  
HETATM    6  O   UNL     1     -11.006  13.133  64.173  1.00  0.00    -0.381 OA 
HETATM    7  O   UNL     1     -12.518  14.321  66.232  1.00  0.00    -0.445 OA 
HETATM    8  C   UNL     1     -10.657  11.897  66.186  1.00  0.00    -0.258 C  
HETATM    9  O   UNL     1     -10.886  10.902  63.991  1.00  0.00    -0.297 OA 
HETATM   10  C   UNL     1     -10.882  11.893  64.703  1.00  0.00    -0.311 C  
HETATM   11  C   UNL     1     -10.418  10.846  66.994  1.00  0.00    -0.244 C  
HETATM   12  C   UNL     1     -11.122  10.651  69.472  1.00  0.00    -0.328 C  
ENDROOT
BRANCH   1  13
HETATM   13  C   UNL     1     -11.788  14.751  69.469  1.00  0.00    -0.326 C  
HETATM   14  C   UNL     1     -10.356  15.057  69.883  1.00  0.00    -0.141 C  
HETATM   15  O   UNL     1     -12.277  15.866  68.732  1.00  0.00    -0.519 OA 
HETATM   16  H   UNL     1     -12.250  16.634  69.291  1.00  0.00     0.000 HD 
ENDBRANCH   1  13
BRANCH  11  17
HETATM   17  S   UNL     1     -10.424   9.171  66.594  1.00  0.00    -0.097 SA 
BRANCH  17  18
HETATM   18  C   UNL     1      -8.684   8.762  66.190  1.00  0.00    -0.160 C  
HETATM   19  C   UNL     1      -8.309   8.695  64.716  1.00  0.00    -0.157 C  
HETATM   20  N   UNL     1      -8.512   7.300  64.352  1.00  0.00    -0.359 NA 
HETATM   21  H   UNL     1      -8.003   7.034  63.508  1.00  0.00     0.000 HD 
HETATM   22  C   UNL     1      -8.157   6.466  65.524  1.00  0.00    -0.130 C  
HETATM   23  C   UNL     1      -8.230   7.411  66.726  1.00  0.00    -0.121 C  
BRANCH  22  24
HETATM   24  C   UNL     1      -9.090   5.221  65.583  1.00  0.00    -0.153 C  
HETATM   25  O   UNL     1     -10.251   5.322  66.001  1.00  0.00    -0.176 OA 
HETATM   26  N   UNL     1      -8.615   4.002  65.113  1.00  0.00    -0.113 N  
HETATM   27  C   UNL     1      -7.315   3.767  64.506  1.00  0.00    -0.067 C  
HETATM   28  C   UNL     1      -9.466   2.823  65.217  1.00  0.00    -0.036 C  
ENDBRANCH  22  24
ENDBRANCH  17  18
ENDBRANCH  11  17
TORSDOF 4
ENDMDL
MODEL       80
REMARK 921   NORMALIZED FREE ENERGY PREDICTED BY IDOCK:   -5.11 KCAL/MOL
REMARK 922        TOTAL FREE ENERGY PREDICTED BY IDOCK:   -7.28 KCAL/MOL
REMARK 923 INTER-LIGAND FREE ENERGY PREDICTED BY IDOCK:   -5.99 KCAL/MOL
REMARK 924 INTRA-LIGAND FREE ENERGY PREDICTED BY IDOCK:   -1.29 KCAL/MOL
REMARK 927      BINDING AFFINITY PREDICTED BY RF-SCORE:    0.00 PKD
ROOT
HETATM    1  C   UNL     1     -11.811  12.362  68.626  1.00  0.00    -0.348 C  
HETATM    2  C   UNL     1     -10.606  11.572  69.231  1.00  0.00    -0.078 C  
HETATM    3  C   UNL     1     -11.338  11.798  67.277  1.00  0.00    -0.315 C  
HETATM    4  N   UNL     1     -10.341  11.067  67.854  1.00  0.00    -0.180 N  
HETATM    5  C   UNL     1     -10.721  10.328  70.118  1.00  0.00    -0.334 C  
HETATM    6  O   UNL     1      -9.943   9.688  65.531  1.00  0.00    -0.311 OA 
HETATM    7  O   UNL     1     -11.669  11.836  66.116  1.00  0.00    -0.462 OA 
HETATM    8  C   UNL     1     -10.406   9.679  67.873  1.00  0.00    -0.224 C  
HETATM    9  O   UNL     1     -10.243   7.690  66.503  1.00  0.00    -0.221 OA 
HETATM   10  C   UNL     1     -10.224   8.907  66.601  1.00  0.00    -0.268 C  
HETATM   11  C   UNL     1     -10.613   9.199  69.115  1.00  0.00    -0.208 C  
HETATM   12  C   UNL     1     -11.976  10.360  70.978  1.00  0.00    -0.481 C  
ENDROOT
BRANCH   1  13
HETATM   13  C   UNL     1     -11.755  13.872  68.769  1.00  0.00    -0.357 C  
HETATM   14  C   UNL     1     -10.312  14.339  68.907  1.00  0.00    -0.218 C  
HETATM   15  O   UNL     1     -12.293  14.460  67.591  1.00  0.00    -0.619 OA 
HETATM   16  H   UNL     1     -12.258  15.405  67.681  1.00  0.00     0.000 HD 
ENDBRANCH   1  13
BRANCH  11  17
HETATM   17  S   UNL     1     -10.858   7.566  69.600  1.00  0.00    -0.155 SA 
BRANCH  17  18
HETATM   18  C   UNL     1      -9.189   6.920  69.995  1.00  0.00    -0.155 C  
HETATM   19  C   UNL     1      -8.024   7.449  69.169  1.00  0.00    -0.118 C  
HETATM   20  N   UNL     1      -7.907   6.508  68.064  1.00  0.00    -0.104 NA 
HETATM   21  H   UNL     1      -6.990   6.536  67.617  1.00  0.00     0.000 HD 
HETATM   22  C   UNL     1      -8.257   5.160  68.571  1.00  0.00    -0.089 C  
HETATM   23  C   UNL     1      -9.064   5.411  69.849  1.00  0.00    -0.165 C  
BRANCH  22  24
HETATM   24  C   UNL     1      -8.988   4.354  67.457  1.00  0.00    -0.114 C  
HETATM   25  O   UNL     1     -10.161   4.611  67.158  1.00  0.00    -0.192 OA 
HETATM   26  N   UNL     1      -8.284   3.372  66.768  1.00  0.00    -0.094 N  
HETATM   27  C   UNL     1      -6.880   3.039  66.949  1.00  0.00    -0.049 C  
HETATM   28  C   UNL     1      -8.979   2.578  65.763  1.00  0.00    -0.129 C  
ENDBRANCH  22  24
ENDBRANCH  17  18
ENDBRANCH  11  17
TORSDOF 4
ENDMDL
MODEL       81
REMARK 921   NORMALIZED FREE ENERGY PREDICTED BY IDOCK:   -5.11 KCAL/MOL
REMARK 922        TOTAL FREE ENERGY PREDICTED BY IDOCK:   -7.28 KCAL/MOL
REMARK 923 INTER-LIGAND FREE ENERGY PREDICTED BY IDOCK:   -6.33 KCAL/MOL
REMARK 924 INTRA-LIGAND FREE ENERGY PREDICTED BY IDOCK:   -0.95 KCAL/MOL
REMARK 927      BINDING AFFINITY PREDICTED BY RF-SCORE:    0.00 PKD
ROOT
HETATM    1  C   UNL     1     -10.187  10.246  68.068  1.00  0.00    -0.200 C  
HETATM    2  C   UNL     1      -9.984  10.888  66.657  1.00  0.00    -0.208 C  
HETATM    3  C   UNL     1      -8.680  10.482  68.251  1.00  0.00    -0.135 C  
HETATM    4  N   UNL     1      -8.560  11.101  67.040  1.00  0.00    -0.143 N  
HETATM    5  C   UNL     1     -10.511  12.261  66.227  1.00  0.00    -0.266 C  
HETATM    6  O   UNL     1      -6.055  11.979  67.685  1.00  0.00    -0.068 OA 
HETATM    7  O   UNL     1      -7.835  10.315  69.099  1.00  0.00    -0.104 OA 
HETATM    8  C   UNL     1      -8.282  12.460  66.969  1.00  0.00    -0.141 C  
HETATM    9  O   UNL     1      -6.563  14.130  67.311  1.00  0.00    -0.274 OA 
HETATM   10  C   UNL     1      -6.922  12.964  67.352  1.00  0.00    -0.124 C  
HETATM   11  C   UNL     1      -9.335  13.168  66.515  1.00  0.00    -0.216 C  
HETATM   12  C   UNL     1     -11.824  12.604  66.915  1.00  0.00    -0.425 C  
ENDROOT
BRANCH   1  13
HETATM   13  C   UNL     1     -10.638   8.797  68.080  1.00  0.00    -0.159 C  
HETATM   14  C   UNL     1     -10.273   8.116  66.768  1.00  0.00    -0.372 C  
HETATM   15  O   UNL     1      -9.956   8.118  69.128  1.00  0.00    -0.182 OA 
HETATM   16  H   UNL     1     -10.238   7.211  69.135  1.00  0.00     0.000 HD 
ENDBRANCH   1  13
BRANCH  11  17
HETATM   17  S   UNL     1      -9.481  14.876  66.357  1.00  0.00    -0.308 SA 
BRANCH  17  18
HETATM   18  C   UNL     1      -9.779  15.499  68.054  1.00  0.00    -0.207 C  
HETATM   19  C   UNL     1     -11.127  16.151  68.330  1.00  0.00    -0.359 C  
HETATM   20  N   UNL     1     -10.907  17.566  68.066  1.00  0.00    -0.336 NA 
HETATM   21  H   UNL     1     -11.603  18.164  68.511  1.00  0.00     0.000 HD 
HETATM   22  C   UNL     1      -9.521  17.897  68.474  1.00  0.00    -0.313 C  
HETATM   23  C   UNL     1      -8.782  16.556  68.505  1.00  0.00    -0.228 C  
BRANCH  22  24
HETATM   24  C   UNL     1      -8.933  18.972  67.512  1.00  0.00    -0.292 C  
HETATM   25  O   UNL     1      -9.472  19.205  66.422  1.00  0.00    -0.334 OA 
HETATM   26  N   UNL     1      -7.822  19.701  67.919  1.00  0.00    -0.292 N  
HETATM   27  C   UNL     1      -7.156  19.599  69.208  1.00  0.00    -0.331 C  
HETATM   28  C   UNL     1      -7.236  20.669  67.001  1.00  0.00    -0.316 C  
ENDBRANCH  22  24
ENDBRANCH  17  18
ENDBRANCH  11  17
TORSDOF 4
ENDMDL
MODEL       82
REMARK 921   NORMALIZED FREE ENERGY PREDICTED BY IDOCK:   -5.09 KCAL/MOL
REMARK 922        TOTAL FREE ENERGY PREDICTED BY IDOCK:   -7.24 KCAL/MOL
REMARK 923 INTER-LIGAND FREE ENERGY PREDICTED BY IDOCK:   -6.07 KCAL/MOL
REMARK 924 INTRA-LIGAND FREE ENERGY PREDICTED BY IDOCK:   -1.17 KCAL/MOL
REMARK 927      BINDING AFFINITY PREDICTED BY RF-SCORE:    0.00 PKD
ROOT
HETATM    1  C   UNL     1     -10.116   8.772  68.955  1.00  0.00    -0.210 C  
HETATM    2  C   UNL     1     -10.606   9.798  67.882  1.00  0.00    -0.259 C  
HETATM    3  C   UNL     1      -8.705   9.261  68.592  1.00  0.00    -0.132 C  
HETATM    4  N   UNL     1      -9.179  10.194  67.716  1.00  0.00    -0.137 N  
HETATM    5  C   UNL     1     -11.366  11.094  68.182  1.00  0.00    -0.377 C  
HETATM    6  O   UNL     1      -6.719  11.371  67.566  1.00  0.00    -0.067 OA 
HETATM    7  O   UNL     1      -7.562   9.052  68.926  1.00  0.00    -0.080 OA 
HETATM    8  C   UNL     1      -9.061  11.549  67.998  1.00  0.00    -0.174 C  
HETATM    9  O   UNL     1      -7.494  13.387  68.166  1.00  0.00    -0.107 OA 
HETATM   10  C   UNL     1      -7.713  12.205  67.954  1.00  0.00    -0.134 C  
HETATM   11  C   UNL     1     -10.254  12.116  68.264  1.00  0.00    -0.208 C  
HETATM   12  C   UNL     1     -12.260  10.955  69.406  1.00  0.00    -0.293 C  
ENDROOT
BRANCH   1  13
HETATM   13  C   UNL     1     -10.408   7.312  68.660  1.00  0.00    -0.193 C  
HETATM   14  C   UNL     1     -10.687   7.115  67.176  1.00  0.00    -0.422 C  
HETATM   15  O   UNL     1      -9.258   6.543  68.993  1.00  0.00    -0.131 OA 
HETATM   16  H   UNL     1      -9.441   5.629  68.809  1.00  0.00     0.000 HD 
ENDBRANCH   1  13
BRANCH  11  17
HETATM   17  S   UNL     1     -10.579  13.733  68.757  1.00  0.00    -0.209 SA 
BRANCH  17  18
HETATM   18  C   UNL     1     -10.933  14.651  67.212  1.00  0.00    -0.317 C  
HETATM   19  C   UNL     1     -10.037  14.369  66.013  1.00  0.00    -0.322 C  
HETATM   20  N   UNL     1      -8.971  15.355  66.118  1.00  0.00    -0.422 NA 
HETATM   21  H   UNL     1      -8.486  15.507  65.233  1.00  0.00     0.000 HD 
HETATM   22  C   UNL     1      -9.551  16.599  66.676  1.00  0.00    -0.263 C  
HETATM   23  C   UNL     1     -10.848  16.163  67.362  1.00  0.00    -0.265 C  
BRANCH  22  24
HETATM   24  C   UNL     1      -8.505  17.302  67.590  1.00  0.00    -0.209 C  
HETATM   25  O   UNL     1      -7.488  16.702  67.962  1.00  0.00    -0.157 OA 
HETATM   26  N   UNL     1      -8.705  18.632  67.941  1.00  0.00    -0.283 N  
HETATM   27  C   UNL     1      -9.798  19.480  67.492  1.00  0.00    -0.358 C  
HETATM   28  C   UNL     1      -7.757  19.278  68.839  1.00  0.00    -0.341 C  
ENDBRANCH  22  24
ENDBRANCH  17  18
ENDBRANCH  11  17
TORSDOF 4
ENDMDL
MODEL       83
REMARK 921   NORMALIZED FREE ENERGY PREDICTED BY IDOCK:   -5.08 KCAL/MOL
REMARK 922        TOTAL FREE ENERGY PREDICTED BY IDOCK:   -7.24 KCAL/MOL
REMARK 923 INTER-LIGAND FREE ENERGY PREDICTED BY IDOCK:   -5.88 KCAL/MOL
REMARK 924 INTRA-LIGAND FREE ENERGY PREDICTED BY IDOCK:   -1.36 KCAL/MOL
REMARK 927      BINDING AFFINITY PREDICTED BY RF-SCORE:    0.00 PKD
ROOT
HETATM    1  C   UNL     1      -9.681  15.778  68.494  1.00  0.00    -0.206 C  
HETATM    2  C   UNL     1      -8.979  14.932  67.384  1.00  0.00    -0.189 C  
HETATM    3  C   UNL     1     -10.971  15.084  68.029  1.00  0.00    -0.284 C  
HETATM    4  N   UNL     1     -10.308  14.312  67.119  1.00  0.00    -0.261 N  
HETATM    5  C   UNL     1      -8.017  13.766  67.637  1.00  0.00    -0.179 C  
HETATM    6  O   UNL     1     -12.519  12.747  66.767  1.00  0.00    -0.336 OA 
HETATM    7  O   UNL     1     -12.144  15.070  68.316  1.00  0.00    -0.240 OA 
HETATM    8  C   UNL     1     -10.200  12.940  67.306  1.00  0.00    -0.234 C  
HETATM    9  O   UNL     1     -11.429  10.854  67.273  1.00  0.00    -0.458 OA 
HETATM   10  C   UNL     1     -11.411  12.069  67.150  1.00  0.00    -0.335 C  
HETATM   11  C   UNL     1      -8.938  12.566  67.595  1.00  0.00    -0.185 C  
HETATM   12  C   UNL     1      -7.210  13.965  68.911  1.00  0.00    -0.103 C  
ENDROOT
BRANCH   1  13
HETATM   13  C   UNL     1      -9.635  17.283  68.311  1.00  0.00    -0.288 C  
HETATM   14  C   UNL     1      -8.518  17.669  67.351  1.00  0.00    -0.227 C  
HETATM   15  O   UNL     1     -10.867  17.709  67.739  1.00  0.00    -0.367 OA 
HETATM   16  H   UNL     1     -10.838  18.651  67.624  1.00  0.00     0.000 HD 
ENDBRANCH   1  13
BRANCH  11  17
HETATM   17  S   UNL     1      -8.357  10.996  67.997  1.00  0.00    -0.130 SA 
BRANCH  17  18
HETATM   18  C   UNL     1      -7.723  10.295  66.428  1.00  0.00    -0.116 C  
HETATM   19  C   UNL     1      -8.587  10.472  65.187  1.00  0.00    -0.180 C  
HETATM   20  N   UNL     1      -9.420   9.278  65.151  1.00  0.00    -0.450 NA 
HETATM   21  H   UNL     1      -9.808   9.095  64.225  1.00  0.00     0.000 HD 
HETATM   22  C   UNL     1      -8.618   8.145  65.672  1.00  0.00    -0.158 C  
HETATM   23  C   UNL     1      -7.488   8.792  66.478  1.00  0.00    -0.085 C  
BRANCH  22  24
HETATM   24  C   UNL     1      -9.539   7.169  66.461  1.00  0.00    -0.144 C  
HETATM   25  O   UNL     1     -10.341   7.598  67.300  1.00  0.00    -0.238 OA 
HETATM   26  N   UNL     1      -9.482   5.810  66.172  1.00  0.00    -0.151 N  
HETATM   27  C   UNL     1      -8.662   5.188  65.145  1.00  0.00    -0.151 C  
HETATM   28  C   UNL     1     -10.303   4.887  66.946  1.00  0.00    -0.186 C  
ENDBRANCH  22  24
ENDBRANCH  17  18
ENDBRANCH  11  17
TORSDOF 4
ENDMDL
MODEL       84
REMARK 921   NORMALIZED FREE ENERGY PREDICTED BY IDOCK:   -5.07 KCAL/MOL
REMARK 922        TOTAL FREE ENERGY PREDICTED BY IDOCK:   -7.23 KCAL/MOL
REMARK 923 INTER-LIGAND FREE ENERGY PREDICTED BY IDOCK:   -6.16 KCAL/MOL
REMARK 924 INTRA-LIGAND FREE ENERGY PREDICTED BY IDOCK:   -1.07 KCAL/MOL
REMARK 927      BINDING AFFINITY PREDICTED BY RF-SCORE:    0.00 PKD
ROOT
HETATM    1  C   UNL     1     -10.060   6.224  72.668  1.00  0.00    -0.192 C  
HETATM    2  C   UNL     1     -10.256   5.635  71.234  1.00  0.00    -0.220 C  
HETATM    3  C   UNL     1      -8.597   6.429  72.246  1.00  0.00    -0.117 C  
HETATM    4  N   UNL     1      -8.826   5.973  70.980  1.00  0.00    -0.138 N  
HETATM    5  C   UNL     1     -11.049   6.301  70.105  1.00  0.00    -0.443 C  
HETATM    6  O   UNL     1      -6.390   6.893  70.155  1.00  0.00    -0.034 OA 
HETATM    7  O   UNL     1      -7.575   6.876  72.711  1.00  0.00    -0.089 OA 
HETATM    8  C   UNL     1      -8.764   6.840  69.897  1.00  0.00    -0.141 C  
HETATM    9  O   UNL     1      -7.264   8.134  68.505  1.00  0.00    -0.084 OA 
HETATM   10  C   UNL     1      -7.438   7.382  69.451  1.00  0.00    -0.091 C  
HETATM   11  C   UNL     1      -9.978   7.063  69.356  1.00  0.00    -0.162 C  
HETATM   12  C   UNL     1     -12.220   7.113  70.640  1.00  0.00    -0.245 C  
ENDROOT
BRANCH   1  13
HETATM   13  C   UNL     1     -10.289   5.263  73.819  1.00  0.00    -0.245 C  
HETATM   14  C   UNL     1     -10.904   3.965  73.313  1.00  0.00    -0.297 C  
HETATM   15  O   UNL     1      -9.032   4.949  74.406  1.00  0.00    -0.111 OA 
HETATM   16  H   UNL     1      -9.175   4.347  75.127  1.00  0.00     0.000 HD 
ENDBRANCH   1  13
BRANCH  11  17
HETATM   17  S   UNL     1     -10.394   8.133  68.074  1.00  0.00    -0.191 SA 
BRANCH  17  18
HETATM   18  C   UNL     1     -10.314   9.814  68.797  1.00  0.00    -0.208 C  
HETATM   19  C   UNL     1     -11.633  10.470  69.182  1.00  0.00    -0.224 C  
HETATM   20  N   UNL     1     -12.028  11.216  67.996  1.00  0.00    -0.700 NA 
HETATM   21  H   UNL     1     -12.702  11.954  68.201  1.00  0.00     0.000 HD 
HETATM   22  C   UNL     1     -10.798  11.727  67.346  1.00  0.00    -0.251 C  
HETATM   23  C   UNL     1      -9.666  10.846  67.884  1.00  0.00    -0.178 C  
BRANCH  22  24
HETATM   24  C   UNL     1     -10.981  11.724  65.800  1.00  0.00    -0.301 C  
HETATM   25  O   UNL     1     -10.659  10.735  65.129  1.00  0.00    -0.259 OA 
HETATM   26  N   UNL     1     -11.560  12.831  65.190  1.00  0.00    -0.323 N  
HETATM   27  C   UNL     1     -12.073  14.010  65.869  1.00  0.00    -0.428 C  
HETATM   28  C   UNL     1     -11.684  12.855  63.738  1.00  0.00    -0.492 C  
ENDBRANCH  22  24
ENDBRANCH  17  18
ENDBRANCH  11  17
TORSDOF 4
ENDMDL
MODEL       85
REMARK 921   NORMALIZED FREE ENERGY PREDICTED BY IDOCK:   -5.05 KCAL/MOL
REMARK 922        TOTAL FREE ENERGY PREDICTED BY IDOCK:   -7.21 KCAL/MOL
REMARK 923 INTER-LIGAND FREE ENERGY PREDICTED BY IDOCK:   -6.29 KCAL/MOL
REMARK 924 INTRA-LIGAND FREE ENERGY PREDICTED BY IDOCK:   -0.91 KCAL/MOL
REMARK 927      BINDING AFFINITY PREDICTED BY RF-SCORE:    0.00 PKD
ROOT
HETATM    1  C   UNL     1     -11.651  12.151  65.121  1.00  0.00    -0.372 C  
HETATM    2  C   UNL     1     -10.569  12.773  66.061  1.00  0.00    -0.268 C  
HETATM    3  C   UNL     1     -10.491  11.323  64.545  1.00  0.00    -0.334 C  
HETATM    4  N   UNL     1      -9.591  11.841  65.432  1.00  0.00    -0.221 N  
HETATM    5  C   UNL     1     -10.465  12.531  67.571  1.00  0.00    -0.231 C  
HETATM    6  O   UNL     1      -7.750   9.945  64.743  1.00  0.00    -0.127 OA 
HETATM    7  O   UNL     1     -10.317  10.470  63.708  1.00  0.00    -0.224 OA 
HETATM    8  C   UNL     1      -9.043  11.040  66.426  1.00  0.00    -0.178 C  
HETATM    9  O   UNL     1      -7.499   9.224  66.851  1.00  0.00    -0.090 OA 
HETATM   10  C   UNL     1      -8.056   9.971  66.062  1.00  0.00    -0.124 C  
HETATM   11  C   UNL     1      -9.489  11.378  67.651  1.00  0.00    -0.162 C  
HETATM   12  C   UNL     1     -11.832  12.316  68.204  1.00  0.00    -0.372 C  
ENDROOT
BRANCH   1  13
HETATM   13  C   UNL     1     -12.324  13.109  64.156  1.00  0.00    -0.348 C  
HETATM   14  C   UNL     1     -12.139  14.548  64.620  1.00  0.00    -0.486 C  
HETATM   15  O   UNL     1     -11.706  12.979  62.881  1.00  0.00    -0.772 OA 
HETATM   16  H   UNL     1     -12.128  13.579  62.278  1.00  0.00     0.000 HD 
ENDBRANCH   1  13
BRANCH  11  17
HETATM   17  S   UNL     1      -9.160  10.607  69.155  1.00  0.00    -0.090 SA 
BRANCH  17  18
HETATM   18  C   UNL     1     -10.588   9.500  69.457  1.00  0.00    -0.221 C  
HETATM   19  C   UNL     1     -11.338   9.673  70.771  1.00  0.00    -0.340 C  
HETATM   20  N   UNL     1     -10.683   8.748  71.687  1.00  0.00    -0.299 NA 
HETATM   21  H   UNL     1     -11.265   8.512  72.491  1.00  0.00     0.000 HD 
HETATM   22  C   UNL     1     -10.264   7.557  70.911  1.00  0.00    -0.192 C  
HETATM   23  C   UNL     1     -10.231   8.021  69.452  1.00  0.00    -0.210 C  
BRANCH  22  24
HETATM   24  C   UNL     1      -8.921   7.008  71.478  1.00  0.00    -0.139 C  
HETATM   25  O   UNL     1      -7.847   7.555  71.196  1.00  0.00    -0.088 OA 
HETATM   26  N   UNL     1      -8.953   5.923  72.346  1.00  0.00    -0.138 N  
HETATM   27  C   UNL     1     -10.147   5.254  72.837  1.00  0.00    -0.173 C  
HETATM   28  C   UNL     1      -7.696   5.372  72.836  1.00  0.00    -0.098 C  
ENDBRANCH  22  24
ENDBRANCH  17  18
ENDBRANCH  11  17
TORSDOF 4
ENDMDL
MODEL       86
REMARK 921   NORMALIZED FREE ENERGY PREDICTED BY IDOCK:   -5.04 KCAL/MOL
REMARK 922        TOTAL FREE ENERGY PREDICTED BY IDOCK:   -7.19 KCAL/MOL
REMARK 923 INTER-LIGAND FREE ENERGY PREDICTED BY IDOCK:   -6.38 KCAL/MOL
REMARK 924 INTRA-LIGAND FREE ENERGY PREDICTED BY IDOCK:   -0.81 KCAL/MOL
REMARK 927      BINDING AFFINITY PREDICTED BY RF-SCORE:    0.00 PKD
ROOT
HETATM    1  C   UNL     1      -8.712   9.000  67.065  1.00  0.00    -0.124 C  
HETATM    2  C   UNL     1      -9.600  10.104  67.724  1.00  0.00    -0.148 C  
HETATM    3  C   UNL     1      -9.451   9.360  65.767  1.00  0.00    -0.259 C  
HETATM    4  N   UNL     1     -10.155  10.364  66.366  1.00  0.00    -0.220 N  
HETATM    5  C   UNL     1      -9.093  11.457  68.234  1.00  0.00    -0.179 C  
HETATM    6  O   UNL     1     -10.979  11.300  63.936  1.00  0.00    -0.386 OA 
HETATM    7  O   UNL     1      -9.450   9.030  64.605  1.00  0.00     0.109 OA 
HETATM    8  C   UNL     1      -9.910  11.691  66.035  1.00  0.00    -0.230 C  
HETATM    9  O   UNL     1     -10.176  13.361  64.303  1.00  0.00    -0.387 OA 
HETATM   10  C   UNL     1     -10.325  12.213  64.692  1.00  0.00    -0.297 C  
HETATM   11  C   UNL     1      -9.319  12.362  67.043  1.00  0.00    -0.204 C  
HETATM   12  C   UNL     1      -7.670  11.365  68.763  1.00  0.00    -0.135 C  
ENDROOT
BRANCH   1  13
HETATM   13  C   UNL     1      -8.921   7.586  67.576  1.00  0.00    -0.126 C  
HETATM   14  C   UNL     1      -8.256   7.408  68.934  1.00  0.00    -0.129 C  
HETATM   15  O   UNL     1     -10.317   7.365  67.742  1.00  0.00    -0.186 OA 
HETATM   16  H   UNL     1     -10.448   6.480  68.061  1.00  0.00     0.000 HD 
ENDBRANCH   1  13
BRANCH  11  17
HETATM   17  S   UNL     1      -8.746  13.986  67.050  1.00  0.00    -0.166 SA 
BRANCH  17  18
HETATM   18  C   UNL     1      -9.549  14.778  68.494  1.00  0.00    -0.218 C  
HETATM   19  C   UNL     1     -11.068  14.708  68.572  1.00  0.00    -0.260 C  
HETATM   20  N   UNL     1     -11.523  15.921  67.906  1.00  0.00    -0.252 NA 
HETATM   21  H   UNL     1     -12.477  16.176  68.160  1.00  0.00     0.000 HD 
HETATM   22  C   UNL     1     -10.544  16.996  68.197  1.00  0.00    -0.369 C  
HETATM   23  C   UNL     1      -9.263  16.269  68.615  1.00  0.00    -0.227 C  
BRANCH  22  24
HETATM   24  C   UNL     1     -10.416  17.937  66.962  1.00  0.00    -0.340 C  
HETATM   25  O   UNL     1     -10.484  17.482  65.813  1.00  0.00    -0.535 OA 
HETATM   26  N   UNL     1     -10.275  19.304  67.172  1.00  0.00    -0.373 N  
HETATM   27  C   UNL     1     -10.283  19.977  68.461  1.00  0.00    -0.357 C  
HETATM   28  C   UNL     1     -10.101  20.181  66.022  1.00  0.00    -0.383 C  
ENDBRANCH  22  24
ENDBRANCH  17  18
ENDBRANCH  11  17
TORSDOF 4
ENDMDL
MODEL       87
REMARK 921   NORMALIZED FREE ENERGY PREDICTED BY IDOCK:   -5.03 KCAL/MOL
REMARK 922        TOTAL FREE ENERGY PREDICTED BY IDOCK:   -7.18 KCAL/MOL
REMARK 923 INTER-LIGAND FREE ENERGY PREDICTED BY IDOCK:   -6.11 KCAL/MOL
REMARK 924 INTRA-LIGAND FREE ENERGY PREDICTED BY IDOCK:   -1.07 KCAL/MOL
REMARK 927      BINDING AFFINITY PREDICTED BY RF-SCORE:    0.00 PKD
ROOT
HETATM    1  C   UNL     1     -11.932   7.981  71.464  1.00  0.00    -0.331 C  
HETATM    2  C   UNL     1     -11.803   6.659  70.642  1.00  0.00    -0.383 C  
HETATM    3  C   UNL     1     -11.263   7.191  72.599  1.00  0.00    -0.293 C  
HETATM    4  N   UNL     1     -11.105   6.078  71.824  1.00  0.00    -0.268 N  
HETATM    5  C   UNL     1     -10.859   6.446  69.454  1.00  0.00    -0.381 C  
HETATM    6  O   UNL     1      -9.437   4.966  73.678  1.00  0.00    -0.128 OA 
HETATM    7  O   UNL     1     -10.894   7.377  73.734  1.00  0.00    -0.321 OA 
HETATM    8  C   UNL     1      -9.838   5.668  71.431  1.00  0.00    -0.173 C  
HETATM    9  O   UNL     1      -7.769   4.679  72.208  1.00  0.00    -0.085 OA 
HETATM   10  C   UNL     1      -8.895   5.087  72.443  1.00  0.00    -0.127 C  
HETATM   11  C   UNL     1      -9.636   5.843  70.111  1.00  0.00    -0.162 C  
HETATM   12  C   UNL     1     -10.648   7.727  68.662  1.00  0.00    -0.152 C  
ENDROOT
BRANCH   1  13
HETATM   13  C   UNL     1     -13.347   8.460  71.734  1.00  0.00    -0.357 C  
HETATM   14  C   UNL     1     -14.331   7.306  71.611  1.00  0.00    -0.583 C  
HETATM   15  O   UNL     1     -13.414   8.950  73.068  1.00  0.00    -0.897 OA 
HETATM   16  H   UNL     1     -14.299   9.250  73.236  1.00  0.00     0.000 HD 
ENDBRANCH   1  13
BRANCH  11  17
HETATM   17  S   UNL     1      -8.196   5.571  69.207  1.00  0.00    -0.095 SA 
BRANCH  17  18
HETATM   18  C   UNL     1      -8.148   3.766  68.900  1.00  0.00    -0.058 C  
HETATM   19  C   UNL     1      -6.991   3.231  68.067  1.00  0.00    -0.050 C  
HETATM   20  N   UNL     1      -7.490   3.249  66.699  1.00  0.00    -0.075 NA 
HETATM   21  H   UNL     1      -6.966   2.628  66.080  1.00  0.00     0.000 HD 
HETATM   22  C   UNL     1      -8.938   2.934  66.736  1.00  0.00    -0.158 C  
HETATM   23  C   UNL     1      -9.375   3.233  68.173  1.00  0.00    -0.244 C  
BRANCH  22  24
HETATM   24  C   UNL     1      -9.677   3.735  65.624  1.00  0.00    -0.143 C  
HETATM   25  O   UNL     1     -10.036   4.903  65.820  1.00  0.00    -0.191 OA 
HETATM   26  N   UNL     1      -9.883   3.133  64.388  1.00  0.00    -0.160 N  
HETATM   27  C   UNL     1      -9.425   1.810  63.994  1.00  0.00    -0.126 C  
HETATM   28  C   UNL     1     -10.622   3.857  63.362  1.00  0.00    -0.173 C  
ENDBRANCH  22  24
ENDBRANCH  17  18
ENDBRANCH  11  17
TORSDOF 4
ENDMDL
MODEL       88
REMARK 921   NORMALIZED FREE ENERGY PREDICTED BY IDOCK:   -5.01 KCAL/MOL
REMARK 922        TOTAL FREE ENERGY PREDICTED BY IDOCK:   -7.16 KCAL/MOL
REMARK 923 INTER-LIGAND FREE ENERGY PREDICTED BY IDOCK:   -6.18 KCAL/MOL
REMARK 924 INTRA-LIGAND FREE ENERGY PREDICTED BY IDOCK:   -0.97 KCAL/MOL
REMARK 927      BINDING AFFINITY PREDICTED BY RF-SCORE:    0.00 PKD
ROOT
HETATM    1  C   UNL     1     -10.107   4.526  71.502  1.00  0.00    -0.239 C  
HETATM    2  C   UNL     1      -9.119   5.665  71.093  1.00  0.00    -0.145 C  
HETATM    3  C   UNL     1     -10.927   5.647  72.160  1.00  0.00    -0.250 C  
HETATM    4  N   UNL     1     -10.075   6.620  71.722  1.00  0.00    -0.183 N  
HETATM    5  C   UNL     1      -8.900   6.174  69.664  1.00  0.00    -0.134 C  
HETATM    6  O   UNL     1     -11.865   8.564  72.413  1.00  0.00    -0.380 OA 
HETATM    7  O   UNL     1     -11.960   5.772  72.773  1.00  0.00    -0.199 OA 
HETATM    8  C   UNL     1     -10.485   7.533  70.759  1.00  0.00    -0.213 C  
HETATM    9  O   UNL     1     -11.910   9.448  70.353  1.00  0.00    -0.212 OA 
HETATM   10  C   UNL     1     -11.493   8.587  71.111  1.00  0.00    -0.276 C  
HETATM   11  C   UNL     1      -9.860   7.341  69.581  1.00  0.00    -0.163 C  
HETATM   12  C   UNL     1      -9.079   5.067  68.636  1.00  0.00    -0.139 C  
ENDROOT
BRANCH   1  13
HETATM   13  C   UNL     1      -9.553   3.472  72.442  1.00  0.00    -0.137 C  
HETATM   14  C   UNL     1     -10.681   2.627  73.018  1.00  0.00    -0.231 C  
HETATM   15  O   UNL     1      -8.697   2.609  71.702  1.00  0.00    -0.069 OA 
HETATM   16  H   UNL     1      -8.350   1.949  72.290  1.00  0.00     0.000 HD 
ENDBRANCH   1  13
BRANCH  11  17
HETATM   17  S   UNL     1     -10.119   8.162  68.090  1.00  0.00    -0.205 SA 
BRANCH  17  18
HETATM   18  C   UNL     1      -8.884   9.514  68.058  1.00  0.00    -0.123 C  
HETATM   19  C   UNL     1      -8.771  10.385  69.302  1.00  0.00    -0.150 C  
HETATM   20  N   UNL     1      -9.689  11.489  69.057  1.00  0.00    -0.415 NA 
HETATM   21  H   UNL     1      -9.487  12.305  69.635  1.00  0.00     0.000 HD 
HETATM   22  C   UNL     1      -9.664  11.791  67.607  1.00  0.00    -0.182 C  
HETATM   23  C   UNL     1      -9.109  10.527  66.944  1.00  0.00    -0.161 C  
BRANCH  22  24
HETATM   24  C   UNL     1     -11.082  12.234  67.139  1.00  0.00    -0.278 C  
HETATM   25  O   UNL     1     -12.085  11.582  67.461  1.00  0.00    -0.614 OA 
HETATM   26  N   UNL     1     -11.210  13.401  66.396  1.00  0.00    -0.299 N  
HETATM   27  C   UNL     1     -10.132  14.309  66.037  1.00  0.00    -0.318 C  
HETATM   28  C   UNL     1     -12.528  13.790  65.910  1.00  0.00    -0.468 C  
ENDBRANCH  22  24
ENDBRANCH  17  18
ENDBRANCH  11  17
TORSDOF 4
ENDMDL
MODEL       89
REMARK 921   NORMALIZED FREE ENERGY PREDICTED BY IDOCK:   -5.01 KCAL/MOL
REMARK 922        TOTAL FREE ENERGY PREDICTED BY IDOCK:   -7.16 KCAL/MOL
REMARK 923 INTER-LIGAND FREE ENERGY PREDICTED BY IDOCK:   -6.14 KCAL/MOL
REMARK 924 INTRA-LIGAND FREE ENERGY PREDICTED BY IDOCK:   -1.01 KCAL/MOL
REMARK 927      BINDING AFFINITY PREDICTED BY RF-SCORE:    0.00 PKD
ROOT
HETATM    1  C   UNL     1     -11.309  11.713  69.555  1.00  0.00    -0.328 C  
HETATM    2  C   UNL     1     -11.238  10.228  69.073  1.00  0.00    -0.208 C  
HETATM    3  C   UNL     1     -12.282  11.188  70.621  1.00  0.00    -0.397 C  
HETATM    4  N   UNL     1     -12.138   9.893  70.214  1.00  0.00    -0.157 N  
HETATM    5  C   UNL     1     -10.021   9.309  69.218  1.00  0.00    -0.180 C  
HETATM    6  O   UNL     1     -13.402   8.995  72.462  1.00  0.00    -0.453 OA 
HETATM    7  O   UNL     1     -12.921  11.617  71.552  1.00  0.00    -0.424 OA 
HETATM    8  C   UNL     1     -11.494   8.967  71.025  1.00  0.00    -0.295 C  
HETATM    9  O   UNL     1     -11.697   7.667  73.057  1.00  0.00    -0.238 OA 
HETATM   10  C   UNL     1     -12.159   8.488  72.282  1.00  0.00    -0.387 C  
HETATM   11  C   UNL     1     -10.302   8.594  70.521  1.00  0.00    -0.202 C  
HETATM   12  C   UNL     1      -8.714  10.084  69.131  1.00  0.00    -0.168 C  
ENDROOT
BRANCH   1  13
HETATM   13  C   UNL     1     -11.885  12.706  68.563  1.00  0.00    -0.300 C  
HETATM   14  C   UNL     1     -10.971  13.917  68.430  1.00  0.00    -0.272 C  
HETATM   15  O   UNL     1     -11.967  12.080  67.288  1.00  0.00    -0.591 OA 
HETATM   16  H   UNL     1     -12.328  12.702  66.667  1.00  0.00     0.000 HD 
ENDBRANCH   1  13
BRANCH  11  17
HETATM   17  S   UNL     1      -9.126   7.553  71.225  1.00  0.00    -0.141 SA 
BRANCH  17  18
HETATM   18  C   UNL     1      -9.690   5.852  70.845  1.00  0.00    -0.172 C  
HETATM   19  C   UNL     1      -8.671   4.730  70.994  1.00  0.00    -0.116 C  
HETATM   20  N   UNL     1      -8.068   4.610  69.675  1.00  0.00    -0.065 NA 
HETATM   21  H   UNL     1      -7.615   3.708  69.528  1.00  0.00     0.000 HD 
HETATM   22  C   UNL     1      -9.115   4.898  68.665  1.00  0.00    -0.113 C  
HETATM   23  C   UNL     1     -10.196   5.676  69.420  1.00  0.00    -0.315 C  
BRANCH  22  24
HETATM   24  C   UNL     1      -8.481   5.629  67.445  1.00  0.00    -0.106 C  
HETATM   25  O   UNL     1      -7.821   6.664  67.604  1.00  0.00    -0.108 OA 
HETATM   26  N   UNL     1      -8.625   5.072  66.180  1.00  0.00    -0.116 N  
HETATM   27  C   UNL     1      -9.285   3.814  65.869  1.00  0.00    -0.159 C  
HETATM   28  C   UNL     1      -8.080   5.781  65.029  1.00  0.00    -0.131 C  
ENDBRANCH  22  24
ENDBRANCH  17  18
ENDBRANCH  11  17
TORSDOF 4
ENDMDL
MODEL       90
REMARK 921   NORMALIZED FREE ENERGY PREDICTED BY IDOCK:   -5.01 KCAL/MOL
REMARK 922        TOTAL FREE ENERGY PREDICTED BY IDOCK:   -7.16 KCAL/MOL
REMARK 923 INTER-LIGAND FREE ENERGY PREDICTED BY IDOCK:   -6.24 KCAL/MOL
REMARK 924 INTRA-LIGAND FREE ENERGY PREDICTED BY IDOCK:   -0.92 KCAL/MOL
REMARK 927      BINDING AFFINITY PREDICTED BY RF-SCORE:    0.00 PKD
ROOT
HETATM    1  C   UNL     1      -8.952  10.266  64.849  1.00  0.00    -0.231 C  
HETATM    2  C   UNL     1      -9.892   9.388  65.736  1.00  0.00    -0.275 C  
HETATM    3  C   UNL     1      -9.996  11.373  65.060  1.00  0.00    -0.266 C  
HETATM    4  N   UNL     1     -10.753  10.595  65.889  1.00  0.00    -0.099 N  
HETATM    5  C   UNL     1      -9.577   8.917  67.160  1.00  0.00    -0.225 C  
HETATM    6  O   UNL     1     -12.225  12.763  66.657  1.00  0.00    -0.481 OA 
HETATM    7  O   UNL     1     -10.165  12.528  64.750  1.00  0.00    -0.292 OA 
HETATM    8  C   UNL     1     -10.854  10.897  67.241  1.00  0.00    -0.287 C  
HETATM    9  O   UNL     1     -11.798  12.453  68.836  1.00  0.00    -0.305 OA 
HETATM   10  C   UNL     1     -11.629  12.104  67.679  1.00  0.00    -0.343 C  
HETATM   11  C   UNL     1     -10.219   9.991  68.010  1.00  0.00    -0.181 C  
HETATM   12  C   UNL     1      -8.087   8.683  67.362  1.00  0.00    -0.102 C  
ENDROOT
BRANCH   1  13
HETATM   13  C   UNL     1      -8.762   9.799  63.417  1.00  0.00    -0.226 C  
HETATM   14  C   UNL     1      -8.213   8.379  63.390  1.00  0.00    -0.114 C  
HETATM   15  O   UNL     1     -10.030   9.788  62.771  1.00  0.00    -0.431 OA 
HETATM   16  H   UNL     1      -9.911   9.496  61.876  1.00  0.00     0.000 HD 
ENDBRANCH   1  13
BRANCH  11  17
HETATM   17  S   UNL     1      -9.998  10.011  69.717  1.00  0.00    -0.225 SA 
BRANCH  17  18
HETATM   18  C   UNL     1     -11.499   9.225  70.412  1.00  0.00    -0.213 C  
HETATM   19  C   UNL     1     -11.797   9.472  71.885  1.00  0.00    -0.279 C  
HETATM   20  N   UNL     1     -11.143   8.370  72.577  1.00  0.00    -0.361 NA 
HETATM   21  H   UNL     1     -11.518   8.215  73.514  1.00  0.00     0.000 HD 
HETATM   22  C   UNL     1     -11.236   7.169  71.715  1.00  0.00    -0.246 C  
HETATM   23  C   UNL     1     -11.503   7.707  70.306  1.00  0.00    -0.144 C  
BRANCH  22  24
HETATM   24  C   UNL     1      -9.951   6.305  71.878  1.00  0.00    -0.172 C  
HETATM   25  O   UNL     1      -8.887   6.652  71.349  1.00  0.00    -0.138 OA 
HETATM   26  N   UNL     1     -10.005   5.163  72.668  1.00  0.00    -0.161 N  
HETATM   27  C   UNL     1     -11.158   4.699  73.424  1.00  0.00    -0.337 C  
HETATM   28  C   UNL     1      -8.819   4.323  72.779  1.00  0.00    -0.104 C  
ENDBRANCH  22  24
ENDBRANCH  17  18
ENDBRANCH  11  17
TORSDOF 4
ENDMDL
MODEL       91
REMARK 921   NORMALIZED FREE ENERGY PREDICTED BY IDOCK:   -5.01 KCAL/MOL
REMARK 922        TOTAL FREE ENERGY PREDICTED BY IDOCK:   -7.15 KCAL/MOL
REMARK 923 INTER-LIGAND FREE ENERGY PREDICTED BY IDOCK:   -6.33 KCAL/MOL
REMARK 924 INTRA-LIGAND FREE ENERGY PREDICTED BY IDOCK:   -0.81 KCAL/MOL
REMARK 927      BINDING AFFINITY PREDICTED BY RF-SCORE:    0.00 PKD
ROOT
HETATM    1  C   UNL     1     -10.196   7.166  68.385  1.00  0.00    -0.194 C  
HETATM    2  C   UNL     1      -9.365   8.483  68.512  1.00  0.00    -0.138 C  
HETATM    3  C   UNL     1     -10.893   7.631  69.673  1.00  0.00    -0.191 C  
HETATM    4  N   UNL     1     -10.195   8.804  69.708  1.00  0.00    -0.196 N  
HETATM    5  C   UNL     1      -9.484   9.696  67.583  1.00  0.00    -0.155 C  
HETATM    6  O   UNL     1     -11.862   9.793  71.633  1.00  0.00    -0.389 OA 
HETATM    7  O   UNL     1     -11.771   7.255  70.413  1.00  0.00    -0.263 OA 
HETATM    8  C   UNL     1     -10.840  10.014  69.485  1.00  0.00    -0.253 C  
HETATM    9  O   UNL     1     -12.391  11.612  70.435  1.00  0.00    -0.321 OA 
HETATM   10  C   UNL     1     -11.785  10.555  70.516  1.00  0.00    -0.350 C  
HETATM   11  C   UNL     1     -10.482  10.570  68.311  1.00  0.00    -0.183 C  
HETATM   12  C   UNL     1      -9.842   9.287  66.162  1.00  0.00    -0.363 C  
ENDROOT
BRANCH   1  13
HETATM   13  C   UNL     1      -9.410   5.872  68.488  1.00  0.00    -0.120 C  
HETATM   14  C   UNL     1      -7.958   6.099  68.093  1.00  0.00    -0.107 C  
HETATM   15  O   UNL     1      -9.431   5.433  69.841  1.00  0.00    -0.145 OA 
HETATM   16  H   UNL     1      -8.939   4.623  69.905  1.00  0.00     0.000 HD 
ENDBRANCH   1  13
BRANCH  11  17
HETATM   17  S   UNL     1     -11.093  12.004  67.581  1.00  0.00    -0.284 SA 
BRANCH  17  18
HETATM   18  C   UNL     1      -9.714  12.660  66.569  1.00  0.00    -0.256 C  
HETATM   19  C   UNL     1      -8.386  12.902  67.275  1.00  0.00    -0.185 C  
HETATM   20  N   UNL     1      -8.456  14.288  67.716  1.00  0.00    -0.164 NA 
HETATM   21  H   UNL     1      -7.537  14.688  67.908  1.00  0.00     0.000 HD 
HETATM   22  C   UNL     1      -9.215  15.054  66.699  1.00  0.00    -0.276 C  
HETATM   23  C   UNL     1     -10.013  14.004  65.920  1.00  0.00    -0.325 C  
BRANCH  22  24
HETATM   24  C   UNL     1     -10.056  16.163  67.396  1.00  0.00    -0.257 C  
HETATM   25  O   UNL     1     -10.988  15.865  68.154  1.00  0.00    -0.309 OA 
HETATM   26  N   UNL     1      -9.710  17.494  67.194  1.00  0.00    -0.270 N  
HETATM   27  C   UNL     1      -8.582  17.977  66.415  1.00  0.00    -0.228 C  
HETATM   28  C   UNL     1     -10.528  18.537  67.802  1.00  0.00    -0.408 C  
ENDBRANCH  22  24
ENDBRANCH  17  18
ENDBRANCH  11  17
TORSDOF 4
ENDMDL
MODEL       92
REMARK 921   NORMALIZED FREE ENERGY PREDICTED BY IDOCK:   -5.00 KCAL/MOL
REMARK 922        TOTAL FREE ENERGY PREDICTED BY IDOCK:   -7.14 KCAL/MOL
REMARK 923 INTER-LIGAND FREE ENERGY PREDICTED BY IDOCK:   -6.57 KCAL/MOL
REMARK 924 INTRA-LIGAND FREE ENERGY PREDICTED BY IDOCK:   -0.57 KCAL/MOL
REMARK 927      BINDING AFFINITY PREDICTED BY RF-SCORE:    0.00 PKD
ROOT
HETATM    1  C   UNL     1     -12.854  13.741  70.828  1.00  0.00    -0.302 C  
HETATM    2  C   UNL     1     -11.530  13.105  70.296  1.00  0.00     0.154 C  
HETATM    3  C   UNL     1     -12.437  14.977  70.016  1.00  0.00    -0.275 C  
HETATM    4  N   UNL     1     -11.327  14.359  69.517  1.00  0.00    -0.267 N  
HETATM    5  C   UNL     1     -11.446  11.963  69.277  1.00  0.00    -0.366 C  
HETATM    6  O   UNL     1     -10.980  16.358  67.687  1.00  0.00    -0.308 OA 
HETATM    7  O   UNL     1     -12.863  16.080  69.764  1.00  0.00    -0.025 OA 
HETATM    8  C   UNL     1     -11.249  14.034  68.169  1.00  0.00    -0.275 C  
HETATM    9  O   UNL     1     -10.995  14.950  65.942  1.00  0.00    -0.324 OA 
HETATM   10  C   UNL     1     -11.092  15.121  67.147  1.00  0.00    -0.335 C  
HETATM   11  C   UNL     1     -11.305  12.703  67.965  1.00  0.00    -0.290 C  
HETATM   12  C   UNL     1     -12.623  11.007  69.401  1.00  0.00     0.096 C  
ENDROOT
BRANCH   1  13
HETATM   13  C   UNL     1     -12.940  13.935  72.331  1.00  0.00    -0.364 C  
HETATM   14  C   UNL     1     -13.698  15.214  72.660  1.00  0.00    -0.587 C  
HETATM   15  O   UNL     1     -13.664  12.844  72.889  1.00  0.00    -0.684 OA 
HETATM   16  H   UNL     1     -13.718  12.965  73.829  1.00  0.00     0.000 HD 
ENDBRANCH   1  13
BRANCH  11  17
HETATM   17  S   UNL     1     -11.342  11.854  66.468  1.00  0.00    -0.305 SA 
BRANCH  17  18
HETATM   18  C   UNL     1      -9.598  11.417  66.114  1.00  0.00    -0.218 C  
HETATM   19  C   UNL     1      -9.271  10.950  64.702  1.00  0.00    -0.197 C  
HETATM   20  N   UNL     1      -9.414   9.502  64.755  1.00  0.00    -0.435 NA 
HETATM   21  H   UNL     1      -8.921   9.028  63.998  1.00  0.00     0.000 HD 
HETATM   22  C   UNL     1      -8.976   9.048  66.097  1.00  0.00    -0.177 C  
HETATM   23  C   UNL     1      -9.057  10.293  66.986  1.00  0.00    -0.154 C  
BRANCH  22  24
HETATM   24  C   UNL     1      -9.842   7.836  66.549  1.00  0.00    -0.185 C  
HETATM   25  O   UNL     1     -10.894   8.011  67.176  1.00  0.00    -0.278 OA 
HETATM   26  N   UNL     1      -9.439   6.553  66.193  1.00  0.00    -0.083 N  
HETATM   27  C   UNL     1      -8.285   6.215  65.376  1.00  0.00    -0.145 C  
HETATM   28  C   UNL     1     -10.216   5.413  66.660  1.00  0.00    -0.243 C  
ENDBRANCH  22  24
ENDBRANCH  17  18
ENDBRANCH  11  17
TORSDOF 4
ENDMDL
MODEL       93
REMARK 921   NORMALIZED FREE ENERGY PREDICTED BY IDOCK:   -4.99 KCAL/MOL
REMARK 922        TOTAL FREE ENERGY PREDICTED BY IDOCK:   -7.13 KCAL/MOL
REMARK 923 INTER-LIGAND FREE ENERGY PREDICTED BY IDOCK:   -6.51 KCAL/MOL
REMARK 924 INTRA-LIGAND FREE ENERGY PREDICTED BY IDOCK:   -0.62 KCAL/MOL
REMARK 927      BINDING AFFINITY PREDICTED BY RF-SCORE:    0.00 PKD
ROOT
HETATM    1  C   UNL     1     -10.321  12.939  67.391  1.00  0.00    -0.233 C  
HETATM    2  C   UNL     1     -10.558  14.385  66.850  1.00  0.00    -0.278 C  
HETATM    3  C   UNL     1      -8.827  13.287  67.302  1.00  0.00    -0.216 C  
HETATM    4  N   UNL     1      -9.080  14.567  66.899  1.00  0.00    -0.244 N  
HETATM    5  C   UNL     1     -11.148  15.546  67.659  1.00  0.00    -0.311 C  
HETATM    6  O   UNL     1      -6.472  15.264  67.318  1.00  0.00    -0.303 OA 
HETATM    7  O   UNL     1      -7.762  12.769  67.538  1.00  0.00    -0.146 OA 
HETATM    8  C   UNL     1      -8.794  15.638  67.736  1.00  0.00    -0.171 C  
HETATM    9  O   UNL     1      -7.000  16.943  68.706  1.00  0.00    -0.181 OA 
HETATM   10  C   UNL     1      -7.367  16.014  68.005  1.00  0.00    -0.130 C  
HETATM   11  C   UNL     1      -9.911  16.235  68.194  1.00  0.00    -0.239 C  
HETATM   12  C   UNL     1     -12.159  15.061  68.688  1.00  0.00    -0.198 C  
ENDROOT
BRANCH   1  13
HETATM   13  C   UNL     1     -10.792  11.809  66.495  1.00  0.00    -0.282 C  
HETATM   14  C   UNL     1     -11.527  12.363  65.282  1.00  0.00    -0.389 C  
HETATM   15  O   UNL     1      -9.653  11.096  66.026  1.00  0.00    -0.202 OA 
HETATM   16  H   UNL     1      -9.949  10.388  65.465  1.00  0.00     0.000 HD 
ENDBRANCH   1  13
BRANCH  11  17
HETATM   17  S   UNL     1     -10.043  17.526  69.324  1.00  0.00    -0.055 SA 
BRANCH  17  18
HETATM   18  C   UNL     1     -10.514  18.994  68.333  1.00  0.00    -0.205 C  
HETATM   19  C   UNL     1     -11.122  18.741  66.960  1.00  0.00     0.079 C  
HETATM   20  N   UNL     1      -9.983  18.743  66.053  1.00  0.00    -0.523 NA 
HETATM   21  H   UNL     1     -10.252  18.912  65.083  1.00  0.00     0.000 HD 
HETATM   22  C   UNL     1      -8.999  19.730  66.557  1.00  0.00    -0.371 C  
HETATM   23  C   UNL     1      -9.353  19.931  68.033  1.00  0.00    -0.431 C  
BRANCH  22  24
HETATM   24  C   UNL     1      -7.555  19.224  66.270  1.00  0.00    -0.277 C  
HETATM   25  O   UNL     1      -7.355  18.319  65.449  1.00  0.00    -0.531 OA 
HETATM   26  N   UNL     1      -6.487  19.840  66.912  1.00  0.00    -0.191 N  
HETATM   27  C   UNL     1      -6.573  20.976  67.817  1.00  0.00    -0.329 C  
HETATM   28  C   UNL     1      -5.139  19.335  66.688  1.00  0.00    -0.155 C  
ENDBRANCH  22  24
ENDBRANCH  17  18
ENDBRANCH  11  17
TORSDOF 4
ENDMDL
MODEL       94
REMARK 921   NORMALIZED FREE ENERGY PREDICTED BY IDOCK:   -4.99 KCAL/MOL
REMARK 922        TOTAL FREE ENERGY PREDICTED BY IDOCK:   -7.12 KCAL/MOL
REMARK 923 INTER-LIGAND FREE ENERGY PREDICTED BY IDOCK:   -6.43 KCAL/MOL
REMARK 924 INTRA-LIGAND FREE ENERGY PREDICTED BY IDOCK:   -0.69 KCAL/MOL
REMARK 927      BINDING AFFINITY PREDICTED BY RF-SCORE:    0.00 PKD
ROOT
HETATM    1  C   UNL     1     -10.703  14.970  69.812  1.00  0.00    -0.260 C  
HETATM    2  C   UNL     1     -11.785  14.144  69.046  1.00  0.00    -0.324 C  
HETATM    3  C   UNL     1     -11.572  14.718  71.054  1.00  0.00    -0.265 C  
HETATM    4  N   UNL     1     -12.457  13.942  70.361  1.00  0.00    -0.344 N  
HETATM    5  C   UNL     1     -11.578  12.741  68.464  1.00  0.00    -0.358 C  
HETATM    6  O   UNL     1     -13.600  13.085  72.689  1.00  0.00    -0.573 OA 
HETATM    7  O   UNL     1     -11.556  14.971  72.235  1.00  0.00    -0.383 OA 
HETATM    8  C   UNL     1     -12.541  12.578  70.609  1.00  0.00    -0.155 C  
HETATM    9  O   UNL     1     -13.275  10.919  72.212  1.00  0.00    -0.406 OA 
HETATM   10  C   UNL     1     -13.135  12.090  71.897  1.00  0.00    -0.370 C  
HETATM   11  C   UNL     1     -12.068  11.847  69.581  1.00  0.00    -0.239 C  
HETATM   12  C   UNL     1     -10.146  12.529  67.996  1.00  0.00    -0.220 C  
ENDROOT
BRANCH   1  13
HETATM   13  C   UNL     1     -10.554  16.421  69.391  1.00  0.00    -0.317 C  
HETATM   14  C   UNL     1      -9.179  16.659  68.782  1.00  0.00    -0.253 C  
HETATM   15  O   UNL     1     -11.528  16.707  68.394  1.00  0.00    -0.258 OA 
HETATM   16  H   UNL     1     -11.435  17.615  68.131  1.00  0.00     0.000 HD 
ENDBRANCH   1  13
BRANCH  11  17
HETATM   17  S   UNL     1     -11.885  10.138  69.484  1.00  0.00     0.091 SA 
BRANCH  17  18
HETATM   18  C   UNL     1     -10.148   9.806  69.961  1.00  0.00    -0.257 C  
HETATM   19  C   UNL     1      -9.304   8.986  68.994  1.00  0.00    -0.140 C  
HETATM   20  N   UNL     1      -9.478   7.610  69.437  1.00  0.00    -0.153 NA 
HETATM   21  H   UNL     1      -8.737   6.992  69.106  1.00  0.00     0.000 HD 
HETATM   22  C   UNL     1      -9.602   7.618  70.914  1.00  0.00    -0.164 C  
HETATM   23  C   UNL     1     -10.004   9.051  71.275  1.00  0.00    -0.381 C  
BRANCH  22  24
HETATM   24  C   UNL     1     -10.593   6.503  71.363  1.00  0.00    -0.228 C  
HETATM   25  O   UNL     1     -11.813   6.644  71.206  1.00  0.00    -0.320 OA 
HETATM   26  N   UNL     1     -10.082   5.326  71.897  1.00  0.00    -0.190 N  
HETATM   27  C   UNL     1      -8.674   4.992  72.042  1.00  0.00    -0.129 C  
HETATM   28  C   UNL     1     -11.007   4.303  72.368  1.00  0.00     0.162 C  
ENDBRANCH  22  24
ENDBRANCH  17  18
ENDBRANCH  11  17
TORSDOF 4
ENDMDL
MODEL       95
REMARK 921   NORMALIZED FREE ENERGY PREDICTED BY IDOCK:   -4.96 KCAL/MOL
REMARK 922        TOTAL FREE ENERGY PREDICTED BY IDOCK:   -7.09 KCAL/MOL
REMARK 923 INTER-LIGAND FREE ENERGY PREDICTED BY IDOCK:   -6.06 KCAL/MOL
REMARK 924 INTRA-LIGAND FREE ENERGY PREDICTED BY IDOCK:   -1.03 KCAL/MOL
REMARK 927      BINDING AFFINITY PREDICTED BY RF-SCORE:    0.00 PKD
ROOT
HETATM    1  C   UNL     1     -10.727  12.794  63.931  1.00  0.00    -0.443 C  
HETATM    2  C   UNL     1     -10.840  11.659  64.998  1.00  0.00    -0.288 C  
HETATM    3  C   UNL     1     -10.339  13.694  65.114  1.00  0.00    -0.364 C  
HETATM    4  N   UNL     1     -10.380  12.658  66.003  1.00  0.00    -0.264 N  
HETATM    5  C   UNL     1      -9.885  10.468  65.126  1.00  0.00    -0.359 C  
HETATM    6  O   UNL     1      -9.147  14.181  67.906  1.00  0.00    -0.176 OA 
HETATM    7  O   UNL     1     -10.021  14.843  65.311  1.00  0.00    -0.350 OA 
HETATM    8  C   UNL     1      -9.213  12.188  66.591  1.00  0.00    -0.206 C  
HETATM    9  O   UNL     1      -7.484  12.706  68.204  1.00  0.00    -0.102 OA 
HETATM   10  C   UNL     1      -8.503  13.026  67.613  1.00  0.00    -0.187 C  
HETATM   11  C   UNL     1      -8.881  10.961  66.145  1.00  0.00    -0.186 C  
HETATM   12  C   UNL     1      -9.333  10.038  63.775  1.00  0.00    -0.307 C  
ENDROOT
BRANCH   1  13
HETATM   13  C   UNL     1     -12.013  13.162  63.213  1.00  0.00    -0.376 C  
HETATM   14  C   UNL     1     -13.111  12.160  63.542  1.00  0.00    -0.133 C  
HETATM   15  O   UNL     1     -12.438  14.441  63.669  1.00  0.00    -1.066 OA 
HETATM   16  H   UNL     1     -13.243  14.670  63.220  1.00  0.00     0.000 HD 
ENDBRANCH   1  13
BRANCH  11  17
HETATM   17  S   UNL     1      -7.478  10.035  66.517  1.00  0.00    -0.109 SA 
BRANCH  17  18
HETATM   18  C   UNL     1      -8.033   8.772  67.722  1.00  0.00    -0.106 C  
HETATM   19  C   UNL     1      -6.954   7.984  68.452  1.00  0.00    -0.072 C  
HETATM   20  N   UNL     1      -6.738   6.808  67.621  1.00  0.00    -0.068 NA 
HETATM   21  H   UNL     1      -6.296   6.041  68.129  1.00  0.00     0.000 HD 
HETATM   22  C   UNL     1      -8.040   6.425  67.024  1.00  0.00    -0.112 C  
HETATM   23  C   UNL     1      -8.907   7.684  67.113  1.00  0.00    -0.129 C  
BRANCH  22  24
HETATM   24  C   UNL     1      -7.813   5.860  65.590  1.00  0.00    -0.101 C  
HETATM   25  O   UNL     1      -6.790   6.145  64.954  1.00  0.00    -0.045 OA 
HETATM   26  N   UNL     1      -8.755   4.989  65.055  1.00  0.00    -0.149 N  
HETATM   27  C   UNL     1      -9.944   4.495  65.731  1.00  0.00    -0.239 C  
HETATM   28  C   UNL     1      -8.575   4.500  63.694  1.00  0.00    -0.126 C  
ENDBRANCH  22  24
ENDBRANCH  17  18
ENDBRANCH  11  17
TORSDOF 4
ENDMDL
MODEL       96
REMARK 921   NORMALIZED FREE ENERGY PREDICTED BY IDOCK:   -4.96 KCAL/MOL
REMARK 922        TOTAL FREE ENERGY PREDICTED BY IDOCK:   -7.09 KCAL/MOL
REMARK 923 INTER-LIGAND FREE ENERGY PREDICTED BY IDOCK:   -6.17 KCAL/MOL
REMARK 924 INTRA-LIGAND FREE ENERGY PREDICTED BY IDOCK:   -0.92 KCAL/MOL
REMARK 927      BINDING AFFINITY PREDICTED BY RF-SCORE:    0.00 PKD
ROOT
HETATM    1  C   UNL     1     -11.965  12.528  68.261  1.00  0.00    -0.274 C  
HETATM    2  C   UNL     1     -10.801  11.837  69.041  1.00  0.00    -0.195 C  
HETATM    3  C   UNL     1     -11.386  11.822  67.025  1.00  0.00    -0.321 C  
HETATM    4  N   UNL     1     -10.427  11.182  67.756  1.00  0.00    -0.185 N  
HETATM    5  C   UNL     1     -10.969  10.701  70.056  1.00  0.00    -0.325 C  
HETATM    6  O   UNL     1      -9.838   9.553  65.645  1.00  0.00    -0.297 OA 
HETATM    7  O   UNL     1     -11.628  11.719  65.846  1.00  0.00    -0.354 OA 
HETATM    8  C   UNL     1     -10.477   9.805  67.932  1.00  0.00    -0.239 C  
HETATM    9  O   UNL     1     -10.188   7.675  66.818  1.00  0.00    -0.267 OA 
HETATM   10  C   UNL     1     -10.190   8.895  66.775  1.00  0.00    -0.278 C  
HETATM   11  C   UNL     1     -10.772   9.468  69.202  1.00  0.00    -0.210 C  
HETATM   12  C   UNL     1     -12.285  10.808  70.812  1.00  0.00    -0.480 C  
ENDROOT
BRANCH   1  13
HETATM   13  C   UNL     1     -11.938  14.045  68.231  1.00  0.00    -0.349 C  
HETATM   14  C   UNL     1     -10.819  14.574  69.118  1.00  0.00    -0.278 C  
HETATM   15  O   UNL     1     -11.674  14.468  66.898  1.00  0.00    -0.372 OA 
HETATM   16  H   UNL     1     -11.657  15.417  66.880  1.00  0.00     0.000 HD 
ENDBRANCH   1  13
BRANCH  11  17
HETATM   17  S   UNL     1     -11.034   7.896  69.854  1.00  0.00    -0.120 SA 
BRANCH  17  18
HETATM   18  C   UNL     1      -9.386   7.317  70.406  1.00  0.00    -0.158 C  
HETATM   19  C   UNL     1      -8.786   6.123  69.675  1.00  0.00    -0.134 C  
HETATM   20  N   UNL     1      -9.227   4.968  70.443  1.00  0.00    -0.141 NA 
HETATM   21  H   UNL     1      -8.652   4.141  70.278  1.00  0.00     0.000 HD 
HETATM   22  C   UNL     1      -9.273   5.359  71.872  1.00  0.00    -0.138 C  
HETATM   23  C   UNL     1      -9.342   6.889  71.866  1.00  0.00    -0.145 C  
BRANCH  22  24
HETATM   24  C   UNL     1     -10.456   4.632  72.578  1.00  0.00    -0.195 C  
HETATM   25  O   UNL     1     -11.526   5.219  72.783  1.00  0.00    -0.290 OA 
HETATM   26  N   UNL     1     -10.308   3.295  72.928  1.00  0.00    -0.160 N  
HETATM   27  C   UNL     1      -9.148   2.461  72.655  1.00  0.00    -0.074 C  
HETATM   28  C   UNL     1     -11.391   2.625  73.637  1.00  0.00    -0.187 C  
ENDBRANCH  22  24
ENDBRANCH  17  18
ENDBRANCH  11  17
TORSDOF 4
ENDMDL
MODEL       97
REMARK 921   NORMALIZED FREE ENERGY PREDICTED BY IDOCK:   -4.95 KCAL/MOL
REMARK 922        TOTAL FREE ENERGY PREDICTED BY IDOCK:   -7.08 KCAL/MOL
REMARK 923 INTER-LIGAND FREE ENERGY PREDICTED BY IDOCK:   -6.24 KCAL/MOL
REMARK 924 INTRA-LIGAND FREE ENERGY PREDICTED BY IDOCK:   -0.84 KCAL/MOL
REMARK 927      BINDING AFFINITY PREDICTED BY RF-SCORE:    0.00 PKD
ROOT
HETATM    1  C   UNL     1     -10.868   6.342  69.735  1.00  0.00    -0.399 C  
HETATM    2  C   UNL     1      -9.993   7.636  69.744  1.00  0.00    -0.184 C  
HETATM    3  C   UNL     1     -11.609   6.987  70.916  1.00  0.00    -0.328 C  
HETATM    4  N   UNL     1     -10.868   8.132  70.844  1.00  0.00    -0.226 N  
HETATM    5  C   UNL     1     -10.018   8.727  68.667  1.00  0.00    -0.197 C  
HETATM    6  O   UNL     1     -12.588   9.407  72.540  1.00  0.00    -0.285 OA 
HETATM    7  O   UNL     1     -12.537   6.736  71.648  1.00  0.00    -0.359 OA 
HETATM    8  C   UNL     1     -11.453   9.325  70.440  1.00  0.00    -0.213 C  
HETATM    9  O   UNL     1     -12.985  11.079  71.100  1.00  0.00    -0.369 OA 
HETATM   10  C   UNL     1     -12.426  10.022  71.343  1.00  0.00    -0.411 C  
HETATM   11  C   UNL     1     -11.016   9.718  69.227  1.00  0.00    -0.193 C  
HETATM   12  C   UNL     1     -10.321   8.156  67.290  1.00  0.00    -0.373 C  
ENDROOT
BRANCH   1  13
HETATM   13  C   UNL     1     -10.140   5.046  70.038  1.00  0.00    -0.272 C  
HETATM   14  C   UNL     1      -8.659   5.179  69.710  1.00  0.00    -0.104 C  
HETATM   15  O   UNL     1     -10.256   4.774  71.430  1.00  0.00    -0.199 OA 
HETATM   16  H   UNL     1      -9.800   3.963  71.619  1.00  0.00     0.000 HD 
ENDBRANCH   1  13
BRANCH  11  17
HETATM   17  S   UNL     1     -11.532  11.069  68.294  1.00  0.00    -0.285 SA 
BRANCH  17  18
HETATM   18  C   UNL     1     -10.057  12.144  68.136  1.00  0.00    -0.206 C  
HETATM   19  C   UNL     1     -10.136  13.292  67.139  1.00  0.00    -0.239 C  
HETATM   20  N   UNL     1      -9.615  12.734  65.900  1.00  0.00    -0.420 NA 
HETATM   21  H   UNL     1      -9.303  13.452  65.244  1.00  0.00     0.000 HD 
HETATM   22  C   UNL     1      -8.545  11.769  66.247  1.00  0.00    -0.062 C  
HETATM   23  C   UNL     1      -8.798  11.401  67.712  1.00  0.00    -0.143 C  
BRANCH  22  24
HETATM   24  C   UNL     1      -8.560  10.583  65.238  1.00  0.00    -0.177 C  
HETATM   25  O   UNL     1      -9.579  10.324  64.585  1.00  0.00    -0.264 OA 
HETATM   26  N   UNL     1      -7.395   9.850  65.046  1.00  0.00    -0.129 N  
HETATM   27  C   UNL     1      -6.108  10.110  65.670  1.00  0.00    -0.095 C  
HETATM   28  C   UNL     1      -7.420   8.706  64.144  1.00  0.00    -0.110 C  
ENDBRANCH  22  24
ENDBRANCH  17  18
ENDBRANCH  11  17
TORSDOF 4
ENDMDL
MODEL       98
REMARK 921   NORMALIZED FREE ENERGY PREDICTED BY IDOCK:   -4.95 KCAL/MOL
REMARK 922        TOTAL FREE ENERGY PREDICTED BY IDOCK:   -7.08 KCAL/MOL
REMARK 923 INTER-LIGAND FREE ENERGY PREDICTED BY IDOCK:   -6.05 KCAL/MOL
REMARK 924 INTRA-LIGAND FREE ENERGY PREDICTED BY IDOCK:   -1.03 KCAL/MOL
REMARK 927      BINDING AFFINITY PREDICTED BY RF-SCORE:    0.00 PKD
ROOT
HETATM    1  C   UNL     1     -11.893  12.565  65.785  1.00  0.00    -0.494 C  
HETATM    2  C   UNL     1     -10.475  12.205  66.335  1.00  0.00    -0.230 C  
HETATM    3  C   UNL     1     -11.261  12.383  64.396  1.00  0.00    -0.332 C  
HETATM    4  N   UNL     1     -10.058  12.004  64.918  1.00  0.00    -0.264 N  
HETATM    5  C   UNL     1     -10.114  10.907  67.064  1.00  0.00    -0.244 C  
HETATM    6  O   UNL     1      -9.206  11.163  62.463  1.00  0.00    -0.330 OA 
HETATM    7  O   UNL     1     -11.595  12.439  63.236  1.00  0.00    -0.449 OA 
HETATM    8  C   UNL     1      -9.607  10.699  64.771  1.00  0.00    -0.280 C  
HETATM    9  O   UNL     1      -8.739   9.092  63.183  1.00  0.00    -0.192 OA 
HETATM   10  C   UNL     1      -9.168  10.209  63.424  1.00  0.00    -0.291 C  
HETATM   11  C   UNL     1      -9.610  10.028  65.940  1.00  0.00    -0.224 C  
HETATM   12  C   UNL     1     -11.283  10.372  67.878  1.00  0.00    -0.332 C  
ENDROOT
BRANCH   1  13
HETATM   13  C   UNL     1     -12.395  13.961  66.107  1.00  0.00    -0.465 C  
HETATM   14  C   UNL     1     -11.748  14.478  67.384  1.00  0.00    -0.425 C  
HETATM   15  O   UNL     1     -12.024  14.833  65.046  1.00  0.00    -0.366 OA 
HETATM   16  H   UNL     1     -12.339  15.706  65.247  1.00  0.00     0.000 HD 
ENDBRANCH   1  13
BRANCH  11  17
HETATM   17  S   UNL     1      -9.230   8.373  66.220  1.00  0.00    -0.211 SA 
BRANCH  17  18
HETATM   18  C   UNL     1      -8.018   8.377  67.594  1.00  0.00    -0.110 C  
HETATM   19  C   UNL     1      -6.605   7.902  67.278  1.00  0.00    -0.060 C  
HETATM   20  N   UNL     1      -6.628   6.476  67.568  1.00  0.00    -0.058 NA 
HETATM   21  H   UNL     1      -5.696   6.089  67.718  1.00  0.00     0.000 HD 
HETATM   22  C   UNL     1      -7.533   6.258  68.721  1.00  0.00    -0.088 C  
HETATM   23  C   UNL     1      -8.422   7.504  68.773  1.00  0.00    -0.129 C  
BRANCH  22  24
HETATM   24  C   UNL     1      -8.279   4.901  68.555  1.00  0.00    -0.084 C  
HETATM   25  O   UNL     1      -8.467   4.419  67.430  1.00  0.00    -0.103 OA 
HETATM   26  N   UNL     1      -8.686   4.214  69.692  1.00  0.00    -0.075 N  
HETATM   27  C   UNL     1      -8.439   4.616  71.068  1.00  0.00    -0.106 C  
HETATM   28  C   UNL     1      -9.431   2.971  69.540  1.00  0.00    -0.103 C  
ENDBRANCH  22  24
ENDBRANCH  17  18
ENDBRANCH  11  17
TORSDOF 4
ENDMDL
MODEL       99
REMARK 921   NORMALIZED FREE ENERGY PREDICTED BY IDOCK:   -4.91 KCAL/MOL
REMARK 922        TOTAL FREE ENERGY PREDICTED BY IDOCK:   -7.03 KCAL/MOL
REMARK 923 INTER-LIGAND FREE ENERGY PREDICTED BY IDOCK:   -6.20 KCAL/MOL
REMARK 924 INTRA-LIGAND FREE ENERGY PREDICTED BY IDOCK:   -0.83 KCAL/MOL
REMARK 927      BINDING AFFINITY PREDICTED BY RF-SCORE:    0.00 PKD
ROOT
HETATM    1  C   UNL     1     -11.114   9.114  71.713  1.00  0.00    -0.437 C  
HETATM    2  C   UNL     1     -10.820   8.849  70.201  1.00  0.00    -0.231 C  
HETATM    3  C   UNL     1      -9.604   8.908  71.911  1.00  0.00    -0.256 C  
HETATM    4  N   UNL     1      -9.380   8.753  70.574  1.00  0.00    -0.174 N  
HETATM    5  C   UNL     1     -10.894   9.901  69.089  1.00  0.00    -0.248 C  
HETATM    6  O   UNL     1      -6.684   8.971  70.952  1.00  0.00    -0.063 OA 
HETATM    7  O   UNL     1      -8.800   8.929  72.812  1.00  0.00    -0.324 OA 
HETATM    8  C   UNL     1      -8.675   9.714  69.862  1.00  0.00    -0.219 C  
HETATM    9  O   UNL     1      -6.479  10.668  69.502  1.00  0.00    -0.057 OA 
HETATM   10  C   UNL     1      -7.199   9.871  70.082  1.00  0.00    -0.155 C  
HETATM   11  C   UNL     1      -9.465  10.392  69.007  1.00  0.00    -0.197 C  
HETATM   12  C   UNL     1     -11.962  10.948  69.371  1.00  0.00    -0.393 C  
ENDROOT
BRANCH   1  13
HETATM   13  C   UNL     1     -12.016   8.106  72.400  1.00  0.00    -0.372 C  
HETATM   14  C   UNL     1     -12.372   6.973  71.447  1.00  0.00    -0.419 C  
HETATM   15  O   UNL     1     -11.313   7.544  73.502  1.00  0.00    -0.620 OA 
HETATM   16  H   UNL     1     -11.878   6.913  73.933  1.00  0.00     0.000 HD 
ENDBRANCH   1  13
BRANCH  11  17
HETATM   17  S   UNL     1      -9.050  11.727  68.002  1.00  0.00    -0.185 SA 
BRANCH  17  18
HETATM   18  C   UNL     1      -8.350  10.989  66.478  1.00  0.00    -0.163 C  
HETATM   19  C   UNL     1      -9.242  10.962  65.244  1.00  0.00    -0.210 C  
HETATM   20  N   UNL     1      -9.922   9.676  65.314  1.00  0.00    -0.405 NA 
HETATM   21  H   UNL     1     -10.293   9.376  64.413  1.00  0.00     0.000 HD 
HETATM   22  C   UNL     1      -8.981   8.694  65.903  1.00  0.00    -0.200 C  
HETATM   23  C   UNL     1      -7.931   9.534  66.636  1.00  0.00    -0.108 C  
BRANCH  22  24
HETATM   24  C   UNL     1      -9.767   7.676  66.782  1.00  0.00    -0.222 C  
HETATM   25  O   UNL     1     -11.005   7.675  66.790  1.00  0.00    -0.183 OA 
HETATM   26  N   UNL     1      -9.057   6.735  67.518  1.00  0.00    -0.117 N  
HETATM   27  C   UNL     1      -7.613   6.563  67.519  1.00  0.00    -0.105 C  
HETATM   28  C   UNL     1      -9.786   5.817  68.383  1.00  0.00    -0.133 C  
ENDBRANCH  22  24
ENDBRANCH  17  18
ENDBRANCH  11  17
TORSDOF 4
ENDMDL
MODEL      100
REMARK 921   NORMALIZED FREE ENERGY PREDICTED BY IDOCK:   -4.89 KCAL/MOL
REMARK 922        TOTAL FREE ENERGY PREDICTED BY IDOCK:   -7.00 KCAL/MOL
REMARK 923 INTER-LIGAND FREE ENERGY PREDICTED BY IDOCK:   -5.97 KCAL/MOL
REMARK 924 INTRA-LIGAND FREE ENERGY PREDICTED BY IDOCK:   -1.04 KCAL/MOL
REMARK 927      BINDING AFFINITY PREDICTED BY RF-SCORE:    0.00 PKD
ROOT
HETATM    1  C   UNL     1     -10.343  16.350  66.497  1.00  0.00    -0.306 C  
HETATM    2  C   UNL     1     -10.760  15.266  67.543  1.00  0.00    -0.285 C  
HETATM    3  C   UNL     1      -8.907  15.870  66.762  1.00  0.00    -0.262 C  
HETATM    4  N   UNL     1      -9.320  14.888  67.616  1.00  0.00    -0.190 N  
HETATM    5  C   UNL     1     -11.515  13.972  67.221  1.00  0.00    -0.372 C  
HETATM    6  O   UNL     1      -6.837  13.750  67.581  1.00  0.00    -0.161 OA 
HETATM    7  O   UNL     1      -7.788  16.115  66.380  1.00  0.00    -0.265 OA 
HETATM    8  C   UNL     1      -9.196  13.551  67.263  1.00  0.00    -0.233 C  
HETATM    9  O   UNL     1      -7.612  11.751  66.926  1.00  0.00    -0.152 OA 
HETATM   10  C   UNL     1      -7.837  12.918  67.205  1.00  0.00    -0.131 C  
HETATM   11  C   UNL     1     -10.392  12.975  67.032  1.00  0.00    -0.247 C  
HETATM   12  C   UNL     1     -12.474  14.152  66.053  1.00  0.00    -0.454 C  
ENDROOT
BRANCH   1  13
HETATM   13  C   UNL     1     -10.642  17.788  66.876  1.00  0.00    -0.244 C  
HETATM   14  C   UNL     1     -10.216  18.059  68.312  1.00  0.00    -0.402 C  
HETATM   15  O   UNL     1      -9.889  18.648  66.028  1.00  0.00    -0.489 OA 
HETATM   16  H   UNL     1     -10.076  19.548  66.266  1.00  0.00     0.000 HD 
ENDBRANCH   1  13
BRANCH  11  17
HETATM   17  S   UNL     1     -10.718  11.378  66.479  1.00  0.00    -0.276 SA 
BRANCH  17  18
HETATM   18  C   UNL     1     -10.966  10.379  67.995  1.00  0.00    -0.291 C  
HETATM   19  C   UNL     1     -10.065  10.683  69.185  1.00  0.00    -0.216 C  
HETATM   20  N   UNL     1      -8.931   9.785  69.020  1.00  0.00    -0.145 NA 
HETATM   21  H   UNL     1      -8.416   9.637  69.888  1.00  0.00     0.000 HD 
HETATM   22  C   UNL     1      -9.431   8.522  68.427  1.00  0.00    -0.135 C  
HETATM   23  C   UNL     1     -10.773   8.884  67.785  1.00  0.00    -0.204 C  
BRANCH  22  24
HETATM   24  C   UNL     1      -8.358   7.933  67.465  1.00  0.00    -0.124 C  
HETATM   25  O   UNL     1      -7.562   8.677  66.876  1.00  0.00    -0.083 OA 
HETATM   26  N   UNL     1      -8.273   6.554  67.316  1.00  0.00    -0.113 N  
HETATM   27  C   UNL     1      -9.075   5.566  68.021  1.00  0.00    -0.108 C  
HETATM   28  C   UNL     1      -7.307   6.001  66.375  1.00  0.00    -0.081 C  
ENDBRANCH  22  24
ENDBRANCH  17  18
ENDBRANCH  11  17
TORSDOF 4
ENDMDL
MODEL      101
REMARK 921   NORMALIZED FREE ENERGY PREDICTED BY IDOCK:   -4.88 KCAL/MOL
REMARK 922        TOTAL FREE ENERGY PREDICTED BY IDOCK:   -6.99 KCAL/MOL
REMARK 923 INTER-LIGAND FREE ENERGY PREDICTED BY IDOCK:   -6.14 KCAL/MOL
REMARK 924 INTRA-LIGAND FREE ENERGY PREDICTED BY IDOCK:   -0.85 KCAL/MOL
REMARK 927      BINDING AFFINITY PREDICTED BY RF-SCORE:    0.00 PKD
ROOT
HETATM    1  C   UNL     1     -10.417   6.386  67.138  1.00  0.00    -0.342 C  
HETATM    2  C   UNL     1      -9.022   7.081  67.238  1.00  0.00    -0.119 C  
HETATM    3  C   UNL     1     -10.334   6.283  68.669  1.00  0.00    -0.206 C  
HETATM    4  N   UNL     1      -9.148   6.957  68.718  1.00  0.00    -0.133 N  
HETATM    5  C   UNL     1      -8.751   8.564  66.965  1.00  0.00    -0.132 C  
HETATM    6  O   UNL     1      -9.362   7.233  71.427  1.00  0.00    -0.150 OA 
HETATM    7  O   UNL     1     -11.006   5.874  69.586  1.00  0.00    -0.347 OA 
HETATM    8  C   UNL     1      -9.083   8.229  69.275  1.00  0.00    -0.151 C  
HETATM    9  O   UNL     1      -9.176   9.465  71.353  1.00  0.00    -0.277 OA 
HETATM   10  C   UNL     1      -9.233   8.402  70.757  1.00  0.00    -0.159 C  
HETATM   11  C   UNL     1      -8.858   9.177  68.344  1.00  0.00    -0.129 C  
HETATM   12  C   UNL     1      -9.680   9.121  65.896  1.00  0.00    -0.336 C  
ENDROOT
BRANCH   1  13
HETATM   13  C   UNL     1     -10.451   5.069  66.387  1.00  0.00    -0.300 C  
HETATM   14  C   UNL     1      -9.438   5.078  65.250  1.00  0.00    -0.062 C  
HETATM   15  O   UNL     1     -10.091   4.024  67.283  1.00  0.00    -0.185 OA 
HETATM   16  H   UNL     1     -10.112   3.200  66.813  1.00  0.00     0.000 HD 
ENDBRANCH   1  13
BRANCH  11  17
HETATM   17  S   UNL     1      -8.799  10.884  68.556  1.00  0.00    -0.158 SA 
BRANCH  17  18
HETATM   18  C   UNL     1     -10.489  11.369  69.072  1.00  0.00    -0.168 C  
HETATM   19  C   UNL     1     -11.653  10.790  68.279  1.00  0.00    -0.221 C  
HETATM   20  N   UNL     1     -11.906  11.773  67.235  1.00  0.00    -0.624 NA 
HETATM   21  H   UNL     1     -12.842  11.693  66.835  1.00  0.00     0.000 HD 
HETATM   22  C   UNL     1     -11.636  13.117  67.798  1.00  0.00    -0.337 C  
HETATM   23  C   UNL     1     -10.742  12.869  69.016  1.00  0.00    -0.132 C  
BRANCH  22  24
HETATM   24  C   UNL     1     -11.036  14.038  66.695  1.00  0.00    -0.300 C  
HETATM   25  O   UNL     1     -10.683  13.568  65.605  1.00  0.00    -0.274 OA 
HETATM   26  N   UNL     1     -10.948  15.404  66.934  1.00  0.00    -0.315 N  
HETATM   27  C   UNL     1     -11.417  16.096  68.124  1.00  0.00    -0.220 C  
HETATM   28  C   UNL     1     -10.338  16.261  65.926  1.00  0.00    -0.365 C  
ENDBRANCH  22  24
ENDBRANCH  17  18
ENDBRANCH  11  17
TORSDOF 4
ENDMDL
MODEL      102
REMARK 921   NORMALIZED FREE ENERGY PREDICTED BY IDOCK:   -4.83 KCAL/MOL
REMARK 922        TOTAL FREE ENERGY PREDICTED BY IDOCK:   -6.92 KCAL/MOL
REMARK 923 INTER-LIGAND FREE ENERGY PREDICTED BY IDOCK:   -5.88 KCAL/MOL
REMARK 924 INTRA-LIGAND FREE ENERGY PREDICTED BY IDOCK:   -1.05 KCAL/MOL
REMARK 927      BINDING AFFINITY PREDICTED BY RF-SCORE:    0.00 PKD
ROOT
HETATM    1  C   UNL     1     -10.433  14.712  67.420  1.00  0.00    -0.255 C  
HETATM    2  C   UNL     1     -10.129  13.680  68.554  1.00  0.00    -0.219 C  
HETATM    3  C   UNL     1      -8.906  14.811  67.275  1.00  0.00    -0.204 C  
HETATM    4  N   UNL     1      -8.686  13.853  68.222  1.00  0.00    -0.179 N  
HETATM    5  C   UNL     1     -10.398  12.174  68.473  1.00  0.00    -0.233 C  
HETATM    6  O   UNL     1      -6.057  13.680  67.502  1.00  0.00    -0.294 OA 
HETATM    7  O   UNL     1      -8.099  15.393  66.591  1.00  0.00    -0.225 OA 
HETATM    8  C   UNL     1      -8.164  12.616  67.864  1.00  0.00    -0.170 C  
HETATM    9  O   UNL     1      -6.165  11.475  67.116  1.00  0.00    -0.091 OA 
HETATM   10  C   UNL     1      -6.732  12.508  67.433  1.00  0.00    -0.147 C  
HETATM   11  C   UNL     1      -9.073  11.629  67.987  1.00  0.00    -0.177 C  
HETATM   12  C   UNL     1     -11.620  11.863  67.621  1.00  0.00    -0.382 C  
ENDROOT
BRANCH   1  13
HETATM   13  C   UNL     1     -11.141  15.983  67.852  1.00  0.00    -0.307 C  
HETATM   14  C   UNL     1     -11.670  15.841  69.273  1.00  0.00    -0.384 C  
HETATM   15  O   UNL     1     -10.203  17.053  67.840  1.00  0.00    -0.289 OA 
HETATM   16  H   UNL     1     -10.646  17.848  68.110  1.00  0.00     0.000 HD 
ENDBRANCH   1  13
BRANCH  11  17
HETATM   17  S   UNL     1      -8.905   9.968  67.567  1.00  0.00    -0.127 SA 
BRANCH  17  18
HETATM   18  C   UNL     1      -8.007   9.200  68.966  1.00  0.00    -0.101 C  
HETATM   19  C   UNL     1      -7.477   7.787  68.763  1.00  0.00    -0.096 C  
HETATM   20  N   UNL     1      -8.550   6.925  69.239  1.00  0.00    -0.132 NA 
HETATM   21  H   UNL     1      -8.227   5.985  69.470  1.00  0.00     0.000 HD 
HETATM   22  C   UNL     1      -9.208   7.603  70.381  1.00  0.00    -0.156 C  
HETATM   23  C   UNL     1      -8.835   9.081  70.238  1.00  0.00    -0.210 C  
BRANCH  22  24
HETATM   24  C   UNL     1     -10.732   7.285  70.372  1.00  0.00    -0.236 C  
HETATM   25  O   UNL     1     -11.279   6.847  69.351  1.00  0.00    -0.228 OA 
HETATM   26  N   UNL     1     -11.460   7.453  71.544  1.00  0.00    -0.256 N  
HETATM   27  C   UNL     1     -10.925   7.862  72.833  1.00  0.00    -0.388 C  
HETATM   28  C   UNL     1     -12.897   7.209  71.526  1.00  0.00    -0.391 C  
ENDBRANCH  22  24
ENDBRANCH  17  18
ENDBRANCH  11  17
TORSDOF 4
ENDMDL
MODEL      103
REMARK 921   NORMALIZED FREE ENERGY PREDICTED BY IDOCK:   -4.82 KCAL/MOL
REMARK 922        TOTAL FREE ENERGY PREDICTED BY IDOCK:   -6.91 KCAL/MOL
REMARK 923 INTER-LIGAND FREE ENERGY PREDICTED BY IDOCK:   -6.48 KCAL/MOL
REMARK 924 INTRA-LIGAND FREE ENERGY PREDICTED BY IDOCK:   -0.43 KCAL/MOL
REMARK 927      BINDING AFFINITY PREDICTED BY RF-SCORE:    0.00 PKD
ROOT
HETATM    1  C   UNL     1      -8.444  18.683  66.951  1.00  0.00    -0.277 C  
HETATM    2  C   UNL     1      -9.478  17.699  67.586  1.00  0.00    -0.258 C  
HETATM    3  C   UNL     1      -7.380  17.756  67.559  1.00  0.00    -0.198 C  
HETATM    4  N   UNL     1      -8.315  16.883  68.037  1.00  0.00    -0.199 N  
HETATM    5  C   UNL     1     -10.382  16.741  66.804  1.00  0.00    -0.293 C  
HETATM    6  O   UNL     1      -6.381  15.030  68.572  1.00  0.00    -0.085 OA 
HETATM    7  O   UNL     1      -6.176  17.668  67.603  1.00  0.00    -0.155 OA 
HETATM    8  C   UNL     1      -8.432  15.610  67.494  1.00  0.00    -0.167 C  
HETATM    9  O   UNL     1      -7.371  13.440  67.340  1.00  0.00    -0.163 OA 
HETATM   10  C   UNL     1      -7.363  14.590  67.749  1.00  0.00    -0.175 C  
HETATM   11  C   UNL     1      -9.573  15.462  66.793  1.00  0.00    -0.241 C  
HETATM   12  C   UNL     1     -10.775  17.313  65.450  1.00  0.00    -0.074 C  
ENDROOT
BRANCH   1  13
HETATM   13  C   UNL     1      -8.465  20.104  67.482  1.00  0.00    -0.335 C  
HETATM   14  C   UNL     1      -7.157  20.812  67.160  1.00  0.00    -0.404 C  
HETATM   15  O   UNL     1      -9.516  20.815  66.836  1.00  0.00    -0.644 OA 
HETATM   16  H   UNL     1      -9.529  21.704  67.168  1.00  0.00     0.000 HD 
ENDBRANCH   1  13
BRANCH  11  17
HETATM   17  S   UNL     1     -10.090  14.102  65.874  1.00  0.00    -0.323 SA 
BRANCH  17  18
HETATM   18  C   UNL     1     -11.441  13.340  66.850  1.00  0.00    -0.338 C  
HETATM   19  C   UNL     1     -11.581  13.774  68.303  1.00  0.00    -0.338 C  
HETATM   20  N   UNL     1     -10.774  12.818  69.047  1.00  0.00    -0.415 NA 
HETATM   21  H   UNL     1     -11.025  12.775  70.036  1.00  0.00     0.000 HD 
HETATM   22  C   UNL     1     -10.882  11.504  68.370  1.00  0.00    -0.211 C  
HETATM   23  C   UNL     1     -11.349  11.823  66.947  1.00  0.00    -0.386 C  
BRANCH  22  24
HETATM   24  C   UNL     1      -9.528  10.742  68.483  1.00  0.00    -0.181 C  
HETATM   25  O   UNL     1      -8.565  11.253  69.069  1.00  0.00    -0.098 OA 
HETATM   26  N   UNL     1      -9.434   9.458  67.959  1.00  0.00    -0.133 N  
HETATM   27  C   UNL     1     -10.513   8.706  67.339  1.00  0.00    -0.281 C  
HETATM   28  C   UNL     1      -8.154   8.764  68.015  1.00  0.00    -0.107 C  
ENDBRANCH  22  24
ENDBRANCH  17  18
ENDBRANCH  11  17
TORSDOF 4
ENDMDL
MODEL      104
REMARK 921   NORMALIZED FREE ENERGY PREDICTED BY IDOCK:   -4.81 KCAL/MOL
REMARK 922        TOTAL FREE ENERGY PREDICTED BY IDOCK:   -6.91 KCAL/MOL
REMARK 923 INTER-LIGAND FREE ENERGY PREDICTED BY IDOCK:   -5.93 KCAL/MOL
REMARK 924 INTRA-LIGAND FREE ENERGY PREDICTED BY IDOCK:   -0.98 KCAL/MOL
REMARK 927      BINDING AFFINITY PREDICTED BY RF-SCORE:    0.00 PKD
ROOT
HETATM    1  C   UNL     1     -13.434  13.900  71.329  1.00  0.00    -0.268 C  
HETATM    2  C   UNL     1     -12.123  13.053  71.264  1.00  0.00     0.282 C  
HETATM    3  C   UNL     1     -12.731  14.832  70.329  1.00  0.00    -0.276 C  
HETATM    4  N   UNL     1     -11.632  14.026  70.247  1.00  0.00    -0.219 N  
HETATM    5  C   UNL     1     -11.995  11.671  70.615  1.00  0.00    -0.356 C  
HETATM    6  O   UNL     1     -10.720  15.412  68.077  1.00  0.00    -0.263 OA 
HETATM    7  O   UNL     1     -12.967  15.848  69.720  1.00  0.00     0.007 OA 
HETATM    8  C   UNL     1     -11.351  13.336  69.075  1.00  0.00    -0.285 C  
HETATM    9  O   UNL     1     -10.590  13.581  66.790  1.00  0.00    -0.269 OA 
HETATM   10  C   UNL     1     -10.882  14.084  67.863  1.00  0.00    -0.244 C  
HETATM   11  C   UNL     1     -11.530  12.008  69.215  1.00  0.00    -0.301 C  
HETATM   12  C   UNL     1     -13.282  10.869  70.734  1.00  0.00    -0.046 C  
ENDROOT
BRANCH   1  13
HETATM   13  C   UNL     1     -13.766  14.508  72.679  1.00  0.00    -0.440 C  
HETATM   14  C   UNL     1     -12.506  14.661  73.518  1.00  0.00    -0.420 C  
HETATM   15  O   UNL     1     -14.312  15.805  72.472  1.00  0.00    -0.528 OA 
HETATM   16  H   UNL     1     -14.520  16.185  73.317  1.00  0.00     0.000 HD 
ENDBRANCH   1  13
BRANCH  11  17
HETATM   17  S   UNL     1     -11.399  10.782  68.013  1.00  0.00    -0.258 SA 
BRANCH  17  18
HETATM   18  C   UNL     1      -9.692  10.134  68.164  1.00  0.00    -0.139 C  
HETATM   19  C   UNL     1      -9.391   8.801  67.492  1.00  0.00    -0.136 C  
HETATM   20  N   UNL     1      -9.645   7.807  68.525  1.00  0.00    -0.148 NA 
HETATM   21  H   UNL     1      -9.185   6.916  68.338  1.00  0.00     0.000 HD 
HETATM   22  C   UNL     1      -9.253   8.393  69.829  1.00  0.00    -0.157 C  
HETATM   23  C   UNL     1      -9.245   9.907  69.601  1.00  0.00    -0.246 C  
BRANCH  22  24
HETATM   24  C   UNL     1     -10.213   7.882  70.944  1.00  0.00    -0.198 C  
HETATM   25  O   UNL     1     -11.300   7.366  70.653  1.00  0.00    -0.273 OA 
HETATM   26  N   UNL     1      -9.807   7.967  72.270  1.00  0.00    -0.213 N  
HETATM   27  C   UNL     1      -8.520   8.455  72.742  1.00  0.00    -0.155 C  
HETATM   28  C   UNL     1     -10.723   7.540  73.320  1.00  0.00    -0.382 C  
ENDBRANCH  22  24
ENDBRANCH  17  18
ENDBRANCH  11  17
TORSDOF 4
ENDMDL
MODEL      105
REMARK 921   NORMALIZED FREE ENERGY PREDICTED BY IDOCK:   -4.81 KCAL/MOL
REMARK 922        TOTAL FREE ENERGY PREDICTED BY IDOCK:   -6.90 KCAL/MOL
REMARK 923 INTER-LIGAND FREE ENERGY PREDICTED BY IDOCK:   -5.89 KCAL/MOL
REMARK 924 INTRA-LIGAND FREE ENERGY PREDICTED BY IDOCK:   -1.02 KCAL/MOL
REMARK 927      BINDING AFFINITY PREDICTED BY RF-SCORE:    0.00 PKD
ROOT
HETATM    1  C   UNL     1      -7.783   9.584  66.562  1.00  0.00    -0.097 C  
HETATM    2  C   UNL     1      -7.250   8.167  66.949  1.00  0.00    -0.083 C  
HETATM    3  C   UNL     1      -9.140   8.886  66.386  1.00  0.00    -0.174 C  
HETATM    4  N   UNL     1      -8.651   7.680  66.798  1.00  0.00    -0.125 N  
HETATM    5  C   UNL     1      -6.810   7.742  68.354  1.00  0.00    -0.067 C  
HETATM    6  O   UNL     1     -11.180   6.672  67.008  1.00  0.00    -0.404 OA 
HETATM    7  O   UNL     1     -10.275   9.177  66.090  1.00  0.00    -0.272 OA 
HETATM    8  C   UNL     1      -9.060   7.130  68.006  1.00  0.00    -0.132 C  
HETATM    9  O   UNL     1     -10.916   6.084  69.156  1.00  0.00    -0.328 OA 
HETATM   10  C   UNL     1     -10.456   6.603  68.151  1.00  0.00    -0.214 C  
HETATM   11  C   UNL     1      -8.072   7.131  68.923  1.00  0.00    -0.121 C  
HETATM   12  C   UNL     1      -6.201   8.901  69.131  1.00  0.00    -0.043 C  
ENDROOT
BRANCH   1  13
HETATM   13  C   UNL     1      -7.186  10.199  65.310  1.00  0.00    -0.141 C  
HETATM   14  C   UNL     1      -6.959   9.130  64.249  1.00  0.00    -0.091 C  
HETATM   15  O   UNL     1      -8.109  11.146  64.784  1.00  0.00    -0.344 OA 
HETATM   16  H   UNL     1      -7.736  11.530  64.000  1.00  0.00     0.000 HD 
ENDBRANCH   1  13
BRANCH  11  17
HETATM   17  S   UNL     1      -8.147   6.643  70.572  1.00  0.00    -0.118 SA 
BRANCH  17  18
HETATM   18  C   UNL     1      -8.478   8.177  71.518  1.00  0.00    -0.127 C  
HETATM   19  C   UNL     1      -8.486   8.070  73.037  1.00  0.00    -0.193 C  
HETATM   20  N   UNL     1      -9.877   7.800  73.375  1.00  0.00    -0.304 NA 
HETATM   21  H   UNL     1     -10.098   8.024  74.346  1.00  0.00     0.000 HD 
HETATM   22  C   UNL     1     -10.732   8.529  72.408  1.00  0.00    -0.306 C  
HETATM   23  C   UNL     1      -9.826   8.813  71.207  1.00  0.00    -0.336 C  
BRANCH  22  24
HETATM   24  C   UNL     1     -12.013   7.696  72.108  1.00  0.00    -0.302 C  
HETATM   25  O   UNL     1     -11.987   6.459  72.158  1.00  0.00    -0.325 OA 
HETATM   26  N   UNL     1     -13.200   8.364  71.832  1.00  0.00    -0.345 N  
HETATM   27  C   UNL     1     -13.391   9.806  71.841  1.00  0.00    -0.436 C  
HETATM   28  C   UNL     1     -14.387   7.589  71.497  1.00  0.00    -0.458 C  
ENDBRANCH  22  24
ENDBRANCH  17  18
ENDBRANCH  11  17
TORSDOF 4
ENDMDL
MODEL      106
REMARK 921   NORMALIZED FREE ENERGY PREDICTED BY IDOCK:   -4.79 KCAL/MOL
REMARK 922        TOTAL FREE ENERGY PREDICTED BY IDOCK:   -6.89 KCAL/MOL
REMARK 923 INTER-LIGAND FREE ENERGY PREDICTED BY IDOCK:   -6.12 KCAL/MOL
REMARK 924 INTRA-LIGAND FREE ENERGY PREDICTED BY IDOCK:   -0.76 KCAL/MOL
REMARK 927      BINDING AFFINITY PREDICTED BY RF-SCORE:    0.00 PKD
ROOT
HETATM    1  C   UNL     1     -12.118  13.475  68.471  1.00  0.00    -0.303 C  
HETATM    2  C   UNL     1     -10.784  12.691  68.689  1.00  0.00    -0.242 C  
HETATM    3  C   UNL     1     -11.713  13.498  66.989  1.00  0.00    -0.383 C  
HETATM    4  N   UNL     1     -10.593  12.751  67.212  1.00  0.00    -0.232 N  
HETATM    5  C   UNL     1     -10.680  11.209  69.064  1.00  0.00    -0.265 C  
HETATM    6  O   UNL     1     -10.263  12.359  64.529  1.00  0.00    -0.301 OA 
HETATM    7  O   UNL     1     -12.152  13.903  65.938  1.00  0.00    -0.384 OA 
HETATM    8  C   UNL     1     -10.504  11.453  66.726  1.00  0.00    -0.244 C  
HETATM    9  O   UNL     1     -10.252  10.125  64.718  1.00  0.00    -0.296 OA 
HETATM   10  C   UNL     1     -10.357  11.217  65.252  1.00  0.00    -0.280 C  
HETATM   11  C   UNL     1     -10.543  10.538  67.715  1.00  0.00    -0.243 C  
HETATM   12  C   UNL     1     -11.846  10.763  69.934  1.00  0.00    -0.413 C  
ENDROOT
BRANCH   1  13
HETATM   13  C   UNL     1     -12.214  14.827  69.153  1.00  0.00    -0.173 C  
HETATM   14  C   UNL     1     -11.552  14.779  70.524  1.00  0.00    -0.333 C  
HETATM   15  O   UNL     1     -11.515  15.784  68.365  1.00  0.00    -0.362 OA 
HETATM   16  H   UNL     1     -11.576  16.630  68.793  1.00  0.00     0.000 HD 
ENDBRANCH   1  13
BRANCH  11  17
HETATM   17  S   UNL     1     -10.562   8.822  67.579  1.00  0.00    -0.161 SA 
BRANCH  17  18
HETATM   18  C   UNL     1     -10.006   8.199  69.210  1.00  0.00    -0.188 C  
HETATM   19  C   UNL     1      -8.505   8.060  69.428  1.00  0.00    -0.132 C  
HETATM   20  N   UNL     1      -8.205   6.693  69.027  1.00  0.00    -0.116 NA 
HETATM   21  H   UNL     1      -7.326   6.351  69.416  1.00  0.00     0.000 HD 
HETATM   22  C   UNL     1      -9.363   5.844  69.395  1.00  0.00    -0.130 C  
HETATM   23  C   UNL     1     -10.537   6.814  69.552  1.00  0.00    -0.265 C  
BRANCH  22  24
HETATM   24  C   UNL     1      -9.550   4.722  68.332  1.00  0.00    -0.151 C  
HETATM   25  O   UNL     1      -9.993   4.986  67.207  1.00  0.00    -0.165 OA 
HETATM   26  N   UNL     1      -9.164   3.424  68.650  1.00  0.00    -0.155 N  
HETATM   27  C   UNL     1      -8.540   2.998  69.892  1.00  0.00    -0.061 C  
HETATM   28  C   UNL     1      -9.388   2.362  67.678  1.00  0.00    -0.145 C  
ENDBRANCH  22  24
ENDBRANCH  17  18
ENDBRANCH  11  17
TORSDOF 4
ENDMDL
MODEL      107
REMARK 921   NORMALIZED FREE ENERGY PREDICTED BY IDOCK:   -4.79 KCAL/MOL
REMARK 922        TOTAL FREE ENERGY PREDICTED BY IDOCK:   -6.89 KCAL/MOL
REMARK 923 INTER-LIGAND FREE ENERGY PREDICTED BY IDOCK:   -5.74 KCAL/MOL
REMARK 924 INTRA-LIGAND FREE ENERGY PREDICTED BY IDOCK:   -1.15 KCAL/MOL
REMARK 927      BINDING AFFINITY PREDICTED BY RF-SCORE:    0.00 PKD
ROOT
HETATM    1  C   UNL     1      -9.531   5.516  66.417  1.00  0.00    -0.167 C  
HETATM    2  C   UNL     1      -8.282   6.381  66.782  1.00  0.00    -0.110 C  
HETATM    3  C   UNL     1     -10.094   5.987  67.766  1.00  0.00    -0.156 C  
HETATM    4  N   UNL     1      -9.015   6.787  68.015  1.00  0.00    -0.119 N  
HETATM    5  C   UNL     1      -7.877   7.686  66.089  1.00  0.00    -0.096 C  
HETATM    6  O   UNL     1     -10.328   7.995  70.083  1.00  0.00    -0.206 OA 
HETATM    7  O   UNL     1     -11.098   5.852  68.424  1.00  0.00    -0.268 OA 
HETATM    8  C   UNL     1      -9.149   8.169  68.014  1.00  0.00    -0.133 C  
HETATM    9  O   UNL     1     -10.059  10.052  69.234  1.00  0.00    -0.188 OA 
HETATM   10  C   UNL     1      -9.896   8.847  69.124  1.00  0.00    -0.180 C  
HETATM   11  C   UNL     1      -8.528   8.737  66.961  1.00  0.00    -0.109 C  
HETATM   12  C   UNL     1      -8.260   7.686  64.616  1.00  0.00    -0.067 C  
ENDROOT
BRANCH   1  13
HETATM   13  C   UNL     1      -9.289   4.023  66.285  1.00  0.00    -0.174 C  
HETATM   14  C   UNL     1      -7.797   3.730  66.212  1.00  0.00    -0.089 C  
HETATM   15  O   UNL     1      -9.805   3.376  67.442  1.00  0.00    -0.298 OA 
HETATM   16  H   UNL     1      -9.654   2.442  67.359  1.00  0.00     0.000 HD 
ENDBRANCH   1  13
BRANCH  11  17
HETATM   17  S   UNL     1      -8.511  10.396  66.501  1.00  0.00    -0.135 SA 
BRANCH  17  18
HETATM   18  C   UNL     1     -10.127  10.694  65.691  1.00  0.00    -0.272 C  
HETATM   19  C   UNL     1     -10.112  11.009  64.202  1.00  0.00    -0.344 C  
HETATM   20  N   UNL     1     -10.039  12.462  64.139  1.00  0.00    -0.514 NA 
HETATM   21  H   UNL     1     -10.346  12.834  63.240  1.00  0.00     0.000 HD 
HETATM   22  C   UNL     1     -10.810  13.009  65.280  1.00  0.00    -0.291 C  
HETATM   23  C   UNL     1     -10.907  11.858  66.286  1.00  0.00    -0.323 C  
BRANCH  22  24
HETATM   24  C   UNL     1     -10.127  14.308  65.801  1.00  0.00    -0.335 C  
HETATM   25  O   UNL     1      -9.167  14.246  66.579  1.00  0.00    -0.270 OA 
HETATM   26  N   UNL     1     -10.582  15.537  65.338  1.00  0.00    -0.380 N  
HETATM   27  C   UNL     1     -11.629  15.746  64.351  1.00  0.00    -0.240 C  
HETATM   28  C   UNL     1      -9.982  16.757  65.864  1.00  0.00    -0.276 C  
ENDBRANCH  22  24
ENDBRANCH  17  18
ENDBRANCH  11  17
TORSDOF 4
ENDMDL
MODEL      108
REMARK 921   NORMALIZED FREE ENERGY PREDICTED BY IDOCK:   -4.78 KCAL/MOL
REMARK 922        TOTAL FREE ENERGY PREDICTED BY IDOCK:   -6.87 KCAL/MOL
REMARK 923 INTER-LIGAND FREE ENERGY PREDICTED BY IDOCK:   -5.84 KCAL/MOL
REMARK 924 INTRA-LIGAND FREE ENERGY PREDICTED BY IDOCK:   -1.03 KCAL/MOL
REMARK 927      BINDING AFFINITY PREDICTED BY RF-SCORE:    0.00 PKD
ROOT
HETATM    1  C   UNL     1     -10.835  15.243  66.911  1.00  0.00    -0.317 C  
HETATM    2  C   UNL     1      -9.823  14.260  67.582  1.00  0.00    -0.224 C  
HETATM    3  C   UNL     1     -10.533  14.471  65.618  1.00  0.00    -0.336 C  
HETATM    4  N   UNL     1      -9.710  13.588  66.256  1.00  0.00    -0.289 N  
HETATM    5  C   UNL     1     -10.192  13.156  68.579  1.00  0.00    -0.218 C  
HETATM    6  O   UNL     1      -9.687  11.954  64.067  1.00  0.00    -0.232 OA 
HETATM    7  O   UNL     1     -10.874  14.479  64.459  1.00  0.00    -0.351 OA 
HETATM    8  C   UNL     1     -10.084  12.258  66.403  1.00  0.00    -0.226 C  
HETATM    9  O   UNL     1     -10.403  10.170  65.220  1.00  0.00    -0.266 OA 
HETATM   10  C   UNL     1     -10.109  11.355  65.205  1.00  0.00    -0.268 C  
HETATM   11  C   UNL     1     -10.363  11.949  67.684  1.00  0.00    -0.200 C  
HETATM   12  C   UNL     1     -11.386  13.547  69.437  1.00  0.00    -0.293 C  
ENDROOT
BRANCH   1  13
HETATM   13  C   UNL     1     -10.439  16.708  66.915  1.00  0.00    -0.271 C  
HETATM   14  C   UNL     1      -9.640  17.040  68.168  1.00  0.00    -0.266 C  
HETATM   15  O   UNL     1      -9.606  16.957  65.789  1.00  0.00    -0.515 OA 
HETATM   16  H   UNL     1      -9.358  17.874  65.792  1.00  0.00     0.000 HD 
ENDBRANCH   1  13
BRANCH  11  17
HETATM   17  S   UNL     1     -10.955  10.461  68.317  1.00  0.00    -0.271 SA 
BRANCH  17  18
HETATM   18  C   UNL     1      -9.746   9.963  69.600  1.00  0.00    -0.229 C  
HETATM   19  C   UNL     1      -8.290  10.345  69.371  1.00  0.00    -0.142 C  
HETATM   20  N   UNL     1      -7.720   9.201  68.674  1.00  0.00    -0.091 NA 
HETATM   21  H   UNL     1      -6.702   9.164  68.742  1.00  0.00     0.000 HD 
HETATM   22  C   UNL     1      -8.374   7.976  69.193  1.00  0.00    -0.132 C  
HETATM   23  C   UNL     1      -9.680   8.460  69.831  1.00  0.00    -0.179 C  
BRANCH  22  24
HETATM   24  C   UNL     1      -8.526   6.935  68.045  1.00  0.00    -0.124 C  
HETATM   25  O   UNL     1      -8.865   7.294  66.910  1.00  0.00    -0.124 OA 
HETATM   26  N   UNL     1      -8.227   5.603  68.303  1.00  0.00    -0.103 N  
HETATM   27  C   UNL     1      -7.724   5.066  69.558  1.00  0.00    -0.067 C  
HETATM   28  C   UNL     1      -8.419   4.617  67.247  1.00  0.00    -0.104 C  
ENDBRANCH  22  24
ENDBRANCH  17  18
ENDBRANCH  11  17
TORSDOF 4
ENDMDL
MODEL      109
REMARK 921   NORMALIZED FREE ENERGY PREDICTED BY IDOCK:   -4.78 KCAL/MOL
REMARK 922        TOTAL FREE ENERGY PREDICTED BY IDOCK:   -6.87 KCAL/MOL
REMARK 923 INTER-LIGAND FREE ENERGY PREDICTED BY IDOCK:   -6.64 KCAL/MOL
REMARK 924 INTRA-LIGAND FREE ENERGY PREDICTED BY IDOCK:   -0.23 KCAL/MOL
REMARK 927      BINDING AFFINITY PREDICTED BY RF-SCORE:    0.00 PKD
ROOT
HETATM    1  C   UNL     1      -9.692   7.488  68.250  1.00  0.00    -0.163 C  
HETATM    2  C   UNL     1     -10.079   8.365  67.016  1.00  0.00    -0.284 C  
HETATM    3  C   UNL     1      -8.280   7.483  67.643  1.00  0.00    -0.118 C  
HETATM    4  N   UNL     1      -8.643   8.310  66.619  1.00  0.00    -0.125 N  
HETATM    5  C   UNL     1     -10.440   9.854  67.068  1.00  0.00    -0.296 C  
HETATM    6  O   UNL     1      -6.025   8.706  65.948  1.00  0.00    -0.047 OA 
HETATM    7  O   UNL     1      -7.186   7.042  67.903  1.00  0.00    -0.086 OA 
HETATM    8  C   UNL     1      -8.152   9.607  66.554  1.00  0.00    -0.119 C  
HETATM    9  O   UNL     1      -6.176  10.936  66.119  1.00  0.00    -0.123 OA 
HETATM   10  C   UNL     1      -6.709   9.843  66.221  1.00  0.00    -0.090 C  
HETATM   11  C   UNL     1      -9.111  10.524  66.792  1.00  0.00    -0.151 C  
HETATM   12  C   UNL     1     -11.134  10.222  68.371  1.00  0.00    -0.302 C  
ENDROOT
BRANCH   1  13
HETATM   13  C   UNL     1     -10.377   6.138  68.346  1.00  0.00    -0.200 C  
HETATM   14  C   UNL     1     -11.341   6.113  69.523  1.00  0.00    -0.426 C  
HETATM   15  O   UNL     1     -11.132   5.926  67.158  1.00  0.00    -0.494 OA 
HETATM   16  H   UNL     1     -11.560   5.080  67.218  1.00  0.00     0.000 HD 
ENDBRANCH   1  13
BRANCH  11  17
HETATM   17  S   UNL     1      -8.946  12.233  66.911  1.00  0.00    -0.206 SA 
BRANCH  17  18
HETATM   18  C   UNL     1     -10.488  12.921  66.198  1.00  0.00    -0.269 C  
HETATM   19  C   UNL     1     -10.482  13.247  64.710  1.00  0.00    -0.384 C  
HETATM   20  N   UNL     1     -10.066  14.641  64.645  1.00  0.00    -0.557 NA 
HETATM   21  H   UNL     1     -10.326  15.089  63.766  1.00  0.00     0.000 HD 
HETATM   22  C   UNL     1     -10.618  15.339  65.831  1.00  0.00    -0.335 C  
HETATM   23  C   UNL     1     -10.930  14.229  66.839  1.00  0.00    -0.304 C  
BRANCH  22  24
HETATM   24  C   UNL     1      -9.615  16.428  66.312  1.00  0.00    -0.311 C  
HETATM   25  O   UNL     1      -8.631  16.728  65.623  1.00  0.00    -0.415 OA 
HETATM   26  N   UNL     1      -9.870  17.096  67.504  1.00  0.00    -0.260 N  
HETATM   27  C   UNL     1     -11.036  16.915  68.354  1.00  0.00    -0.296 C  
HETATM   28  C   UNL     1      -8.906  18.078  67.985  1.00  0.00    -0.275 C  
ENDBRANCH  22  24
ENDBRANCH  17  18
ENDBRANCH  11  17
TORSDOF 4
ENDMDL
MODEL      110
REMARK 921   NORMALIZED FREE ENERGY PREDICTED BY IDOCK:   -4.78 KCAL/MOL
REMARK 922        TOTAL FREE ENERGY PREDICTED BY IDOCK:   -6.87 KCAL/MOL
REMARK 923 INTER-LIGAND FREE ENERGY PREDICTED BY IDOCK:   -5.95 KCAL/MOL
REMARK 924 INTRA-LIGAND FREE ENERGY PREDICTED BY IDOCK:   -0.91 KCAL/MOL
REMARK 927      BINDING AFFINITY PREDICTED BY RF-SCORE:    0.00 PKD
ROOT
HETATM    1  C   UNL     1      -9.919   9.047  68.942  1.00  0.00    -0.197 C  
HETATM    2  C   UNL     1     -10.067  10.075  67.774  1.00  0.00    -0.183 C  
HETATM    3  C   UNL     1      -8.443   9.474  68.960  1.00  0.00    -0.128 C  
HETATM    4  N   UNL     1      -8.631  10.412  67.986  1.00  0.00    -0.122 N  
HETATM    5  C   UNL     1     -10.825  11.404  67.859  1.00  0.00    -0.274 C  
HETATM    6  O   UNL     1      -6.170  11.489  68.483  1.00  0.00    -0.049 OA 
HETATM    7  O   UNL     1      -7.437   9.226  69.583  1.00  0.00    -0.068 OA 
HETATM    8  C   UNL     1      -8.534  11.765  68.284  1.00  0.00    -0.161 C  
HETATM    9  O   UNL     1      -6.991  13.542  68.850  1.00  0.00    -0.106 OA 
HETATM   10  C   UNL     1      -7.196  12.367  68.593  1.00  0.00    -0.104 C  
HETATM   11  C   UNL     1      -9.730  12.383  68.226  1.00  0.00    -0.218 C  
HETATM   12  C   UNL     1     -12.012  11.319  68.806  1.00  0.00    -0.350 C  
ENDROOT
BRANCH   1  13
HETATM   13  C   UNL     1     -10.184   7.595  68.586  1.00  0.00    -0.199 C  
HETATM   14  C   UNL     1     -10.835   7.494  67.214  1.00  0.00    -0.297 C  
HETATM   15  O   UNL     1      -8.940   6.907  68.531  1.00  0.00    -0.124 OA 
HETATM   16  H   UNL     1      -9.107   5.998  68.309  1.00  0.00     0.000 HD 
ENDBRANCH   1  13
BRANCH  11  17
HETATM   17  S   UNL     1     -10.105  14.018  68.610  1.00  0.00    -0.184 SA 
BRANCH  17  18
HETATM   18  C   UNL     1      -9.556  14.996  67.161  1.00  0.00    -0.217 C  
HETATM   19  C   UNL     1     -10.324  16.276  66.854  1.00  0.00    -0.299 C  
HETATM   20  N   UNL     1     -11.366  15.860  65.926  1.00  0.00     0.075 NA 
HETATM   21  H   UNL     1     -11.746  16.638  65.386  1.00  0.00     0.000 HD 
HETATM   22  C   UNL     1     -10.814  14.782  65.072  1.00  0.00    -0.425 C  
HETATM   23  C   UNL     1      -9.613  14.232  65.846  1.00  0.00    -0.227 C  
BRANCH  22  24
HETATM   24  C   UNL     1     -11.934  13.752  64.738  1.00  0.00    -0.404 C  
HETATM   25  O   UNL     1     -13.106  13.962  65.078  1.00  0.00    -0.749 OA 
HETATM   26  N   UNL     1     -11.605  12.616  64.008  1.00  0.00    -0.383 N  
HETATM   27  C   UNL     1     -10.295  12.299  63.463  1.00  0.00    -0.410 C  
HETATM   28  C   UNL     1     -12.638  11.624  63.740  1.00  0.00    -0.152 C  
ENDBRANCH  22  24
ENDBRANCH  17  18
ENDBRANCH  11  17
TORSDOF 4
ENDMDL
MODEL      111
REMARK 921   NORMALIZED FREE ENERGY PREDICTED BY IDOCK:   -4.77 KCAL/MOL
REMARK 922        TOTAL FREE ENERGY PREDICTED BY IDOCK:   -6.85 KCAL/MOL
REMARK 923 INTER-LIGAND FREE ENERGY PREDICTED BY IDOCK:   -5.73 KCAL/MOL
REMARK 924 INTRA-LIGAND FREE ENERGY PREDICTED BY IDOCK:   -1.12 KCAL/MOL
REMARK 927      BINDING AFFINITY PREDICTED BY RF-SCORE:    0.00 PKD
ROOT
HETATM    1  C   UNL     1      -9.862  15.873  68.366  1.00  0.00    -0.214 C  
HETATM    2  C   UNL     1      -8.792  15.408  67.326  1.00  0.00    -0.195 C  
HETATM    3  C   UNL     1     -10.869  15.139  67.468  1.00  0.00    -0.301 C  
HETATM    4  N   UNL     1      -9.894  14.693  66.622  1.00  0.00    -0.259 N  
HETATM    5  C   UNL     1      -7.709  14.355  67.584  1.00  0.00    -0.198 C  
HETATM    6  O   UNL     1     -11.648  12.969  65.433  1.00  0.00    -0.318 OA 
HETATM    7  O   UNL     1     -12.054  14.901  67.443  1.00  0.00    -0.246 OA 
HETATM    8  C   UNL     1      -9.577  13.342  66.563  1.00  0.00    -0.272 C  
HETATM    9  O   UNL     1     -10.362  11.175  65.823  1.00  0.00    -0.247 OA 
HETATM   10  C   UNL     1     -10.543  12.376  65.945  1.00  0.00    -0.258 C  
HETATM   11  C   UNL     1      -8.361  13.085  67.083  1.00  0.00    -0.150 C  
HETATM   12  C   UNL     1      -7.248  14.362  69.034  1.00  0.00    -0.129 C  
ENDROOT
BRANCH   1  13
HETATM   13  C   UNL     1     -10.058  17.373  68.492  1.00  0.00    -0.352 C  
HETATM   14  C   UNL     1      -8.732  18.099  68.312  1.00  0.00    -0.294 C  
HETATM   15  O   UNL     1     -10.935  17.805  67.459  1.00  0.00    -0.287 OA 
HETATM   16  H   UNL     1     -11.057  18.744  67.538  1.00  0.00     0.000 HD 
ENDBRANCH   1  13
BRANCH  11  17
HETATM   17  S   UNL     1      -7.600  11.558  67.310  1.00  0.00    -0.150 SA 
BRANCH  17  18
HETATM   18  C   UNL     1      -8.200  10.951  68.931  1.00  0.00    -0.141 C  
HETATM   19  C   UNL     1      -7.320   9.951  69.669  1.00  0.00    -0.115 C  
HETATM   20  N   UNL     1      -7.801   8.649  69.229  1.00  0.00    -0.099 NA 
HETATM   21  H   UNL     1      -7.541   7.896  69.867  1.00  0.00     0.000 HD 
HETATM   22  C   UNL     1      -9.266   8.748  69.024  1.00  0.00    -0.141 C  
HETATM   23  C   UNL     1      -9.547  10.244  68.862  1.00  0.00    -0.193 C  
BRANCH  22  24
HETATM   24  C   UNL     1      -9.690   7.846  67.827  1.00  0.00    -0.155 C  
HETATM   25  O   UNL     1      -9.229   8.043  66.695  1.00  0.00    -0.159 OA 
HETATM   26  N   UNL     1     -10.556   6.785  68.060  1.00  0.00    -0.210 N  
HETATM   27  C   UNL     1     -11.089   6.383  69.352  1.00  0.00    -0.387 C  
HETATM   28  C   UNL     1     -10.998   5.972  66.934  1.00  0.00    -0.266 C  
ENDBRANCH  22  24
ENDBRANCH  17  18
ENDBRANCH  11  17
TORSDOF 4
ENDMDL
MODEL      112
REMARK 921   NORMALIZED FREE ENERGY PREDICTED BY IDOCK:   -4.76 KCAL/MOL
REMARK 922        TOTAL FREE ENERGY PREDICTED BY IDOCK:   -6.85 KCAL/MOL
REMARK 923 INTER-LIGAND FREE ENERGY PREDICTED BY IDOCK:   -6.07 KCAL/MOL
REMARK 924 INTRA-LIGAND FREE ENERGY PREDICTED BY IDOCK:   -0.78 KCAL/MOL
REMARK 927      BINDING AFFINITY PREDICTED BY RF-SCORE:    0.00 PKD
ROOT
HETATM    1  C   UNL     1     -11.197  13.501  68.895  1.00  0.00    -0.316 C  
HETATM    2  C   UNL     1     -11.536  12.093  68.310  1.00  0.00    -0.325 C  
HETATM    3  C   UNL     1     -12.066  13.074  70.088  1.00  0.00    -0.307 C  
HETATM    4  N   UNL     1     -12.279  11.828  69.574  1.00  0.00    -0.221 N  
HETATM    5  C   UNL     1     -10.543  10.935  68.159  1.00  0.00    -0.233 C  
HETATM    6  O   UNL     1     -13.309  10.971  71.955  1.00  0.00    -0.422 OA 
HETATM    7  O   UNL     1     -12.427  13.523  71.150  1.00  0.00    -0.354 OA 
HETATM    8  C   UNL     1     -11.726  10.710  70.185  1.00  0.00    -0.332 C  
HETATM    9  O   UNL     1     -11.860   9.270  72.127  1.00  0.00    -0.328 OA 
HETATM   10  C   UNL     1     -12.256  10.245  71.509  1.00  0.00    -0.353 C  
HETATM   11  C   UNL     1     -10.748  10.158  69.441  1.00  0.00    -0.238 C  
HETATM   12  C   UNL     1      -9.133  11.433  67.879  1.00  0.00    -0.164 C  
ENDROOT
BRANCH   1  13
HETATM   13  C   UNL     1     -11.702  14.690  68.099  1.00  0.00    -0.330 C  
HETATM   14  C   UNL     1     -11.061  15.977  68.601  1.00  0.00    -0.349 C  
HETATM   15  O   UNL     1     -11.326  14.519  66.737  1.00  0.00    -0.332 OA 
HETATM   16  H   UNL     1     -11.643  15.263  66.240  1.00  0.00     0.000 HD 
ENDBRANCH   1  13
BRANCH  11  17
HETATM   17  S   UNL     1      -9.726   8.831  69.838  1.00  0.00    -0.183 SA 
BRANCH  17  18
HETATM   18  C   UNL     1     -10.652   7.334  69.332  1.00  0.00    -0.229 C  
HETATM   19  C   UNL     1     -10.857   6.253  70.384  1.00  0.00    -0.299 C  
HETATM   20  N   UNL     1      -9.718   5.361  70.216  1.00  0.00    -0.179 NA 
HETATM   21  H   UNL     1      -9.880   4.435  70.613  1.00  0.00     0.000 HD 
HETATM   22  C   UNL     1      -9.382   5.317  68.773  1.00  0.00    -0.121 C  
HETATM   23  C   UNL     1     -10.012   6.578  68.176  1.00  0.00    -0.145 C  
BRANCH  22  24
HETATM   24  C   UNL     1      -7.840   5.183  68.598  1.00  0.00    -0.079 C  
HETATM   25  O   UNL     1      -7.087   6.115  68.908  1.00  0.00    -0.076 OA 
HETATM   26  N   UNL     1      -7.319   3.980  68.134  1.00  0.00    -0.059 N  
HETATM   27  C   UNL     1      -8.080   2.779  67.831  1.00  0.00    -0.069 C  
HETATM   28  C   UNL     1      -5.882   3.869  67.917  1.00  0.00    -0.026 C  
ENDBRANCH  22  24
ENDBRANCH  17  18
ENDBRANCH  11  17
TORSDOF 4
ENDMDL
MODEL      113
REMARK 921   NORMALIZED FREE ENERGY PREDICTED BY IDOCK:   -4.75 KCAL/MOL
REMARK 922        TOTAL FREE ENERGY PREDICTED BY IDOCK:   -6.83 KCAL/MOL
REMARK 923 INTER-LIGAND FREE ENERGY PREDICTED BY IDOCK:   -5.99 KCAL/MOL
REMARK 924 INTRA-LIGAND FREE ENERGY PREDICTED BY IDOCK:   -0.85 KCAL/MOL
REMARK 927      BINDING AFFINITY PREDICTED BY RF-SCORE:    0.00 PKD
ROOT
HETATM    1  C   UNL     1      -9.892   5.895  69.751  1.00  0.00    -0.217 C  
HETATM    2  C   UNL     1      -8.847   6.372  68.692  1.00  0.00    -0.120 C  
HETATM    3  C   UNL     1      -8.956   6.546  70.781  1.00  0.00    -0.144 C  
HETATM    4  N   UNL     1      -8.104   7.006  69.818  1.00  0.00    -0.124 N  
HETATM    5  C   UNL     1      -9.075   7.484  67.663  1.00  0.00    -0.127 C  
HETATM    6  O   UNL     1      -6.832   8.598  71.637  1.00  0.00    -0.075 OA 
HETATM    7  O   UNL     1      -8.910   6.725  71.975  1.00  0.00    -0.134 OA 
HETATM    8  C   UNL     1      -7.998   8.368  69.565  1.00  0.00    -0.111 C  
HETATM    9  O   UNL     1      -7.168  10.466  70.443  1.00  0.00    -0.266 OA 
HETATM   10  C   UNL     1      -7.333   9.263  70.568  1.00  0.00    -0.116 C  
HETATM   11  C   UNL     1      -8.520   8.702  68.369  1.00  0.00    -0.131 C  
HETATM   12  C   UNL     1     -10.529   7.554  67.220  1.00  0.00    -0.391 C  
ENDROOT
BRANCH   1  13
HETATM   13  C   UNL     1     -10.072   4.393  69.876  1.00  0.00    -0.053 C  
HETATM   14  C   UNL     1      -9.191   3.666  68.870  1.00  0.00    -0.223 C  
HETATM   15  O   UNL     1      -9.667   3.994  71.180  1.00  0.00    -0.170 OA 
HETATM   16  H   UNL     1      -9.780   3.054  71.259  1.00  0.00     0.000 HD 
ENDBRANCH   1  13
BRANCH  11  17
HETATM   17  S   UNL     1      -8.697  10.272  67.684  1.00  0.00    -0.121 SA 
BRANCH  17  18
HETATM   18  C   UNL     1      -9.827  11.171  68.812  1.00  0.00    -0.192 C  
HETATM   19  C   UNL     1     -11.174  10.525  69.107  1.00  0.00    -0.256 C  
HETATM   20  N   UNL     1     -12.069  11.074  68.098  1.00  0.00    -0.780 NA 
HETATM   21  H   UNL     1     -13.052  10.996  68.358  1.00  0.00     0.000 HD 
HETATM   22  C   UNL     1     -11.654  12.472  67.831  1.00  0.00    -0.347 C  
HETATM   23  C   UNL     1     -10.207  12.561  68.323  1.00  0.00    -0.235 C  
BRANCH  22  24
HETATM   24  C   UNL     1     -11.880  12.808  66.327  1.00  0.00    -0.423 C  
HETATM   25  O   UNL     1     -12.100  11.908  65.506  1.00  0.00    -0.410 OA 
HETATM   26  N   UNL     1     -11.882  14.140  65.930  1.00  0.00    -0.370 N  
HETATM   27  C   UNL     1     -11.738  15.293  66.804  1.00  0.00     0.032 C  
HETATM   28  C   UNL     1     -12.039  14.456  64.516  1.00  0.00    -0.481 C  
ENDBRANCH  22  24
ENDBRANCH  17  18
ENDBRANCH  11  17
TORSDOF 4
ENDMDL
MODEL      114
REMARK 921   NORMALIZED FREE ENERGY PREDICTED BY IDOCK:   -4.75 KCAL/MOL
REMARK 922        TOTAL FREE ENERGY PREDICTED BY IDOCK:   -6.83 KCAL/MOL
REMARK 923 INTER-LIGAND FREE ENERGY PREDICTED BY IDOCK:   -5.84 KCAL/MOL
REMARK 924 INTRA-LIGAND FREE ENERGY PREDICTED BY IDOCK:   -0.99 KCAL/MOL
REMARK 927      BINDING AFFINITY PREDICTED BY RF-SCORE:    0.00 PKD
ROOT
HETATM    1  C   UNL     1      -9.534   5.994  72.026  1.00  0.00    -0.161 C  
HETATM    2  C   UNL     1     -10.512   5.666  70.852  1.00  0.00    -0.256 C  
HETATM    3  C   UNL     1      -8.442   5.426  71.106  1.00  0.00    -0.125 C  
HETATM    4  N   UNL     1      -9.317   5.222  70.079  1.00  0.00    -0.145 N  
HETATM    5  C   UNL     1     -11.215   6.705  69.972  1.00  0.00    -0.425 C  
HETATM    6  O   UNL     1      -7.253   4.776  68.346  1.00  0.00    -0.060 OA 
HETATM    7  O   UNL     1      -7.247   5.250  71.124  1.00  0.00    -0.068 OA 
HETATM    8  C   UNL     1      -9.233   5.983  68.920  1.00  0.00    -0.124 C  
HETATM    9  O   UNL     1      -7.923   6.373  66.922  1.00  0.00    -0.106 OA 
HETATM   10  C   UNL     1      -8.087   5.776  67.974  1.00  0.00    -0.104 C  
HETATM   11  C   UNL     1     -10.270   6.833  68.797  1.00  0.00    -0.175 C  
HETATM   12  C   UNL     1     -11.526   7.980  70.741  1.00  0.00    -0.273 C  
ENDROOT
BRANCH   1  13
HETATM   13  C   UNL     1      -9.771   5.236  73.319  1.00  0.00    -0.142 C  
HETATM   14  C   UNL     1     -11.186   4.674  73.354  1.00  0.00    -0.423 C  
HETATM   15  O   UNL     1      -8.866   4.139  73.376  1.00  0.00    -0.097 OA 
HETATM   16  H   UNL     1      -9.015   3.665  74.185  1.00  0.00     0.000 HD 
ENDBRANCH   1  13
BRANCH  11  17
HETATM   17  S   UNL     1     -10.532   8.027  67.584  1.00  0.00    -0.209 SA 
BRANCH  17  18
HETATM   18  C   UNL     1      -9.193   9.256  67.814  1.00  0.00    -0.129 C  
HETATM   19  C   UNL     1      -9.059   9.891  69.191  1.00  0.00    -0.173 C  
HETATM   20  N   UNL     1      -9.877  11.094  69.118  1.00  0.00    -0.400 NA 
HETATM   21  H   UNL     1      -9.634  11.781  69.831  1.00  0.00     0.000 HD 
HETATM   22  C   UNL     1      -9.774  11.633  67.741  1.00  0.00    -0.173 C  
HETATM   23  C   UNL     1      -9.295  10.457  66.885  1.00  0.00    -0.186 C  
BRANCH  22  24
HETATM   24  C   UNL     1     -11.133  12.267  67.322  1.00  0.00    -0.275 C  
HETATM   25  O   UNL     1     -12.198  11.839  67.787  1.00  0.00    -0.536 OA 
HETATM   26  N   UNL     1     -11.129  13.354  66.456  1.00  0.00    -0.294 N  
HETATM   27  C   UNL     1      -9.950  14.015  65.919  1.00  0.00    -0.307 C  
HETATM   28  C   UNL     1     -12.401  13.915  66.019  1.00  0.00    -0.475 C  
ENDBRANCH  22  24
ENDBRANCH  17  18
ENDBRANCH  11  17
TORSDOF 4
ENDMDL
MODEL      115
REMARK 921   NORMALIZED FREE ENERGY PREDICTED BY IDOCK:   -4.73 KCAL/MOL
REMARK 922        TOTAL FREE ENERGY PREDICTED BY IDOCK:   -6.81 KCAL/MOL
REMARK 923 INTER-LIGAND FREE ENERGY PREDICTED BY IDOCK:   -5.74 KCAL/MOL
REMARK 924 INTRA-LIGAND FREE ENERGY PREDICTED BY IDOCK:   -1.06 KCAL/MOL
REMARK 927      BINDING AFFINITY PREDICTED BY RF-SCORE:    0.00 PKD
ROOT
HETATM    1  C   UNL     1     -10.765   8.785  71.385  1.00  0.00    -0.356 C  
HETATM    2  C   UNL     1     -10.485   7.806  70.200  1.00  0.00    -0.231 C  
HETATM    3  C   UNL     1      -9.383   8.354  71.902  1.00  0.00    -0.244 C  
HETATM    4  N   UNL     1      -9.148   7.564  70.813  1.00  0.00    -0.153 N  
HETATM    5  C   UNL     1     -10.210   8.227  68.753  1.00  0.00    -0.226 C  
HETATM    6  O   UNL     1      -6.519   7.310  71.509  1.00  0.00    -0.040 OA 
HETATM    7  O   UNL     1      -8.649   8.597  72.829  1.00  0.00    -0.394 OA 
HETATM    8  C   UNL     1      -8.169   7.911  69.890  1.00  0.00    -0.120 C  
HETATM    9  O   UNL     1      -5.780   8.071  69.533  1.00  0.00    -0.026 OA 
HETATM   10  C   UNL     1      -6.721   7.811  70.266  1.00  0.00    -0.038 C  
HETATM   11  C   UNL     1      -8.698   8.288  68.710  1.00  0.00    -0.137 C  
HETATM   12  C   UNL     1     -10.957   9.500  68.382  1.00  0.00    -0.117 C  
ENDROOT
BRANCH   1  13
HETATM   13  C   UNL     1     -11.944   8.432  72.273  1.00  0.00    -0.389 C  
HETATM   14  C   UNL     1     -13.019   7.714  71.470  1.00  0.00    -0.378 C  
HETATM   15  O   UNL     1     -11.496   7.545  73.292  1.00  0.00    -0.613 OA 
HETATM   16  H   UNL     1     -12.234   7.325  73.848  1.00  0.00     0.000 HD 
ENDBRANCH   1  13
BRANCH  11  17
HETATM   17  S   UNL     1      -7.881   8.890  67.320  1.00  0.00    -0.096 SA 
BRANCH  17  18
HETATM   18  C   UNL     1      -7.161  10.494  67.833  1.00  0.00    -0.084 C  
HETATM   19  C   UNL     1      -7.772  11.173  69.052  1.00  0.00    -0.114 C  
HETATM   20  N   UNL     1      -8.806  12.040  68.505  1.00  0.00    -0.320 NA 
HETATM   21  H   UNL     1      -9.075  12.787  69.146  1.00  0.00     0.000 HD 
HETATM   22  C   UNL     1      -8.331  12.549  67.197  1.00  0.00    -0.179 C  
HETATM   23  C   UNL     1      -7.235  11.572  66.762  1.00  0.00    -0.111 C  
BRANCH  22  24
HETATM   24  C   UNL     1      -9.536  12.692  66.220  1.00  0.00    -0.207 C  
HETATM   25  O   UNL     1     -10.083  11.690  65.742  1.00  0.00    -0.223 OA 
HETATM   26  N   UNL     1     -10.020  13.963  65.934  1.00  0.00    -0.307 N  
HETATM   27  C   UNL     1      -9.537  15.211  66.504  1.00  0.00    -0.271 C  
HETATM   28  C   UNL     1     -11.112  14.106  64.979  1.00  0.00    -0.370 C  
ENDBRANCH  22  24
ENDBRANCH  17  18
ENDBRANCH  11  17
TORSDOF 4
ENDMDL
MODEL      116
REMARK 921   NORMALIZED FREE ENERGY PREDICTED BY IDOCK:   -4.72 KCAL/MOL
REMARK 922        TOTAL FREE ENERGY PREDICTED BY IDOCK:   -6.80 KCAL/MOL
REMARK 923 INTER-LIGAND FREE ENERGY PREDICTED BY IDOCK:   -6.01 KCAL/MOL
REMARK 924 INTRA-LIGAND FREE ENERGY PREDICTED BY IDOCK:   -0.78 KCAL/MOL
REMARK 927      BINDING AFFINITY PREDICTED BY RF-SCORE:    0.00 PKD
ROOT
HETATM    1  C   UNL     1     -11.260  13.731  69.085  1.00  0.00    -0.307 C  
HETATM    2  C   UNL     1     -11.792  12.434  68.394  1.00  0.00    -0.309 C  
HETATM    3  C   UNL     1     -12.076  13.265  70.301  1.00  0.00    -0.335 C  
HETATM    4  N   UNL     1     -12.461  12.109  69.686  1.00  0.00     0.040 N  
HETATM    5  C   UNL     1     -10.943  11.208  68.042  1.00  0.00    -0.307 C  
HETATM    6  O   UNL     1     -13.390  11.105  72.050  1.00  0.00    -0.454 OA 
HETATM    7  O   UNL     1     -12.305  13.630  71.429  1.00  0.00    -0.320 OA 
HETATM    8  C   UNL     1     -11.985  10.882  70.132  1.00  0.00    -0.352 C  
HETATM    9  O   UNL     1     -12.123   9.260  71.923  1.00  0.00    -0.359 OA 
HETATM   10  C   UNL     1     -12.458  10.331  71.444  1.00  0.00    -0.424 C  
HETATM   11  C   UNL     1     -11.132  10.321  69.253  1.00  0.00    -0.245 C  
HETATM   12  C   UNL     1      -9.514  11.592  67.691  1.00  0.00    -0.177 C  
ENDROOT
BRANCH   1  13
HETATM   13  C   UNL     1     -11.695  15.043  68.459  1.00  0.00    -0.320 C  
HETATM   14  C   UNL     1     -11.136  16.219  69.248  1.00  0.00    -0.325 C  
HETATM   15  O   UNL     1     -11.167  15.114  67.139  1.00  0.00    -0.335 OA 
HETATM   16  H   UNL     1     -11.439  15.936  66.748  1.00  0.00     0.000 HD 
ENDBRANCH   1  13
BRANCH  11  17
HETATM   17  S   UNL     1     -10.230   8.865  69.425  1.00  0.00    -0.213 SA 
BRANCH  17  18
HETATM   18  C   UNL     1      -8.872   9.267  70.588  1.00  0.00    -0.237 C  
HETATM   19  C   UNL     1      -7.447   9.048  70.098  1.00  0.00    -0.072 C  
HETATM   20  N   UNL     1      -7.127   7.688  70.509  1.00  0.00    -0.051 NA 
HETATM   21  H   UNL     1      -6.122   7.513  70.545  1.00  0.00     0.000 HD 
HETATM   22  C   UNL     1      -7.801   7.431  71.803  1.00  0.00    -0.090 C  
HETATM   23  C   UNL     1      -8.920   8.474  71.886  1.00  0.00    -0.301 C  
BRANCH  22  24
HETATM   24  C   UNL     1      -8.257   5.943  71.871  1.00  0.00    -0.115 C  
HETATM   25  O   UNL     1      -9.017   5.477  71.012  1.00  0.00    -0.137 OA 
HETATM   26  N   UNL     1      -7.756   5.133  72.883  1.00  0.00    -0.096 N  
HETATM   27  C   UNL     1      -6.783   5.525  73.890  1.00  0.00    -0.079 C  
HETATM   28  C   UNL     1      -8.221   3.755  72.982  1.00  0.00    -0.090 C  
ENDBRANCH  22  24
ENDBRANCH  17  18
ENDBRANCH  11  17
TORSDOF 4
ENDMDL
MODEL      117
REMARK 921   NORMALIZED FREE ENERGY PREDICTED BY IDOCK:   -4.66 KCAL/MOL
REMARK 922        TOTAL FREE ENERGY PREDICTED BY IDOCK:   -6.72 KCAL/MOL
REMARK 923 INTER-LIGAND FREE ENERGY PREDICTED BY IDOCK:   -5.82 KCAL/MOL
REMARK 924 INTRA-LIGAND FREE ENERGY PREDICTED BY IDOCK:   -0.91 KCAL/MOL
REMARK 927      BINDING AFFINITY PREDICTED BY RF-SCORE:    0.00 PKD
ROOT
HETATM    1  C   UNL     1     -10.718  13.805  64.815  1.00  0.00    -0.429 C  
HETATM    2  C   UNL     1     -11.130  12.935  66.045  1.00  0.00    -0.281 C  
HETATM    3  C   UNL     1      -9.901  14.623  65.827  1.00  0.00    -0.328 C  
HETATM    4  N   UNL     1     -10.228  13.795  66.863  1.00  0.00    -0.258 N  
HETATM    5  C   UNL     1     -10.676  11.494  66.300  1.00  0.00    -0.321 C  
HETATM    6  O   UNL     1      -8.323  14.946  68.446  1.00  0.00    -0.141 OA 
HETATM    7  O   UNL     1      -9.161  15.578  65.831  1.00  0.00    -0.333 OA 
HETATM    8  C   UNL     1      -9.262  12.989  67.451  1.00  0.00    -0.208 C  
HETATM    9  O   UNL     1      -7.304  12.996  68.874  1.00  0.00    -0.095 OA 
HETATM   10  C   UNL     1      -8.188  13.607  68.296  1.00  0.00    -0.156 C  
HETATM   11  C   UNL     1      -9.458  11.684  67.178  1.00  0.00    -0.176 C  
HETATM   12  C   UNL     1     -10.469  10.728  65.002  1.00  0.00    -0.307 C  
ENDROOT
BRANCH   1  13
HETATM   13  C   UNL     1     -11.845  14.547  64.120  1.00  0.00    -0.267 C  
HETATM   14  C   UNL     1     -13.068  14.624  65.022  1.00  0.00     0.432 C  
HETATM   15  O   UNL     1     -11.416  15.878  63.853  1.00  0.00    -1.031 OA 
HETATM   16  H   UNL     1     -12.121  16.342  63.418  1.00  0.00     0.000 HD 
ENDBRANCH   1  13
BRANCH  11  17
HETATM   17  S   UNL     1      -8.467  10.344  67.610  1.00  0.00    -0.114 SA 
BRANCH  17  18
HETATM   18  C   UNL     1      -9.616   9.081  68.272  1.00  0.00    -0.145 C  
HETATM   19  C   UNL     1     -10.756   9.571  69.155  1.00  0.00    -0.210 C  
HETATM   20  N   UNL     1     -10.222   9.504  70.508  1.00  0.00    -0.269 NA 
HETATM   21  H   UNL     1     -10.952   9.485  71.220  1.00  0.00     0.000 HD 
HETATM   22  C   UNL     1      -9.315   8.334  70.584  1.00  0.00    -0.156 C  
HETATM   23  C   UNL     1      -8.939   8.024  69.132  1.00  0.00    -0.145 C  
BRANCH  22  24
HETATM   24  C   UNL     1      -8.126   8.653  71.538  1.00  0.00    -0.142 C  
HETATM   25  O   UNL     1      -7.272   9.491  71.222  1.00  0.00    -0.325 OA 
HETATM   26  N   UNL     1      -8.067   8.018  72.773  1.00  0.00    -0.140 N  
HETATM   27  C   UNL     1      -9.054   7.093  73.307  1.00  0.00    -0.148 C  
HETATM   28  C   UNL     1      -6.928   8.272  73.646  1.00  0.00    -0.121 C  
ENDBRANCH  22  24
ENDBRANCH  17  18
ENDBRANCH  11  17
TORSDOF 4
ENDMDL
MODEL      118
REMARK 921   NORMALIZED FREE ENERGY PREDICTED BY IDOCK:   -4.65 KCAL/MOL
REMARK 922        TOTAL FREE ENERGY PREDICTED BY IDOCK:   -6.71 KCAL/MOL
REMARK 923 INTER-LIGAND FREE ENERGY PREDICTED BY IDOCK:   -6.19 KCAL/MOL
REMARK 924 INTRA-LIGAND FREE ENERGY PREDICTED BY IDOCK:   -0.52 KCAL/MOL
REMARK 927      BINDING AFFINITY PREDICTED BY RF-SCORE:    0.00 PKD
ROOT
HETATM    1  C   UNL     1     -11.573  11.175  69.033  1.00  0.00    -0.392 C  
HETATM    2  C   UNL     1     -10.899  10.394  70.206  1.00  0.00    -0.242 C  
HETATM    3  C   UNL     1     -10.855  10.171  68.119  1.00  0.00    -0.262 C  
HETATM    4  N   UNL     1     -10.343   9.472  69.174  1.00  0.00    -0.199 N  
HETATM    5  C   UNL     1     -11.634   9.500  71.211  1.00  0.00    -0.445 C  
HETATM    6  O   UNL     1      -9.592   7.432  67.521  1.00  0.00    -0.134 OA 
HETATM    7  O   UNL     1     -10.761   9.929  66.939  1.00  0.00    -0.203 OA 
HETATM    8  C   UNL     1     -10.786   8.185  69.448  1.00  0.00    -0.156 C  
HETATM    9  O   UNL     1     -10.728   5.888  68.684  1.00  0.00    -0.248 OA 
HETATM   10  C   UNL     1     -10.412   7.058  68.532  1.00  0.00    -0.200 C  
HETATM   11  C   UNL     1     -11.513   8.130  70.581  1.00  0.00    -0.231 C  
HETATM   12  C   UNL     1     -13.043  10.003  71.489  1.00  0.00    -0.531 C  
ENDROOT
BRANCH   1  13
HETATM   13  C   UNL     1     -11.159  12.627  68.877  1.00  0.00    -0.259 C  
HETATM   14  C   UNL     1     -11.878  13.261  67.695  1.00  0.00    -0.400 C  
HETATM   15  O   UNL     1     -11.539  13.337  70.051  1.00  0.00    -0.470 OA 
HETATM   16  H   UNL     1     -11.279  14.245  69.953  1.00  0.00     0.000 HD 
ENDBRANCH   1  13
BRANCH  11  17
HETATM   17  S   UNL     1     -12.339   6.777  71.253  1.00  0.00    -0.288 SA 
BRANCH  17  18
HETATM   18  C   UNL     1     -11.299   6.219  72.655  1.00  0.00    -0.247 C  
HETATM   19  C   UNL     1     -10.591   7.295  73.468  1.00  0.00    -0.362 C  
HETATM   20  N   UNL     1      -9.293   7.442  72.824  1.00  0.00    -0.147 NA 
HETATM   21  H   UNL     1      -8.598   7.874  73.433  1.00  0.00     0.000 HD 
HETATM   22  C   UNL     1      -8.875   6.109  72.330  1.00  0.00    -0.136 C  
HETATM   23  C   UNL     1     -10.165   5.289  72.247  1.00  0.00    -0.250 C  
BRANCH  22  24
HETATM   24  C   UNL     1      -8.086   6.267  70.997  1.00  0.00    -0.121 C  
HETATM   25  O   UNL     1      -7.726   7.385  70.606  1.00  0.00    -0.088 OA 
HETATM   26  N   UNL     1      -7.749   5.126  70.276  1.00  0.00    -0.070 N  
HETATM   27  C   UNL     1      -8.021   3.754  70.672  1.00  0.00    -0.054 C  
HETATM   28  C   UNL     1      -7.059   5.273  69.001  1.00  0.00    -0.057 C  
ENDBRANCH  22  24
ENDBRANCH  17  18
ENDBRANCH  11  17
TORSDOF 4
ENDMDL
MODEL      119
REMARK 921   NORMALIZED FREE ENERGY PREDICTED BY IDOCK:   -4.65 KCAL/MOL
REMARK 922        TOTAL FREE ENERGY PREDICTED BY IDOCK:   -6.71 KCAL/MOL
REMARK 923 INTER-LIGAND FREE ENERGY PREDICTED BY IDOCK:   -5.78 KCAL/MOL
REMARK 924 INTRA-LIGAND FREE ENERGY PREDICTED BY IDOCK:   -0.93 KCAL/MOL
REMARK 927      BINDING AFFINITY PREDICTED BY RF-SCORE:    0.00 PKD
ROOT
HETATM    1  C   UNL     1      -9.540  15.735  67.904  1.00  0.00    -0.214 C  
HETATM    2  C   UNL     1      -8.961  14.893  66.721  1.00  0.00    -0.268 C  
HETATM    3  C   UNL     1     -10.882  15.616  67.165  1.00  0.00    -0.297 C  
HETATM    4  N   UNL     1     -10.351  14.823  66.188  1.00  0.00    -0.291 N  
HETATM    5  C   UNL     1      -8.479  13.442  66.822  1.00  0.00     0.021 C  
HETATM    6  O   UNL     1     -12.848  14.199  65.273  1.00  0.00    -0.670 OA 
HETATM    7  O   UNL     1     -12.030  15.961  67.314  1.00  0.00     0.363 OA 
HETATM    8  C   UNL     1     -10.719  13.488  66.088  1.00  0.00    -0.289 C  
HETATM    9  O   UNL     1     -12.522  11.991  65.478  1.00  0.00    -0.409 OA 
HETATM   10  C   UNL     1     -12.098  13.127  65.620  1.00  0.00    -0.449 C  
HETATM   11  C   UNL     1      -9.712  12.659  66.426  1.00  0.00    -0.258 C  
HETATM   12  C   UNL     1      -7.885  13.138  68.189  1.00  0.00    -0.145 C  
ENDROOT
BRANCH   1  13
HETATM   13  C   UNL     1      -8.987  17.141  68.052  1.00  0.00    -0.233 C  
HETATM   14  C   UNL     1      -7.843  17.368  67.073  1.00  0.00    -0.238 C  
HETATM   15  O   UNL     1     -10.019  18.070  67.740  1.00  0.00    -0.299 OA 
HETATM   16  H   UNL     1      -9.673  18.949  67.832  1.00  0.00     0.000 HD 
ENDBRANCH   1  13
BRANCH  11  17
HETATM   17  S   UNL     1      -9.739  10.942  66.545  1.00  0.00    -0.205 SA 
BRANCH  17  18
HETATM   18  C   UNL     1     -11.043  10.559  67.774  1.00  0.00    -0.317 C  
HETATM   19  C   UNL     1     -11.065  11.393  69.048  1.00  0.00    -0.243 C  
HETATM   20  N   UNL     1     -10.241  10.644  69.987  1.00  0.00    -0.412 NA 
HETATM   21  H   UNL     1     -10.422  10.896  70.959  1.00  0.00     0.000 HD 
HETATM   22  C   UNL     1     -10.441   9.200  69.720  1.00  0.00    -0.223 C  
HETATM   23  C   UNL     1     -10.996   9.130  68.294  1.00  0.00    -0.010 C  
BRANCH  22  24
HETATM   24  C   UNL     1      -9.110   8.431  69.967  1.00  0.00    -0.150 C  
HETATM   25  O   UNL     1      -8.072   8.762  69.378  1.00  0.00    -0.102 OA 
HETATM   26  N   UNL     1      -9.093   7.399  70.897  1.00  0.00    -0.153 N  
HETATM   27  C   UNL     1     -10.210   6.977  71.727  1.00  0.00    -0.192 C  
HETATM   28  C   UNL     1      -7.864   6.641  71.092  1.00  0.00    -0.102 C  
ENDBRANCH  22  24
ENDBRANCH  17  18
ENDBRANCH  11  17
TORSDOF 4
ENDMDL
MODEL      120
REMARK 921   NORMALIZED FREE ENERGY PREDICTED BY IDOCK:   -4.65 KCAL/MOL
REMARK 922        TOTAL FREE ENERGY PREDICTED BY IDOCK:   -6.71 KCAL/MOL
REMARK 923 INTER-LIGAND FREE ENERGY PREDICTED BY IDOCK:   -6.32 KCAL/MOL
REMARK 924 INTRA-LIGAND FREE ENERGY PREDICTED BY IDOCK:   -0.39 KCAL/MOL
REMARK 927      BINDING AFFINITY PREDICTED BY RF-SCORE:    0.00 PKD
ROOT
HETATM    1  C   UNL     1     -10.464  15.180  65.478  1.00  0.00    -0.400 C  
HETATM    2  C   UNL     1     -10.929  14.278  66.667  1.00  0.00    -0.310 C  
HETATM    3  C   UNL     1      -9.268  15.530  66.378  1.00  0.00    -0.305 C  
HETATM    4  N   UNL     1      -9.673  14.676  67.364  1.00  0.00    -0.217 N  
HETATM    5  C   UNL     1     -10.937  12.746  66.663  1.00  0.00    -0.300 C  
HETATM    6  O   UNL     1      -7.262  14.915  68.625  1.00  0.00    -0.106 OA 
HETATM    7  O   UNL     1      -8.266  16.203  66.329  1.00  0.00    -0.307 OA 
HETATM    8  C   UNL     1      -8.942  13.529  67.645  1.00  0.00    -0.200 C  
HETATM    9  O   UNL     1      -6.883  12.706  68.616  1.00  0.00    -0.080 OA 
HETATM   10  C   UNL     1      -7.601  13.643  68.306  1.00  0.00    -0.130 C  
HETATM   11  C   UNL     1      -9.597  12.409  67.281  1.00  0.00    -0.199 C  
HETATM   12  C   UNL     1     -11.210  12.185  65.275  1.00  0.00    -0.381 C  
ENDROOT
BRANCH   1  13
HETATM   13  C   UNL     1     -11.383  16.333  65.120  1.00  0.00     0.018 C  
HETATM   14  C   UNL     1     -10.742  17.661  65.496  1.00  0.00    -0.037 C  
HETATM   15  O   UNL     1     -11.587  16.331  63.711  1.00  0.00    -1.539 OA 
HETATM   16  H   UNL     1     -12.162  17.052  63.487  1.00  0.00     0.000 HD 
ENDBRANCH   1  13
BRANCH  11  17
HETATM   17  S   UNL     1      -9.043  10.781  67.347  1.00  0.00    -0.143 SA 
BRANCH  17  18
HETATM   18  C   UNL     1     -10.428   9.824  68.069  1.00  0.00    -0.226 C  
HETATM   19  C   UNL     1     -10.767  10.086  69.531  1.00  0.00    -0.244 C  
HETATM   20  N   UNL     1      -9.974   9.112  70.268  1.00  0.00    -0.194 NA 
HETATM   21  H   UNL     1     -10.331   8.944  71.209  1.00  0.00     0.000 HD 
HETATM   22  C   UNL     1      -9.896   7.876  69.454  1.00  0.00    -0.180 C  
HETATM   23  C   UNL     1     -10.223   8.317  68.024  1.00  0.00    -0.265 C  
BRANCH  22  24
HETATM   24  C   UNL     1      -8.506   7.204  69.653  1.00  0.00    -0.134 C  
HETATM   25  O   UNL     1      -7.487   7.703  69.159  1.00  0.00    -0.090 OA 
HETATM   26  N   UNL     1      -8.419   6.060  70.439  1.00  0.00    -0.130 N  
HETATM   27  C   UNL     1      -9.516   5.431  71.157  1.00  0.00    -0.156 C  
HETATM   28  C   UNL     1      -7.130   5.397  70.584  1.00  0.00    -0.061 C  
ENDBRANCH  22  24
ENDBRANCH  17  18
ENDBRANCH  11  17
TORSDOF 4
ENDMDL
MODEL      121
REMARK 921   NORMALIZED FREE ENERGY PREDICTED BY IDOCK:   -4.63 KCAL/MOL
REMARK 922        TOTAL FREE ENERGY PREDICTED BY IDOCK:   -6.68 KCAL/MOL
REMARK 923 INTER-LIGAND FREE ENERGY PREDICTED BY IDOCK:   -5.69 KCAL/MOL
REMARK 924 INTRA-LIGAND FREE ENERGY PREDICTED BY IDOCK:   -0.99 KCAL/MOL
REMARK 927      BINDING AFFINITY PREDICTED BY RF-SCORE:    0.00 PKD
ROOT
HETATM    1  C   UNL     1     -13.322  13.979  71.465  1.00  0.00    -0.422 C  
HETATM    2  C   UNL     1     -12.001  13.192  71.187  1.00  0.00     0.324 C  
HETATM    3  C   UNL     1     -12.802  14.971  70.413  1.00  0.00    -0.288 C  
HETATM    4  N   UNL     1     -11.696  14.217  70.149  1.00  0.00    -0.288 N  
HETATM    5  C   UNL     1     -11.912  11.838  70.475  1.00  0.00    -0.383 C  
HETATM    6  O   UNL     1     -11.152  15.709  67.926  1.00  0.00    -0.312 OA 
HETATM    7  O   UNL     1     -13.161  15.995  69.881  1.00  0.00     0.106 OA 
HETATM    8  C   UNL     1     -11.556  13.577  68.924  1.00  0.00    -0.323 C  
HETATM    9  O   UNL     1     -11.135  13.927  66.566  1.00  0.00    -0.302 OA 
HETATM   10  C   UNL     1     -11.292  14.383  67.687  1.00  0.00    -0.329 C  
HETATM   11  C   UNL     1     -11.663  12.238  69.037  1.00  0.00    -0.324 C  
HETATM   12  C   UNL     1     -13.138  10.977  70.742  1.00  0.00    -0.135 C  
ENDROOT
BRANCH   1  13
HETATM   13  C   UNL     1     -13.484  14.528  72.870  1.00  0.00    -0.425 C  
HETATM   14  C   UNL     1     -12.126  14.867  73.469  1.00  0.00    -0.436 C  
HETATM   15  O   UNL     1     -14.243  15.730  72.804  1.00  0.00    -0.539 OA 
HETATM   16  H   UNL     1     -14.345  16.073  73.683  1.00  0.00     0.000 HD 
ENDBRANCH   1  13
BRANCH  11  17
HETATM   17  S   UNL     1     -11.654  11.058  67.784  1.00  0.00    -0.077 SA 
BRANCH  17  18
HETATM   18  C   UNL     1     -10.142  10.063  68.063  1.00  0.00    -0.167 C  
HETATM   19  C   UNL     1      -8.887  10.809  68.496  1.00  0.00    -0.149 C  
HETATM   20  N   UNL     1      -8.206  11.128  67.249  1.00  0.00    -0.132 NA 
HETATM   21  H   UNL     1      -7.214  11.330  67.382  1.00  0.00     0.000 HD 
HETATM   22  C   UNL     1      -8.443  10.014  66.301  1.00  0.00    -0.130 C  
HETATM   23  C   UNL     1      -9.680   9.289  66.836  1.00  0.00    -0.248 C  
BRANCH  22  24
HETATM   24  C   UNL     1      -8.559  10.574  64.852  1.00  0.00    -0.172 C  
HETATM   25  O   UNL     1      -9.356  11.485  64.591  1.00  0.00    -0.151 OA 
HETATM   26  N   UNL     1      -7.719  10.069  63.867  1.00  0.00    -0.144 N  
HETATM   27  C   UNL     1      -6.675   9.076  64.060  1.00  0.00    -0.088 C  
HETATM   28  C   UNL     1      -7.862  10.552  62.500  1.00  0.00    -0.156 C  
ENDBRANCH  22  24
ENDBRANCH  17  18
ENDBRANCH  11  17
TORSDOF 4
ENDMDL
MODEL      122
REMARK 921   NORMALIZED FREE ENERGY PREDICTED BY IDOCK:   -4.62 KCAL/MOL
REMARK 922        TOTAL FREE ENERGY PREDICTED BY IDOCK:   -6.68 KCAL/MOL
REMARK 923 INTER-LIGAND FREE ENERGY PREDICTED BY IDOCK:   -5.64 KCAL/MOL
REMARK 924 INTRA-LIGAND FREE ENERGY PREDICTED BY IDOCK:   -1.04 KCAL/MOL
REMARK 927      BINDING AFFINITY PREDICTED BY RF-SCORE:    0.00 PKD
ROOT
HETATM    1  C   UNL     1     -10.419   8.942  69.600  1.00  0.00    -0.218 C  
HETATM    2  C   UNL     1      -8.910   9.340  69.536  1.00  0.00    -0.151 C  
HETATM    3  C   UNL     1     -10.688  10.455  69.581  1.00  0.00    -0.265 C  
HETATM    4  N   UNL     1      -9.362  10.758  69.454  1.00  0.00    -0.073 N  
HETATM    5  C   UNL     1      -7.990   9.125  68.329  1.00  0.00    -0.103 C  
HETATM    6  O   UNL     1      -9.964  13.354  68.856  1.00  0.00    -0.109 OA 
HETATM    7  O   UNL     1     -11.634  11.206  69.587  1.00  0.00    -0.266 OA 
HETATM    8  C   UNL     1      -8.876  11.309  68.275  1.00  0.00    -0.158 C  
HETATM    9  O   UNL     1      -8.840  13.312  66.917  1.00  0.00    -0.220 OA 
HETATM   10  C   UNL     1      -9.224  12.722  67.914  1.00  0.00    -0.205 C  
HETATM   11  C   UNL     1      -8.094  10.445  67.598  1.00  0.00    -0.107 C  
HETATM   12  C   UNL     1      -8.368   7.877  67.546  1.00  0.00    -0.124 C  
ENDROOT
BRANCH   1  13
HETATM   13  C   UNL     1     -10.860   8.207  70.852  1.00  0.00    -0.230 C  
HETATM   14  C   UNL     1      -9.801   7.200  71.278  1.00  0.00    -0.178 C  
HETATM   15  O   UNL     1     -11.011   9.153  71.905  1.00  0.00    -0.364 OA 
HETATM   16  H   UNL     1     -11.287   8.692  72.689  1.00  0.00     0.000 HD 
ENDBRANCH   1  13
BRANCH  11  17
HETATM   17  S   UNL     1      -7.361  10.656  66.055  1.00  0.00    -0.109 SA 
BRANCH  17  18
HETATM   18  C   UNL     1      -8.433   9.748  64.879  1.00  0.00    -0.157 C  
HETATM   19  C   UNL     1      -8.076   9.835  63.401  1.00  0.00    -0.151 C  
HETATM   20  N   UNL     1      -8.841  10.972  62.909  1.00  0.00    -0.384 NA 
HETATM   21  H   UNL     1      -8.962  10.957  61.896  1.00  0.00     0.000 HD 
HETATM   22  C   UNL     1     -10.129  11.008  63.641  1.00  0.00    -0.371 C  
HETATM   23  C   UNL     1      -9.890  10.186  64.911  1.00  0.00    -0.390 C  
BRANCH  22  24
HETATM   24  C   UNL     1     -10.564  12.487  63.864  1.00  0.00    -0.440 C  
HETATM   25  O   UNL     1      -9.719  13.386  63.961  1.00  0.00     0.098 OA 
HETATM   26  N   UNL     1     -11.921  12.789  63.902  1.00  0.00    -0.439 N  
HETATM   27  C   UNL     1     -13.012  11.849  63.702  1.00  0.00    -0.187 C  
HETATM   28  C   UNL     1     -12.333  14.162  64.165  1.00  0.00    -0.335 C  
ENDBRANCH  22  24
ENDBRANCH  17  18
ENDBRANCH  11  17
TORSDOF 4
ENDMDL
MODEL      123
REMARK 921   NORMALIZED FREE ENERGY PREDICTED BY IDOCK:   -4.59 KCAL/MOL
REMARK 922        TOTAL FREE ENERGY PREDICTED BY IDOCK:   -6.64 KCAL/MOL
REMARK 923 INTER-LIGAND FREE ENERGY PREDICTED BY IDOCK:   -6.25 KCAL/MOL
REMARK 924 INTRA-LIGAND FREE ENERGY PREDICTED BY IDOCK:   -0.39 KCAL/MOL
REMARK 927      BINDING AFFINITY PREDICTED BY RF-SCORE:    0.00 PKD
ROOT
HETATM    1  C   UNL     1      -6.693  11.998  67.566  1.00  0.00    -0.120 C  
HETATM    2  C   UNL     1      -7.631  12.817  68.510  1.00  0.00    -0.120 C  
HETATM    3  C   UNL     1      -7.854  10.994  67.493  1.00  0.00    -0.116 C  
HETATM    4  N   UNL     1      -8.667  11.774  68.263  1.00  0.00    -0.164 N  
HETATM    5  C   UNL     1      -8.292  14.154  68.155  1.00  0.00    -0.161 C  
HETATM    6  O   UNL     1     -10.832  10.240  67.614  1.00  0.00    -0.271 OA 
HETATM    7  O   UNL     1      -8.110   9.946  66.950  1.00  0.00    -0.112 OA 
HETATM    8  C   UNL     1      -9.786  12.385  67.711  1.00  0.00    -0.201 C  
HETATM    9  O   UNL     1     -12.009  11.985  66.841  1.00  0.00    -0.612 OA 
HETATM   10  C   UNL     1     -10.970  11.554  67.317  1.00  0.00    -0.271 C  
HETATM   11  C   UNL     1      -9.642  13.722  67.626  1.00  0.00    -0.219 C  
HETATM   12  C   UNL     1      -7.424  14.983  67.220  1.00  0.00    -0.215 C  
ENDROOT
BRANCH   1  13
HETATM   13  C   UNL     1      -5.409  11.482  68.191  1.00  0.00    -0.043 C  
HETATM   14  C   UNL     1      -5.185  12.125  69.552  1.00  0.00    -0.067 C  
HETATM   15  O   UNL     1      -5.531  10.078  68.386  1.00  0.00    -0.039 OA 
HETATM   16  H   UNL     1      -4.728   9.756  68.777  1.00  0.00     0.000 HD 
ENDBRANCH   1  13
BRANCH  11  17
HETATM   17  S   UNL     1     -10.720  14.868  66.926  1.00  0.00    -0.314 SA 
BRANCH  17  18
HETATM   18  C   UNL     1     -10.984  16.140  68.217  1.00  0.00    -0.340 C  
HETATM   19  C   UNL     1      -9.929  16.254  69.309  1.00  0.00    -0.259 C  
HETATM   20  N   UNL     1     -10.403  15.370  70.365  1.00  0.00    -0.454 NA 
HETATM   21  H   UNL     1      -9.989  15.584  71.274  1.00  0.00     0.000 HD 
HETATM   22  C   UNL     1     -11.884  15.428  70.381  1.00  0.00    -0.335 C  
HETATM   23  C   UNL     1     -12.278  15.961  69.000  1.00  0.00     0.036 C  
BRANCH  22  24
HETATM   24  C   UNL     1     -12.460  14.031  70.757  1.00  0.00    -0.372 C  
HETATM   25  O   UNL     1     -12.255  13.048  70.033  1.00  0.00    -0.299 OA 
HETATM   26  N   UNL     1     -13.167  13.895  71.946  1.00  0.00    -0.369 N  
HETATM   27  C   UNL     1     -13.392  14.939  72.932  1.00  0.00    -0.479 C  
HETATM   28  C   UNL     1     -13.754  12.602  72.276  1.00  0.00    -0.332 C  
ENDBRANCH  22  24
ENDBRANCH  17  18
ENDBRANCH  11  17
TORSDOF 4
ENDMDL
MODEL      124
REMARK 921   NORMALIZED FREE ENERGY PREDICTED BY IDOCK:   -4.58 KCAL/MOL
REMARK 922        TOTAL FREE ENERGY PREDICTED BY IDOCK:   -6.62 KCAL/MOL
REMARK 923 INTER-LIGAND FREE ENERGY PREDICTED BY IDOCK:   -5.77 KCAL/MOL
REMARK 924 INTRA-LIGAND FREE ENERGY PREDICTED BY IDOCK:   -0.85 KCAL/MOL
REMARK 927      BINDING AFFINITY PREDICTED BY RF-SCORE:    0.00 PKD
ROOT
HETATM    1  C   UNL     1     -11.382  13.276  67.324  1.00  0.00    -0.347 C  
HETATM    2  C   UNL     1      -9.936  13.400  66.745  1.00  0.00    -0.264 C  
HETATM    3  C   UNL     1     -11.771  12.811  65.912  1.00  0.00    -0.414 C  
HETATM    4  N   UNL     1     -10.482  12.864  65.465  1.00  0.00    -0.285 N  
HETATM    5  C   UNL     1      -8.758  12.490  67.109  1.00  0.00    -0.200 C  
HETATM    6  O   UNL     1     -11.163  11.504  63.197  1.00  0.00    -0.247 OA 
HETATM    7  O   UNL     1     -12.758  12.439  65.322  1.00  0.00    -0.617 OA 
HETATM    8  C   UNL     1      -9.799  11.698  65.147  1.00  0.00    -0.249 C  
HETATM    9  O   UNL     1      -9.640   9.895  63.540  1.00  0.00    -0.212 OA 
HETATM   10  C   UNL     1     -10.181  10.919  63.924  1.00  0.00    -0.354 C  
HETATM   11  C   UNL     1      -8.814  11.432  66.028  1.00  0.00    -0.174 C  
HETATM   12  C   UNL     1      -8.843  12.003  68.548  1.00  0.00    -0.095 C  
ENDROOT
BRANCH   1  13
HETATM   13  C   UNL     1     -12.022  14.569  67.795  1.00  0.00    -0.310 C  
HETATM   14  C   UNL     1     -12.199  14.555  69.307  1.00  0.00    -0.264 C  
HETATM   15  O   UNL     1     -11.156  15.650  67.468  1.00  0.00    -0.326 OA 
HETATM   16  H   UNL     1     -11.556  16.459  67.763  1.00  0.00     0.000 HD 
ENDBRANCH   1  13
BRANCH  11  17
HETATM   17  S   UNL     1      -7.781  10.057  66.089  1.00  0.00    -0.112 SA 
BRANCH  17  18
HETATM   18  C   UNL     1      -8.613   8.872  67.212  1.00  0.00    -0.118 C  
HETATM   19  C   UNL     1      -7.725   7.928  68.010  1.00  0.00    -0.125 C  
HETATM   20  N   UNL     1      -7.608   6.743  67.172  1.00  0.00    -0.098 NA 
HETATM   21  H   UNL     1      -7.326   5.914  67.697  1.00  0.00     0.000 HD 
HETATM   22  C   UNL     1      -8.894   6.559  66.458  1.00  0.00    -0.138 C  
HETATM   23  C   UNL     1      -9.577   7.929  66.506  1.00  0.00    -0.281 C  
BRANCH  22  24
HETATM   24  C   UNL     1      -8.627   5.985  65.036  1.00  0.00    -0.038 C  
HETATM   25  O   UNL     1      -7.840   6.549  64.265  1.00  0.00    -0.107 OA 
HETATM   26  N   UNL     1      -9.250   4.799  64.663  1.00  0.00    -0.122 N  
HETATM   27  C   UNL     1     -10.114   3.986  65.503  1.00  0.00    -0.134 C  
HETATM   28  C   UNL     1      -9.046   4.287  63.314  1.00  0.00    -0.134 C  
ENDBRANCH  22  24
ENDBRANCH  17  18
ENDBRANCH  11  17
TORSDOF 4
ENDMDL
MODEL      125
REMARK 921   NORMALIZED FREE ENERGY PREDICTED BY IDOCK:   -4.56 KCAL/MOL
REMARK 922        TOTAL FREE ENERGY PREDICTED BY IDOCK:   -6.60 KCAL/MOL
REMARK 923 INTER-LIGAND FREE ENERGY PREDICTED BY IDOCK:   -5.76 KCAL/MOL
REMARK 924 INTRA-LIGAND FREE ENERGY PREDICTED BY IDOCK:   -0.84 KCAL/MOL
REMARK 927      BINDING AFFINITY PREDICTED BY RF-SCORE:    0.00 PKD
ROOT
HETATM    1  C   UNL     1     -11.388   8.284  71.863  1.00  0.00    -0.372 C  
HETATM    2  C   UNL     1     -11.986   7.035  71.141  1.00  0.00    -0.356 C  
HETATM    3  C   UNL     1     -10.948   7.289  72.948  1.00  0.00    -0.337 C  
HETATM    4  N   UNL     1     -11.421   6.215  72.250  1.00  0.00    -0.300 N  
HETATM    5  C   UNL     1     -11.443   6.418  69.848  1.00  0.00    -0.483 C  
HETATM    6  O   UNL     1     -10.115   4.494  73.921  1.00  0.00    -0.148 OA 
HETATM    7  O   UNL     1     -10.349   7.301  73.997  1.00  0.00    -0.308 OA 
HETATM    8  C   UNL     1     -10.544   5.285  71.709  1.00  0.00    -0.201 C  
HETATM    9  O   UNL     1      -9.012   3.489  72.248  1.00  0.00    -0.093 OA 
HETATM   10  C   UNL     1      -9.792   4.354  72.614  1.00  0.00    -0.154 C  
HETATM   11  C   UNL     1     -10.512   5.342  70.363  1.00  0.00    -0.275 C  
HETATM   12  C   UNL     1     -10.834   7.469  68.932  1.00  0.00    -0.063 C  
ENDROOT
BRANCH   1  13
HETATM   13  C   UNL     1     -12.387   9.341  72.300  1.00  0.00    -0.274 C  
HETATM   14  C   UNL     1     -13.100   9.930  71.091  1.00  0.00    -0.453 C  
HETATM   15  O   UNL     1     -13.367   8.725  73.127  1.00  0.00    -0.918 OA 
HETATM   16  H   UNL     1     -13.992   9.386  73.400  1.00  0.00     0.000 HD 
ENDBRANCH   1  13
BRANCH  11  17
HETATM   17  S   UNL     1      -9.508   4.456  69.282  1.00  0.00    -0.191 SA 
BRANCH  17  18
HETATM   18  C   UNL     1      -7.808   5.070  69.581  1.00  0.00    -0.067 C  
HETATM   19  C   UNL     1      -7.667   6.412  70.288  1.00  0.00    -0.098 C  
HETATM   20  N   UNL     1      -7.614   7.387  69.208  1.00  0.00    -0.099 NA 
HETATM   21  H   UNL     1      -7.200   8.274  69.497  1.00  0.00     0.000 HD 
HETATM   22  C   UNL     1      -6.902   6.766  68.065  1.00  0.00    -0.078 C  
HETATM   23  C   UNL     1      -6.990   5.257  68.312  1.00  0.00    -0.061 C  
BRANCH  22  24
HETATM   24  C   UNL     1      -7.518   7.271  66.727  1.00  0.00    -0.092 C  
HETATM   25  O   UNL     1      -8.590   6.810  66.313  1.00  0.00    -0.127 OA 
HETATM   26  N   UNL     1      -6.871   8.284  66.030  1.00  0.00    -0.063 N  
HETATM   27  C   UNL     1      -5.666   8.980  66.454  1.00  0.00    -0.050 C  
HETATM   28  C   UNL     1      -7.414   8.721  64.750  1.00  0.00    -0.100 C  
ENDBRANCH  22  24
ENDBRANCH  17  18
ENDBRANCH  11  17
TORSDOF 4
ENDMDL
MODEL      126
REMARK 921   NORMALIZED FREE ENERGY PREDICTED BY IDOCK:   -4.53 KCAL/MOL
REMARK 922        TOTAL FREE ENERGY PREDICTED BY IDOCK:   -6.56 KCAL/MOL
REMARK 923 INTER-LIGAND FREE ENERGY PREDICTED BY IDOCK:   -5.72 KCAL/MOL
REMARK 924 INTRA-LIGAND FREE ENERGY PREDICTED BY IDOCK:   -0.84 KCAL/MOL
REMARK 927      BINDING AFFINITY PREDICTED BY RF-SCORE:    0.00 PKD
ROOT
HETATM    1  C   UNL     1     -11.293  11.948  65.749  1.00  0.00    -0.354 C  
HETATM    2  C   UNL     1     -10.048  12.081  66.683  1.00  0.00    -0.198 C  
HETATM    3  C   UNL     1     -10.308  11.351  64.732  1.00  0.00    -0.294 C  
HETATM    4  N   UNL     1      -9.260  11.419  65.604  1.00  0.00    -0.213 N  
HETATM    5  C   UNL     1      -9.800  11.253  67.949  1.00  0.00    -0.187 C  
HETATM    6  O   UNL     1      -7.737   9.847  63.970  1.00  0.00    -0.132 OA 
HETATM    7  O   UNL     1     -10.329  10.892  63.615  1.00  0.00    -0.355 OA 
HETATM    8  C   UNL     1      -8.696  10.258  66.118  1.00  0.00    -0.152 C  
HETATM    9  O   UNL     1      -7.330   8.335  65.574  1.00  0.00    -0.070 OA 
HETATM   10  C   UNL     1      -7.885   9.366  65.227  1.00  0.00    -0.109 C  
HETATM   11  C   UNL     1      -8.957  10.107  67.432  1.00  0.00    -0.134 C  
HETATM   12  C   UNL     1     -11.100  10.885  68.647  1.00  0.00    -0.305 C  
ENDROOT
BRANCH   1  13
HETATM   13  C   UNL     1     -11.959  13.249  65.341  1.00  0.00    -0.395 C  
HETATM   14  C   UNL     1     -11.195  14.438  65.907  1.00  0.00    -0.324 C  
HETATM   15  O   UNL     1     -11.931  13.349  63.922  1.00  0.00    -0.444 OA 
HETATM   16  H   UNL     1     -12.348  14.163  63.667  1.00  0.00     0.000 HD 
ENDBRANCH   1  13
BRANCH  11  17
HETATM   17  S   UNL     1      -8.549   8.784  68.454  1.00  0.00    -0.135 SA 
BRANCH  17  18
HETATM   18  C   UNL     1      -9.378   7.326  67.719  1.00  0.00    -0.128 C  
HETATM   19  C   UNL     1     -10.900   7.289  67.774  1.00  0.00    -0.144 C  
HETATM   20  N   UNL     1     -11.201   6.585  69.013  1.00  0.00    -0.530 NA 
HETATM   21  H   UNL     1     -12.146   6.199  69.028  1.00  0.00     0.000 HD 
HETATM   22  C   UNL     1     -10.156   5.554  69.219  1.00  0.00    -0.223 C  
HETATM   23  C   UNL     1      -8.975   6.003  68.355  1.00  0.00    -0.114 C  
BRANCH  22  24
HETATM   24  C   UNL     1      -9.863   5.400  70.740  1.00  0.00    -0.190 C  
HETATM   25  O   UNL     1     -10.028   6.352  71.514  1.00  0.00    -0.179 OA 
HETATM   26  N   UNL     1      -9.461   4.161  71.225  1.00  0.00    -0.148 N  
HETATM   27  C   UNL     1      -9.326   2.940  70.446  1.00  0.00    -0.152 C  
HETATM   28  C   UNL     1      -9.133   4.026  72.639  1.00  0.00    -0.109 C  
ENDBRANCH  22  24
ENDBRANCH  17  18
ENDBRANCH  11  17
TORSDOF 4
ENDMDL
MODEL      127
REMARK 921   NORMALIZED FREE ENERGY PREDICTED BY IDOCK:   -4.53 KCAL/MOL
REMARK 922        TOTAL FREE ENERGY PREDICTED BY IDOCK:   -6.55 KCAL/MOL
REMARK 923 INTER-LIGAND FREE ENERGY PREDICTED BY IDOCK:   -5.82 KCAL/MOL
REMARK 924 INTRA-LIGAND FREE ENERGY PREDICTED BY IDOCK:   -0.74 KCAL/MOL
REMARK 927      BINDING AFFINITY PREDICTED BY RF-SCORE:    0.00 PKD
ROOT
HETATM    1  C   UNL     1     -10.439  16.553  68.276  1.00  0.00    -0.313 C  
HETATM    2  C   UNL     1     -11.005  15.443  67.334  1.00  0.00    -0.312 C  
HETATM    3  C   UNL     1     -11.365  15.945  69.340  1.00  0.00    -0.349 C  
HETATM    4  N   UNL     1     -11.780  14.947  68.506  1.00  0.00    -0.316 N  
HETATM    5  C   UNL     1     -10.214  14.236  66.816  1.00  0.00    -0.272 C  
HETATM    6  O   UNL     1     -12.934  13.618  70.594  1.00  0.00    -0.197 OA 
HETATM    7  O   UNL     1     -11.647  16.122  70.501  1.00  0.00    -0.366 OA 
HETATM    8  C   UNL     1     -11.417  13.629  68.750  1.00  0.00    -0.309 C  
HETATM    9  O   UNL     1     -11.783  11.733  70.210  1.00  0.00    -0.309 OA 
HETATM   10  C   UNL     1     -12.015  12.894  69.913  1.00  0.00    -0.307 C  
HETATM   11  C   UNL     1     -10.543  13.167  67.834  1.00  0.00    -0.234 C  
HETATM   12  C   UNL     1      -8.742  14.566  66.621  1.00  0.00    -0.162 C  
ENDROOT
BRANCH   1  13
HETATM   13  C   UNL     1     -10.743  17.984  67.873  1.00  0.00    -0.313 C  
HETATM   14  C   UNL     1      -9.802  18.948  68.582  1.00  0.00    -0.463 C  
HETATM   15  O   UNL     1     -10.529  18.117  66.472  1.00  0.00    -0.367 OA 
HETATM   16  H   UNL     1     -10.720  19.013  66.220  1.00  0.00     0.000 HD 
ENDBRANCH   1  13
BRANCH  11  17
HETATM   17  S   UNL     1      -9.752  11.639  67.793  1.00  0.00    -0.177 SA 
BRANCH  17  18
HETATM   18  C   UNL     1      -9.729  11.150  66.027  1.00  0.00    -0.226 C  
HETATM   19  C   UNL     1     -10.513   9.903  65.639  1.00  0.00     0.097 C  
HETATM   20  N   UNL     1      -9.546   8.820  65.744  1.00  0.00    -0.445 NA 
HETATM   21  H   UNL     1      -9.821   7.993  65.213  1.00  0.00     0.000 HD 
HETATM   22  C   UNL     1      -8.221   9.347  65.340  1.00  0.00    -0.125 C  
HETATM   23  C   UNL     1      -8.335  10.868  65.485  1.00  0.00    -0.079 C  
BRANCH  22  24
HETATM   24  C   UNL     1      -7.105   8.668  66.187  1.00  0.00    -0.084 C  
HETATM   25  O   UNL     1      -6.805   9.108  67.304  1.00  0.00    -0.075 OA 
HETATM   26  N   UNL     1      -6.485   7.528  65.689  1.00  0.00    -0.044 N  
HETATM   27  C   UNL     1      -6.810   6.852  64.444  1.00  0.00    -0.046 C  
HETATM   28  C   UNL     1      -5.402   6.921  66.453  1.00  0.00    -0.022 C  
ENDBRANCH  22  24
ENDBRANCH  17  18
ENDBRANCH  11  17
TORSDOF 4
ENDMDL
MODEL      128
REMARK 921   NORMALIZED FREE ENERGY PREDICTED BY IDOCK:   -4.50 KCAL/MOL
REMARK 922        TOTAL FREE ENERGY PREDICTED BY IDOCK:   -6.52 KCAL/MOL
REMARK 923 INTER-LIGAND FREE ENERGY PREDICTED BY IDOCK:   -5.42 KCAL/MOL
REMARK 924 INTRA-LIGAND FREE ENERGY PREDICTED BY IDOCK:   -1.10 KCAL/MOL
REMARK 927      BINDING AFFINITY PREDICTED BY RF-SCORE:    0.00 PKD
ROOT
HETATM    1  C   UNL     1      -8.666  10.895  65.011  1.00  0.00    -0.109 C  
HETATM    2  C   UNL     1      -9.448   9.743  65.720  1.00  0.00    -0.240 C  
HETATM    3  C   UNL     1      -9.868  11.774  65.391  1.00  0.00    -0.233 C  
HETATM    4  N   UNL     1     -10.486  10.758  66.062  1.00  0.00    -0.236 N  
HETATM    5  C   UNL     1      -9.049   9.091  67.048  1.00  0.00    -0.155 C  
HETATM    6  O   UNL     1     -12.270  12.507  67.164  1.00  0.00    -0.474 OA 
HETATM    7  O   UNL     1     -10.218  12.925  65.279  1.00  0.00    -0.288 OA 
HETATM    8  C   UNL     1     -10.618  10.805  67.444  1.00  0.00    -0.242 C  
HETATM    9  O   UNL     1     -11.778  11.899  69.265  1.00  0.00    -0.281 OA 
HETATM   10  C   UNL     1     -11.568  11.783  68.068  1.00  0.00    -0.316 C  
HETATM   11  C   UNL     1      -9.842   9.891  68.058  1.00  0.00    -0.147 C  
HETATM   12  C   UNL     1      -7.539   9.061  67.232  1.00  0.00    -0.088 C  
ENDROOT
BRANCH   1  13
HETATM   13  C   UNL     1      -8.420  10.715  63.525  1.00  0.00    -0.089 C  
HETATM   14  C   UNL     1      -9.074   9.432  63.029  1.00  0.00    -0.083 C  
HETATM   15  O   UNL     1      -9.016  11.804  62.830  1.00  0.00    -0.654 OA 
HETATM   16  H   UNL     1      -8.862  11.691  61.900  1.00  0.00     0.000 HD 
ENDBRANCH   1  13
BRANCH  11  17
HETATM   17  S   UNL     1      -9.609   9.653  69.747  1.00  0.00    -0.231 SA 
BRANCH  17  18
HETATM   18  C   UNL     1     -10.857   8.406  70.240  1.00  0.00    -0.239 C  
HETATM   19  C   UNL     1     -10.839   7.938  71.689  1.00  0.00    -0.232 C  
HETATM   20  N   UNL     1      -9.968   6.772  71.684  1.00  0.00    -0.173 NA 
HETATM   21  H   UNL     1     -10.114   6.167  72.492  1.00  0.00     0.000 HD 
HETATM   22  C   UNL     1     -10.159   6.064  70.395  1.00  0.00    -0.194 C  
HETATM   23  C   UNL     1     -10.770   7.105  69.453  1.00  0.00    -0.246 C  
BRANCH  22  24
HETATM   24  C   UNL     1      -8.808   5.443  69.933  1.00  0.00    -0.125 C  
HETATM   25  O   UNL     1      -8.053   6.066  69.175  1.00  0.00    -0.108 OA 
HETATM   26  N   UNL     1      -8.439   4.196  70.425  1.00  0.00    -0.071 N  
HETATM   27  C   UNL     1      -9.180   3.405  71.395  1.00  0.00    -0.123 C  
HETATM   28  C   UNL     1      -7.202   3.587  69.954  1.00  0.00    -0.041 C  
ENDBRANCH  22  24
ENDBRANCH  17  18
ENDBRANCH  11  17
TORSDOF 4
ENDMDL
MODEL      129
REMARK 921   NORMALIZED FREE ENERGY PREDICTED BY IDOCK:   -4.48 KCAL/MOL
REMARK 922        TOTAL FREE ENERGY PREDICTED BY IDOCK:   -6.50 KCAL/MOL
REMARK 923 INTER-LIGAND FREE ENERGY PREDICTED BY IDOCK:   -7.40 KCAL/MOL
REMARK 924 INTRA-LIGAND FREE ENERGY PREDICTED BY IDOCK:    0.90 KCAL/MOL
REMARK 927      BINDING AFFINITY PREDICTED BY RF-SCORE:    0.00 PKD
ROOT
HETATM    1  C   UNL     1     -10.029   9.233  71.006  1.00  0.00    -0.364 C  
HETATM    2  C   UNL     1     -10.289   9.094  69.472  1.00  0.00    -0.215 C  
HETATM    3  C   UNL     1      -8.548   9.356  70.615  1.00  0.00    -0.198 C  
HETATM    4  N   UNL     1      -8.826   9.302  69.280  1.00  0.00    -0.141 N  
HETATM    5  C   UNL     1     -10.979  10.144  68.594  1.00  0.00    -0.273 C  
HETATM    6  O   UNL     1      -6.283  10.091  68.671  1.00  0.00    -0.045 OA 
HETATM    7  O   UNL     1      -7.481   9.520  71.157  1.00  0.00    -0.324 OA 
HETATM    8  C   UNL     1      -8.640  10.419  68.477  1.00  0.00    -0.134 C  
HETATM    9  O   UNL     1      -6.971  11.843  67.453  1.00  0.00    -0.105 OA 
HETATM   10  C   UNL     1      -7.251  10.888  68.160  1.00  0.00    -0.083 C  
HETATM   11  C   UNL     1      -9.810  10.938  68.054  1.00  0.00    -0.171 C  
HETATM   12  C   UNL     1     -12.035  10.920  69.365  1.00  0.00    -0.393 C  
ENDROOT
BRANCH   1  13
HETATM   13  C   UNL     1     -10.393   8.028  71.854  1.00  0.00    -0.223 C  
HETATM   14  C   UNL     1     -11.737   8.244  72.536  1.00  0.00    -0.451 C  
HETATM   15  O   UNL     1     -10.513   6.894  71.003  1.00  0.00    -0.212 OA 
HETATM   16  H   UNL     1     -10.741   6.140  71.534  1.00  0.00     0.000 HD 
ENDBRANCH   1  13
BRANCH  11  17
HETATM   17  S   UNL     1     -10.069  12.366  67.128  1.00  0.00    -0.214 SA 
BRANCH  17  18
HETATM   18  C   UNL     1     -10.995  11.823  65.643  1.00  0.00    -0.295 C  
HETATM   19  C   UNL     1     -10.236  11.790  64.323  1.00  0.00    -0.302 C  
HETATM   20  N   UNL     1     -10.466  13.104  63.740  1.00  0.00    -0.566 NA 
HETATM   21  H   UNL     1     -10.304  13.123  62.732  1.00  0.00     0.000 HD 
HETATM   22  C   UNL     1     -11.836  13.535  64.108  1.00  0.00    -0.437 C  
HETATM   23  C   UNL     1     -12.209  12.685  65.326  1.00  0.00    -0.532 C  
BRANCH  22  24
HETATM   24  C   UNL     1     -11.861  15.077  64.326  1.00  0.00    -0.275 C  
HETATM   25  O   UNL     1     -12.786  15.763  63.873  1.00  0.00    -0.672 OA 
HETATM   26  N   UNL     1     -10.852  15.665  65.081  1.00  0.00    -0.416 N  
HETATM   27  C   UNL     1      -9.768  14.966  65.752  1.00  0.00    -0.324 C  
HETATM   28  C   UNL     1     -10.842  17.113  65.242  1.00  0.00    -0.036 C  
ENDBRANCH  22  24
ENDBRANCH  17  18
ENDBRANCH  11  17
TORSDOF 4
ENDMDL
MODEL      130
REMARK 921   NORMALIZED FREE ENERGY PREDICTED BY IDOCK:   -4.47 KCAL/MOL
REMARK 922        TOTAL FREE ENERGY PREDICTED BY IDOCK:   -6.48 KCAL/MOL
REMARK 923 INTER-LIGAND FREE ENERGY PREDICTED BY IDOCK:   -5.87 KCAL/MOL
REMARK 924 INTRA-LIGAND FREE ENERGY PREDICTED BY IDOCK:   -0.61 KCAL/MOL
REMARK 927      BINDING AFFINITY PREDICTED BY RF-SCORE:    0.00 PKD
ROOT
HETATM    1  C   UNL     1      -9.082   7.096  68.048  1.00  0.00    -0.132 C  
HETATM    2  C   UNL     1     -10.222   7.778  67.225  1.00  0.00    -0.273 C  
HETATM    3  C   UNL     1      -8.409   6.868  66.685  1.00  0.00    -0.118 C  
HETATM    4  N   UNL     1      -9.393   7.534  66.012  1.00  0.00    -0.066 N  
HETATM    5  C   UNL     1     -10.535   9.278  67.223  1.00  0.00    -0.334 C  
HETATM    6  O   UNL     1      -7.869   7.588  63.745  1.00  0.00    -0.121 OA 
HETATM    7  O   UNL     1      -7.391   6.387  66.249  1.00  0.00    -0.077 OA 
HETATM    8  C   UNL     1      -9.128   8.755  65.406  1.00  0.00    -0.134 C  
HETATM    9  O   UNL     1      -7.982   9.819  63.557  1.00  0.00    -0.130 OA 
HETATM   10  C   UNL     1      -8.265   8.808  64.180  1.00  0.00    -0.162 C  
HETATM   11  C   UNL     1      -9.743   9.776  66.034  1.00  0.00    -0.255 C  
HETATM   12  C   UNL     1     -10.228   9.921  68.567  1.00  0.00    -0.199 C  
ENDROOT
BRANCH   1  13
HETATM   13  C   UNL     1      -9.471   5.844  68.812  1.00  0.00    -0.126 C  
HETATM   14  C   UNL     1      -8.493   5.590  69.950  1.00  0.00    -0.116 C  
HETATM   15  O   UNL     1     -10.761   6.041  69.381  1.00  0.00    -0.262 OA 
HETATM   16  H   UNL     1     -11.004   5.258  69.859  1.00  0.00     0.000 HD 
ENDBRANCH   1  13
BRANCH  11  17
HETATM   17  S   UNL     1      -9.625  11.460  65.699  1.00  0.00    -0.235 SA 
BRANCH  17  18
HETATM   18  C   UNL     1     -11.353  12.063  65.620  1.00  0.00    -0.329 C  
HETATM   19  C   UNL     1     -11.680  13.103  64.556  1.00  0.00    -0.371 C  
HETATM   20  N   UNL     1     -11.475  14.381  65.222  1.00  0.00    -0.338 NA 
HETATM   21  H   UNL     1     -11.958  15.150  64.757  1.00  0.00     0.000 HD 
HETATM   22  C   UNL     1     -11.875  14.227  66.641  1.00  0.00    -0.421 C  
HETATM   23  C   UNL     1     -11.834  12.719  66.907  1.00  0.00    -0.440 C  
BRANCH  22  24
HETATM   24  C   UNL     1     -10.954  15.099  67.544  1.00  0.00    -0.310 C  
HETATM   25  O   UNL     1      -9.940  15.635  67.078  1.00  0.00    -0.234 OA 
HETATM   26  N   UNL     1     -11.315  15.307  68.870  1.00  0.00    -0.285 N  
HETATM   27  C   UNL     1     -12.525  14.822  69.513  1.00  0.00    -0.100 C  
HETATM   28  C   UNL     1     -10.428  16.077  69.732  1.00  0.00    -0.300 C  
ENDBRANCH  22  24
ENDBRANCH  17  18
ENDBRANCH  11  17
TORSDOF 4
ENDMDL
MODEL      131
REMARK 921   NORMALIZED FREE ENERGY PREDICTED BY IDOCK:   -4.46 KCAL/MOL
REMARK 922        TOTAL FREE ENERGY PREDICTED BY IDOCK:   -6.48 KCAL/MOL
REMARK 923 INTER-LIGAND FREE ENERGY PREDICTED BY IDOCK:   -5.65 KCAL/MOL
REMARK 924 INTRA-LIGAND FREE ENERGY PREDICTED BY IDOCK:   -0.83 KCAL/MOL
REMARK 927      BINDING AFFINITY PREDICTED BY RF-SCORE:    0.00 PKD
ROOT
HETATM    1  C   UNL     1     -10.838  11.384  66.023  1.00  0.00    -0.306 C  
HETATM    2  C   UNL     1      -9.972  11.782  67.261  1.00  0.00    -0.192 C  
HETATM    3  C   UNL     1      -9.616  10.556  65.594  1.00  0.00    -0.226 C  
HETATM    4  N   UNL     1      -8.920  10.872  66.725  1.00  0.00    -0.148 N  
HETATM    5  C   UNL     1     -10.225  11.324  68.701  1.00  0.00    -0.214 C  
HETATM    6  O   UNL     1      -7.058   8.952  66.171  1.00  0.00    -0.082 OA 
HETATM    7  O   UNL     1      -9.296   9.817  64.694  1.00  0.00    -0.260 OA 
HETATM    8  C   UNL     1      -8.649   9.900  67.679  1.00  0.00    -0.122 C  
HETATM    9  O   UNL     1      -7.327   7.927  68.147  1.00  0.00    -0.094 OA 
HETATM   10  C   UNL     1      -7.655   8.818  67.380  1.00  0.00    -0.090 C  
HETATM   11  C   UNL     1      -9.346  10.098  68.815  1.00  0.00    -0.168 C  
HETATM   12  C   UNL     1     -11.708  11.131  68.980  1.00  0.00    -0.408 C  
ENDROOT
BRANCH   1  13
HETATM   13  C   UNL     1     -11.230  12.518  65.094  1.00  0.00    -0.304 C  
HETATM   14  C   UNL     1     -11.947  11.975  63.865  1.00  0.00    -0.542 C  
HETATM   15  O   UNL     1     -12.132  13.377  65.781  1.00  0.00    -0.386 OA 
HETATM   16  H   UNL     1     -12.377  14.087  65.199  1.00  0.00     0.000 HD 
ENDBRANCH   1  13
BRANCH  11  17
HETATM   17  S   UNL     1      -9.404   9.101  70.217  1.00  0.00    -0.239 SA 
BRANCH  17  18
HETATM   18  C   UNL     1     -10.876   8.034  69.996  1.00  0.00    -0.235 C  
HETATM   19  C   UNL     1     -11.192   7.043  71.109  1.00  0.00    -0.270 C  
HETATM   20  N   UNL     1     -10.497   5.824  70.719  1.00  0.00    -0.242 NA 
HETATM   21  H   UNL     1     -10.871   4.993  71.178  1.00  0.00     0.000 HD 
HETATM   22  C   UNL     1     -10.536   5.729  69.240  1.00  0.00    -0.287 C  
HETATM   23  C   UNL     1     -10.816   7.154  68.755  1.00  0.00    -0.157 C  
BRANCH  22  24
HETATM   24  C   UNL     1      -9.217   5.085  68.722  1.00  0.00    -0.122 C  
HETATM   25  O   UNL     1      -8.253   4.922  69.481  1.00  0.00    -0.082 OA 
HETATM   26  N   UNL     1      -9.156   4.648  67.403  1.00  0.00    -0.118 N  
HETATM   27  C   UNL     1     -10.243   4.685  66.439  1.00  0.00    -0.260 C  
HETATM   28  C   UNL     1      -7.906   4.093  66.899  1.00  0.00    -0.097 C  
ENDBRANCH  22  24
ENDBRANCH  17  18
ENDBRANCH  11  17
TORSDOF 4
ENDMDL
MODEL      132
REMARK 921   NORMALIZED FREE ENERGY PREDICTED BY IDOCK:   -4.46 KCAL/MOL
REMARK 922        TOTAL FREE ENERGY PREDICTED BY IDOCK:   -6.47 KCAL/MOL
REMARK 923 INTER-LIGAND FREE ENERGY PREDICTED BY IDOCK:   -5.71 KCAL/MOL
REMARK 924 INTRA-LIGAND FREE ENERGY PREDICTED BY IDOCK:   -0.76 KCAL/MOL
REMARK 927      BINDING AFFINITY PREDICTED BY RF-SCORE:    0.00 PKD
ROOT
HETATM    1  C   UNL     1     -11.834   8.270  71.501  1.00  0.00    -0.335 C  
HETATM    2  C   UNL     1     -12.059   6.921  70.745  1.00  0.00    -0.349 C  
HETATM    3  C   UNL     1     -11.342   7.390  72.661  1.00  0.00    -0.313 C  
HETATM    4  N   UNL     1     -11.486   6.240  71.940  1.00  0.00    -0.296 N  
HETATM    5  C   UNL     1     -11.235   6.430  69.550  1.00  0.00    -0.477 C  
HETATM    6  O   UNL     1     -10.082   4.834  73.814  1.00  0.00    -0.152 OA 
HETATM    7  O   UNL     1     -10.901   7.529  73.777  1.00  0.00    -0.316 OA 
HETATM    8  C   UNL     1     -10.371   5.514  71.543  1.00  0.00    -0.222 C  
HETATM    9  O   UNL     1      -8.584   4.080  72.326  1.00  0.00    -0.102 OA 
HETATM   10  C   UNL     1      -9.568   4.763  72.563  1.00  0.00    -0.138 C  
HETATM   11  C   UNL     1     -10.176   5.575  70.211  1.00  0.00    -0.255 C  
HETATM   12  C   UNL     1     -10.743   7.584  68.689  1.00  0.00    -0.111 C  
ENDROOT
BRANCH   1  13
HETATM   13  C   UNL     1     -13.078   9.094  71.775  1.00  0.00    -0.392 C  
HETATM   14  C   UNL     1     -12.802  10.571  71.535  1.00  0.00    -0.568 C  
HETATM   15  O   UNL     1     -14.100   8.688  70.871  1.00  0.00    -0.592 OA 
HETATM   16  H   UNL     1     -14.878   9.204  71.043  1.00  0.00     0.000 HD 
ENDBRANCH   1  13
BRANCH  11  17
HETATM   17  S   UNL     1      -8.877   4.917  69.293  1.00  0.00    -0.090 SA 
BRANCH  17  18
HETATM   18  C   UNL     1      -9.667   4.017  67.907  1.00  0.00    -0.088 C  
HETATM   19  C   UNL     1      -9.005   2.724  67.448  1.00  0.00    -0.159 C  
HETATM   20  N   UNL     1      -8.090   3.138  66.394  1.00  0.00    -0.084 NA 
HETATM   21  H   UNL     1      -7.824   2.369  65.779  1.00  0.00     0.000 HD 
HETATM   22  C   UNL     1      -8.713   4.268  65.665  1.00  0.00    -0.120 C  
HETATM   23  C   UNL     1      -9.767   4.830  66.624  1.00  0.00    -0.205 C  
BRANCH  22  24
HETATM   24  C   UNL     1      -7.611   5.269  65.209  1.00  0.00    -0.082 C  
HETATM   25  O   UNL     1      -6.791   5.718  66.020  1.00  0.00    -0.055 OA 
HETATM   26  N   UNL     1      -7.532   5.612  63.864  1.00  0.00    -0.062 N  
HETATM   27  C   UNL     1      -8.363   5.082  62.795  1.00  0.00    -0.109 C  
HETATM   28  C   UNL     1      -6.537   6.590  63.441  1.00  0.00    -0.040 C  
ENDBRANCH  22  24
ENDBRANCH  17  18
ENDBRANCH  11  17
TORSDOF 4
ENDMDL
MODEL      133
REMARK 921   NORMALIZED FREE ENERGY PREDICTED BY IDOCK:   -4.43 KCAL/MOL
REMARK 922        TOTAL FREE ENERGY PREDICTED BY IDOCK:   -6.44 KCAL/MOL
REMARK 923 INTER-LIGAND FREE ENERGY PREDICTED BY IDOCK:   -6.44 KCAL/MOL
REMARK 924 INTRA-LIGAND FREE ENERGY PREDICTED BY IDOCK:   -0.00 KCAL/MOL
REMARK 927      BINDING AFFINITY PREDICTED BY RF-SCORE:    0.00 PKD
ROOT
HETATM    1  C   UNL     1     -10.893  12.740  67.618  1.00  0.00    -0.252 C  
HETATM    2  C   UNL     1     -11.565  11.350  67.379  1.00  0.00    -0.184 C  
HETATM    3  C   UNL     1     -11.509  12.654  69.023  1.00  0.00    -0.303 C  
HETATM    4  N   UNL     1     -12.020  11.408  68.797  1.00  0.00    -0.332 N  
HETATM    5  C   UNL     1     -10.817  10.020  67.235  1.00  0.00    -0.284 C  
HETATM    6  O   UNL     1     -12.573  11.103  71.454  1.00  0.00    -0.385 OA 
HETATM    7  O   UNL     1     -11.540  13.308  70.038  1.00  0.00    -0.242 OA 
HETATM    8  C   UNL     1     -11.509  10.306  69.470  1.00  0.00    -0.210 C  
HETATM    9  O   UNL     1     -11.392   9.205  71.623  1.00  0.00    -0.330 OA 
HETATM   10  C   UNL     1     -11.774  10.139  70.937  1.00  0.00    -0.378 C  
HETATM   11  C   UNL     1     -10.826   9.483  68.650  1.00  0.00    -0.139 C  
HETATM   12  C   UNL     1      -9.455  10.205  66.583  1.00  0.00    -0.211 C  
ENDROOT
BRANCH   1  13
HETATM   13  C   UNL     1     -11.390  13.877  66.745  1.00  0.00    -0.333 C  
HETATM   14  C   UNL     1     -12.179  13.333  65.561  1.00  0.00    -0.506 C  
HETATM   15  O   UNL     1     -12.267  14.692  67.515  1.00  0.00    -0.583 OA 
HETATM   16  H   UNL     1     -12.578  15.403  66.968  1.00  0.00     0.000 HD 
ENDBRANCH   1  13
BRANCH  11  17
HETATM   17  S   UNL     1      -9.946   8.061  69.057  1.00  0.00    -0.189 SA 
BRANCH  17  18
HETATM   18  C   UNL     1      -8.250   8.633  69.445  1.00  0.00    -0.113 C  
HETATM   19  C   UNL     1      -7.159   7.573  69.527  1.00  0.00    -0.069 C  
HETATM   20  N   UNL     1      -7.134   7.185  70.931  1.00  0.00    -0.068 NA 
HETATM   21  H   UNL     1      -6.258   6.737  71.200  1.00  0.00     0.000 HD 
HETATM   22  C   UNL     1      -7.439   8.387  71.743  1.00  0.00    -0.103 C  
HETATM   23  C   UNL     1      -8.134   9.354  70.781  1.00  0.00    -0.157 C  
BRANCH  22  24
HETATM   24  C   UNL     1      -8.259   7.976  73.001  1.00  0.00    -0.179 C  
HETATM   25  O   UNL     1      -8.252   8.683  74.017  1.00  0.00    -0.359 OA 
HETATM   26  N   UNL     1      -9.040   6.828  72.948  1.00  0.00    -0.128 N  
HETATM   27  C   UNL     1      -9.218   5.967  71.789  1.00  0.00    -0.148 C  
HETATM   28  C   UNL     1      -9.767   6.410  74.140  1.00  0.00    -0.252 C  
ENDBRANCH  22  24
ENDBRANCH  17  18
ENDBRANCH  11  17
TORSDOF 4
ENDMDL
MODEL      134
REMARK 921   NORMALIZED FREE ENERGY PREDICTED BY IDOCK:   -4.41 KCAL/MOL
REMARK 922        TOTAL FREE ENERGY PREDICTED BY IDOCK:   -6.42 KCAL/MOL
REMARK 923 INTER-LIGAND FREE ENERGY PREDICTED BY IDOCK:   -5.44 KCAL/MOL
REMARK 924 INTRA-LIGAND FREE ENERGY PREDICTED BY IDOCK:   -0.97 KCAL/MOL
REMARK 927      BINDING AFFINITY PREDICTED BY RF-SCORE:    0.00 PKD
ROOT
HETATM    1  C   UNL     1      -8.349  10.158  65.249  1.00  0.00    -0.162 C  
HETATM    2  C   UNL     1      -9.502   9.127  65.468  1.00  0.00    -0.206 C  
HETATM    3  C   UNL     1      -9.369  11.207  65.718  1.00  0.00    -0.214 C  
HETATM    4  N   UNL     1     -10.326  10.266  65.964  1.00  0.00    -0.214 N  
HETATM    5  C   UNL     1      -9.542   8.069  66.576  1.00  0.00    -0.295 C  
HETATM    6  O   UNL     1     -11.848  12.096  67.305  1.00  0.00    -0.530 OA 
HETATM    7  O   UNL     1      -9.415  12.398  65.916  1.00  0.00    -0.219 OA 
HETATM    8  C   UNL     1     -10.723   9.989  67.266  1.00  0.00    -0.244 C  
HETATM    9  O   UNL     1     -11.947  10.853  69.168  1.00  0.00    -0.326 OA 
HETATM   10  C   UNL     1     -11.530  10.997  68.030  1.00  0.00    -0.290 C  
HETATM   11  C   UNL     1     -10.319   8.769  67.670  1.00  0.00    -0.254 C  
HETATM   12  C   UNL     1      -8.150   7.573  66.935  1.00  0.00    -0.116 C  
ENDROOT
BRANCH   1  13
HETATM   13  C   UNL     1      -7.854  10.308  63.822  1.00  0.00    -0.118 C  
HETATM   14  C   UNL     1      -8.077   9.018  63.044  1.00  0.00    -0.167 C  
HETATM   15  O   UNL     1      -8.605  11.336  63.186  1.00  0.00    -0.436 OA 
HETATM   16  H   UNL     1      -8.295  11.429  62.293  1.00  0.00     0.000 HD 
ENDBRANCH   1  13
BRANCH  11  17
HETATM   17  S   UNL     1     -10.496   8.047  69.223  1.00  0.00    -0.190 SA 
BRANCH  17  18
HETATM   18  C   UNL     1      -9.475   9.066  70.352  1.00  0.00    -0.210 C  
HETATM   19  C   UNL     1      -7.965   9.017  70.162  1.00  0.00    -0.114 C  
HETATM   20  N   UNL     1      -7.522   7.950  71.048  1.00  0.00    -0.071 NA 
HETATM   21  H   UNL     1      -6.529   8.013  71.276  1.00  0.00     0.000 HD 
HETATM   22  C   UNL     1      -8.389   7.963  72.249  1.00  0.00    -0.131 C  
HETATM   23  C   UNL     1      -9.652   8.717  71.823  1.00  0.00    -0.371 C  
BRANCH  22  24
HETATM   24  C   UNL     1      -8.608   6.506  72.754  1.00  0.00    -0.124 C  
HETATM   25  O   UNL     1      -9.434   5.766  72.205  1.00  0.00    -0.150 OA 
HETATM   26  N   UNL     1      -7.825   6.033  73.801  1.00  0.00    -0.099 N  
HETATM   27  C   UNL     1      -6.755   6.760  74.465  1.00  0.00    -0.091 C  
HETATM   28  C   UNL     1      -8.064   4.690  74.312  1.00  0.00    -0.099 C  
ENDBRANCH  22  24
ENDBRANCH  17  18
ENDBRANCH  11  17
TORSDOF 4
ENDMDL
MODEL      135
REMARK 921   NORMALIZED FREE ENERGY PREDICTED BY IDOCK:   -4.40 KCAL/MOL
REMARK 922        TOTAL FREE ENERGY PREDICTED BY IDOCK:   -6.40 KCAL/MOL
REMARK 923 INTER-LIGAND FREE ENERGY PREDICTED BY IDOCK:   -5.32 KCAL/MOL
REMARK 924 INTRA-LIGAND FREE ENERGY PREDICTED BY IDOCK:   -1.08 KCAL/MOL
REMARK 927      BINDING AFFINITY PREDICTED BY RF-SCORE:    0.00 PKD
ROOT
HETATM    1  C   UNL     1      -8.980   7.460  71.525  1.00  0.00    -0.132 C  
HETATM    2  C   UNL     1      -8.889   8.984  71.190  1.00  0.00    -0.215 C  
HETATM    3  C   UNL     1     -10.329   7.812  72.171  1.00  0.00    -0.224 C  
HETATM    4  N   UNL     1     -10.244   9.122  71.796  1.00  0.00    -0.316 N  
HETATM    5  C   UNL     1      -8.997   9.588  69.785  1.00  0.00    -0.214 C  
HETATM    6  O   UNL     1     -12.864   9.528  72.450  1.00  0.00    -0.363 OA 
HETATM    7  O   UNL     1     -11.234   7.248  72.738  1.00  0.00    -0.296 OA 
HETATM    8  C   UNL     1     -11.106   9.638  70.838  1.00  0.00    -0.352 C  
HETATM    9  O   UNL     1     -13.397  10.296  70.413  1.00  0.00    -0.178 OA 
HETATM   10  C   UNL     1     -12.556   9.835  71.168  1.00  0.00    -0.345 C  
HETATM   11  C   UNL     1     -10.469   9.925  69.686  1.00  0.00    -0.249 C  
HETATM   12  C   UNL     1      -8.436   8.654  68.724  1.00  0.00    -0.129 C  
ENDROOT
BRANCH   1  13
HETATM   13  C   UNL     1      -7.916   6.923  72.464  1.00  0.00    -0.099 C  
HETATM   14  C   UNL     1      -6.708   7.849  72.485  1.00  0.00    -0.074 C  
HETATM   15  O   UNL     1      -8.453   6.876  73.780  1.00  0.00    -0.122 OA 
HETATM   16  H   UNL     1      -7.787   6.540  74.368  1.00  0.00     0.000 HD 
ENDBRANCH   1  13
BRANCH  11  17
HETATM   17  S   UNL     1     -11.145  10.485  68.205  1.00  0.00    -0.281 SA 
BRANCH  17  18
HETATM   18  C   UNL     1     -11.746  12.180  68.555  1.00  0.00    -0.330 C  
HETATM   19  C   UNL     1     -11.946  13.108  67.364  1.00  0.00    -0.327 C  
HETATM   20  N   UNL     1     -10.674  13.803  67.227  1.00  0.00    -0.281 NA 
HETATM   21  H   UNL     1     -10.754  14.672  66.698  1.00  0.00     0.000 HD 
HETATM   22  C   UNL     1     -10.117  14.007  68.585  1.00  0.00    -0.217 C  
HETATM   23  C   UNL     1     -10.831  12.981  69.470  1.00  0.00     0.139 C  
BRANCH  22  24
HETATM   24  C   UNL     1      -8.564  13.896  68.538  1.00  0.00    -0.137 C  
HETATM   25  O   UNL     1      -8.014  12.794  68.423  1.00  0.00    -0.146 OA 
HETATM   26  N   UNL     1      -7.806  15.061  68.576  1.00  0.00    -0.130 N  
HETATM   27  C   UNL     1      -8.326  16.419  68.608  1.00  0.00    -0.221 C  
HETATM   28  C   UNL     1      -6.353  14.959  68.586  1.00  0.00    -0.084 C  
ENDBRANCH  22  24
ENDBRANCH  17  18
ENDBRANCH  11  17
TORSDOF 4
ENDMDL
MODEL      136
REMARK 921   NORMALIZED FREE ENERGY PREDICTED BY IDOCK:   -4.40 KCAL/MOL
REMARK 922        TOTAL FREE ENERGY PREDICTED BY IDOCK:   -6.40 KCAL/MOL
REMARK 923 INTER-LIGAND FREE ENERGY PREDICTED BY IDOCK:   -5.33 KCAL/MOL
REMARK 924 INTRA-LIGAND FREE ENERGY PREDICTED BY IDOCK:   -1.06 KCAL/MOL
REMARK 927      BINDING AFFINITY PREDICTED BY RF-SCORE:    0.00 PKD
ROOT
HETATM    1  C   UNL     1      -7.904  11.448  68.639  1.00  0.00    -0.139 C  
HETATM    2  C   UNL     1      -8.497  10.004  68.590  1.00  0.00    -0.118 C  
HETATM    3  C   UNL     1      -9.347  11.912  68.383  1.00  0.00    -0.184 C  
HETATM    4  N   UNL     1      -9.835  10.638  68.418  1.00  0.00    -0.156 N  
HETATM    5  C   UNL     1      -8.633   9.062  69.791  1.00  0.00    -0.138 C  
HETATM    6  O   UNL     1     -12.398  11.574  68.538  1.00  0.00    -0.459 OA 
HETATM    7  O   UNL     1      -9.955  12.949  68.262  1.00  0.00    -0.228 OA 
HETATM    8  C   UNL     1     -10.656  10.227  69.461  1.00  0.00    -0.245 C  
HETATM    9  O   UNL     1     -12.866  10.452  70.422  1.00  0.00    -0.314 OA 
HETATM   10  C   UNL     1     -12.055  10.757  69.562  1.00  0.00    -0.272 C  
HETATM   11  C   UNL     1     -10.042   9.338  70.267  1.00  0.00    -0.219 C  
HETATM   12  C   UNL     1      -7.516   9.273  70.803  1.00  0.00    -0.144 C  
ENDROOT
BRANCH   1  13
HETATM   13  C   UNL     1      -6.897  11.790  67.557  1.00  0.00    -0.113 C  
HETATM   14  C   UNL     1      -6.521  13.264  67.627  1.00  0.00    -0.167 C  
HETATM   15  O   UNL     1      -5.716  11.028  67.779  1.00  0.00    -0.042 OA 
HETATM   16  H   UNL     1      -5.085  11.242  67.102  1.00  0.00     0.000 HD 
ENDBRANCH   1  13
BRANCH  11  17
HETATM   17  S   UNL     1     -10.632   8.638  71.725  1.00  0.00    -0.351 SA 
BRANCH  17  18
HETATM   18  C   UNL     1     -11.623   7.189  71.203  1.00  0.00    -0.301 C  
HETATM   19  C   UNL     1     -11.565   5.950  72.087  1.00  0.00    -0.256 C  
HETATM   20  N   UNL     1     -10.480   5.156  71.529  1.00  0.00    -0.210 NA 
HETATM   21  H   UNL     1     -10.531   4.173  71.798  1.00  0.00     0.000 HD 
HETATM   22  C   UNL     1     -10.480   5.350  70.060  1.00  0.00    -0.303 C  
HETATM   23  C   UNL     1     -11.251   6.652  69.828  1.00  0.00    -0.413 C  
BRANCH  22  24
HETATM   24  C   UNL     1      -9.017   5.326  69.527  1.00  0.00    -0.103 C  
HETATM   25  O   UNL     1      -8.069   5.598  70.275  1.00  0.00    -0.100 OA 
HETATM   26  N   UNL     1      -8.788   4.945  68.210  1.00  0.00    -0.102 N  
HETATM   27  C   UNL     1      -9.796   4.505  67.259  1.00  0.00    -0.175 C  
HETATM   28  C   UNL     1      -7.426   4.973  67.692  1.00  0.00    -0.079 C  
ENDBRANCH  22  24
ENDBRANCH  17  18
ENDBRANCH  11  17
TORSDOF 4
ENDMDL
MODEL      137
REMARK 921   NORMALIZED FREE ENERGY PREDICTED BY IDOCK:   -4.39 KCAL/MOL
REMARK 922        TOTAL FREE ENERGY PREDICTED BY IDOCK:   -6.39 KCAL/MOL
REMARK 923 INTER-LIGAND FREE ENERGY PREDICTED BY IDOCK:   -5.72 KCAL/MOL
REMARK 924 INTRA-LIGAND FREE ENERGY PREDICTED BY IDOCK:   -0.67 KCAL/MOL
REMARK 927      BINDING AFFINITY PREDICTED BY RF-SCORE:    0.00 PKD
ROOT
HETATM    1  C   UNL     1     -10.704  12.619  67.262  1.00  0.00    -0.259 C  
HETATM    2  C   UNL     1     -11.285  11.171  67.352  1.00  0.00    -0.294 C  
HETATM    3  C   UNL     1     -11.597  12.915  68.477  1.00  0.00    -0.323 C  
HETATM    4  N   UNL     1     -12.025  11.622  68.564  1.00  0.00    -0.287 N  
HETATM    5  C   UNL     1     -10.497   9.928  67.782  1.00  0.00    -0.292 C  
HETATM    6  O   UNL     1     -13.113  12.098  71.024  1.00  0.00    -0.143 OA 
HETATM    7  O   UNL     1     -11.851  13.843  69.208  1.00  0.00    -0.303 OA 
HETATM    8  C   UNL     1     -11.644  10.825  69.636  1.00  0.00    -0.316 C  
HETATM    9  O   UNL     1     -11.956  10.449  72.007  1.00  0.00     0.084 OA 
HETATM   10  C   UNL     1     -12.205  11.093  71.001  1.00  0.00    -0.333 C  
HETATM   11  C   UNL     1     -10.790   9.851  69.264  1.00  0.00    -0.227 C  
HETATM   12  C   UNL     1      -9.034  10.019  67.377  1.00  0.00    -0.139 C  
ENDROOT
BRANCH   1  13
HETATM   13  C   UNL     1     -11.032  13.388  65.996  1.00  0.00    -0.271 C  
HETATM   14  C   UNL     1     -10.255  14.697  65.954  1.00  0.00    -0.344 C  
HETATM   15  O   UNL     1     -10.633  12.609  64.874  1.00  0.00    -0.286 OA 
HETATM   16  H   UNL     1     -10.838  13.090  64.082  1.00  0.00     0.000 HD 
ENDBRANCH   1  13
BRANCH  11  17
HETATM   17  S   UNL     1      -9.986   8.701  70.261  1.00  0.00    -0.192 SA 
BRANCH  17  18
HETATM   18  C   UNL     1     -11.273   7.487  70.738  1.00  0.00    -0.270 C  
HETATM   19  C   UNL     1     -11.252   6.978  72.173  1.00  0.00    -0.256 C  
HETATM   20  N   UNL     1     -10.425   5.780  72.122  1.00  0.00    -0.205 NA 
HETATM   21  H   UNL     1     -10.582   5.158  72.915  1.00  0.00     0.000 HD 
HETATM   22  C   UNL     1     -10.662   5.117  70.817  1.00  0.00    -0.062 C  
HETATM   23  C   UNL     1     -11.247   6.207  69.915  1.00  0.00    -0.484 C  
BRANCH  22  24
HETATM   24  C   UNL     1      -9.342   4.459  70.316  1.00  0.00    -0.148 C  
HETATM   25  O   UNL     1      -8.524   5.111  69.654  1.00  0.00    -0.091 OA 
HETATM   26  N   UNL     1      -9.074   3.141  70.667  1.00  0.00    -0.108 N  
HETATM   27  C   UNL     1      -9.896   2.298  71.520  1.00  0.00    -0.131 C  
HETATM   28  C   UNL     1      -7.867   2.505  70.155  1.00  0.00    -0.042 C  
ENDBRANCH  22  24
ENDBRANCH  17  18
ENDBRANCH  11  17
TORSDOF 4
ENDMDL
MODEL      138
REMARK 921   NORMALIZED FREE ENERGY PREDICTED BY IDOCK:   -4.38 KCAL/MOL
REMARK 922        TOTAL FREE ENERGY PREDICTED BY IDOCK:   -6.38 KCAL/MOL
REMARK 923 INTER-LIGAND FREE ENERGY PREDICTED BY IDOCK:   -5.33 KCAL/MOL
REMARK 924 INTRA-LIGAND FREE ENERGY PREDICTED BY IDOCK:   -1.05 KCAL/MOL
REMARK 927      BINDING AFFINITY PREDICTED BY RF-SCORE:    0.00 PKD
ROOT
HETATM    1  C   UNL     1      -9.761  14.868  67.710  1.00  0.00    -0.212 C  
HETATM    2  C   UNL     1      -9.056  13.667  67.000  1.00  0.00    -0.248 C  
HETATM    3  C   UNL     1     -10.975  13.932  67.809  1.00  0.00    -0.256 C  
HETATM    4  N   UNL     1     -10.301  12.885  67.249  1.00  0.00    -0.233 N  
HETATM    5  C   UNL     1      -7.915  12.836  67.595  1.00  0.00    -0.165 C  
HETATM    6  O   UNL     1     -12.283  11.155  67.980  1.00  0.00    -0.584 OA 
HETATM    7  O   UNL     1     -12.100  13.953  68.250  1.00  0.00    -0.366 OA 
HETATM    8  C   UNL     1      -9.976  11.770  68.010  1.00  0.00    -0.188 C  
HETATM    9  O   UNL     1     -10.885   9.810  69.102  1.00  0.00    -0.219 OA 
HETATM   10  C   UNL     1     -11.056  10.827  68.449  1.00  0.00    -0.266 C  
HETATM   11  C   UNL     1      -8.651  11.680  68.236  1.00  0.00    -0.162 C  
HETATM   12  C   UNL     1      -7.023  13.668  68.504  1.00  0.00    -0.104 C  
ENDROOT
BRANCH   1  13
HETATM   13  C   UNL     1      -9.954  16.116  66.869  1.00  0.00    -0.254 C  
HETATM   14  C   UNL     1     -10.865  15.824  65.684  1.00  0.00    -0.316 C  
HETATM   15  O   UNL     1     -10.584  17.110  67.668  1.00  0.00    -0.350 OA 
HETATM   16  H   UNL     1     -10.705  17.891  67.142  1.00  0.00     0.000 HD 
ENDBRANCH   1  13
BRANCH  11  17
HETATM   17  S   UNL     1      -7.810  10.529  69.202  1.00  0.00    -0.142 SA 
BRANCH  17  18
HETATM   18  C   UNL     1      -7.318   9.193  68.049  1.00  0.00    -0.083 C  
HETATM   19  C   UNL     1      -8.307   8.822  66.951  1.00  0.00    -0.108 C  
HETATM   20  N   UNL     1      -9.109   7.754  67.530  1.00  0.00    -0.129 NA 
HETATM   21  H   UNL     1      -9.583   7.189  66.824  1.00  0.00     0.000 HD 
HETATM   22  C   UNL     1      -8.232   6.950  68.414  1.00  0.00    -0.120 C  
HETATM   23  C   UNL     1      -7.043   7.861  68.733  1.00  0.00    -0.072 C  
BRANCH  22  24
HETATM   24  C   UNL     1      -9.045   6.444  69.641  1.00  0.00    -0.143 C  
HETATM   25  O   UNL     1      -9.272   7.193  70.600  1.00  0.00    -0.157 OA 
HETATM   26  N   UNL     1      -9.557   5.152  69.621  1.00  0.00    -0.152 N  
HETATM   27  C   UNL     1      -9.453   4.207  68.520  1.00  0.00    -0.153 C  
HETATM   28  C   UNL     1     -10.273   4.656  70.789  1.00  0.00    -0.144 C  
ENDBRANCH  22  24
ENDBRANCH  17  18
ENDBRANCH  11  17
TORSDOF 4
ENDMDL
MODEL      139
REMARK 921   NORMALIZED FREE ENERGY PREDICTED BY IDOCK:   -4.37 KCAL/MOL
REMARK 922        TOTAL FREE ENERGY PREDICTED BY IDOCK:   -6.36 KCAL/MOL
REMARK 923 INTER-LIGAND FREE ENERGY PREDICTED BY IDOCK:   -5.44 KCAL/MOL
REMARK 924 INTRA-LIGAND FREE ENERGY PREDICTED BY IDOCK:   -0.92 KCAL/MOL
REMARK 927      BINDING AFFINITY PREDICTED BY RF-SCORE:    0.00 PKD
ROOT
HETATM    1  C   UNL     1      -8.202   8.217  68.397  1.00  0.00    -0.129 C  
HETATM    2  C   UNL     1      -9.562   8.144  67.631  1.00  0.00    -0.152 C  
HETATM    3  C   UNL     1      -7.567   8.322  67.002  1.00  0.00    -0.092 C  
HETATM    4  N   UNL     1      -8.780   8.327  66.376  1.00  0.00    -0.135 N  
HETATM    5  C   UNL     1     -10.630   9.243  67.621  1.00  0.00    -0.324 C  
HETATM    6  O   UNL     1      -7.614   9.084  64.024  1.00  0.00    -0.110 OA 
HETATM    7  O   UNL     1      -6.468   8.441  66.516  1.00  0.00    -0.054 OA 
HETATM    8  C   UNL     1      -9.236   9.472  65.734  1.00  0.00    -0.211 C  
HETATM    9  O   UNL     1      -8.914  10.897  63.804  1.00  0.00    -0.174 OA 
HETATM   10  C   UNL     1      -8.585   9.921  64.460  1.00  0.00    -0.186 C  
HETATM   11  C   UNL     1     -10.277  10.032  66.379  1.00  0.00    -0.221 C  
HETATM   12  C   UNL     1     -10.664  10.011  68.934  1.00  0.00    -0.243 C  
ENDROOT
BRANCH   1  13
HETATM   13  C   UNL     1      -7.828   6.988  69.205  1.00  0.00    -0.114 C  
HETATM   14  C   UNL     1      -8.559   5.761  68.676  1.00  0.00    -0.109 C  
HETATM   15  O   UNL     1      -6.431   6.758  69.062  1.00  0.00    -0.034 OA 
HETATM   16  H   UNL     1      -6.197   5.989  69.567  1.00  0.00     0.000 HD 
ENDBRANCH   1  13
BRANCH  11  17
HETATM   17  S   UNL     1     -11.095  11.501  66.009  1.00  0.00    -0.174 SA 
BRANCH  17  18
HETATM   18  C   UNL     1      -9.890  12.833  66.370  1.00  0.00    -0.269 C  
HETATM   19  C   UNL     1      -8.811  12.535  67.402  1.00  0.00    -0.187 C  
HETATM   20  N   UNL     1      -9.382  12.984  68.664  1.00  0.00    -0.406 NA 
HETATM   21  H   UNL     1      -8.674  13.152  69.380  1.00  0.00     0.000 HD 
HETATM   22  C   UNL     1     -10.216  14.178  68.390  1.00  0.00    -0.247 C  
HETATM   23  C   UNL     1     -10.527  14.113  66.892  1.00  0.00    -0.272 C  
BRANCH  22  24
HETATM   24  C   UNL     1     -11.452  14.184  69.338  1.00  0.00    -0.288 C  
HETATM   25  O   UNL     1     -12.120  13.156  69.509  1.00  0.00    -0.293 OA 
HETATM   26  N   UNL     1     -11.763  15.350  70.028  1.00  0.00    -0.300 N  
HETATM   27  C   UNL     1     -11.005  16.591  69.997  1.00  0.00    -0.239 C  
HETATM   28  C   UNL     1     -12.949  15.376  70.875  1.00  0.00    -0.478 C  
ENDBRANCH  22  24
ENDBRANCH  17  18
ENDBRANCH  11  17
TORSDOF 4
ENDMDL
MODEL      140
REMARK 921   NORMALIZED FREE ENERGY PREDICTED BY IDOCK:   -4.35 KCAL/MOL
REMARK 922        TOTAL FREE ENERGY PREDICTED BY IDOCK:   -6.34 KCAL/MOL
REMARK 923 INTER-LIGAND FREE ENERGY PREDICTED BY IDOCK:   -5.63 KCAL/MOL
REMARK 924 INTRA-LIGAND FREE ENERGY PREDICTED BY IDOCK:   -0.71 KCAL/MOL
REMARK 927      BINDING AFFINITY PREDICTED BY RF-SCORE:    0.00 PKD
ROOT
HETATM    1  C   UNL     1      -9.831   9.825  66.556  1.00  0.00    -0.286 C  
HETATM    2  C   UNL     1     -10.693  10.344  67.752  1.00  0.00    -0.279 C  
HETATM    3  C   UNL     1     -10.733  10.714  65.686  1.00  0.00    -0.034 C  
HETATM    4  N   UNL     1     -11.415  11.197  66.766  1.00  0.00    -0.056 N  
HETATM    5  C   UNL     1     -10.202  11.296  68.847  1.00  0.00    -0.195 C  
HETATM    6  O   UNL     1     -12.562  13.143  65.231  1.00  0.00    -0.481 OA 
HETATM    7  O   UNL     1     -10.850  11.021  64.523  1.00  0.00    -0.313 OA 
HETATM    8  C   UNL     1     -11.279  12.525  67.148  1.00  0.00    -0.300 C  
HETATM    9  O   UNL     1     -11.831  14.804  66.547  1.00  0.00    -0.332 OA 
HETATM   10  C   UNL     1     -11.873  13.610  66.299  1.00  0.00    -0.392 C  
HETATM   11  C   UNL     1     -10.611  12.651  68.311  1.00  0.00    -0.237 C  
HETATM   12  C   UNL     1      -8.724  11.098  69.148  1.00  0.00     0.057 C  
ENDROOT
BRANCH   1  13
HETATM   13  C   UNL     1      -9.906   8.335  66.280  1.00  0.00    -0.157 C  
HETATM   14  C   UNL     1      -8.640   7.640  66.763  1.00  0.00    -0.129 C  
HETATM   15  O   UNL     1     -11.004   7.793  67.005  1.00  0.00    -0.478 OA 
HETATM   16  H   UNL     1     -11.051   6.860  66.832  1.00  0.00     0.000 HD 
ENDBRANCH   1  13
BRANCH  11  17
HETATM   17  S   UNL     1     -10.127  14.096  69.111  1.00  0.00     0.081 SA 
BRANCH  17  18
HETATM   18  C   UNL     1      -8.423  14.429  68.526  1.00  0.00    -0.170 C  
HETATM   19  C   UNL     1      -7.425  14.953  69.550  1.00  0.00    -0.162 C  
HETATM   20  N   UNL     1      -7.528  16.402  69.450  1.00  0.00    -0.196 NA 
HETATM   21  H   UNL     1      -6.710  16.883  69.824  1.00  0.00     0.000 HD 
HETATM   22  C   UNL     1      -7.797  16.744  68.033  1.00  0.00    -0.176 C  
HETATM   23  C   UNL     1      -8.348  15.459  67.408  1.00  0.00    -0.204 C  
BRANCH  22  24
HETATM   24  C   UNL     1      -8.732  17.987  67.961  1.00  0.00    -0.261 C  
HETATM   25  O   UNL     1      -9.955  17.849  67.822  1.00  0.00    -0.303 OA 
HETATM   26  N   UNL     1      -8.179  19.254  68.107  1.00  0.00    -0.307 N  
HETATM   27  C   UNL     1      -6.781  19.551  68.376  1.00  0.00    -0.280 C  
HETATM   28  C   UNL     1      -9.042  20.421  67.987  1.00  0.00    -0.039 C  
ENDBRANCH  22  24
ENDBRANCH  17  18
ENDBRANCH  11  17
TORSDOF 4
ENDMDL
MODEL      141
REMARK 921   NORMALIZED FREE ENERGY PREDICTED BY IDOCK:   -4.35 KCAL/MOL
REMARK 922        TOTAL FREE ENERGY PREDICTED BY IDOCK:   -6.34 KCAL/MOL
REMARK 923 INTER-LIGAND FREE ENERGY PREDICTED BY IDOCK:   -5.83 KCAL/MOL
REMARK 924 INTRA-LIGAND FREE ENERGY PREDICTED BY IDOCK:   -0.51 KCAL/MOL
REMARK 927      BINDING AFFINITY PREDICTED BY RF-SCORE:    0.00 PKD
ROOT
HETATM    1  C   UNL     1     -11.993  13.838  68.936  1.00  0.00    -0.394 C  
HETATM    2  C   UNL     1     -10.629  13.107  68.716  1.00  0.00    -0.201 C  
HETATM    3  C   UNL     1     -11.968  14.070  67.418  1.00  0.00    -0.404 C  
HETATM    4  N   UNL     1     -10.811  13.363  67.259  1.00  0.00    -0.266 N  
HETATM    5  C   UNL     1     -10.405  11.597  68.850  1.00  0.00    -0.175 C  
HETATM    6  O   UNL     1     -11.147  13.331  64.549  1.00  0.00    -0.337 OA 
HETATM    7  O   UNL     1     -12.661  14.580  66.570  1.00  0.00    -0.214 OA 
HETATM    8  C   UNL     1     -10.818  12.143  66.594  1.00  0.00    -0.268 C  
HETATM    9  O   UNL     1     -11.042  11.095  64.423  1.00  0.00    -0.279 OA 
HETATM   10  C   UNL     1     -11.035  12.104  65.111  1.00  0.00    -0.310 C  
HETATM   11  C   UNL     1     -10.591  11.110  67.429  1.00  0.00    -0.234 C  
HETATM   12  C   UNL     1     -11.309  10.982  69.907  1.00  0.00    -0.364 C  
ENDROOT
BRANCH   1  13
HETATM   13  C   UNL     1     -11.946  15.085  69.799  1.00  0.00    -0.328 C  
HETATM   14  C   UNL     1     -11.262  16.223  69.052  1.00  0.00    -0.326 C  
HETATM   15  O   UNL     1     -13.279  15.491  70.084  1.00  0.00    -0.680 OA 
HETATM   16  H   UNL     1     -13.250  16.272  70.624  1.00  0.00     0.000 HD 
ENDBRANCH   1  13
BRANCH  11  17
HETATM   17  S   UNL     1     -10.606   9.427  67.071  1.00  0.00    -0.147 SA 
BRANCH  17  18
HETATM   18  C   UNL     1      -8.999   8.786  67.672  1.00  0.00    -0.135 C  
HETATM   19  C   UNL     1      -7.833   9.766  67.722  1.00  0.00    -0.094 C  
HETATM   20  N   UNL     1      -7.181   9.619  66.428  1.00  0.00    -0.092 NA 
HETATM   21  H   UNL     1      -6.217   9.956  66.432  1.00  0.00     0.000 HD 
HETATM   22  C   UNL     1      -7.291   8.199  66.019  1.00  0.00    -0.076 C  
HETATM   23  C   UNL     1      -8.449   7.633  66.845  1.00  0.00    -0.126 C  
BRANCH  22  24
HETATM   24  C   UNL     1      -7.456   8.110  64.473  1.00  0.00    -0.102 C  
HETATM   25  O   UNL     1      -8.049   9.001  63.850  1.00  0.00    -0.142 OA 
HETATM   26  N   UNL     1      -6.883   7.040  63.797  1.00  0.00    -0.049 N  
HETATM   27  C   UNL     1      -6.078   5.984  64.391  1.00  0.00    -0.026 C  
HETATM   28  C   UNL     1      -7.081   6.924  62.357  1.00  0.00    -0.057 C  
ENDBRANCH  22  24
ENDBRANCH  17  18
ENDBRANCH  11  17
TORSDOF 4
ENDMDL
MODEL      142
REMARK 921   NORMALIZED FREE ENERGY PREDICTED BY IDOCK:   -4.34 KCAL/MOL
REMARK 922        TOTAL FREE ENERGY PREDICTED BY IDOCK:   -6.33 KCAL/MOL
REMARK 923 INTER-LIGAND FREE ENERGY PREDICTED BY IDOCK:   -5.24 KCAL/MOL
REMARK 924 INTRA-LIGAND FREE ENERGY PREDICTED BY IDOCK:   -1.08 KCAL/MOL
REMARK 927      BINDING AFFINITY PREDICTED BY RF-SCORE:    0.00 PKD
ROOT
HETATM    1  C   UNL     1      -8.509  10.347  68.463  1.00  0.00    -0.129 C  
HETATM    2  C   UNL     1      -9.982   9.999  68.852  1.00  0.00    -0.192 C  
HETATM    3  C   UNL     1      -8.188  10.069  69.940  1.00  0.00    -0.159 C  
HETATM    4  N   UNL     1      -9.474   9.704  70.221  1.00  0.00    -0.256 N  
HETATM    5  C   UNL     1     -10.740   8.743  68.408  1.00  0.00    -0.112 C  
HETATM    6  O   UNL     1      -8.708   8.698  72.642  1.00  0.00    -0.380 OA 
HETATM    7  O   UNL     1      -7.226  10.058  70.670  1.00  0.00    -0.298 OA 
HETATM    8  C   UNL     1      -9.779   8.385  70.531  1.00  0.00    -0.173 C  
HETATM    9  O   UNL     1      -9.564   6.669  72.225  1.00  0.00    -0.148 OA 
HETATM   10  C   UNL     1      -9.337   7.805  71.841  1.00  0.00    -0.153 C  
HETATM   11  C   UNL     1     -10.493   7.789  69.556  1.00  0.00    -0.225 C  
HETATM   12  C   UNL     1     -10.304   8.278  67.026  1.00  0.00    -0.393 C  
ENDROOT
BRANCH   1  13
HETATM   13  C   UNL     1      -8.265  11.767  67.988  1.00  0.00    -0.152 C  
HETATM   14  C   UNL     1      -9.584  12.449  67.652  1.00  0.00    -0.193 C  
HETATM   15  O   UNL     1      -7.652  12.500  69.043  1.00  0.00    -0.307 OA 
HETATM   16  H   UNL     1      -7.499  13.389  68.745  1.00  0.00     0.000 HD 
ENDBRANCH   1  13
BRANCH  11  17
HETATM   17  S   UNL     1     -11.005   6.148  69.462  1.00  0.00    -0.413 SA 
BRANCH  17  18
HETATM   18  C   UNL     1      -9.466   5.164  69.325  1.00  0.00    -0.140 C  
HETATM   19  C   UNL     1      -8.265   5.837  68.674  1.00  0.00    -0.105 C  
HETATM   20  N   UNL     1      -8.374   5.491  67.264  1.00  0.00    -0.104 NA 
HETATM   21  H   UNL     1      -7.489   5.587  66.765  1.00  0.00     0.000 HD 
HETATM   22  C   UNL     1      -8.940   4.124  67.172  1.00  0.00    -0.128 C  
HETATM   23  C   UNL     1      -9.625   3.882  68.520  1.00  0.00    -0.179 C  
BRANCH  22  24
HETATM   24  C   UNL     1      -9.857   4.019  65.918  1.00  0.00    -0.171 C  
HETATM   25  O   UNL     1     -10.868   4.726  65.816  1.00  0.00    -0.295 OA 
HETATM   26  N   UNL     1      -9.495   3.156  64.891  1.00  0.00    -0.152 N  
HETATM   27  C   UNL     1      -8.286   2.348  64.839  1.00  0.00    -0.089 C  
HETATM   28  C   UNL     1     -10.378   3.014  63.740  1.00  0.00    -0.199 C  
ENDBRANCH  22  24
ENDBRANCH  17  18
ENDBRANCH  11  17
TORSDOF 4
ENDMDL
MODEL      143
REMARK 921   NORMALIZED FREE ENERGY PREDICTED BY IDOCK:   -4.31 KCAL/MOL
REMARK 922        TOTAL FREE ENERGY PREDICTED BY IDOCK:   -6.28 KCAL/MOL
REMARK 923 INTER-LIGAND FREE ENERGY PREDICTED BY IDOCK:   -5.57 KCAL/MOL
REMARK 924 INTRA-LIGAND FREE ENERGY PREDICTED BY IDOCK:   -0.72 KCAL/MOL
REMARK 927      BINDING AFFINITY PREDICTED BY RF-SCORE:    0.00 PKD
ROOT
HETATM    1  C   UNL     1     -11.422  12.780  66.060  1.00  0.00    -0.396 C  
HETATM    2  C   UNL     1     -10.235  12.300  66.955  1.00  0.00    -0.215 C  
HETATM    3  C   UNL     1     -10.563  12.297  64.882  1.00  0.00    -0.293 C  
HETATM    4  N   UNL     1      -9.579  11.827  65.704  1.00  0.00    -0.232 N  
HETATM    5  C   UNL     1     -10.269  11.089  67.893  1.00  0.00    -0.207 C  
HETATM    6  O   UNL     1      -8.407  10.505  63.621  1.00  0.00    -0.166 OA 
HETATM    7  O   UNL     1     -10.637  12.226  63.678  1.00  0.00    -0.408 OA 
HETATM    8  C   UNL     1      -9.348  10.462  65.815  1.00  0.00    -0.186 C  
HETATM    9  O   UNL     1      -8.474   8.521  64.663  1.00  0.00    -0.166 OA 
HETATM   10  C   UNL     1      -8.737   9.713  64.669  1.00  0.00    -0.201 C  
HETATM   11  C   UNL     1      -9.710   9.985  67.023  1.00  0.00    -0.181 C  
HETATM   12  C   UNL     1     -11.655  10.864  68.477  1.00  0.00    -0.360 C  
ENDROOT
BRANCH   1  13
HETATM   13  C   UNL     1     -11.722  14.267  66.096  1.00  0.00    -0.390 C  
HETATM   14  C   UNL     1     -12.524  14.678  64.868  1.00  0.00    -0.266 C  
HETATM   15  O   UNL     1     -12.514  14.544  67.246  1.00  0.00    -0.578 OA 
HETATM   16  H   UNL     1     -12.701  15.475  67.268  1.00  0.00     0.000 HD 
ENDBRANCH   1  13
BRANCH  11  17
HETATM   17  S   UNL     1      -9.697   8.353  67.571  1.00  0.00    -0.174 SA 
BRANCH  17  18
HETATM   18  C   UNL     1      -7.966   8.021  68.072  1.00  0.00    -0.128 C  
HETATM   19  C   UNL     1      -7.563   6.565  68.260  1.00  0.00    -0.104 C  
HETATM   20  N   UNL     1      -7.811   6.298  69.670  1.00  0.00    -0.105 NA 
HETATM   21  H   UNL     1      -7.295   5.489  70.016  1.00  0.00     0.000 HD 
HETATM   22  C   UNL     1      -7.513   7.536  70.429  1.00  0.00    -0.081 C  
HETATM   23  C   UNL     1      -7.576   8.664  69.395  1.00  0.00    -0.092 C  
BRANCH  22  24
HETATM   24  C   UNL     1      -8.494   7.664  71.631  1.00  0.00    -0.108 C  
HETATM   25  O   UNL     1      -9.712   7.508  71.471  1.00  0.00    -0.165 OA 
HETATM   26  N   UNL     1      -7.976   7.907  72.898  1.00  0.00    -0.124 N  
HETATM   27  C   UNL     1      -6.566   8.009  73.241  1.00  0.00    -0.097 C  
HETATM   28  C   UNL     1      -8.894   8.081  74.016  1.00  0.00    -0.143 C  
ENDBRANCH  22  24
ENDBRANCH  17  18
ENDBRANCH  11  17
TORSDOF 4
ENDMDL
MODEL      144
REMARK 921   NORMALIZED FREE ENERGY PREDICTED BY IDOCK:   -4.30 KCAL/MOL
REMARK 922        TOTAL FREE ENERGY PREDICTED BY IDOCK:   -6.28 KCAL/MOL
REMARK 923 INTER-LIGAND FREE ENERGY PREDICTED BY IDOCK:   -5.29 KCAL/MOL
REMARK 924 INTRA-LIGAND FREE ENERGY PREDICTED BY IDOCK:   -0.99 KCAL/MOL
REMARK 927      BINDING AFFINITY PREDICTED BY RF-SCORE:    0.00 PKD
ROOT
HETATM    1  C   UNL     1      -9.412  11.025  65.885  1.00  0.00    -0.244 C  
HETATM    2  C   UNL     1     -10.182  10.920  67.241  1.00  0.00    -0.205 C  
HETATM    3  C   UNL     1      -8.316  11.721  66.707  1.00  0.00    -0.165 C  
HETATM    4  N   UNL     1      -8.990  11.546  67.881  1.00  0.00    -0.154 N  
HETATM    5  C   UNL     1     -10.437   9.622  68.014  1.00  0.00    -0.276 C  
HETATM    6  O   UNL     1      -6.777  12.263  69.312  1.00  0.00    -0.105 OA 
HETATM    7  O   UNL     1      -7.222  12.201  66.531  1.00  0.00     0.116 OA 
HETATM    8  C   UNL     1      -8.502  10.678  68.850  1.00  0.00    -0.154 C  
HETATM    9  O   UNL     1      -6.763  10.365  70.504  1.00  0.00    -0.265 OA 
HETATM   10  C   UNL     1      -7.268  11.040  69.622  1.00  0.00    -0.056 C  
HETATM   11  C   UNL     1      -9.271   9.579  68.978  1.00  0.00    -0.155 C  
HETATM   12  C   UNL     1     -10.597   8.430  67.082  1.00  0.00    -0.326 C  
ENDROOT
BRANCH   1  13
HETATM   13  C   UNL     1     -10.072  11.869  64.811  1.00  0.00    -0.262 C  
HETATM   14  C   UNL     1     -11.587  11.827  64.957  1.00  0.00    -0.214 C  
HETATM   15  O   UNL     1      -9.656  13.220  64.974  1.00  0.00    -0.520 OA 
HETATM   16  H   UNL     1     -10.069  13.748  64.302  1.00  0.00     0.000 HD 
ENDBRANCH   1  13
BRANCH  11  17
HETATM   17  S   UNL     1      -9.003   8.201  69.974  1.00  0.00    -0.143 SA 
BRANCH  17  18
HETATM   18  C   UNL     1     -10.632   7.814  70.719  1.00  0.00    -0.218 C  
HETATM   19  C   UNL     1     -11.074   8.660  71.906  1.00  0.00    -0.346 C  
HETATM   20  N   UNL     1     -10.592   7.931  73.070  1.00  0.00    -0.365 NA 
HETATM   21  H   UNL     1     -11.082   8.189  73.928  1.00  0.00     0.000 HD 
HETATM   22  C   UNL     1     -10.683   6.482  72.772  1.00  0.00    -0.240 C  
HETATM   23  C   UNL     1     -10.745   6.390  71.245  1.00  0.00    -0.288 C  
BRANCH  22  24
HETATM   24  C   UNL     1      -9.497   5.732  73.448  1.00  0.00    -0.138 C  
HETATM   25  O   UNL     1      -8.426   6.313  73.667  1.00  0.00    -0.123 OA 
HETATM   26  N   UNL     1      -9.678   4.413  73.848  1.00  0.00    -0.119 N  
HETATM   27  C   UNL     1     -10.910   3.648  73.743  1.00  0.00    -0.234 C  
HETATM   28  C   UNL     1      -8.554   3.690  74.431  1.00  0.00    -0.087 C  
ENDBRANCH  22  24
ENDBRANCH  17  18
ENDBRANCH  11  17
TORSDOF 4
ENDMDL
MODEL      145
REMARK 921   NORMALIZED FREE ENERGY PREDICTED BY IDOCK:   -4.28 KCAL/MOL
REMARK 922        TOTAL FREE ENERGY PREDICTED BY IDOCK:   -6.26 KCAL/MOL
REMARK 923 INTER-LIGAND FREE ENERGY PREDICTED BY IDOCK:   -5.85 KCAL/MOL
REMARK 924 INTRA-LIGAND FREE ENERGY PREDICTED BY IDOCK:   -0.41 KCAL/MOL
REMARK 927      BINDING AFFINITY PREDICTED BY RF-SCORE:    0.00 PKD
ROOT
HETATM    1  C   UNL     1      -9.704   7.295  68.045  1.00  0.00    -0.157 C  
HETATM    2  C   UNL     1     -10.444   8.671  68.002  1.00  0.00    -0.197 C  
HETATM    3  C   UNL     1      -9.377   7.569  66.569  1.00  0.00    -0.181 C  
HETATM    4  N   UNL     1      -9.973   8.797  66.594  1.00  0.00    -0.263 N  
HETATM    5  C   UNL     1      -9.981   9.946  68.714  1.00  0.00    -0.183 C  
HETATM    6  O   UNL     1      -8.867   9.436  64.180  1.00  0.00    -0.214 OA 
HETATM    7  O   UNL     1      -8.777   7.042  65.663  1.00  0.00    -0.140 OA 
HETATM    8  C   UNL     1      -9.210   9.953  66.486  1.00  0.00    -0.155 C  
HETATM    9  O   UNL     1      -7.892  11.297  64.964  1.00  0.00     0.382 OA 
HETATM   10  C   UNL     1      -8.566  10.302  65.177  1.00  0.00    -0.171 C  
HETATM   11  C   UNL     1      -9.177  10.647  67.641  1.00  0.00    -0.146 C  
HETATM   12  C   UNL     1      -9.259   9.636  70.017  1.00  0.00    -0.275 C  
ENDROOT
BRANCH   1  13
HETATM   13  C   UNL     1     -10.573   6.081  68.316  1.00  0.00    -0.261 C  
HETATM   14  C   UNL     1     -11.459   6.322  69.531  1.00  0.00    -0.387 C  
HETATM   15  O   UNL     1     -11.421   5.869  67.193  1.00  0.00    -0.345 OA 
HETATM   16  H   UNL     1     -11.965   5.109  67.363  1.00  0.00     0.000 HD 
ENDBRANCH   1  13
BRANCH  11  17
HETATM   17  S   UNL     1      -8.285  12.075  68.001  1.00  0.00    -0.164 SA 
BRANCH  17  18
HETATM   18  C   UNL     1      -9.543  13.350  68.385  1.00  0.00    -0.188 C  
HETATM   19  C   UNL     1     -10.779  12.900  69.154  1.00  0.00    -0.016 C  
HETATM   20  N   UNL     1     -11.741  12.548  68.119  1.00  0.00    -0.336 NA 
HETATM   21  H   UNL     1     -12.703  12.544  68.461  1.00  0.00     0.000 HD 
HETATM   22  C   UNL     1     -11.542  13.471  66.976  1.00  0.00    -0.359 C  
HETATM   23  C   UNL     1     -10.127  14.028  67.154  1.00  0.00    -0.259 C  
BRANCH  22  24
HETATM   24  C   UNL     1     -11.810  12.717  65.641  1.00  0.00    -0.437 C  
HETATM   25  O   UNL     1     -11.849  11.480  65.612  1.00  0.00    -0.188 OA 
HETATM   26  N   UNL     1     -12.055  13.456  64.489  1.00  0.00    -0.394 N  
HETATM   27  C   UNL     1     -12.139  14.905  64.405  1.00  0.00    -0.401 C  
HETATM   28  C   UNL     1     -12.253  12.755  63.227  1.00  0.00    -0.410 C  
ENDBRANCH  22  24
ENDBRANCH  17  18
ENDBRANCH  11  17
TORSDOF 4
ENDMDL
MODEL      146
REMARK 921   NORMALIZED FREE ENERGY PREDICTED BY IDOCK:   -4.27 KCAL/MOL
REMARK 922        TOTAL FREE ENERGY PREDICTED BY IDOCK:   -6.24 KCAL/MOL
REMARK 923 INTER-LIGAND FREE ENERGY PREDICTED BY IDOCK:   -5.24 KCAL/MOL
REMARK 924 INTRA-LIGAND FREE ENERGY PREDICTED BY IDOCK:   -1.00 KCAL/MOL
REMARK 927      BINDING AFFINITY PREDICTED BY RF-SCORE:    0.00 PKD
ROOT
HETATM    1  C   UNL     1     -10.421   6.835  68.949  1.00  0.00    -0.229 C  
HETATM    2  C   UNL     1      -9.659   8.195  68.839  1.00  0.00    -0.153 C  
HETATM    3  C   UNL     1     -11.096   7.459  70.181  1.00  0.00    -0.246 C  
HETATM    4  N   UNL     1     -10.462   8.656  70.007  1.00  0.00    -0.218 N  
HETATM    5  C   UNL     1      -9.877   9.243  67.743  1.00  0.00    -0.210 C  
HETATM    6  O   UNL     1     -12.110   9.847  71.830  1.00  0.00    -0.357 OA 
HETATM    7  O   UNL     1     -11.925   7.159  71.006  1.00  0.00    -0.320 OA 
HETATM    8  C   UNL     1     -11.180   9.784  69.631  1.00  0.00    -0.178 C  
HETATM    9  O   UNL     1     -12.780  11.433  70.394  1.00  0.00    -0.197 OA 
HETATM   10  C   UNL     1     -12.116  10.431  70.608  1.00  0.00    -0.348 C  
HETATM   11  C   UNL     1     -10.894  10.170  68.372  1.00  0.00    -0.242 C  
HETATM   12  C   UNL     1     -10.262   8.604  66.417  1.00  0.00    -0.224 C  
ENDROOT
BRANCH   1  13
HETATM   13  C   UNL     1      -9.563   5.612  69.213  1.00  0.00    -0.138 C  
HETATM   14  C   UNL     1      -8.287   6.005  69.944  1.00  0.00    -0.123 C  
HETATM   15  O   UNL     1     -10.288   4.719  70.050  1.00  0.00    -0.249 OA 
HETATM   16  H   UNL     1      -9.751   3.954  70.215  1.00  0.00     0.000 HD 
ENDBRANCH   1  13
BRANCH  11  17
HETATM   17  S   UNL     1     -11.607  11.443  67.460  1.00  0.00    -0.136 SA 
BRANCH  17  18
HETATM   18  C   UNL     1     -10.586  12.924  67.810  1.00  0.00    -0.222 C  
HETATM   19  C   UNL     1     -10.117  13.744  66.616  1.00  0.00    -0.277 C  
HETATM   20  N   UNL     1      -8.820  13.178  66.274  1.00  0.00    -0.432 NA 
HETATM   21  H   UNL     1      -8.245  13.814  65.721  1.00  0.00     0.000 HD 
HETATM   22  C   UNL     1      -8.160  12.753  67.531  1.00  0.00    -0.180 C  
HETATM   23  C   UNL     1      -9.293  12.617  68.552  1.00  0.00    -0.082 C  
BRANCH  22  24
HETATM   24  C   UNL     1      -7.321  11.467  67.275  1.00  0.00    -0.130 C  
HETATM   25  O   UNL     1      -7.380  10.882  66.186  1.00  0.00    -0.140 OA 
HETATM   26  N   UNL     1      -6.466  11.013  68.272  1.00  0.00    -0.056 N  
HETATM   27  C   UNL     1      -6.226  11.659  69.553  1.00  0.00    -0.113 C  
HETATM   28  C   UNL     1      -5.720   9.780  68.058  1.00  0.00    -0.040 C  
ENDBRANCH  22  24
ENDBRANCH  17  18
ENDBRANCH  11  17
TORSDOF 4
ENDMDL
MODEL      147
REMARK 921   NORMALIZED FREE ENERGY PREDICTED BY IDOCK:   -4.25 KCAL/MOL
REMARK 922        TOTAL FREE ENERGY PREDICTED BY IDOCK:   -6.21 KCAL/MOL
REMARK 923 INTER-LIGAND FREE ENERGY PREDICTED BY IDOCK:   -5.18 KCAL/MOL
REMARK 924 INTRA-LIGAND FREE ENERGY PREDICTED BY IDOCK:   -1.04 KCAL/MOL
REMARK 927      BINDING AFFINITY PREDICTED BY RF-SCORE:    0.00 PKD
ROOT
HETATM    1  C   UNL     1     -10.470  13.788  65.309  1.00  0.00    -0.376 C  
HETATM    2  C   UNL     1     -10.894  13.244  66.711  1.00  0.00    -0.281 C  
HETATM    3  C   UNL     1      -9.585  14.766  66.097  1.00  0.00    -0.309 C  
HETATM    4  N   UNL     1      -9.927  14.214  67.298  1.00  0.00    -0.246 N  
HETATM    5  C   UNL     1     -10.508  11.874  67.280  1.00  0.00    -0.248 C  
HETATM    6  O   UNL     1      -7.924  15.585  68.550  1.00  0.00    -0.127 OA 
HETATM    7  O   UNL     1      -8.797  15.653  65.873  1.00  0.00    -0.279 OA 
HETATM    8  C   UNL     1      -8.989  13.509  68.041  1.00  0.00    -0.189 C  
HETATM    9  O   UNL     1      -6.996  13.728  69.397  1.00  0.00    -0.088 OA 
HETATM   10  C   UNL     1      -7.863  14.241  68.708  1.00  0.00    -0.128 C  
HETATM   11  C   UNL     1      -9.260  12.190  68.075  1.00  0.00    -0.194 C  
HETATM   12  C   UNL     1     -10.376  10.824  66.188  1.00  0.00    -0.300 C  
ENDROOT
BRANCH   1  13
HETATM   13  C   UNL     1     -11.575  14.415  64.478  1.00  0.00    -0.384 C  
HETATM   14  C   UNL     1     -12.907  14.322  65.208  1.00  0.00    -0.300 C  
HETATM   15  O   UNL     1     -11.275  15.794  64.292  1.00  0.00    -0.759 OA 
HETATM   16  H   UNL     1     -11.967  16.186  63.772  1.00  0.00     0.000 HD 
ENDBRANCH   1  13
BRANCH  11  17
HETATM   17  S   UNL     1      -8.328  10.929  68.787  1.00  0.00    -0.140 SA 
BRANCH  17  18
HETATM   18  C   UNL     1      -6.803  10.821  67.776  1.00  0.00    -0.073 C  
HETATM   19  C   UNL     1      -6.879  11.335  66.345  1.00  0.00    -0.055 C  
HETATM   20  N   UNL     1      -7.243  10.166  65.558  1.00  0.00    -0.136 NA 
HETATM   21  H   UNL     1      -7.016  10.270  64.568  1.00  0.00     0.000 HD 
HETATM   22  C   UNL     1      -6.601   8.981  66.173  1.00  0.00    -0.066 C  
HETATM   23  C   UNL     1      -6.276   9.403  67.609  1.00  0.00    -0.054 C  
BRANCH  22  24
HETATM   24  C   UNL     1      -7.533   7.743  66.026  1.00  0.00    -0.078 C  
HETATM   25  O   UNL     1      -8.485   7.574  66.799  1.00  0.00    -0.118 OA 
HETATM   26  N   UNL     1      -7.309   6.855  64.980  1.00  0.00    -0.081 N  
HETATM   27  C   UNL     1      -6.295   6.988  63.946  1.00  0.00    -0.043 C  
HETATM   28  C   UNL     1      -8.145   5.666  64.870  1.00  0.00    -0.127 C  
ENDBRANCH  22  24
ENDBRANCH  17  18
ENDBRANCH  11  17
TORSDOF 4
ENDMDL
MODEL      148
REMARK 921   NORMALIZED FREE ENERGY PREDICTED BY IDOCK:   -4.24 KCAL/MOL
REMARK 922        TOTAL FREE ENERGY PREDICTED BY IDOCK:   -6.20 KCAL/MOL
REMARK 923 INTER-LIGAND FREE ENERGY PREDICTED BY IDOCK:   -5.61 KCAL/MOL
REMARK 924 INTRA-LIGAND FREE ENERGY PREDICTED BY IDOCK:   -0.58 KCAL/MOL
REMARK 927      BINDING AFFINITY PREDICTED BY RF-SCORE:    0.00 PKD
ROOT
HETATM    1  C   UNL     1     -11.727   8.627  71.943  1.00  0.00    -0.422 C  
HETATM    2  C   UNL     1     -11.030   8.397  70.564  1.00  0.00    -0.242 C  
HETATM    3  C   UNL     1     -10.502   7.915  72.538  1.00  0.00    -0.300 C  
HETATM    4  N   UNL     1      -9.894   7.798  71.321  1.00  0.00    -0.171 N  
HETATM    5  C   UNL     1     -10.416   9.495  69.690  1.00  0.00    -0.239 C  
HETATM    6  O   UNL     1      -7.544   7.075  72.510  1.00  0.00    -0.088 OA 
HETATM    7  O   UNL     1     -10.079   7.598  73.624  1.00  0.00    -0.321 OA 
HETATM    8  C   UNL     1      -8.744   8.521  71.035  1.00  0.00    -0.173 C  
HETATM    9  O   UNL     1      -6.379   8.713  71.517  1.00  0.00    -0.054 OA 
HETATM   10  C   UNL     1      -7.451   8.160  71.705  1.00  0.00    -0.088 C  
HETATM   11  C   UNL     1      -8.966   9.487  70.123  1.00  0.00    -0.236 C  
HETATM   12  C   UNL     1     -11.164  10.813  69.829  1.00  0.00    -0.365 C  
ENDROOT
BRANCH   1  13
HETATM   13  C   UNL     1     -13.059   7.927  72.140  1.00  0.00    -0.162 C  
HETATM   14  C   UNL     1     -14.159   8.944  72.413  1.00  0.00    -0.493 C  
HETATM   15  O   UNL     1     -13.392   7.238  70.940  1.00  0.00    -0.602 OA 
HETATM   16  H   UNL     1     -14.225   6.800  71.063  1.00  0.00     0.000 HD 
ENDBRANCH   1  13
BRANCH  11  17
HETATM   17  S   UNL     1      -7.869  10.680  69.544  1.00  0.00    -0.020 SA 
BRANCH  17  18
HETATM   18  C   UNL     1      -8.377  11.011  67.815  1.00  0.00    -0.118 C  
HETATM   19  C   UNL     1      -7.282  11.016  66.756  1.00  0.00    -0.139 C  
HETATM   20  N   UNL     1      -6.852  12.405  66.685  1.00  0.00    -0.372 NA 
HETATM   21  H   UNL     1      -6.370  12.625  65.813  1.00  0.00     0.000 HD 
HETATM   22  C   UNL     1      -8.038  13.264  66.917  1.00  0.00     0.097 C  
HETATM   23  C   UNL     1      -9.054  12.360  67.621  1.00  0.00    -0.186 C  
BRANCH  22  24
HETATM   24  C   UNL     1      -7.615  14.544  67.696  1.00  0.00    -0.182 C  
HETATM   25  O   UNL     1      -6.681  14.508  68.508  1.00  0.00    -0.086 OA 
HETATM   26  N   UNL     1      -8.271  15.740  67.428  1.00  0.00    -0.161 N  
HETATM   27  C   UNL     1      -9.310  15.941  66.432  1.00  0.00    -0.297 C  
HETATM   28  C   UNL     1      -7.915  16.928  68.194  1.00  0.00    -0.195 C  
ENDBRANCH  22  24
ENDBRANCH  17  18
ENDBRANCH  11  17
TORSDOF 4
ENDMDL
MODEL      149
REMARK 921   NORMALIZED FREE ENERGY PREDICTED BY IDOCK:   -4.23 KCAL/MOL
REMARK 922        TOTAL FREE ENERGY PREDICTED BY IDOCK:   -6.19 KCAL/MOL
REMARK 923 INTER-LIGAND FREE ENERGY PREDICTED BY IDOCK:   -5.42 KCAL/MOL
REMARK 924 INTRA-LIGAND FREE ENERGY PREDICTED BY IDOCK:   -0.76 KCAL/MOL
REMARK 927      BINDING AFFINITY PREDICTED BY RF-SCORE:    0.00 PKD
ROOT
HETATM    1  C   UNL     1      -9.222   4.374  68.533  1.00  0.00    -0.186 C  
HETATM    2  C   UNL     1      -8.351   5.671  68.522  1.00  0.00    -0.106 C  
HETATM    3  C   UNL     1      -9.375   4.641  70.038  1.00  0.00    -0.145 C  
HETATM    4  N   UNL     1      -8.668   5.807  69.972  1.00  0.00    -0.130 N  
HETATM    5  C   UNL     1      -8.757   7.002  67.880  1.00  0.00    -0.125 C  
HETATM    6  O   UNL     1      -9.464   6.488  72.494  1.00  0.00    -0.146 OA 
HETATM    7  O   UNL     1      -9.931   4.151  70.992  1.00  0.00    -0.189 OA 
HETATM    8  C   UNL     1      -9.301   7.027  70.173  1.00  0.00    -0.162 C  
HETATM    9  O   UNL     1     -10.326   8.452  71.841  1.00  0.00    -0.233 OA 
HETATM   10  C   UNL     1      -9.776   7.403  71.545  1.00  0.00    -0.159 C  
HETATM   11  C   UNL     1      -9.380   7.749  69.039  1.00  0.00    -0.150 C  
HETATM   12  C   UNL     1      -9.630   6.795  66.651  1.00  0.00    -0.211 C  
ENDROOT
BRANCH   1  13
HETATM   13  C   UNL     1      -8.506   3.090  68.157  1.00  0.00    -0.082 C  
HETATM   14  C   UNL     1      -9.450   1.901  68.271  1.00  0.00    -0.230 C  
HETATM   15  O   UNL     1      -8.085   3.184  66.801  1.00  0.00    -0.079 OA 
HETATM   16  H   UNL     1      -7.637   2.381  66.566  1.00  0.00     0.000 HD 
ENDBRANCH   1  13
BRANCH  11  17
HETATM   17  S   UNL     1     -10.159   9.264  68.792  1.00  0.00    -0.201 SA 
BRANCH  17  18
HETATM   18  C   UNL     1      -8.920  10.318  67.951  1.00  0.00    -0.131 C  
HETATM   19  C   UNL     1      -8.460  11.573  68.683  1.00  0.00    -0.115 C  
HETATM   20  N   UNL     1      -9.366  12.615  68.220  1.00  0.00    -0.245 NA 
HETATM   21  H   UNL     1      -8.992  13.554  68.361  1.00  0.00     0.000 HD 
HETATM   22  C   UNL     1      -9.699  12.336  66.803  1.00  0.00    -0.213 C  
HETATM   23  C   UNL     1      -9.381  10.852  66.602  1.00  0.00    -0.191 C  
BRANCH  22  24
HETATM   24  C   UNL     1     -11.170  12.758  66.517  1.00  0.00    -0.307 C  
HETATM   25  O   UNL     1     -12.114  12.059  66.908  1.00  0.00    -0.608 OA 
HETATM   26  N   UNL     1     -11.408  13.960  65.859  1.00  0.00    -0.309 N  
HETATM   27  C   UNL     1     -10.400  14.919  65.439  1.00  0.00    -0.388 C  
HETATM   28  C   UNL     1     -12.781  14.332  65.542  1.00  0.00    -0.380 C  
ENDBRANCH  22  24
ENDBRANCH  17  18
ENDBRANCH  11  17
TORSDOF 4
ENDMDL
MODEL      150
REMARK 921   NORMALIZED FREE ENERGY PREDICTED BY IDOCK:   -4.22 KCAL/MOL
REMARK 922        TOTAL FREE ENERGY PREDICTED BY IDOCK:   -6.18 KCAL/MOL
REMARK 923 INTER-LIGAND FREE ENERGY PREDICTED BY IDOCK:   -6.22 KCAL/MOL
REMARK 924 INTRA-LIGAND FREE ENERGY PREDICTED BY IDOCK:    0.04 KCAL/MOL
REMARK 927      BINDING AFFINITY PREDICTED BY RF-SCORE:    0.00 PKD
ROOT
HETATM    1  C   UNL     1      -9.048   7.364  66.222  1.00  0.00    -0.195 C  
HETATM    2  C   UNL     1      -8.080   8.358  66.942  1.00  0.00    -0.099 C  
HETATM    3  C   UNL     1      -9.897   7.465  67.499  1.00  0.00    -0.158 C  
HETATM    4  N   UNL     1      -9.062   8.386  68.063  1.00  0.00    -0.137 N  
HETATM    5  C   UNL     1      -7.859   9.821  66.544  1.00  0.00    -0.109 C  
HETATM    6  O   UNL     1     -10.899   8.928  70.011  1.00  0.00    -0.230 OA 
HETATM    7  O   UNL     1     -10.939   7.030  67.929  1.00  0.00    -0.196 OA 
HETATM    8  C   UNL     1      -9.483   9.697  68.248  1.00  0.00    -0.136 C  
HETATM    9  O   UNL     1     -10.944  11.122  69.550  1.00  0.00    -0.242 OA 
HETATM   10  C   UNL     1     -10.516  10.009  69.290  1.00  0.00    -0.225 C  
HETATM   11  C   UNL     1      -8.843  10.554  67.429  1.00  0.00    -0.132 C  
HETATM   12  C   UNL     1      -8.004  10.026  65.043  1.00  0.00    -0.143 C  
ENDROOT
BRANCH   1  13
HETATM   13  C   UNL     1      -8.480   5.992  65.911  1.00  0.00    -0.143 C  
HETATM   14  C   UNL     1      -6.987   5.956  66.203  1.00  0.00    -0.062 C  
HETATM   15  O   UNL     1      -9.113   5.037  66.755  1.00  0.00    -0.116 OA 
HETATM   16  H   UNL     1      -8.757   4.178  66.560  1.00  0.00     0.000 HD 
ENDBRANCH   1  13
BRANCH  11  17
HETATM   17  S   UNL     1      -9.105  12.245  67.240  1.00  0.00    -0.191 SA 
BRANCH  17  18
HETATM   18  C   UNL     1     -10.693  12.393  66.338  1.00  0.00    -0.247 C  
HETATM   19  C   UNL     1     -10.626  12.467  64.818  1.00  0.00    -0.305 C  
HETATM   20  N   UNL     1     -10.558  13.892  64.527  1.00  0.00    -0.562 NA 
HETATM   21  H   UNL     1     -10.835  14.113  63.570  1.00  0.00     0.000 HD 
HETATM   22  C   UNL     1     -11.373  14.605  65.539  1.00  0.00    -0.341 C  
HETATM   23  C   UNL     1     -11.500  13.628  66.711  1.00  0.00    -0.370 C  
BRANCH  22  24
HETATM   24  C   UNL     1     -10.716  15.978  65.869  1.00  0.00    -0.280 C  
HETATM   25  O   UNL     1     -10.292  16.708  64.964  1.00  0.00    -0.623 OA 
HETATM   26  N   UNL     1     -10.659  16.394  67.195  1.00  0.00    -0.302 N  
HETATM   27  C   UNL     1     -11.208  15.683  68.338  1.00  0.00    -0.352 C  
HETATM   28  C   UNL     1      -9.997  17.652  67.514  1.00  0.00    -0.322 C  
ENDBRANCH  22  24
ENDBRANCH  17  18
ENDBRANCH  11  17
TORSDOF 4
ENDMDL
MODEL      151
REMARK 921   NORMALIZED FREE ENERGY PREDICTED BY IDOCK:   -4.22 KCAL/MOL
REMARK 922        TOTAL FREE ENERGY PREDICTED BY IDOCK:   -6.18 KCAL/MOL
REMARK 923 INTER-LIGAND FREE ENERGY PREDICTED BY IDOCK:   -7.20 KCAL/MOL
REMARK 924 INTRA-LIGAND FREE ENERGY PREDICTED BY IDOCK:    1.03 KCAL/MOL
REMARK 927      BINDING AFFINITY PREDICTED BY RF-SCORE:    0.00 PKD
ROOT
HETATM    1  C   UNL     1      -7.474  18.196  67.237  1.00  0.00    -0.223 C  
HETATM    2  C   UNL     1      -7.293  16.662  67.003  1.00  0.00    -0.206 C  
HETATM    3  C   UNL     1      -8.627  18.085  66.227  1.00  0.00    -0.176 C  
HETATM    4  N   UNL     1      -8.481  16.733  66.105  1.00  0.00    -0.298 N  
HETATM    5  C   UNL     1      -7.609  15.568  68.028  1.00  0.00    -0.133 C  
HETATM    6  O   UNL     1     -10.867  16.547  64.789  1.00  0.00    -0.720 OA 
HETATM    7  O   UNL     1      -9.458  18.801  65.722  1.00  0.00    -0.414 OA 
HETATM    8  C   UNL     1      -9.456  15.873  66.594  1.00  0.00    -0.241 C  
HETATM    9  O   UNL     1     -11.704  15.051  66.233  1.00  0.00    -0.246 OA 
HETATM   10  C   UNL     1     -10.784  15.783  65.904  1.00  0.00    -0.313 C  
HETATM   11  C   UNL     1      -9.029  15.184  67.671  1.00  0.00    -0.180 C  
HETATM   12  C   UNL     1      -7.367  16.041  69.453  1.00  0.00    -0.212 C  
ENDROOT
BRANCH   1  13
HETATM   13  C   UNL     1      -6.309  19.074  66.819  1.00  0.00    -0.186 C  
HETATM   14  C   UNL     1      -5.204  18.231  66.199  1.00  0.00    -0.196 C  
HETATM   15  O   UNL     1      -6.764  19.992  65.831  1.00  0.00    -0.222 OA 
HETATM   16  H   UNL     1      -6.035  20.541  65.569  1.00  0.00     0.000 HD 
ENDBRANCH   1  13
BRANCH  11  17
HETATM   17  S   UNL     1      -9.919  14.088  68.656  1.00  0.00    -0.164 SA 
BRANCH  17  18
HETATM   18  C   UNL     1     -11.328  15.058  69.313  1.00  0.00    -0.296 C  
HETATM   19  C   UNL     1     -11.145  15.716  70.674  1.00  0.00    -0.359 C  
HETATM   20  N   UNL     1     -11.640  14.730  71.624  1.00  0.00    -0.483 NA 
HETATM   21  H   UNL     1     -11.886  15.139  72.526  1.00  0.00     0.000 HD 
HETATM   22  C   UNL     1     -12.773  14.014  70.991  1.00  0.00    -0.361 C  
HETATM   23  C   UNL     1     -12.604  14.247  69.487  1.00  0.00    -0.026 C  
BRANCH  22  24
HETATM   24  C   UNL     1     -12.775  12.526  71.449  1.00  0.00    -0.243 C  
HETATM   25  O   UNL     1     -13.175  12.215  72.579  1.00  0.00    -0.285 OA 
HETATM   26  N   UNL     1     -12.369  11.546  70.552  1.00  0.00    -0.354 N  
HETATM   27  C   UNL     1     -11.975  11.763  69.169  1.00  0.00    -0.293 C  
HETATM   28  C   UNL     1     -12.318  10.158  70.994  1.00  0.00    -0.373 C  
ENDBRANCH  22  24
ENDBRANCH  17  18
ENDBRANCH  11  17
TORSDOF 4
ENDMDL
MODEL      152
REMARK 921   NORMALIZED FREE ENERGY PREDICTED BY IDOCK:   -4.21 KCAL/MOL
REMARK 922        TOTAL FREE ENERGY PREDICTED BY IDOCK:   -6.17 KCAL/MOL
REMARK 923 INTER-LIGAND FREE ENERGY PREDICTED BY IDOCK:   -5.09 KCAL/MOL
REMARK 924 INTRA-LIGAND FREE ENERGY PREDICTED BY IDOCK:   -1.08 KCAL/MOL
REMARK 927      BINDING AFFINITY PREDICTED BY RF-SCORE:    0.00 PKD
ROOT
HETATM    1  C   UNL     1     -10.899   9.133  69.699  1.00  0.00    -0.210 C  
HETATM    2  C   UNL     1      -9.531   9.855  69.922  1.00  0.00    -0.220 C  
HETATM    3  C   UNL     1     -11.413  10.515  69.267  1.00  0.00    -0.256 C  
HETATM    4  N   UNL     1     -10.184  11.092  69.406  1.00  0.00    -0.131 N  
HETATM    5  C   UNL     1      -8.277   9.656  69.064  1.00  0.00    -0.113 C  
HETATM    6  O   UNL     1     -11.035  13.333  68.098  1.00  0.00    -0.239 OA 
HETATM    7  O   UNL     1     -12.438  11.013  68.865  1.00  0.00    -0.460 OA 
HETATM    8  C   UNL     1      -9.481  11.530  68.291  1.00  0.00    -0.189 C  
HETATM    9  O   UNL     1      -9.407  13.221  66.561  1.00  0.00    -0.253 OA 
HETATM   10  C   UNL     1      -9.954  12.739  67.540  1.00  0.00    -0.210 C  
HETATM   11  C   UNL     1      -8.396  10.769  68.046  1.00  0.00    -0.120 C  
HETATM   12  C   UNL     1      -8.184   8.238  68.519  1.00  0.00    -0.131 C  
ENDROOT
BRANCH   1  13
HETATM   13  C   UNL     1     -11.548   8.542  70.937  1.00  0.00    -0.263 C  
HETATM   14  C   UNL     1     -10.549   8.484  72.085  1.00  0.00    -0.419 C  
HETATM   15  O   UNL     1     -12.621   9.387  71.335  1.00  0.00    -0.317 OA 
HETATM   16  H   UNL     1     -13.027   9.017  72.110  1.00  0.00     0.000 HD 
ENDBRANCH   1  13
BRANCH  11  17
HETATM   17  S   UNL     1      -7.296  10.877  66.727  1.00  0.00    -0.140 SA 
BRANCH  17  18
HETATM   18  C   UNL     1      -8.273  10.438  65.241  1.00  0.00    -0.162 C  
HETATM   19  C   UNL     1      -9.594   9.712  65.464  1.00  0.00    -0.283 C  
HETATM   20  N   UNL     1      -9.246   8.300  65.407  1.00  0.00    -0.408 NA 
HETATM   21  H   UNL     1     -10.051   7.703  65.214  1.00  0.00     0.000 HD 
HETATM   22  C   UNL     1      -8.159   8.136  64.413  1.00  0.00    -0.138 C  
HETATM   23  C   UNL     1      -7.537   9.528  64.267  1.00  0.00    -0.122 C  
BRANCH  22  24
HETATM   24  C   UNL     1      -7.191   7.007  64.876  1.00  0.00    -0.078 C  
HETATM   25  O   UNL     1      -6.268   7.251  65.665  1.00  0.00    -0.037 OA 
HETATM   26  N   UNL     1      -7.409   5.710  64.428  1.00  0.00    -0.062 N  
HETATM   27  C   UNL     1      -8.510   5.270  63.585  1.00  0.00    -0.091 C  
HETATM   28  C   UNL     1      -6.475   4.661  64.815  1.00  0.00    -0.039 C  
ENDBRANCH  22  24
ENDBRANCH  17  18
ENDBRANCH  11  17
TORSDOF 4
ENDMDL
MODEL      153
REMARK 921   NORMALIZED FREE ENERGY PREDICTED BY IDOCK:   -4.17 KCAL/MOL
REMARK 922        TOTAL FREE ENERGY PREDICTED BY IDOCK:   -6.12 KCAL/MOL
REMARK 923 INTER-LIGAND FREE ENERGY PREDICTED BY IDOCK:   -5.17 KCAL/MOL
REMARK 924 INTRA-LIGAND FREE ENERGY PREDICTED BY IDOCK:   -0.95 KCAL/MOL
REMARK 927      BINDING AFFINITY PREDICTED BY RF-SCORE:    0.00 PKD
ROOT
HETATM    1  C   UNL     1      -8.133  17.248  67.795  1.00  0.00    -0.201 C  
HETATM    2  C   UNL     1      -8.313  15.903  67.021  1.00  0.00    -0.223 C  
HETATM    3  C   UNL     1      -9.665  17.238  67.914  1.00  0.00    -0.273 C  
HETATM    4  N   UNL     1      -9.773  16.025  67.295  1.00  0.00    -0.230 N  
HETATM    5  C   UNL     1      -7.905  14.521  67.544  1.00  0.00    -0.212 C  
HETATM    6  O   UNL     1     -12.390  15.820  68.050  1.00  0.00     0.378 OA 
HETATM    7  O   UNL     1     -10.539  17.915  68.400  1.00  0.00    -0.349 OA 
HETATM    8  C   UNL     1     -10.184  14.906  68.007  1.00  0.00    -0.228 C  
HETATM    9  O   UNL     1     -12.083  13.849  69.073  1.00  0.00    -0.349 OA 
HETATM   10  C   UNL     1     -11.609  14.792  68.459  1.00  0.00    -0.321 C  
HETATM   11  C   UNL     1      -9.183  14.019  68.178  1.00  0.00    -0.196 C  
HETATM   12  C   UNL     1      -6.679  14.596  68.442  1.00  0.00    -0.100 C  
ENDROOT
BRANCH   1  13
HETATM   13  C   UNL     1      -7.538  18.397  67.002  1.00  0.00    -0.220 C  
HETATM   14  C   UNL     1      -6.221  17.977  66.365  1.00  0.00    -0.236 C  
HETATM   15  O   UNL     1      -8.438  18.740  65.955  1.00  0.00    -0.481 OA 
HETATM   16  H   UNL     1      -8.066  19.459  65.458  1.00  0.00     0.000 HD 
ENDBRANCH   1  13
BRANCH  11  17
HETATM   17  S   UNL     1      -9.203  12.549  69.073  1.00  0.00     0.637 SA 
BRANCH  17  18
HETATM   18  C   UNL     1      -9.396  11.222  67.825  1.00  0.00    -0.163 C  
HETATM   19  C   UNL     1     -10.710  11.174  67.056  1.00  0.00    -0.268 C  
HETATM   20  N   UNL     1     -11.557  10.286  67.839  1.00  0.00    -0.670 NA 
HETATM   21  H   UNL     1     -12.332   9.901  67.298  1.00  0.00     0.000 HD 
HETATM   22  C   UNL     1     -10.694   9.237  68.432  1.00  0.00    -0.145 C  
HETATM   23  C   UNL     1      -9.277   9.817  68.398  1.00  0.00    -0.130 C  
BRANCH  22  24
HETATM   24  C   UNL     1     -11.233   8.848  69.840  1.00  0.00    -0.065 C  
HETATM   25  O   UNL     1     -11.635   9.718  70.624  1.00  0.00    -0.275 OA 
HETATM   26  N   UNL     1     -11.303   7.503  70.185  1.00  0.00    -0.205 N  
HETATM   27  C   UNL     1     -10.961   6.381  69.326  1.00  0.00    -0.356 C  
HETATM   28  C   UNL     1     -11.756   7.138  71.521  1.00  0.00    -0.290 C  
ENDBRANCH  22  24
ENDBRANCH  17  18
ENDBRANCH  11  17
TORSDOF 4
ENDMDL
MODEL      154
REMARK 921   NORMALIZED FREE ENERGY PREDICTED BY IDOCK:   -4.17 KCAL/MOL
REMARK 922        TOTAL FREE ENERGY PREDICTED BY IDOCK:   -6.11 KCAL/MOL
REMARK 923 INTER-LIGAND FREE ENERGY PREDICTED BY IDOCK:   -5.33 KCAL/MOL
REMARK 924 INTRA-LIGAND FREE ENERGY PREDICTED BY IDOCK:   -0.78 KCAL/MOL
REMARK 927      BINDING AFFINITY PREDICTED BY RF-SCORE:    0.00 PKD
ROOT
HETATM    1  C   UNL     1     -10.694   8.879  70.475  1.00  0.00    -0.271 C  
HETATM    2  C   UNL     1     -11.377   7.498  70.733  1.00  0.00    -0.280 C  
HETATM    3  C   UNL     1      -9.763   8.491  71.634  1.00  0.00    -0.252 C  
HETATM    4  N   UNL     1     -10.343   7.264  71.779  1.00  0.00    -0.196 N  
HETATM    5  C   UNL     1     -11.305   6.288  69.795  1.00  0.00    -0.506 C  
HETATM    6  O   UNL     1      -8.311   6.444  73.411  1.00  0.00    -0.120 OA 
HETATM    7  O   UNL     1      -8.813   8.950  72.224  1.00  0.00    -0.397 OA 
HETATM    8  C   UNL     1      -9.640   6.110  71.455  1.00  0.00    -0.159 C  
HETATM    9  O   UNL     1      -7.826   4.661  72.142  1.00  0.00    -0.092 OA 
HETATM   10  C   UNL     1      -8.499   5.664  72.320  1.00  0.00    -0.119 C  
HETATM   11  C   UNL     1     -10.132   5.511  70.353  1.00  0.00    -0.230 C  
HETATM   12  C   UNL     1     -11.216   6.708  68.336  1.00  0.00    -0.215 C  
ENDROOT
BRANCH   1  13
HETATM   13  C   UNL     1     -11.562  10.103  70.704  1.00  0.00    -0.343 C  
HETATM   14  C   UNL     1     -11.329  11.132  69.606  1.00  0.00    -0.366 C  
HETATM   15  O   UNL     1     -12.928   9.708  70.649  1.00  0.00    -0.546 OA 
HETATM   16  H   UNL     1     -13.470  10.474  70.792  1.00  0.00     0.000 HD 
ENDBRANCH   1  13
BRANCH  11  17
HETATM   17  S   UNL     1      -9.525   4.125  69.533  1.00  0.00    -0.193 SA 
BRANCH  17  18
HETATM   18  C   UNL     1      -7.907   4.637  68.842  1.00  0.00    -0.071 C  
HETATM   19  C   UNL     1      -7.752   6.098  68.443  1.00  0.00    -0.103 C  
HETATM   20  N   UNL     1      -8.136   6.134  67.039  1.00  0.00    -0.105 NA 
HETATM   21  H   UNL     1      -7.779   6.958  66.553  1.00  0.00     0.000 HD 
HETATM   22  C   UNL     1      -7.701   4.864  66.413  1.00  0.00    -0.092 C  
HETATM   23  C   UNL     1      -7.514   3.887  67.577  1.00  0.00    -0.068 C  
BRANCH  22  24
HETATM   24  C   UNL     1      -8.731   4.434  65.328  1.00  0.00    -0.128 C  
HETATM   25  O   UNL     1      -9.846   4.003  65.652  1.00  0.00    -0.186 OA 
HETATM   26  N   UNL     1      -8.399   4.589  63.987  1.00  0.00    -0.109 N  
HETATM   27  C   UNL     1      -7.171   5.173  63.472  1.00  0.00    -0.049 C  
HETATM   28  C   UNL     1      -9.338   4.137  62.968  1.00  0.00    -0.136 C  
ENDBRANCH  22  24
ENDBRANCH  17  18
ENDBRANCH  11  17
TORSDOF 4
ENDMDL
MODEL      155
REMARK 921   NORMALIZED FREE ENERGY PREDICTED BY IDOCK:   -4.15 KCAL/MOL
REMARK 922        TOTAL FREE ENERGY PREDICTED BY IDOCK:   -6.08 KCAL/MOL
REMARK 923 INTER-LIGAND FREE ENERGY PREDICTED BY IDOCK:   -5.24 KCAL/MOL
REMARK 924 INTRA-LIGAND FREE ENERGY PREDICTED BY IDOCK:   -0.85 KCAL/MOL
REMARK 927      BINDING AFFINITY PREDICTED BY RF-SCORE:    0.00 PKD
ROOT
HETATM    1  C   UNL     1     -11.073  11.988  67.637  1.00  0.00    -0.319 C  
HETATM    2  C   UNL     1     -10.226  11.282  68.744  1.00  0.00    -0.202 C  
HETATM    3  C   UNL     1     -10.444  10.963  66.680  1.00  0.00    -0.254 C  
HETATM    4  N   UNL     1      -9.776  10.330  67.689  1.00  0.00    -0.162 N  
HETATM    5  C   UNL     1     -10.794  10.416  69.873  1.00  0.00    -0.353 C  
HETATM    6  O   UNL     1      -9.174   8.237  66.040  1.00  0.00    -0.192 OA 
HETATM    7  O   UNL     1     -10.494  10.669  65.510  1.00  0.00    -0.248 OA 
HETATM    8  C   UNL     1     -10.134   9.044  68.073  1.00  0.00    -0.190 C  
HETATM    9  O   UNL     1     -10.096   6.717  67.406  1.00  0.00    -0.147 OA 
HETATM   10  C   UNL     1      -9.843   7.887  67.165  1.00  0.00    -0.208 C  
HETATM   11  C   UNL     1     -10.707   9.021  69.292  1.00  0.00    -0.174 C  
HETATM   12  C   UNL     1     -12.171  10.890  70.311  1.00  0.00    -0.432 C  
ENDROOT
BRANCH   1  13
HETATM   13  C   UNL     1     -10.733  13.442  67.366  1.00  0.00    -0.262 C  
HETATM   14  C   UNL     1      -9.981  14.041  68.546  1.00  0.00    -0.230 C  
HETATM   15  O   UNL     1      -9.881  13.505  66.228  1.00  0.00    -0.288 OA 
HETATM   16  H   UNL     1      -9.669  14.415  66.059  1.00  0.00     0.000 HD 
ENDBRANCH   1  13
BRANCH  11  17
HETATM   17  S   UNL     1     -11.391   7.678  70.123  1.00  0.00    -0.058 SA 
BRANCH  17  18
HETATM   18  C   UNL     1     -10.114   7.147  71.324  1.00  0.00    -0.189 C  
HETATM   19  C   UNL     1      -9.873   8.047  72.529  1.00  0.00    -0.263 C  
HETATM   20  N   UNL     1      -8.812   8.948  72.103  1.00  0.00    -0.380 NA 
HETATM   21  H   UNL     1      -8.324   9.382  72.888  1.00  0.00     0.000 HD 
HETATM   22  C   UNL     1      -7.904   8.194  71.208  1.00  0.00    -0.097 C  
HETATM   23  C   UNL     1      -8.725   6.998  70.719  1.00  0.00    -0.148 C  
BRANCH  22  24
HETATM   24  C   UNL     1      -7.358   9.140  70.097  1.00  0.00    -0.077 C  
HETATM   25  O   UNL     1      -7.406  10.369  70.236  1.00  0.00    -0.215 OA 
HETATM   26  N   UNL     1      -6.768   8.581  68.969  1.00  0.00    -0.051 N  
HETATM   27  C   UNL     1      -6.556   7.162  68.729  1.00  0.00    -0.044 C  
HETATM   28  C   UNL     1      -6.305   9.460  67.904  1.00  0.00    -0.054 C  
ENDBRANCH  22  24
ENDBRANCH  17  18
ENDBRANCH  11  17
TORSDOF 4
ENDMDL
MODEL      156
REMARK 921   NORMALIZED FREE ENERGY PREDICTED BY IDOCK:   -4.13 KCAL/MOL
REMARK 922        TOTAL FREE ENERGY PREDICTED BY IDOCK:   -6.07 KCAL/MOL
REMARK 923 INTER-LIGAND FREE ENERGY PREDICTED BY IDOCK:   -5.42 KCAL/MOL
REMARK 924 INTRA-LIGAND FREE ENERGY PREDICTED BY IDOCK:   -0.65 KCAL/MOL
REMARK 927      BINDING AFFINITY PREDICTED BY RF-SCORE:    0.00 PKD
ROOT
HETATM    1  C   UNL     1      -8.025   9.110  64.903  1.00  0.00    -0.123 C  
HETATM    2  C   UNL     1      -7.090   9.468  66.103  1.00  0.00    -0.092 C  
HETATM    3  C   UNL     1      -8.042   7.695  65.502  1.00  0.00    -0.130 C  
HETATM    4  N   UNL     1      -7.281   8.066  66.573  1.00  0.00    -0.079 N  
HETATM    5  C   UNL     1      -7.474  10.362  67.286  1.00  0.00    -0.094 C  
HETATM    6  O   UNL     1      -7.836   5.712  67.842  1.00  0.00    -0.095 OA 
HETATM    7  O   UNL     1      -8.546   6.622  65.272  1.00  0.00    -0.119 OA 
HETATM    8  C   UNL     1      -7.830   8.100  67.849  1.00  0.00    -0.122 C  
HETATM    9  O   UNL     1      -8.640   6.728  69.671  1.00  0.00    -0.131 OA 
HETATM   10  C   UNL     1      -8.173   6.818  68.547  1.00  0.00    -0.120 C  
HETATM   11  C   UNL     1      -7.961   9.360  68.310  1.00  0.00    -0.094 C  
HETATM   12  C   UNL     1      -8.452  11.452  66.878  1.00  0.00    -0.157 C  
ENDROOT
BRANCH   1  13
HETATM   13  C   UNL     1      -7.411   9.237  63.521  1.00  0.00    -0.101 C  
HETATM   14  C   UNL     1      -8.378   8.728  62.461  1.00  0.00    -0.202 C  
HETATM   15  O   UNL     1      -7.163  10.613  63.259  1.00  0.00    -0.334 OA 
HETATM   16  H   UNL     1      -6.778  10.693  62.394  1.00  0.00     0.000 HD 
ENDBRANCH   1  13
BRANCH  11  17
HETATM   17  S   UNL     1      -8.675   9.885  69.785  1.00  0.00    -0.193 SA 
BRANCH  17  18
HETATM   18  C   UNL     1     -10.440   9.407  69.669  1.00  0.00    -0.223 C  
HETATM   19  C   UNL     1     -11.130   9.611  68.326  1.00  0.00    -0.046 C  
HETATM   20  N   UNL     1     -11.704  10.946  68.411  1.00  0.00    -0.611 NA 
HETATM   21  H   UNL     1     -12.457  11.095  67.739  1.00  0.00     0.000 HD 
HETATM   22  C   UNL     1     -12.133  11.171  69.812  1.00  0.00    -0.344 C  
HETATM   23  C   UNL     1     -11.344  10.152  70.641  1.00  0.00    -0.433 C  
BRANCH  22  24
HETATM   24  C   UNL     1     -11.918  12.665  70.193  1.00  0.00    -0.299 C  
HETATM   25  O   UNL     1     -11.204  13.398  69.496  1.00  0.00    -0.214 OA 
HETATM   26  N   UNL     1     -12.581  13.178  71.303  1.00  0.00    -0.339 N  
HETATM   27  C   UNL     1     -13.522  12.457  72.145  1.00  0.00    -0.378 C  
HETATM   28  C   UNL     1     -12.340  14.560  71.694  1.00  0.00    -0.350 C  
ENDBRANCH  22  24
ENDBRANCH  17  18
ENDBRANCH  11  17
TORSDOF 4
ENDMDL
MODEL      157
REMARK 921   NORMALIZED FREE ENERGY PREDICTED BY IDOCK:   -4.13 KCAL/MOL
REMARK 922        TOTAL FREE ENERGY PREDICTED BY IDOCK:   -6.06 KCAL/MOL
REMARK 923 INTER-LIGAND FREE ENERGY PREDICTED BY IDOCK:   -5.11 KCAL/MOL
REMARK 924 INTRA-LIGAND FREE ENERGY PREDICTED BY IDOCK:   -0.95 KCAL/MOL
REMARK 927      BINDING AFFINITY PREDICTED BY RF-SCORE:    0.00 PKD
ROOT
HETATM    1  C   UNL     1      -6.520  10.273  66.667  1.00  0.00    -0.076 C  
HETATM    2  C   UNL     1      -7.923   9.877  66.106  1.00  0.00    -0.109 C  
HETATM    3  C   UNL     1      -7.117  11.682  66.813  1.00  0.00    -0.083 C  
HETATM    4  N   UNL     1      -8.348  11.278  66.384  1.00  0.00    -0.168 N  
HETATM    5  C   UNL     1      -8.940   8.982  66.821  1.00  0.00    -0.160 C  
HETATM    6  O   UNL     1      -9.459  13.634  67.206  1.00  0.00    -0.215 OA 
HETATM    7  O   UNL     1      -6.777  12.772  67.208  1.00  0.00    -0.158 OA 
HETATM    8  C   UNL     1      -9.424  11.247  67.262  1.00  0.00    -0.173 C  
HETATM    9  O   UNL     1     -10.979  12.622  68.507  1.00  0.00    -0.238 OA 
HETATM   10  C   UNL     1     -10.025  12.531  67.751  1.00  0.00    -0.210 C  
HETATM   11  C   UNL     1      -9.809   9.987  67.545  1.00  0.00    -0.175 C  
HETATM   12  C   UNL     1      -8.260   7.924  67.677  1.00  0.00    -0.124 C  
ENDROOT
BRANCH   1  13
HETATM   13  C   UNL     1      -5.357  10.143  65.701  1.00  0.00    -0.063 C  
HETATM   14  C   UNL     1      -5.479   8.860  64.891  1.00  0.00    -0.042 C  
HETATM   15  O   UNL     1      -5.396  11.238  64.793  1.00  0.00    -0.490 OA 
HETATM   16  H   UNL     1      -4.668  11.157  64.188  1.00  0.00     0.000 HD 
ENDBRANCH   1  13
BRANCH  11  17
HETATM   17  S   UNL     1     -11.023   9.466  68.649  1.00  0.00     0.048 SA 
BRANCH  17  18
HETATM   18  C   UNL     1     -10.407   9.940  70.308  1.00  0.00    -0.281 C  
HETATM   19  C   UNL     1      -8.996   9.502  70.679  1.00  0.00    -0.166 C  
HETATM   20  N   UNL     1      -9.175   8.214  71.333  1.00  0.00    -0.144 NA 
HETATM   21  H   UNL     1      -8.380   7.954  71.917  1.00  0.00     0.000 HD 
HETATM   22  C   UNL     1     -10.450   8.258  72.087  1.00  0.00    -0.301 C  
HETATM   23  C   UNL     1     -11.250   9.400  71.455  1.00  0.00    -0.452 C  
BRANCH  22  24
HETATM   24  C   UNL     1     -11.129   6.857  72.053  1.00  0.00    -0.245 C  
HETATM   25  O   UNL     1     -11.768   6.489  71.058  1.00  0.00    -0.330 OA 
HETATM   26  N   UNL     1     -10.963   6.004  73.138  1.00  0.00    -0.255 N  
HETATM   27  C   UNL     1     -10.158   6.269  74.320  1.00  0.00    -0.335 C  
HETATM   28  C   UNL     1     -11.640   4.713  73.134  1.00  0.00    -0.165 C  
ENDBRANCH  22  24
ENDBRANCH  17  18
ENDBRANCH  11  17
TORSDOF 4
ENDMDL
MODEL      158
REMARK 921   NORMALIZED FREE ENERGY PREDICTED BY IDOCK:   -4.11 KCAL/MOL
REMARK 922        TOTAL FREE ENERGY PREDICTED BY IDOCK:   -6.04 KCAL/MOL
REMARK 923 INTER-LIGAND FREE ENERGY PREDICTED BY IDOCK:   -4.98 KCAL/MOL
REMARK 924 INTRA-LIGAND FREE ENERGY PREDICTED BY IDOCK:   -1.06 KCAL/MOL
REMARK 927      BINDING AFFINITY PREDICTED BY RF-SCORE:    0.00 PKD
ROOT
HETATM    1  C   UNL     1     -10.374  13.113  67.586  1.00  0.00    -0.223 C  
HETATM    2  C   UNL     1      -9.164  12.540  66.781  1.00  0.00    -0.217 C  
HETATM    3  C   UNL     1     -11.031  11.749  67.323  1.00  0.00    -0.267 C  
HETATM    4  N   UNL     1      -9.926  11.263  66.687  1.00  0.00    -0.204 N  
HETATM    5  C   UNL     1      -7.801  12.171  67.376  1.00  0.00    -0.168 C  
HETATM    6  O   UNL     1     -10.937   8.727  66.772  1.00  0.00    -0.009 OA 
HETATM    7  O   UNL     1     -12.063  11.178  67.584  1.00  0.00    -0.537 OA 
HETATM    8  C   UNL     1      -9.168  10.253  67.267  1.00  0.00    -0.141 C  
HETATM    9  O   UNL     1      -9.139   7.897  67.823  1.00  0.00    -0.134 OA 
HETATM   10  C   UNL     1      -9.721   8.862  67.353  1.00  0.00    -0.176 C  
HETATM   11  C   UNL     1      -7.961  10.695  67.671  1.00  0.00    -0.106 C  
HETATM   12  C   UNL     1      -7.435  13.067  68.550  1.00  0.00    -0.123 C  
ENDROOT
BRANCH   1  13
HETATM   13  C   UNL     1     -11.071  14.314  66.974  1.00  0.00    -0.312 C  
HETATM   14  C   UNL     1     -11.012  14.245  65.454  1.00  0.00    -0.335 C  
HETATM   15  O   UNL     1     -12.440  14.290  67.358  1.00  0.00    -0.588 OA 
HETATM   16  H   UNL     1     -12.876  15.041  66.975  1.00  0.00     0.000 HD 
ENDBRANCH   1  13
BRANCH  11  17
HETATM   17  S   UNL     1      -6.739   9.830  68.522  1.00  0.00    -0.051 SA 
BRANCH  17  18
HETATM   18  C   UNL     1      -7.081  10.125  70.297  1.00  0.00    -0.138 C  
HETATM   19  C   UNL     1      -6.033   9.652  71.296  1.00  0.00    -0.053 C  
HETATM   20  N   UNL     1      -6.448   8.301  71.646  1.00  0.00    -0.050 NA 
HETATM   21  H   UNL     1      -6.047   7.981  72.528  1.00  0.00     0.000 HD 
HETATM   22  C   UNL     1      -7.930   8.262  71.641  1.00  0.00    -0.128 C  
HETATM   23  C   UNL     1      -8.359   9.465  70.795  1.00  0.00    -0.180 C  
BRANCH  22  24
HETATM   24  C   UNL     1      -8.417   6.872  71.137  1.00  0.00    -0.123 C  
HETATM   25  O   UNL     1      -7.675   6.153  70.455  1.00  0.00    -0.096 OA 
HETATM   26  N   UNL     1      -9.681   6.428  71.508  1.00  0.00    -0.169 N  
HETATM   27  C   UNL     1     -10.609   7.125  72.384  1.00  0.00    -0.226 C  
HETATM   28  C   UNL     1     -10.162   5.152  70.994  1.00  0.00    -0.225 C  
ENDBRANCH  22  24
ENDBRANCH  17  18
ENDBRANCH  11  17
TORSDOF 4
ENDMDL
MODEL      159
REMARK 921   NORMALIZED FREE ENERGY PREDICTED BY IDOCK:   -4.10 KCAL/MOL
REMARK 922        TOTAL FREE ENERGY PREDICTED BY IDOCK:   -6.03 KCAL/MOL
REMARK 923 INTER-LIGAND FREE ENERGY PREDICTED BY IDOCK:   -5.30 KCAL/MOL
REMARK 924 INTRA-LIGAND FREE ENERGY PREDICTED BY IDOCK:   -0.73 KCAL/MOL
REMARK 927      BINDING AFFINITY PREDICTED BY RF-SCORE:    0.00 PKD
ROOT
HETATM    1  C   UNL     1      -9.529  14.307  66.522  1.00  0.00    -0.306 C  
HETATM    2  C   UNL     1     -10.280  13.192  67.318  1.00  0.00    -0.243 C  
HETATM    3  C   UNL     1      -8.294  13.871  67.324  1.00  0.00    -0.185 C  
HETATM    4  N   UNL     1      -8.970  12.861  67.946  1.00  0.00    -0.185 N  
HETATM    5  C   UNL     1     -10.801  11.879  66.723  1.00  0.00    -0.307 C  
HETATM    6  O   UNL     1      -6.629  11.806  68.879  1.00  0.00    -0.068 OA 
HETATM    7  O   UNL     1      -7.124  14.159  67.410  1.00  0.00    -0.182 OA 
HETATM    8  C   UNL     1      -8.668  11.534  67.665  1.00  0.00    -0.142 C  
HETATM    9  O   UNL     1      -7.012   9.794  67.967  1.00  0.00    -0.076 OA 
HETATM   10  C   UNL     1      -7.372  10.948  68.140  1.00  0.00    -0.089 C  
HETATM   11  C   UNL     1      -9.657  10.924  66.984  1.00  0.00    -0.173 C  
HETATM   12  C   UNL     1     -11.235  12.048  65.274  1.00  0.00    -0.374 C  
ENDROOT
BRANCH   1  13
HETATM   13  C   UNL     1     -10.006  15.728  66.759  1.00  0.00    -0.252 C  
HETATM   14  C   UNL     1     -10.628  16.299  65.492  1.00  0.00    -0.369 C  
HETATM   15  O   UNL     1     -11.010  15.708  67.767  1.00  0.00    -0.304 OA 
HETATM   16  H   UNL     1     -11.308  16.597  67.915  1.00  0.00     0.000 HD 
ENDBRANCH   1  13
BRANCH  11  17
HETATM   17  S   UNL     1      -9.681   9.326  66.342  1.00  0.00    -0.278 SA 
BRANCH  17  18
HETATM   18  C   UNL     1     -10.393   8.281  67.668  1.00  0.00    -0.248 C  
HETATM   19  C   UNL     1      -9.485   7.925  68.837  1.00  0.00    -0.150 C  
HETATM   20  N   UNL     1      -8.869   6.664  68.449  1.00  0.00    -0.122 NA 
HETATM   21  H   UNL     1      -8.498   6.144  69.245  1.00  0.00     0.000 HD 
HETATM   22  C   UNL     1      -9.864   5.890  67.670  1.00  0.00    -0.121 C  
HETATM   23  C   UNL     1     -10.883   6.924  67.183  1.00  0.00    -0.447 C  
BRANCH  22  24
HETATM   24  C   UNL     1      -9.141   5.076  66.557  1.00  0.00    -0.125 C  
HETATM   25  O   UNL     1      -8.767   5.628  65.514  1.00  0.00    -0.152 OA 
HETATM   26  N   UNL     1      -8.877   3.728  66.774  1.00  0.00    -0.118 N  
HETATM   27  C   UNL     1      -9.170   2.984  67.989  1.00  0.00    -0.198 C  
HETATM   28  C   UNL     1      -8.250   2.950  65.714  1.00  0.00    -0.089 C  
ENDBRANCH  22  24
ENDBRANCH  17  18
ENDBRANCH  11  17
TORSDOF 4
ENDMDL
MODEL      160
REMARK 921   NORMALIZED FREE ENERGY PREDICTED BY IDOCK:   -4.09 KCAL/MOL
REMARK 922        TOTAL FREE ENERGY PREDICTED BY IDOCK:   -6.02 KCAL/MOL
REMARK 923 INTER-LIGAND FREE ENERGY PREDICTED BY IDOCK:   -5.19 KCAL/MOL
REMARK 924 INTRA-LIGAND FREE ENERGY PREDICTED BY IDOCK:   -0.84 KCAL/MOL
REMARK 927      BINDING AFFINITY PREDICTED BY RF-SCORE:    0.00 PKD
ROOT
HETATM    1  C   UNL     1      -8.791   4.572  68.145  1.00  0.00    -0.123 C  
HETATM    2  C   UNL     1     -10.008   5.097  67.318  1.00  0.00    -0.186 C  
HETATM    3  C   UNL     1      -7.936   5.097  66.982  1.00  0.00    -0.100 C  
HETATM    4  N   UNL     1      -9.019   5.605  66.325  1.00  0.00    -0.136 N  
HETATM    5  C   UNL     1     -10.878   6.301  67.693  1.00  0.00    -0.433 C  
HETATM    6  O   UNL     1      -7.396   6.987  64.618  1.00  0.00    -0.077 OA 
HETATM    7  O   UNL     1      -6.768   5.173  66.680  1.00  0.00    -0.057 OA 
HETATM    8  C   UNL     1      -9.186   6.978  66.198  1.00  0.00    -0.077 C  
HETATM    9  O   UNL     1      -8.348   8.961  65.090  1.00  0.00    -0.142 OA 
HETATM   10  C   UNL     1      -8.282   7.758  65.292  1.00  0.00    -0.140 C  
HETATM   11  C   UNL     1     -10.217   7.432  66.938  1.00  0.00    -0.276 C  
HETATM   12  C   UNL     1     -10.998   6.463  69.201  1.00  0.00    -0.416 C  
ENDROOT
BRANCH   1  13
HETATM   13  C   UNL     1      -8.743   3.073  68.379  1.00  0.00    -0.102 C  
HETATM   14  C   UNL     1      -9.243   2.736  69.777  1.00  0.00    -0.206 C  
HETATM   15  O   UNL     1      -9.608   2.440  67.442  1.00  0.00    -0.406 OA 
HETATM   16  H   UNL     1      -9.578   1.502  67.588  1.00  0.00     0.000 HD 
ENDBRANCH   1  13
BRANCH  11  17
HETATM   17  S   UNL     1     -10.729   9.060  67.166  1.00  0.00    -0.021 SA 
BRANCH  17  18
HETATM   18  C   UNL     1      -9.477   9.814  68.271  1.00  0.00    -0.139 C  
HETATM   19  C   UNL     1      -9.950  10.285  69.640  1.00  0.00    -0.207 C  
HETATM   20  N   UNL     1     -10.318  11.679  69.437  1.00  0.00    -0.426 NA 
HETATM   21  H   UNL     1     -10.341  12.212  70.307  1.00  0.00     0.000 HD 
HETATM   22  C   UNL     1      -9.392  12.256  68.434  1.00  0.00    -0.162 C  
HETATM   23  C   UNL     1      -8.809  11.051  67.689  1.00  0.00    -0.131 C  
BRANCH  22  24
HETATM   24  C   UNL     1     -10.150  13.293  67.555  1.00  0.00    -0.223 C  
HETATM   25  O   UNL     1     -10.975  12.922  66.710  1.00  0.00    -0.264 OA 
HETATM   26  N   UNL     1      -9.922  14.648  67.768  1.00  0.00    -0.223 N  
HETATM   27  C   UNL     1      -9.060  15.220  68.790  1.00  0.00    -0.200 C  
HETATM   28  C   UNL     1     -10.588  15.621  66.911  1.00  0.00    -0.311 C  
ENDBRANCH  22  24
ENDBRANCH  17  18
ENDBRANCH  11  17
TORSDOF 4
ENDMDL
MODEL      161
REMARK 921   NORMALIZED FREE ENERGY PREDICTED BY IDOCK:   -4.04 KCAL/MOL
REMARK 922        TOTAL FREE ENERGY PREDICTED BY IDOCK:   -5.96 KCAL/MOL
REMARK 923 INTER-LIGAND FREE ENERGY PREDICTED BY IDOCK:   -5.57 KCAL/MOL
REMARK 924 INTRA-LIGAND FREE ENERGY PREDICTED BY IDOCK:   -0.38 KCAL/MOL
REMARK 927      BINDING AFFINITY PREDICTED BY RF-SCORE:    0.00 PKD
ROOT
HETATM    1  C   UNL     1      -9.481  16.979  67.099  1.00  0.00    -0.245 C  
HETATM    2  C   UNL     1     -10.432  15.756  66.896  1.00  0.00    -0.315 C  
HETATM    3  C   UNL     1     -10.300  17.243  68.372  1.00  0.00    -0.366 C  
HETATM    4  N   UNL     1     -11.063  16.124  68.195  1.00  0.00    -0.342 N  
HETATM    5  C   UNL     1     -10.022  14.286  67.033  1.00  0.00    -0.258 C  
HETATM    6  O   UNL     1     -12.061  16.347  70.728  1.00  0.00    -0.060 OA 
HETATM    7  O   UNL     1     -10.319  18.030  69.288  1.00  0.00    -0.265 OA 
HETATM    8  C   UNL     1     -10.945  15.047  69.064  1.00  0.00    -0.249 C  
HETATM    9  O   UNL     1     -11.422  14.279  71.310  1.00  0.00    -0.059 OA 
HETATM   10  C   UNL     1     -11.456  15.163  70.469  1.00  0.00    -0.304 C  
HETATM   11  C   UNL     1     -10.372  13.980  68.473  1.00  0.00    -0.247 C  
HETATM   12  C   UNL     1      -8.575  14.061  66.619  1.00  0.00     0.020 C  
ENDROOT
BRANCH   1  13
HETATM   13  C   UNL     1      -9.549  18.057  66.033  1.00  0.00    -0.070 C  
HETATM   14  C   UNL     1     -10.563  19.124  66.419  1.00  0.00    -0.522 C  
HETATM   15  O   UNL     1      -8.274  18.681  65.937  1.00  0.00    -0.488 OA 
HETATM   16  H   UNL     1      -8.316  19.356  65.269  1.00  0.00     0.000 HD 
ENDBRANCH   1  13
BRANCH  11  17
HETATM   17  S   UNL     1      -9.940  12.473  69.183  1.00  0.00     0.542 SA 
BRANCH  17  18
HETATM   18  C   UNL     1     -11.414  11.402  68.988  1.00  0.00    -0.300 C  
HETATM   19  C   UNL     1     -12.399  11.356  70.149  1.00  0.00    -0.266 C  
HETATM   20  N   UNL     1     -11.944  10.240  70.967  1.00  0.00    -0.359 NA 
HETATM   21  H   UNL     1     -12.672   9.883  71.586  1.00  0.00     0.000 HD 
HETATM   22  C   UNL     1     -11.400   9.201  70.061  1.00  0.00    -0.090 C  
HETATM   23  C   UNL     1     -11.081   9.935  68.755  1.00  0.00    -0.179 C  
BRANCH  22  24
HETATM   24  C   UNL     1     -10.198   8.485  70.745  1.00  0.00    -0.198 C  
HETATM   25  O   UNL     1      -9.406   9.121  71.454  1.00  0.00    -0.254 OA 
HETATM   26  N   UNL     1     -10.057   7.111  70.589  1.00  0.00    -0.191 N  
HETATM   27  C   UNL     1     -10.968   6.234  69.872  1.00  0.00    -0.370 C  
HETATM   28  C   UNL     1      -8.905   6.446  71.183  1.00  0.00    -0.138 C  
ENDBRANCH  22  24
ENDBRANCH  17  18
ENDBRANCH  11  17
TORSDOF 4
ENDMDL
MODEL      162
REMARK 921   NORMALIZED FREE ENERGY PREDICTED BY IDOCK:   -4.03 KCAL/MOL
REMARK 922        TOTAL FREE ENERGY PREDICTED BY IDOCK:   -5.95 KCAL/MOL
REMARK 923 INTER-LIGAND FREE ENERGY PREDICTED BY IDOCK:   -4.98 KCAL/MOL
REMARK 924 INTRA-LIGAND FREE ENERGY PREDICTED BY IDOCK:   -0.97 KCAL/MOL
REMARK 927      BINDING AFFINITY PREDICTED BY RF-SCORE:    0.00 PKD
ROOT
HETATM    1  C   UNL     1     -10.443  15.188  67.643  1.00  0.00    -0.253 C  
HETATM    2  C   UNL     1     -10.174  13.935  68.538  1.00  0.00    -0.240 C  
HETATM    3  C   UNL     1      -8.913  15.321  67.592  1.00  0.00    -0.179 C  
HETATM    4  N   UNL     1      -8.721  14.180  68.317  1.00  0.00    -0.176 N  
HETATM    5  C   UNL     1     -10.421  12.482  68.119  1.00  0.00    -0.238 C  
HETATM    6  O   UNL     1      -6.061  14.177  67.695  1.00  0.00    -0.268 OA 
HETATM    7  O   UNL     1      -8.085  16.041  67.087  1.00  0.00    -0.164 OA 
HETATM    8  C   UNL     1      -8.169  13.053  67.722  1.00  0.00    -0.168 C  
HETATM    9  O   UNL     1      -6.125  12.108  66.833  1.00  0.00    -0.182 OA 
HETATM   10  C   UNL     1      -6.718  13.046  67.343  1.00  0.00    -0.115 C  
HETATM   11  C   UNL     1      -9.069  12.060  67.586  1.00  0.00    -0.179 C  
HETATM   12  C   UNL     1     -11.600  12.360  67.166  1.00  0.00    -0.435 C  
ENDROOT
BRANCH   1  13
HETATM   13  C   UNL     1     -11.186  16.332  68.309  1.00  0.00    -0.324 C  
HETATM   14  C   UNL     1     -11.454  16.012  69.772  1.00  0.00    -0.318 C  
HETATM   15  O   UNL     1     -10.367  17.495  68.259  1.00  0.00    -0.338 OA 
HETATM   16  H   UNL     1     -10.831  18.211  68.676  1.00  0.00     0.000 HD 
ENDBRANCH   1  13
BRANCH  11  17
HETATM   17  S   UNL     1      -8.862  10.531  66.823  1.00  0.00    -0.131 SA 
BRANCH  17  18
HETATM   18  C   UNL     1      -8.150   9.438  68.109  1.00  0.00    -0.110 C  
HETATM   19  C   UNL     1      -6.711   8.979  67.914  1.00  0.00    -0.068 C  
HETATM   20  N   UNL     1      -6.826   7.720  67.191  1.00  0.00    -0.067 NA 
HETATM   21  H   UNL     1      -5.990   7.140  67.274  1.00  0.00     0.000 HD 
HETATM   22  C   UNL     1      -8.051   7.032  67.663  1.00  0.00    -0.114 C  
HETATM   23  C   UNL     1      -8.909   8.131  68.295  1.00  0.00    -0.133 C  
BRANCH  22  24
HETATM   24  C   UNL     1      -8.705   6.257  66.482  1.00  0.00    -0.131 C  
HETATM   25  O   UNL     1      -8.591   6.665  65.319  1.00  0.00    -0.119 OA 
HETATM   26  N   UNL     1      -9.379   5.071  66.748  1.00  0.00    -0.129 N  
HETATM   27  C   UNL     1      -9.501   4.429  68.048  1.00  0.00    -0.156 C  
HETATM   28  C   UNL     1     -10.039   4.371  65.654  1.00  0.00    -0.241 C  
ENDBRANCH  22  24
ENDBRANCH  17  18
ENDBRANCH  11  17
TORSDOF 4
ENDMDL
MODEL      163
REMARK 921   NORMALIZED FREE ENERGY PREDICTED BY IDOCK:   -3.98 KCAL/MOL
REMARK 922        TOTAL FREE ENERGY PREDICTED BY IDOCK:   -5.88 KCAL/MOL
REMARK 923 INTER-LIGAND FREE ENERGY PREDICTED BY IDOCK:   -5.67 KCAL/MOL
REMARK 924 INTRA-LIGAND FREE ENERGY PREDICTED BY IDOCK:   -0.21 KCAL/MOL
REMARK 927      BINDING AFFINITY PREDICTED BY RF-SCORE:    0.00 PKD
ROOT
HETATM    1  C   UNL     1      -8.468   8.275  69.548  1.00  0.00    -0.125 C  
HETATM    2  C   UNL     1      -8.115   9.002  68.211  1.00  0.00    -0.109 C  
HETATM    3  C   UNL     1      -7.323   9.102  70.153  1.00  0.00    -0.077 C  
HETATM    4  N   UNL     1      -7.094   9.767  68.983  1.00  0.00    -0.065 N  
HETATM    5  C   UNL     1      -8.990  10.053  67.520  1.00  0.00    -0.141 C  
HETATM    6  O   UNL     1      -5.494  11.571  70.265  1.00  0.00    -0.092 OA 
HETATM    7  O   UNL     1      -6.791   9.262  71.226  1.00  0.00    -0.183 OA 
HETATM    8  C   UNL     1      -7.382  11.121  68.874  1.00  0.00    -0.110 C  
HETATM    9  O   UNL     1      -6.684  13.335  69.562  1.00  0.00    -0.081 OA 
HETATM   10  C   UNL     1      -6.535  12.124  69.599  1.00  0.00    -0.082 C  
HETATM   11  C   UNL     1      -8.434  11.352  68.063  1.00  0.00    -0.145 C  
HETATM   12  C   UNL     1     -10.471   9.795  67.749  1.00  0.00    -0.297 C  
ENDROOT
BRANCH   1  13
HETATM   13  C   UNL     1      -8.273   6.770  69.557  1.00  0.00    -0.131 C  
HETATM   14  C   UNL     1      -7.921   6.271  68.162  1.00  0.00    -0.108 C  
HETATM   15  O   UNL     1      -7.185   6.457  70.419  1.00  0.00    -0.078 OA 
HETATM   16  H   UNL     1      -7.063   5.515  70.424  1.00  0.00     0.000 HD 
ENDBRANCH   1  13
BRANCH  11  17
HETATM   17  S   UNL     1      -9.201  12.852  67.714  1.00  0.00    -0.209 SA 
BRANCH  17  18
HETATM   18  C   UNL     1     -10.998  12.523  67.848  1.00  0.00    -0.227 C  
HETATM   19  C   UNL     1     -11.927  13.364  66.982  1.00  0.00    -0.379 C  
HETATM   20  N   UNL     1     -12.276  14.501  67.822  1.00  0.00    -0.623 NA 
HETATM   21  H   UNL     1     -13.128  14.971  67.515  1.00  0.00     0.000 HD 
HETATM   22  C   UNL     1     -12.355  14.027  69.224  1.00  0.00    -0.171 C  
HETATM   23  C   UNL     1     -11.556  12.720  69.250  1.00  0.00    -0.372 C  
BRANCH  22  24
HETATM   24  C   UNL     1     -11.855  15.145  70.185  1.00  0.00    -0.313 C  
HETATM   25  O   UNL     1     -10.960  15.926  69.833  1.00  0.00    -0.285 OA 
HETATM   26  N   UNL     1     -12.464  15.286  71.426  1.00  0.00    -0.329 N  
HETATM   27  C   UNL     1     -13.588  14.507  71.921  1.00  0.00    -0.396 C  
HETATM   28  C   UNL     1     -11.964  16.296  72.349  1.00  0.00    -0.540 C  
ENDBRANCH  22  24
ENDBRANCH  17  18
ENDBRANCH  11  17
TORSDOF 4
ENDMDL
MODEL      164
REMARK 921   NORMALIZED FREE ENERGY PREDICTED BY IDOCK:   -3.96 KCAL/MOL
REMARK 922        TOTAL FREE ENERGY PREDICTED BY IDOCK:   -5.86 KCAL/MOL
REMARK 923 INTER-LIGAND FREE ENERGY PREDICTED BY IDOCK:   -5.18 KCAL/MOL
REMARK 924 INTRA-LIGAND FREE ENERGY PREDICTED BY IDOCK:   -0.68 KCAL/MOL
REMARK 927      BINDING AFFINITY PREDICTED BY RF-SCORE:    0.00 PKD
ROOT
HETATM    1  C   UNL     1      -9.012   8.208  68.235  1.00  0.00    -0.136 C  
HETATM    2  C   UNL     1     -10.482   7.690  68.346  1.00  0.00    -0.169 C  
HETATM    3  C   UNL     1      -9.581   9.547  68.731  1.00  0.00    -0.157 C  
HETATM    4  N   UNL     1     -10.837   9.035  68.881  1.00  0.00    -0.111 N  
HETATM    5  C   UNL     1     -10.988   6.682  69.382  1.00  0.00    -0.361 C  
HETATM    6  O   UNL     1     -11.623  11.249  70.275  1.00  0.00    -0.311 OA 
HETATM    7  O   UNL     1      -9.181  10.654  69.002  1.00  0.00    -0.175 OA 
HETATM    8  C   UNL     1     -11.386   8.876  70.147  1.00  0.00    -0.106 C  
HETATM    9  O   UNL     1     -12.298  10.059  72.051  1.00  0.00    -0.328 OA 
HETATM   10  C   UNL     1     -11.792  10.081  70.941  1.00  0.00    -0.368 C  
HETATM   11  C   UNL     1     -11.502   7.577  70.488  1.00  0.00    -0.237 C  
HETATM   12  C   UNL     1      -9.913   5.674  69.762  1.00  0.00    -0.264 C  
ENDROOT
BRANCH   1  13
HETATM   13  C   UNL     1      -8.414   8.218  66.840  1.00  0.00    -0.118 C  
HETATM   14  C   UNL     1      -7.100   7.450  66.820  1.00  0.00    -0.079 C  
HETATM   15  O   UNL     1      -9.315   7.564  65.955  1.00  0.00    -0.383 OA 
HETATM   16  H   UNL     1      -8.941   7.571  65.082  1.00  0.00     0.000 HD 
ENDBRANCH   1  13
BRANCH  11  17
HETATM   17  S   UNL     1     -12.032   6.912  71.984  1.00  0.00    -0.288 SA 
BRANCH  17  18
HETATM   18  C   UNL     1     -10.823   7.494  73.231  1.00  0.00    -0.355 C  
HETATM   19  C   UNL     1      -9.513   8.074  72.714  1.00  0.00    -0.269 C  
HETATM   20  N   UNL     1      -8.608   6.935  72.661  1.00  0.00    -0.120 NA 
HETATM   21  H   UNL     1      -7.626   7.211  72.650  1.00  0.00     0.000 HD 
HETATM   22  C   UNL     1      -8.938   6.034  73.791  1.00  0.00    -0.127 C  
HETATM   23  C   UNL     1     -10.366   6.410  74.197  1.00  0.00    -0.335 C  
BRANCH  22  24
HETATM   24  C   UNL     1      -8.724   4.553  73.362  1.00  0.00    -0.100 C  
HETATM   25  O   UNL     1      -9.617   3.932  72.771  1.00  0.00    -0.122 OA 
HETATM   26  N   UNL     1      -7.494   3.954  73.608  1.00  0.00    -0.069 N  
HETATM   27  C   UNL     1      -6.331   4.598  74.198  1.00  0.00    -0.052 C  
HETATM   28  C   UNL     1      -7.307   2.552  73.257  1.00  0.00    -0.041 C  
ENDBRANCH  22  24
ENDBRANCH  17  18
ENDBRANCH  11  17
TORSDOF 4
ENDMDL
MODEL      165
REMARK 921   NORMALIZED FREE ENERGY PREDICTED BY IDOCK:   -3.95 KCAL/MOL
REMARK 922        TOTAL FREE ENERGY PREDICTED BY IDOCK:   -5.85 KCAL/MOL
REMARK 923 INTER-LIGAND FREE ENERGY PREDICTED BY IDOCK:   -5.42 KCAL/MOL
REMARK 924 INTRA-LIGAND FREE ENERGY PREDICTED BY IDOCK:   -0.43 KCAL/MOL
REMARK 927      BINDING AFFINITY PREDICTED BY RF-SCORE:    0.00 PKD
ROOT
HETATM    1  C   UNL     1      -9.743   7.470  68.337  1.00  0.00    -0.161 C  
HETATM    2  C   UNL     1     -10.796   8.621  68.434  1.00  0.00     0.057 C  
HETATM    3  C   UNL     1      -9.707   7.801  66.837  1.00  0.00    -0.216 C  
HETATM    4  N   UNL     1     -10.576   8.845  66.977  1.00  0.00    -0.256 N  
HETATM    5  C   UNL     1     -10.562   9.979  69.105  1.00  0.00    -0.240 C  
HETATM    6  O   UNL     1     -10.015   9.711  64.448  1.00  0.00     0.092 OA 
HETATM    7  O   UNL     1      -9.131   7.429  65.843  1.00  0.00    -0.131 OA 
HETATM    8  C   UNL     1     -10.142  10.152  66.792  1.00  0.00    -0.219 C  
HETATM    9  O   UNL     1      -9.424  11.762  65.133  1.00  0.00    -0.199 OA 
HETATM   10  C   UNL     1      -9.796  10.635  65.415  1.00  0.00    -0.267 C  
HETATM   11  C   UNL     1     -10.115  10.844  67.947  1.00  0.00    -0.177 C  
HETATM   12  C   UNL     1      -9.608   9.869  70.285  1.00  0.00    -0.184 C  
ENDROOT
BRANCH   1  13
HETATM   13  C   UNL     1     -10.241   6.083  68.698  1.00  0.00    -0.188 C  
HETATM   14  C   UNL     1      -9.069   5.159  69.000  1.00  0.00    -0.137 C  
HETATM   15  O   UNL     1     -11.037   6.177  69.873  1.00  0.00    -0.347 OA 
HETATM   16  H   UNL     1     -11.349   5.308  70.099  1.00  0.00     0.000 HD 
ENDBRANCH   1  13
BRANCH  11  17
HETATM   17  S   UNL     1      -9.558  12.451  68.214  1.00  0.00    -0.186 SA 
BRANCH  17  18
HETATM   18  C   UNL     1     -10.988  13.351  68.923  1.00  0.00    -0.248 C  
HETATM   19  C   UNL     1     -12.255  13.420  68.081  1.00  0.00    -0.086 C  
HETATM   20  N   UNL     1     -12.115  14.651  67.316  1.00  0.00    -0.529 NA 
HETATM   21  H   UNL     1     -13.007  14.998  66.961  1.00  0.00     0.000 HD 
HETATM   22  C   UNL     1     -11.411  15.640  68.166  1.00  0.00    -0.322 C  
HETATM   23  C   UNL     1     -10.700  14.811  69.239  1.00  0.00    -0.263 C  
BRANCH  22  24
HETATM   24  C   UNL     1     -10.492  16.533  67.281  1.00  0.00    -0.304 C  
HETATM   25  O   UNL     1     -10.449  16.373  66.054  1.00  0.00    -0.329 OA 
HETATM   26  N   UNL     1      -9.759  17.548  67.884  1.00  0.00    -0.270 N  
HETATM   27  C   UNL     1      -9.795  17.908  69.293  1.00  0.00    -0.043 C  
HETATM   28  C   UNL     1      -8.857  18.350  67.068  1.00  0.00    -0.271 C  
ENDBRANCH  22  24
ENDBRANCH  17  18
ENDBRANCH  11  17
TORSDOF 4
ENDMDL
MODEL      166
REMARK 921   NORMALIZED FREE ENERGY PREDICTED BY IDOCK:   -3.95 KCAL/MOL
REMARK 922        TOTAL FREE ENERGY PREDICTED BY IDOCK:   -5.84 KCAL/MOL
REMARK 923 INTER-LIGAND FREE ENERGY PREDICTED BY IDOCK:   -6.30 KCAL/MOL
REMARK 924 INTRA-LIGAND FREE ENERGY PREDICTED BY IDOCK:    0.46 KCAL/MOL
REMARK 927      BINDING AFFINITY PREDICTED BY RF-SCORE:    0.00 PKD
ROOT
HETATM    1  C   UNL     1     -11.420  12.861  64.799  1.00  0.00    -0.360 C  
HETATM    2  C   UNL     1     -10.012  13.514  64.976  1.00  0.00    -0.166 C  
HETATM    3  C   UNL     1     -10.854  11.712  65.647  1.00  0.00    -0.276 C  
HETATM    4  N   UNL     1      -9.661  12.349  65.836  1.00  0.00    -0.249 N  
HETATM    5  C   UNL     1      -9.715  14.759  65.818  1.00  0.00    -0.347 C  
HETATM    6  O   UNL     1      -8.959  10.557  67.774  1.00  0.00    -0.131 OA 
HETATM    7  O   UNL     1     -11.225  10.657  66.103  1.00  0.00     0.089 OA 
HETATM    8  C   UNL     1      -9.307  12.820  67.094  1.00  0.00    -0.216 C  
HETATM    9  O   UNL     1      -8.609  12.149  69.313  1.00  0.00     0.449 OA 
HETATM   10  C   UNL     1      -8.951  11.849  68.180  1.00  0.00    -0.185 C  
HETATM   11  C   UNL     1      -9.313  14.166  67.150  1.00  0.00    -0.237 C  
HETATM   12  C   UNL     1     -10.887  15.729  65.827  1.00  0.00    -0.286 C  
ENDROOT
BRANCH   1  13
HETATM   13  C   UNL     1     -11.814  12.505  63.377  1.00  0.00    -0.503 C  
HETATM   14  C   UNL     1     -10.931  11.383  62.847  1.00  0.00     0.218 C  
HETATM   15  O   UNL     1     -13.158  12.038  63.381  1.00  0.00    -0.747 OA 
HETATM   16  H   UNL     1     -13.403  11.815  62.491  1.00  0.00     0.000 HD 
ENDBRANCH   1  13
BRANCH  11  17
HETATM   17  S   UNL     1      -9.038  15.176  68.517  1.00  0.00    -0.199 SA 
BRANCH  17  18
HETATM   18  C   UNL     1     -10.673  15.890  68.931  1.00  0.00    -0.254 C  
HETATM   19  C   UNL     1     -10.877  16.380  70.359  1.00  0.00    -0.140 C  
HETATM   20  N   UNL     1     -11.424  15.229  71.063  1.00  0.00    -0.329 NA 
HETATM   21  H   UNL     1     -11.910  15.487  71.923  1.00  0.00     0.000 HD 
HETATM   22  C   UNL     1     -12.287  14.482  70.118  1.00  0.00    -0.342 C  
HETATM   23  C   UNL     1     -11.834  14.928  68.725  1.00  0.00    -0.328 C  
BRANCH  22  24
HETATM   24  C   UNL     1     -12.184  12.956  70.407  1.00  0.00    -0.304 C  
HETATM   25  O   UNL     1     -11.373  12.251  69.793  1.00  0.00    -0.194 OA 
HETATM   26  N   UNL     1     -12.983  12.405  71.403  1.00  0.00    -0.321 N  
HETATM   27  C   UNL     1     -13.900  13.135  72.265  1.00  0.00    -0.490 C  
HETATM   28  C   UNL     1     -12.929  10.969  71.640  1.00  0.00    -0.456 C  
ENDBRANCH  22  24
ENDBRANCH  17  18
ENDBRANCH  11  17
TORSDOF 4
ENDMDL
MODEL      167
REMARK 921   NORMALIZED FREE ENERGY PREDICTED BY IDOCK:   -3.95 KCAL/MOL
REMARK 922        TOTAL FREE ENERGY PREDICTED BY IDOCK:   -5.84 KCAL/MOL
REMARK 923 INTER-LIGAND FREE ENERGY PREDICTED BY IDOCK:   -4.64 KCAL/MOL
REMARK 924 INTRA-LIGAND FREE ENERGY PREDICTED BY IDOCK:   -1.20 KCAL/MOL
REMARK 927      BINDING AFFINITY PREDICTED BY RF-SCORE:    0.00 PKD
ROOT
HETATM    1  C   UNL     1      -8.275  10.606  68.217  1.00  0.00    -0.120 C  
HETATM    2  C   UNL     1      -9.805  10.291  68.189  1.00  0.00    -0.148 C  
HETATM    3  C   UNL     1      -8.323  10.087  69.662  1.00  0.00    -0.176 C  
HETATM    4  N   UNL     1      -9.646   9.760  69.573  1.00  0.00    -0.197 N  
HETATM    5  C   UNL     1     -10.462   9.166  67.383  1.00  0.00    -0.339 C  
HETATM    6  O   UNL     1      -9.503   8.352  71.909  1.00  0.00    -0.201 OA 
HETATM    7  O   UNL     1      -7.563   9.907  70.584  1.00  0.00    -0.288 OA 
HETATM    8  C   UNL     1     -10.044   8.430  69.584  1.00  0.00    -0.199 C  
HETATM    9  O   UNL     1     -10.278   6.465  70.978  1.00  0.00    -0.188 OA 
HETATM   10  C   UNL     1      -9.941   7.631  70.849  1.00  0.00    -0.180 C  
HETATM   11  C   UNL     1     -10.517   8.034  68.386  1.00  0.00    -0.163 C  
HETATM   12  C   UNL     1      -9.718   8.893  66.084  1.00  0.00    -0.338 C  
ENDROOT
BRANCH   1  13
HETATM   13  C   UNL     1      -7.894  12.066  68.049  1.00  0.00    -0.145 C  
HETATM   14  C   UNL     1      -9.078  12.868  67.528  1.00  0.00    -0.191 C  
HETATM   15  O   UNL     1      -7.538  12.591  69.323  1.00  0.00    -0.326 OA 
HETATM   16  H   UNL     1      -7.300  13.505  69.218  1.00  0.00     0.000 HD 
ENDBRANCH   1  13
BRANCH  11  17
HETATM   17  S   UNL     1     -11.027   6.460  67.909  1.00  0.00    -0.279 SA 
BRANCH  17  18
HETATM   18  C   UNL     1      -9.584   5.717  67.060  1.00  0.00    -0.135 C  
HETATM   19  C   UNL     1      -9.797   4.378  66.367  1.00  0.00    -0.230 C  
HETATM   20  N   UNL     1      -9.459   3.387  67.379  1.00  0.00    -0.257 NA 
HETATM   21  H   UNL     1      -9.239   2.474  66.979  1.00  0.00     0.000 HD 
HETATM   22  C   UNL     1      -8.356   3.934  68.204  1.00  0.00    -0.091 C  
HETATM   23  C   UNL     1      -8.401   5.448  67.980  1.00  0.00    -0.098 C  
BRANCH  22  24
HETATM   24  C   UNL     1      -8.520   3.462  69.678  1.00  0.00    -0.060 C  
HETATM   25  O   UNL     1      -9.643   3.230  70.145  1.00  0.00    -0.176 OA 
HETATM   26  N   UNL     1      -7.381   3.257  70.449  1.00  0.00    -0.040 N  
HETATM   27  C   UNL     1      -6.006   3.394  69.995  1.00  0.00    -0.022 C  
HETATM   28  C   UNL     1      -7.531   2.869  71.845  1.00  0.00    -0.047 C  
ENDBRANCH  22  24
ENDBRANCH  17  18
ENDBRANCH  11  17
TORSDOF 4
ENDMDL
MODEL      168
REMARK 921   NORMALIZED FREE ENERGY PREDICTED BY IDOCK:   -3.93 KCAL/MOL
REMARK 922        TOTAL FREE ENERGY PREDICTED BY IDOCK:   -5.82 KCAL/MOL
REMARK 923 INTER-LIGAND FREE ENERGY PREDICTED BY IDOCK:   -6.23 KCAL/MOL
REMARK 924 INTRA-LIGAND FREE ENERGY PREDICTED BY IDOCK:    0.41 KCAL/MOL
REMARK 927      BINDING AFFINITY PREDICTED BY RF-SCORE:    0.00 PKD
ROOT
HETATM    1  C   UNL     1      -9.813  15.675  67.483  1.00  0.00    -0.228 C  
HETATM    2  C   UNL     1      -9.790  14.270  66.800  1.00  0.00    -0.270 C  
HETATM    3  C   UNL     1     -11.041  15.146  68.240  1.00  0.00    -0.291 C  
HETATM    4  N   UNL     1     -10.943  13.909  67.673  1.00  0.00    -0.261 N  
HETATM    5  C   UNL     1      -8.731  13.189  67.037  1.00  0.00    -0.193 C  
HETATM    6  O   UNL     1     -12.745  12.896  69.458  1.00  0.00     0.260 OA 
HETATM    7  O   UNL     1     -11.819  15.530  69.081  1.00  0.00    -0.347 OA 
HETATM    8  C   UNL     1     -10.586  12.808  68.442  1.00  0.00    -0.248 C  
HETATM    9  O   UNL     1     -11.350  11.290  70.165  1.00  0.00    -0.265 OA 
HETATM   10  C   UNL     1     -11.550  12.260  69.451  1.00  0.00    -0.314 C  
HETATM   11  C   UNL     1      -9.356  12.352  68.132  1.00  0.00    -0.209 C  
HETATM   12  C   UNL     1      -7.365  13.791  67.333  1.00  0.00    -0.125 C  
ENDROOT
BRANCH   1  13
HETATM   13  C   UNL     1     -10.060  16.857  66.564  1.00  0.00    -0.315 C  
HETATM   14  C   UNL     1     -10.236  18.134  67.374  1.00  0.00    -0.383 C  
HETATM   15  O   UNL     1      -8.922  17.026  65.725  1.00  0.00    -0.526 OA 
HETATM   16  H   UNL     1      -9.077  17.766  65.150  1.00  0.00     0.000 HD 
ENDBRANCH   1  13
BRANCH  11  17
HETATM   17  S   UNL     1      -8.470  11.083  68.884  1.00  0.00    -0.077 SA 
BRANCH  17  18
HETATM   18  C   UNL     1      -8.479   9.702  67.680  1.00  0.00    -0.125 C  
HETATM   19  C   UNL     1      -7.616   9.857  66.435  1.00  0.00    -0.101 C  
HETATM   20  N   UNL     1      -8.505  10.458  65.450  1.00  0.00    -0.164 NA 
HETATM   21  H   UNL     1      -8.180  10.324  64.492  1.00  0.00     0.000 HD 
HETATM   22  C   UNL     1      -9.867   9.919  65.675  1.00  0.00    -0.298 C  
HETATM   23  C   UNL     1      -9.857   9.391  67.112  1.00  0.00    -0.242 C  
BRANCH  22  24
HETATM   24  C   UNL     1     -10.924  11.020  65.366  1.00  0.00    -0.021 C  
HETATM   25  O   UNL     1     -11.743  11.368  66.227  1.00  0.00    -0.309 OA 
HETATM   26  N   UNL     1     -10.902  11.643  64.123  1.00  0.00    -0.346 N  
HETATM   27  C   UNL     1      -9.935  11.402  63.063  1.00  0.00    -0.322 C  
HETATM   28  C   UNL     1     -11.922  12.635  63.810  1.00  0.00    -0.510 C  
ENDBRANCH  22  24
ENDBRANCH  17  18
ENDBRANCH  11  17
TORSDOF 4
ENDMDL
MODEL      169
REMARK 921   NORMALIZED FREE ENERGY PREDICTED BY IDOCK:   -3.92 KCAL/MOL
REMARK 922        TOTAL FREE ENERGY PREDICTED BY IDOCK:   -5.80 KCAL/MOL
REMARK 923 INTER-LIGAND FREE ENERGY PREDICTED BY IDOCK:   -4.41 KCAL/MOL
REMARK 924 INTRA-LIGAND FREE ENERGY PREDICTED BY IDOCK:   -1.39 KCAL/MOL
REMARK 927      BINDING AFFINITY PREDICTED BY RF-SCORE:    0.00 PKD
ROOT
HETATM    1  C   UNL     1      -7.425   4.463  67.048  1.00  0.00    -0.081 C  
HETATM    2  C   UNL     1      -7.254   5.713  67.969  1.00  0.00    -0.072 C  
HETATM    3  C   UNL     1      -8.920   4.818  67.056  1.00  0.00    -0.111 C  
HETATM    4  N   UNL     1      -8.718   5.943  67.804  1.00  0.00    -0.105 N  
HETATM    5  C   UNL     1      -6.577   7.026  67.562  1.00  0.00    -0.055 C  
HETATM    6  O   UNL     1     -11.261   6.797  67.290  1.00  0.00    -0.348 OA 
HETATM    7  O   UNL     1      -9.949   4.409  66.575  1.00  0.00    -0.215 OA 
HETATM    8  C   UNL     1      -8.907   7.201  67.248  1.00  0.00    -0.120 C  
HETATM    9  O   UNL     1     -10.578   8.763  66.455  1.00  0.00    -0.196 OA 
HETATM   10  C   UNL     1     -10.294   7.674  66.927  1.00  0.00    -0.318 C  
HETATM   11  C   UNL     1      -7.745   7.864  67.089  1.00  0.00    -0.101 C  
HETATM   12  C   UNL     1      -5.452   6.796  66.564  1.00  0.00    -0.018 C  
ENDROOT
BRANCH   1  13
HETATM   13  C   UNL     1      -7.058   3.127  67.667  1.00  0.00    -0.050 C  
HETATM   14  C   UNL     1      -5.934   3.300  68.679  1.00  0.00    -0.024 C  
HETATM   15  O   UNL     1      -8.193   2.620  68.359  1.00  0.00    -0.059 OA 
HETATM   16  H   UNL     1      -7.964   1.783  68.746  1.00  0.00     0.000 HD 
ENDBRANCH   1  13
BRANCH  11  17
HETATM   17  S   UNL     1      -7.485   9.400  66.356  1.00  0.00    -0.093 SA 
BRANCH  17  18
HETATM   18  C   UNL     1      -7.637  10.620  67.715  1.00  0.00    -0.095 C  
HETATM   19  C   UNL     1      -8.683  10.342  68.787  1.00  0.00    -0.144 C  
HETATM   20  N   UNL     1      -9.880  11.021  68.312  1.00  0.00    -0.172 NA 
HETATM   21  H   UNL     1     -10.553  11.201  69.057  1.00  0.00     0.000 HD 
HETATM   22  C   UNL     1      -9.457  12.255  67.609  1.00  0.00    -0.188 C  
HETATM   23  C   UNL     1      -7.988  12.024  67.244  1.00  0.00    -0.174 C  
BRANCH  22  24
HETATM   24  C   UNL     1     -10.416  12.533  66.414  1.00  0.00    -0.247 C  
HETATM   25  O   UNL     1     -10.306  11.899  65.356  1.00  0.00    -0.247 OA 
HETATM   26  N   UNL     1     -11.431  13.470  66.572  1.00  0.00    -0.326 N  
HETATM   27  C   UNL     1     -11.733  14.207  67.788  1.00  0.00    -0.373 C  
HETATM   28  C   UNL     1     -12.297  13.772  65.439  1.00  0.00    -0.475 C  
ENDBRANCH  22  24
ENDBRANCH  17  18
ENDBRANCH  11  17
TORSDOF 4
ENDMDL
MODEL      170
REMARK 921   NORMALIZED FREE ENERGY PREDICTED BY IDOCK:   -3.91 KCAL/MOL
REMARK 922        TOTAL FREE ENERGY PREDICTED BY IDOCK:   -5.80 KCAL/MOL
REMARK 923 INTER-LIGAND FREE ENERGY PREDICTED BY IDOCK:   -4.60 KCAL/MOL
REMARK 924 INTRA-LIGAND FREE ENERGY PREDICTED BY IDOCK:   -1.20 KCAL/MOL
REMARK 927      BINDING AFFINITY PREDICTED BY RF-SCORE:    0.00 PKD
ROOT
HETATM    1  C   UNL     1      -7.307   7.514  70.913  1.00  0.00    -0.068 C  
HETATM    2  C   UNL     1      -8.422   8.400  70.268  1.00  0.00    -0.126 C  
HETATM    3  C   UNL     1      -8.050   6.333  70.268  1.00  0.00    -0.116 C  
HETATM    4  N   UNL     1      -8.963   7.149  69.664  1.00  0.00    -0.141 N  
HETATM    5  C   UNL     1      -8.214   9.371  69.101  1.00  0.00    -0.112 C  
HETATM    6  O   UNL     1      -9.857   5.082  68.118  1.00  0.00    -0.145 OA 
HETATM    7  O   UNL     1      -7.937   5.134  70.180  1.00  0.00    -0.076 OA 
HETATM    8  C   UNL     1      -8.972   7.294  68.283  1.00  0.00    -0.125 C  
HETATM    9  O   UNL     1      -9.494   6.180  66.198  1.00  0.00    -0.147 OA 
HETATM   10  C   UNL     1      -9.427   6.158  67.417  1.00  0.00    -0.114 C  
HETATM   11  C   UNL     1      -8.567   8.521  67.900  1.00  0.00    -0.134 C  
HETATM   12  C   UNL     1      -6.823   9.987  69.119  1.00  0.00    -0.056 C  
ENDROOT
BRANCH   1  13
HETATM   13  C   UNL     1      -7.253   7.514  72.429  1.00  0.00    -0.073 C  
HETATM   14  C   UNL     1      -8.433   8.286  73.004  1.00  0.00    -0.262 C  
HETATM   15  O   UNL     1      -7.347   6.170  72.887  1.00  0.00    -0.091 OA 
HETATM   16  H   UNL     1      -7.312   6.170  73.836  1.00  0.00     0.000 HD 
ENDBRANCH   1  13
BRANCH  11  17
HETATM   17  S   UNL     1      -8.328   9.115  66.302  1.00  0.00    -0.121 SA 
BRANCH  17  18
HETATM   18  C   UNL     1      -9.956   9.770  65.777  1.00  0.00    -0.279 C  
HETATM   19  C   UNL     1      -9.993  10.606  64.505  1.00  0.00    -0.345 C  
HETATM   20  N   UNL     1      -9.815  11.976  64.966  1.00  0.00    -0.366 NA 
HETATM   21  H   UNL     1     -10.138  12.666  64.287  1.00  0.00     0.000 HD 
HETATM   22  C   UNL     1     -10.484  12.107  66.281  1.00  0.00    -0.239 C  
HETATM   23  C   UNL     1     -10.616  10.675  66.808  1.00  0.00    -0.297 C  
BRANCH  22  24
HETATM   24  C   UNL     1      -9.681  13.089  67.184  1.00  0.00    -0.230 C  
HETATM   25  O   UNL     1      -8.610  12.741  67.698  1.00  0.00    -0.158 OA 
HETATM   26  N   UNL     1     -10.160  14.382  67.362  1.00  0.00    -0.241 N  
HETATM   27  C   UNL     1     -11.345  14.949  66.737  1.00  0.00    -0.328 C  
HETATM   28  C   UNL     1      -9.441  15.287  68.249  1.00  0.00    -0.205 C  
ENDBRANCH  22  24
ENDBRANCH  17  18
ENDBRANCH  11  17
TORSDOF 4
ENDMDL
MODEL      171
REMARK 921   NORMALIZED FREE ENERGY PREDICTED BY IDOCK:   -3.91 KCAL/MOL
REMARK 922        TOTAL FREE ENERGY PREDICTED BY IDOCK:   -5.80 KCAL/MOL
REMARK 923 INTER-LIGAND FREE ENERGY PREDICTED BY IDOCK:   -6.21 KCAL/MOL
REMARK 924 INTRA-LIGAND FREE ENERGY PREDICTED BY IDOCK:    0.42 KCAL/MOL
REMARK 927      BINDING AFFINITY PREDICTED BY RF-SCORE:    0.00 PKD
ROOT
HETATM    1  C   UNL     1      -8.526   8.407  67.025  1.00  0.00    -0.122 C  
HETATM    2  C   UNL     1     -10.047   8.724  66.868  1.00  0.00    -0.278 C  
HETATM    3  C   UNL     1      -8.426   8.774  65.536  1.00  0.00    -0.165 C  
HETATM    4  N   UNL     1      -9.747   9.109  65.460  1.00  0.00    -0.193 N  
HETATM    5  C   UNL     1     -10.767   9.928  67.486  1.00  0.00    -0.333 C  
HETATM    6  O   UNL     1      -9.360  10.269  63.018  1.00  0.00    -0.271 OA 
HETATM    7  O   UNL     1      -7.577   8.857  64.680  1.00  0.00    -0.101 OA 
HETATM    8  C   UNL     1     -10.128  10.432  65.273  1.00  0.00    -0.300 C  
HETATM    9  O   UNL     1     -10.201  12.243  63.668  1.00  0.00    -0.416 OA 
HETATM   10  C   UNL     1      -9.892  11.096  63.949  1.00  0.00    -0.308 C  
HETATM   11  C   UNL     1     -10.711  10.950  66.372  1.00  0.00    -0.194 C  
HETATM   12  C   UNL     1     -10.152  10.333  68.817  1.00  0.00    -0.198 C  
ENDROOT
BRANCH   1  13
HETATM   13  C   UNL     1      -8.179   6.972  67.378  1.00  0.00    -0.119 C  
HETATM   14  C   UNL     1      -9.363   6.288  68.047  1.00  0.00    -0.114 C  
HETATM   15  O   UNL     1      -7.889   6.266  66.177  1.00  0.00    -0.100 OA 
HETATM   16  H   UNL     1      -7.673   5.368  66.398  1.00  0.00     0.000 HD 
ENDBRANCH   1  13
BRANCH  11  17
HETATM   17  S   UNL     1     -11.248  12.565  66.632  1.00  0.00    -0.326 SA 
BRANCH  17  18
HETATM   18  C   UNL     1      -9.725  13.581  66.691  1.00  0.00    -0.280 C  
HETATM   19  C   UNL     1      -8.663  13.186  67.710  1.00  0.00    -0.188 C  
HETATM   20  N   UNL     1      -8.990  13.965  68.895  1.00  0.00    -0.385 NA 
HETATM   21  H   UNL     1      -8.200  14.058  69.536  1.00  0.00     0.000 HD 
HETATM   22  C   UNL     1      -9.525  15.273  68.450  1.00  0.00    -0.206 C  
HETATM   23  C   UNL     1      -9.977  15.049  67.004  1.00  0.00    -0.242 C  
BRANCH  22  24
HETATM   24  C   UNL     1     -10.630  15.751  69.437  1.00  0.00    -0.255 C  
HETATM   25  O   UNL     1     -10.795  16.957  69.663  1.00  0.00    -0.302 OA 
HETATM   26  N   UNL     1     -11.462  14.805  70.024  1.00  0.00    -0.267 N  
HETATM   27  C   UNL     1     -11.443  13.373  69.769  1.00  0.00    -0.166 C  
HETATM   28  C   UNL     1     -12.462  15.243  70.990  1.00  0.00    -0.384 C  
ENDBRANCH  22  24
ENDBRANCH  17  18
ENDBRANCH  11  17
TORSDOF 4
ENDMDL
MODEL      172
REMARK 921   NORMALIZED FREE ENERGY PREDICTED BY IDOCK:   -3.90 KCAL/MOL
REMARK 922        TOTAL FREE ENERGY PREDICTED BY IDOCK:   -5.78 KCAL/MOL
REMARK 923 INTER-LIGAND FREE ENERGY PREDICTED BY IDOCK:   -6.54 KCAL/MOL
REMARK 924 INTRA-LIGAND FREE ENERGY PREDICTED BY IDOCK:    0.76 KCAL/MOL
REMARK 927      BINDING AFFINITY PREDICTED BY RF-SCORE:    0.00 PKD
ROOT
HETATM    1  C   UNL     1      -8.103  18.605  67.767  1.00  0.00    -0.269 C  
HETATM    2  C   UNL     1      -7.599  17.679  66.614  1.00  0.00    -0.238 C  
HETATM    3  C   UNL     1      -9.364  18.777  66.906  1.00  0.00    -0.300 C  
HETATM    4  N   UNL     1      -8.916  17.905  65.955  1.00  0.00    -0.066 N  
HETATM    5  C   UNL     1      -7.436  16.158  66.710  1.00  0.00    -0.246 C  
HETATM    6  O   UNL     1     -11.389  17.825  64.797  1.00  0.00    -0.612 OA 
HETATM    7  O   UNL     1     -10.426  19.350  66.962  1.00  0.00    -0.402 OA 
HETATM    8  C   UNL     1      -9.539  16.676  65.778  1.00  0.00    -0.116 C  
HETATM    9  O   UNL     1     -11.542  15.594  64.957  1.00  0.00    -0.209 OA 
HETATM   10  C   UNL     1     -10.911  16.615  65.175  1.00  0.00    -0.186 C  
HETATM   11  C   UNL     1      -8.759  15.652  66.178  1.00  0.00    -0.206 C  
HETATM   12  C   UNL     1      -7.051  15.717  68.114  1.00  0.00    -0.123 C  
ENDROOT
BRANCH   1  13
HETATM   13  C   UNL     1      -7.291  19.863  68.012  1.00  0.00    -0.297 C  
HETATM   14  C   UNL     1      -5.820  19.615  67.708  1.00  0.00    -0.211 C  
HETATM   15  O   UNL     1      -7.753  20.880  67.131  1.00  0.00    -0.510 OA 
HETATM   16  H   UNL     1      -7.245  21.668  67.284  1.00  0.00     0.000 HD 
ENDBRANCH   1  13
BRANCH  11  17
HETATM   17  S   UNL     1      -9.148  13.976  66.236  1.00  0.00     0.096 SA 
BRANCH  17  18
HETATM   18  C   UNL     1     -10.608  13.853  67.336  1.00  0.00    -0.267 C  
HETATM   19  C   UNL     1     -10.346  13.776  68.835  1.00  0.00    -0.136 C  
HETATM   20  N   UNL     1     -10.264  12.350  69.116  1.00  0.00    -0.411 NA 
HETATM   21  H   UNL     1     -10.418  12.133  70.101  1.00  0.00     0.000 HD 
HETATM   22  C   UNL     1     -11.215  11.651  68.218  1.00  0.00    -0.260 C  
HETATM   23  C   UNL     1     -11.476  12.632  67.071  1.00  0.00    -0.406 C  
BRANCH  22  24
HETATM   24  C   UNL     1     -10.628  10.269  67.807  1.00  0.00    -0.250 C  
HETATM   25  O   UNL     1     -10.504   9.363  68.641  1.00  0.00    -0.202 OA 
HETATM   26  N   UNL     1     -10.293  10.051  66.476  1.00  0.00    -0.221 N  
HETATM   27  C   UNL     1     -10.482  10.989  65.381  1.00  0.00    -0.241 C  
HETATM   28  C   UNL     1      -9.694   8.777  66.096  1.00  0.00    -0.250 C  
ENDBRANCH  22  24
ENDBRANCH  17  18
ENDBRANCH  11  17
TORSDOF 4
ENDMDL
MODEL      173
REMARK 921   NORMALIZED FREE ENERGY PREDICTED BY IDOCK:   -3.88 KCAL/MOL
REMARK 922        TOTAL FREE ENERGY PREDICTED BY IDOCK:   -5.76 KCAL/MOL
REMARK 923 INTER-LIGAND FREE ENERGY PREDICTED BY IDOCK:   -5.53 KCAL/MOL
REMARK 924 INTRA-LIGAND FREE ENERGY PREDICTED BY IDOCK:   -0.23 KCAL/MOL
REMARK 927      BINDING AFFINITY PREDICTED BY RF-SCORE:    0.00 PKD
ROOT
HETATM    1  C   UNL     1      -9.292   8.111  66.152  1.00  0.00    -0.232 C  
HETATM    2  C   UNL     1      -8.955   9.389  66.986  1.00  0.00    -0.130 C  
HETATM    3  C   UNL     1      -9.514   7.435  67.514  1.00  0.00    -0.138 C  
HETATM    4  N   UNL     1      -9.282   8.592  68.202  1.00  0.00    -0.138 N  
HETATM    5  C   UNL     1      -9.826  10.647  67.065  1.00  0.00    -0.222 C  
HETATM    6  O   UNL     1     -10.242   7.472  70.501  1.00  0.00    -0.199 OA 
HETATM    7  O   UNL     1      -9.842   6.356  67.946  1.00  0.00    -0.120 OA 
HETATM    8  C   UNL     1     -10.314   9.226  68.881  1.00  0.00    -0.214 C  
HETATM    9  O   UNL     1     -11.769   9.084  70.811  1.00  0.00    -0.281 OA 
HETATM   10  C   UNL     1     -10.877   8.608  70.127  1.00  0.00    -0.233 C  
HETATM   11  C   UNL     1     -10.665  10.388  68.298  1.00  0.00    -0.235 C  
HETATM   12  C   UNL     1     -10.578  10.897  65.766  1.00  0.00    -0.230 C  
ENDROOT
BRANCH   1  13
HETATM   13  C   UNL     1      -8.161   7.549  65.310  1.00  0.00    -0.129 C  
HETATM   14  C   UNL     1      -6.963   7.214  66.187  1.00  0.00    -0.065 C  
HETATM   15  O   UNL     1      -8.606   6.344  64.699  1.00  0.00    -0.342 OA 
HETATM   16  H   UNL     1      -7.898   5.992  64.172  1.00  0.00     0.000 HD 
ENDBRANCH   1  13
BRANCH  11  17
HETATM   17  S   UNL     1     -11.946  11.454  68.729  1.00  0.00    -0.203 SA 
BRANCH  17  18
HETATM   18  C   UNL     1     -11.360  13.129  68.276  1.00  0.00    -0.297 C  
HETATM   19  C   UNL     1     -10.138  13.662  69.013  1.00  0.00     0.054 C  
HETATM   20  N   UNL     1     -10.686  14.380  70.155  1.00  0.00    -0.444 NA 
HETATM   21  H   UNL     1     -10.029  15.053  70.550  1.00  0.00     0.000 HD 
HETATM   22  C   UNL     1     -11.963  15.003  69.733  1.00  0.00    -0.328 C  
HETATM   23  C   UNL     1     -12.398  14.222  68.489  1.00  0.00    -0.034 C  
BRANCH  22  24
HETATM   24  C   UNL     1     -12.968  14.997  70.922  1.00  0.00    -0.405 C  
HETATM   25  O   UNL     1     -13.981  14.286  70.888  1.00  0.00    -0.097 OA 
HETATM   26  N   UNL     1     -12.684  15.765  72.045  1.00  0.00    -0.436 N  
HETATM   27  C   UNL     1     -11.486  16.562  72.256  1.00  0.00     0.076 C  
HETATM   28  C   UNL     1     -13.648  15.804  73.138  1.00  0.00    -0.504 C  
ENDBRANCH  22  24
ENDBRANCH  17  18
ENDBRANCH  11  17
TORSDOF 4
ENDMDL
MODEL      174
REMARK 921   NORMALIZED FREE ENERGY PREDICTED BY IDOCK:   -3.88 KCAL/MOL
REMARK 922        TOTAL FREE ENERGY PREDICTED BY IDOCK:   -5.75 KCAL/MOL
REMARK 923 INTER-LIGAND FREE ENERGY PREDICTED BY IDOCK:   -4.61 KCAL/MOL
REMARK 924 INTRA-LIGAND FREE ENERGY PREDICTED BY IDOCK:   -1.14 KCAL/MOL
REMARK 927      BINDING AFFINITY PREDICTED BY RF-SCORE:    0.00 PKD
ROOT
HETATM    1  C   UNL     1      -8.097   9.313  66.603  1.00  0.00    -0.108 C  
HETATM    2  C   UNL     1      -9.582   8.850  66.458  1.00  0.00    -0.232 C  
HETATM    3  C   UNL     1      -8.574  10.014  67.885  1.00  0.00    -0.121 C  
HETATM    4  N   UNL     1      -9.844   9.529  67.759  1.00  0.00    -0.154 N  
HETATM    5  C   UNL     1     -10.080   7.411  66.632  1.00  0.00    -0.253 C  
HETATM    6  O   UNL     1     -10.447  10.316  70.304  1.00  0.00    -0.265 OA 
HETATM    7  O   UNL     1      -8.108  10.682  68.777  1.00  0.00    -0.121 OA 
HETATM    8  C   UNL     1     -10.332   8.589  68.658  1.00  0.00    -0.198 C  
HETATM    9  O   UNL     1     -11.083   8.261  70.936  1.00  0.00    -0.251 OA 
HETATM   10  C   UNL     1     -10.636   8.996  70.069  1.00  0.00    -0.228 C  
HETATM   11  C   UNL     1     -10.492   7.379  68.088  1.00  0.00    -0.193 C  
HETATM   12  C   UNL     1      -9.036   6.394  66.194  1.00  0.00    -0.150 C  
ENDROOT
BRANCH   1  13
HETATM   13  C   UNL     1      -7.575  10.222  65.506  1.00  0.00    -0.149 C  
HETATM   14  C   UNL     1      -8.539  10.241  64.328  1.00  0.00    -0.198 C  
HETATM   15  O   UNL     1      -7.485  11.546  66.018  1.00  0.00    -0.367 OA 
HETATM   16  H   UNL     1      -7.158  12.115  65.331  1.00  0.00     0.000 HD 
ENDBRANCH   1  13
BRANCH  11  17
HETATM   17  S   UNL     1     -10.972   5.904  68.834  1.00  0.00    -0.174 SA 
BRANCH  17  18
HETATM   18  C   UNL     1      -9.414   5.018  69.210  1.00  0.00    -0.137 C  
HETATM   19  C   UNL     1      -9.528   3.691  69.949  1.00  0.00    -0.192 C  
HETATM   20  N   UNL     1      -9.429   4.050  71.357  1.00  0.00    -0.148 NA 
HETATM   21  H   UNL     1      -9.163   3.261  71.947  1.00  0.00     0.000 HD 
HETATM   22  C   UNL     1      -8.494   5.195  71.473  1.00  0.00    -0.124 C  
HETATM   23  C   UNL     1      -8.446   5.815  70.074  1.00  0.00    -0.124 C  
BRANCH  22  24
HETATM   24  C   UNL     1      -8.963   6.141  72.617  1.00  0.00    -0.130 C  
HETATM   25  O   UNL     1     -10.114   6.066  73.066  1.00  0.00    -0.173 OA 
HETATM   26  N   UNL     1      -8.051   7.037  73.163  1.00  0.00    -0.101 N  
HETATM   27  C   UNL     1      -6.648   7.157  72.801  1.00  0.00    -0.063 C  
HETATM   28  C   UNL     1      -8.500   7.961  74.197  1.00  0.00    -0.256 C  
ENDBRANCH  22  24
ENDBRANCH  17  18
ENDBRANCH  11  17
TORSDOF 4
ENDMDL
MODEL      175
REMARK 921   NORMALIZED FREE ENERGY PREDICTED BY IDOCK:   -3.87 KCAL/MOL
REMARK 922        TOTAL FREE ENERGY PREDICTED BY IDOCK:   -5.74 KCAL/MOL
REMARK 923 INTER-LIGAND FREE ENERGY PREDICTED BY IDOCK:   -5.28 KCAL/MOL
REMARK 924 INTRA-LIGAND FREE ENERGY PREDICTED BY IDOCK:   -0.46 KCAL/MOL
REMARK 927      BINDING AFFINITY PREDICTED BY RF-SCORE:    0.00 PKD
ROOT
HETATM    1  C   UNL     1      -8.145  10.429  68.307  1.00  0.00    -0.113 C  
HETATM    2  C   UNL     1      -8.521  11.550  67.285  1.00  0.00    -0.152 C  
HETATM    3  C   UNL     1      -7.104  11.431  68.829  1.00  0.00    -0.102 C  
HETATM    4  N   UNL     1      -7.511  12.408  67.967  1.00  0.00    -0.103 N  
HETATM    5  C   UNL     1      -9.826  12.354  67.295  1.00  0.00    -0.207 C  
HETATM    6  O   UNL     1      -6.050  14.277  69.321  1.00  0.00    -0.091 OA 
HETATM    7  O   UNL     1      -6.263  11.493  69.694  1.00  0.00    -0.096 OA 
HETATM    8  C   UNL     1      -8.148  13.547  68.443  1.00  0.00    -0.145 C  
HETATM    9  O   UNL     1      -7.819  15.609  69.668  1.00  0.00    -0.203 OA 
HETATM   10  C   UNL     1      -7.369  14.567  69.219  1.00  0.00    -0.126 C  
HETATM   11  C   UNL     1      -9.450  13.581  68.097  1.00  0.00    -0.214 C  
HETATM   12  C   UNL     1     -10.994  11.529  67.815  1.00  0.00    -0.291 C  
ENDROOT
BRANCH   1  13
HETATM   13  C   UNL     1      -7.592   9.147  67.713  1.00  0.00    -0.085 C  
HETATM   14  C   UNL     1      -7.291   9.334  66.232  1.00  0.00    -0.092 C  
HETATM   15  O   UNL     1      -6.370   8.832  68.370  1.00  0.00    -0.053 OA 
HETATM   16  H   UNL     1      -6.024   8.030  67.998  1.00  0.00     0.000 HD 
ENDBRANCH   1  13
BRANCH  11  17
HETATM   17  S   UNL     1     -10.642  14.739  68.545  1.00  0.00    -0.256 SA 
BRANCH  17  18
HETATM   18  C   UNL     1     -10.936  15.742  67.040  1.00  0.00    -0.221 C  
HETATM   19  C   UNL     1     -10.153  15.366  65.789  1.00  0.00    -0.363 C  
HETATM   20  N   UNL     1      -8.949  16.183  65.856  1.00  0.00    -0.397 NA 
HETATM   21  H   UNL     1      -8.493  16.287  64.949  1.00  0.00     0.000 HD 
HETATM   22  C   UNL     1      -9.311  17.482  66.469  1.00  0.00    -0.265 C  
HETATM   23  C   UNL     1     -10.622  17.221  67.216  1.00  0.00    -0.283 C  
BRANCH  22  24
HETATM   24  C   UNL     1      -8.128  18.000  67.339  1.00  0.00    -0.222 C  
HETATM   25  O   UNL     1      -6.978  17.579  67.155  1.00  0.00    -0.158 OA 
HETATM   26  N   UNL     1      -8.374  18.980  68.294  1.00  0.00    -0.321 N  
HETATM   27  C   UNL     1      -9.651  19.630  68.542  1.00  0.00    -0.382 C  
HETATM   28  C   UNL     1      -7.281  19.428  69.146  1.00  0.00    -0.342 C  
ENDBRANCH  22  24
ENDBRANCH  17  18
ENDBRANCH  11  17
TORSDOF 4
ENDMDL
MODEL      176
REMARK 921   NORMALIZED FREE ENERGY PREDICTED BY IDOCK:   -3.87 KCAL/MOL
REMARK 922        TOTAL FREE ENERGY PREDICTED BY IDOCK:   -5.74 KCAL/MOL
REMARK 923 INTER-LIGAND FREE ENERGY PREDICTED BY IDOCK:   -4.89 KCAL/MOL
REMARK 924 INTRA-LIGAND FREE ENERGY PREDICTED BY IDOCK:   -0.85 KCAL/MOL
REMARK 927      BINDING AFFINITY PREDICTED BY RF-SCORE:    0.00 PKD
ROOT
HETATM    1  C   UNL     1      -9.687  10.670  67.383  1.00  0.00    -0.192 C  
HETATM    2  C   UNL     1     -10.418   9.684  68.350  1.00  0.00    -0.223 C  
HETATM    3  C   UNL     1      -8.713  10.891  68.551  1.00  0.00    -0.153 C  
HETATM    4  N   UNL     1      -9.340   9.969  69.339  1.00  0.00    -0.211 N  
HETATM    5  C   UNL     1     -10.453   8.160  68.198  1.00  0.00    -0.225 C  
HETATM    6  O   UNL     1      -7.262  10.002  71.111  1.00  0.00    -0.250 OA 
HETATM    7  O   UNL     1      -7.713  11.527  68.786  1.00  0.00    -0.134 OA 
HETATM    8  C   UNL     1      -8.709   8.774  69.661  1.00  0.00    -0.136 C  
HETATM    9  O   UNL     1      -6.930   7.789  70.973  1.00  0.00    -0.048 OA 
HETATM   10  C   UNL     1      -7.545   8.777  70.606  1.00  0.00    -0.090 C  
HETATM   11  C   UNL     1      -9.288   7.718  69.057  1.00  0.00    -0.150 C  
HETATM   12  C   UNL     1     -10.424   7.736  66.737  1.00  0.00    -0.318 C  
ENDROOT
BRANCH   1  13
HETATM   13  C   UNL     1     -10.484  11.885  66.946  1.00  0.00    -0.222 C  
HETATM   14  C   UNL     1     -10.452  12.024  65.430  1.00  0.00    -0.313 C  
HETATM   15  O   UNL     1     -11.839  11.705  67.339  1.00  0.00    -0.603 OA 
HETATM   16  H   UNL     1     -12.338  12.465  67.065  1.00  0.00     0.000 HD 
ENDBRANCH   1  13
BRANCH  11  17
HETATM   17  S   UNL     1      -8.791   6.070  69.086  1.00  0.00    -0.118 SA 
BRANCH  17  18
HETATM   18  C   UNL     1     -10.152   5.166  69.915  1.00  0.00    -0.272 C  
HETATM   19  C   UNL     1     -10.965   5.929  70.952  1.00  0.00    -0.265 C  
HETATM   20  N   UNL     1     -10.288   5.661  72.213  1.00  0.00    -0.199 NA 
HETATM   21  H   UNL     1     -10.885   5.826  73.024  1.00  0.00     0.000 HD 
HETATM   22  C   UNL     1      -9.757   4.279  72.163  1.00  0.00    -0.160 C  
HETATM   23  C   UNL     1      -9.695   3.928  70.673  1.00  0.00    -0.248 C  
BRANCH  22  24
HETATM   24  C   UNL     1      -8.405   4.207  72.932  1.00  0.00    -0.093 C  
HETATM   25  O   UNL     1      -7.604   5.150  72.888  1.00  0.00    -0.093 OA 
HETATM   26  N   UNL     1      -8.133   3.088  73.709  1.00  0.00    -0.071 N  
HETATM   27  C   UNL     1      -9.025   1.960  73.928  1.00  0.00    -0.065 C  
HETATM   28  C   UNL     1      -6.846   2.993  74.387  1.00  0.00    -0.039 C  
ENDBRANCH  22  24
ENDBRANCH  17  18
ENDBRANCH  11  17
TORSDOF 4
ENDMDL
MODEL      177
REMARK 921   NORMALIZED FREE ENERGY PREDICTED BY IDOCK:   -3.86 KCAL/MOL
REMARK 922        TOTAL FREE ENERGY PREDICTED BY IDOCK:   -5.73 KCAL/MOL
REMARK 923 INTER-LIGAND FREE ENERGY PREDICTED BY IDOCK:   -6.12 KCAL/MOL
REMARK 924 INTRA-LIGAND FREE ENERGY PREDICTED BY IDOCK:    0.39 KCAL/MOL
REMARK 927      BINDING AFFINITY PREDICTED BY RF-SCORE:    0.00 PKD
ROOT
HETATM    1  C   UNL     1     -10.738   9.166  71.414  1.00  0.00    -0.414 C  
HETATM    2  C   UNL     1     -10.780   8.710  69.920  1.00  0.00    -0.225 C  
HETATM    3  C   UNL     1      -9.221   8.945  71.306  1.00  0.00    -0.258 C  
HETATM    4  N   UNL     1      -9.294   8.620  69.982  1.00  0.00    -0.158 N  
HETATM    5  C   UNL     1     -11.094   9.619  68.727  1.00  0.00    -0.093 C  
HETATM    6  O   UNL     1      -6.580   8.810  69.740  1.00  0.00    -0.040 OA 
HETATM    7  O   UNL     1      -8.240   9.054  72.002  1.00  0.00    -0.360 OA 
HETATM    8  C   UNL     1      -8.760   9.468  69.020  1.00  0.00    -0.142 C  
HETATM    9  O   UNL     1      -6.695  10.310  68.077  1.00  0.00    -0.065 OA 
HETATM   10  C   UNL     1      -7.272   9.611  68.895  1.00  0.00    -0.072 C  
HETATM   11  C   UNL     1      -9.718  10.057  68.277  1.00  0.00    -0.141 C  
HETATM   12  C   UNL     1     -12.075  10.721  69.099  1.00  0.00    -0.227 C  
ENDROOT
BRANCH   1  13
HETATM   13  C   UNL     1     -11.469   8.274  72.401  1.00  0.00    -0.394 C  
HETATM   14  C   UNL     1     -12.182   7.144  71.671  1.00  0.00    -0.385 C  
HETATM   15  O   UNL     1     -10.515   7.692  73.281  1.00  0.00    -0.348 OA 
HETATM   16  H   UNL     1     -10.972   7.134  73.898  1.00  0.00     0.000 HD 
ENDBRANCH   1  13
BRANCH  11  17
HETATM   17  S   UNL     1      -9.531  11.246  67.047  1.00  0.00    -0.173 SA 
BRANCH  17  18
HETATM   18  C   UNL     1      -9.239  12.823  67.933  1.00  0.00    -0.205 C  
HETATM   19  C   UNL     1     -10.376  13.361  68.790  1.00  0.00    -0.152 C  
HETATM   20  N   UNL     1     -11.123  14.235  67.896  1.00  0.00    -0.269 NA 
HETATM   21  H   UNL     1     -11.704  14.908  68.396  1.00  0.00     0.000 HD 
HETATM   22  C   UNL     1     -10.157  14.881  66.976  1.00  0.00    -0.244 C  
HETATM   23  C   UNL     1      -8.910  13.992  67.015  1.00  0.00    -0.234 C  
BRANCH  22  24
HETATM   24  C   UNL     1     -10.811  15.068  65.575  1.00  0.00    -0.351 C  
HETATM   25  O   UNL     1     -10.383  15.922  64.788  1.00  0.00    -0.485 OA 
HETATM   26  N   UNL     1     -11.851  14.225  65.202  1.00  0.00    -0.367 N  
HETATM   27  C   UNL     1     -12.380  13.120  65.985  1.00  0.00    -0.359 C  
HETATM   28  C   UNL     1     -12.502  14.432  63.914  1.00  0.00     0.040 C  
ENDBRANCH  22  24
ENDBRANCH  17  18
ENDBRANCH  11  17
TORSDOF 4
ENDMDL
MODEL      178
REMARK 921   NORMALIZED FREE ENERGY PREDICTED BY IDOCK:   -3.82 KCAL/MOL
REMARK 922        TOTAL FREE ENERGY PREDICTED BY IDOCK:   -5.69 KCAL/MOL
REMARK 923 INTER-LIGAND FREE ENERGY PREDICTED BY IDOCK:   -4.91 KCAL/MOL
REMARK 924 INTRA-LIGAND FREE ENERGY PREDICTED BY IDOCK:   -0.78 KCAL/MOL
REMARK 927      BINDING AFFINITY PREDICTED BY RF-SCORE:    0.00 PKD
ROOT
HETATM    1  C   UNL     1     -11.080  12.601  65.253  1.00  0.00    -0.330 C  
HETATM    2  C   UNL     1      -9.735  13.336  65.556  1.00  0.00    -0.042 C  
HETATM    3  C   UNL     1     -10.198  11.381  64.947  1.00  0.00    -0.278 C  
HETATM    4  N   UNL     1      -9.051  12.038  65.290  1.00  0.00     0.161 N  
HETATM    5  C   UNL     1      -9.263  13.778  66.946  1.00  0.00    -0.263 C  
HETATM    6  O   UNL     1      -7.649   9.694  65.280  1.00  0.00    -0.104 OA 
HETATM    7  O   UNL     1     -10.333  10.228  64.612  1.00  0.00    -0.266 OA 
HETATM    8  C   UNL     1      -8.343  11.671  66.427  1.00  0.00    -0.084 C  
HETATM    9  O   UNL     1      -6.926   9.958  67.386  1.00  0.00    -0.082 OA 
HETATM   10  C   UNL     1      -7.595  10.371  66.452  1.00  0.00    -0.123 C  
HETATM   11  C   UNL     1      -8.417  12.607  67.394  1.00  0.00    -0.186 C  
HETATM   12  C   UNL     1     -10.431  14.161  67.843  1.00  0.00    -0.237 C  
ENDROOT
BRANCH   1  13
HETATM   13  C   UNL     1     -11.885  13.145  64.087  1.00  0.00    -0.429 C  
HETATM   14  C   UNL     1     -12.891  12.109  63.606  1.00  0.00    -0.464 C  
HETATM   15  O   UNL     1     -12.612  14.285  64.530  1.00  0.00    -0.649 OA 
HETATM   16  H   UNL     1     -13.116  14.626  63.800  1.00  0.00     0.000 HD 
ENDBRANCH   1  13
BRANCH  11  17
HETATM   17  S   UNL     1      -7.783  12.540  68.993  1.00  0.00     0.292 SA 
BRANCH  17  18
HETATM   18  C   UNL     1      -6.167  13.400  68.912  1.00  0.00    -0.090 C  
HETATM   19  C   UNL     1      -5.558  13.861  70.230  1.00  0.00    -0.128 C  
HETATM   20  N   UNL     1      -6.048  15.222  70.399  1.00  0.00    -0.113 NA 
HETATM   21  H   UNL     1      -5.480  15.768  71.048  1.00  0.00     0.000 HD 
HETATM   22  C   UNL     1      -6.145  15.844  69.057  1.00  0.00    -0.122 C  
HETATM   23  C   UNL     1      -6.188  14.670  68.074  1.00  0.00    -0.165 C  
BRANCH  22  24
HETATM   24  C   UNL     1      -7.365  16.809  69.013  1.00  0.00    -0.231 C  
HETATM   25  O   UNL     1      -8.471  16.449  69.438  1.00  0.00    -0.166 OA 
HETATM   26  N   UNL     1      -7.182  18.102  68.535  1.00  0.00    -0.259 N  
HETATM   27  C   UNL     1      -5.922  18.683  68.102  1.00  0.00    -0.200 C  
HETATM   28  C   UNL     1      -8.333  18.991  68.441  1.00  0.00    -0.348 C  
ENDBRANCH  22  24
ENDBRANCH  17  18
ENDBRANCH  11  17
TORSDOF 4
ENDMDL
MODEL      179
REMARK 921   NORMALIZED FREE ENERGY PREDICTED BY IDOCK:   -3.82 KCAL/MOL
REMARK 922        TOTAL FREE ENERGY PREDICTED BY IDOCK:   -5.68 KCAL/MOL
REMARK 923 INTER-LIGAND FREE ENERGY PREDICTED BY IDOCK:   -4.66 KCAL/MOL
REMARK 924 INTRA-LIGAND FREE ENERGY PREDICTED BY IDOCK:   -1.02 KCAL/MOL
REMARK 927      BINDING AFFINITY PREDICTED BY RF-SCORE:    0.00 PKD
ROOT
HETATM    1  C   UNL     1      -8.337   8.390  65.920  1.00  0.00    -0.137 C  
HETATM    2  C   UNL     1      -9.651   7.655  66.337  1.00  0.00    -0.153 C  
HETATM    3  C   UNL     1      -9.176   9.674  66.014  1.00  0.00    -0.182 C  
HETATM    4  N   UNL     1     -10.282   9.001  66.445  1.00  0.00    -0.271 N  
HETATM    5  C   UNL     1      -9.891   6.972  67.688  1.00  0.00    -0.180 C  
HETATM    6  O   UNL     1     -11.501  11.348  67.126  1.00  0.00    -0.450 OA 
HETATM    7  O   UNL     1      -9.025  10.864  65.873  1.00  0.00    -0.180 OA 
HETATM    8  C   UNL     1     -10.746   9.168  67.744  1.00  0.00    -0.179 C  
HETATM    9  O   UNL     1     -11.845  10.713  69.249  1.00  0.00    -0.282 OA 
HETATM   10  C   UNL     1     -11.387  10.463  68.145  1.00  0.00    -0.213 C  
HETATM   11  C   UNL     1     -10.561   8.064  68.493  1.00  0.00    -0.103 C  
HETATM   12  C   UNL     1      -8.609   6.388  68.262  1.00  0.00    -0.114 C  
ENDROOT
BRANCH   1  13
HETATM   13  C   UNL     1      -7.796   8.051  64.543  1.00  0.00    -0.138 C  
HETATM   14  C   UNL     1      -7.944   6.562  64.264  1.00  0.00    -0.095 C  
HETATM   15  O   UNL     1      -8.558   8.755  63.569  1.00  0.00    -0.364 OA 
HETATM   16  H   UNL     1      -8.219   8.543  62.708  1.00  0.00     0.000 HD 
ENDBRANCH   1  13
BRANCH  11  17
HETATM   17  S   UNL     1     -10.888   7.847  70.169  1.00  0.00    -0.225 SA 
BRANCH  17  18
HETATM   18  C   UNL     1      -9.749   8.988  71.039  1.00  0.00    -0.278 C  
HETATM   19  C   UNL     1      -8.426   9.308  70.356  1.00  0.00    -0.206 C  
HETATM   20  N   UNL     1      -7.500   8.310  70.873  1.00  0.00    -0.059 NA 
HETATM   21  H   UNL     1      -6.523   8.586  70.767  1.00  0.00     0.000 HD 
HETATM   22  C   UNL     1      -7.868   8.031  72.281  1.00  0.00    -0.118 C  
HETATM   23  C   UNL     1      -9.320   8.499  72.415  1.00  0.00    -0.349 C  
BRANCH  22  24
HETATM   24  C   UNL     1      -7.609   6.529  72.603  1.00  0.00    -0.101 C  
HETATM   25  O   UNL     1      -8.345   5.648  72.140  1.00  0.00    -0.114 OA 
HETATM   26  N   UNL     1      -6.506   6.190  73.377  1.00  0.00    -0.068 N  
HETATM   27  C   UNL     1      -5.508   7.112  73.896  1.00  0.00    -0.050 C  
HETATM   28  C   UNL     1      -6.289   4.791  73.726  1.00  0.00    -0.051 C  
ENDBRANCH  22  24
ENDBRANCH  17  18
ENDBRANCH  11  17
TORSDOF 4
ENDMDL
MODEL      180
REMARK 921   NORMALIZED FREE ENERGY PREDICTED BY IDOCK:   -3.78 KCAL/MOL
REMARK 922        TOTAL FREE ENERGY PREDICTED BY IDOCK:   -5.63 KCAL/MOL
REMARK 923 INTER-LIGAND FREE ENERGY PREDICTED BY IDOCK:   -5.22 KCAL/MOL
REMARK 924 INTRA-LIGAND FREE ENERGY PREDICTED BY IDOCK:   -0.41 KCAL/MOL
REMARK 927      BINDING AFFINITY PREDICTED BY RF-SCORE:    0.00 PKD
ROOT
HETATM    1  C   UNL     1     -10.201   9.232  71.138  1.00  0.00    -0.387 C  
HETATM    2  C   UNL     1     -10.942   9.344  69.767  1.00  0.00    -0.215 C  
HETATM    3  C   UNL     1      -8.946   9.636  70.348  1.00  0.00    -0.187 C  
HETATM    4  N   UNL     1      -9.645   9.791  69.185  1.00  0.00    -0.178 N  
HETATM    5  C   UNL     1     -11.960  10.429  69.399  1.00  0.00    -0.151 C  
HETATM    6  O   UNL     1      -7.513  11.035  68.016  1.00  0.00    -0.086 OA 
HETATM    7  O   UNL     1      -7.775   9.847  70.557  1.00  0.00    -0.254 OA 
HETATM    8  C   UNL     1      -9.820  11.053  68.633  1.00  0.00    -0.193 C  
HETATM    9  O   UNL     1      -8.695  12.865  67.488  1.00  0.00    -0.169 OA 
HETATM   10  C   UNL     1      -8.653  11.766  68.017  1.00  0.00    -0.158 C  
HETATM   11  C   UNL     1     -11.099  11.469  68.716  1.00  0.00    -0.233 C  
HETATM   12  C   UNL     1     -12.758  10.889  70.610  1.00  0.00    -0.396 C  
ENDROOT
BRANCH   1  13
HETATM   13  C   UNL     1     -10.172   7.851  71.767  1.00  0.00    -0.196 C  
HETATM   14  C   UNL     1     -11.284   7.713  72.797  1.00  0.00    -0.431 C  
HETATM   15  O   UNL     1     -10.398   6.883  70.749  1.00  0.00    -0.202 OA 
HETATM   16  H   UNL     1     -10.380   6.019  71.142  1.00  0.00     0.000 HD 
ENDBRANCH   1  13
BRANCH  11  17
HETATM   17  S   UNL     1     -11.757  12.991  68.256  1.00  0.00    -0.354 SA 
BRANCH  17  18
HETATM   18  C   UNL     1     -11.656  14.038  69.757  1.00  0.00    -0.281 C  
HETATM   19  C   UNL     1     -12.451  15.338  69.754  1.00  0.00    -0.188 C  
HETATM   20  N   UNL     1     -11.520  16.332  69.241  1.00  0.00    -0.292 NA 
HETATM   21  H   UNL     1     -11.788  17.286  69.483  1.00  0.00     0.000 HD 
HETATM   22  C   UNL     1     -10.163  15.978  69.720  1.00  0.00    -0.240 C  
HETATM   23  C   UNL     1     -10.244  14.495  70.093  1.00  0.00     0.489 C  
BRANCH  22  24
HETATM   24  C   UNL     1      -9.110  16.346  68.634  1.00  0.00    -0.233 C  
HETATM   25  O   UNL     1      -9.399  17.119  67.711  1.00  0.00    -0.239 OA 
HETATM   26  N   UNL     1      -7.823  15.833  68.745  1.00  0.00    -0.166 N  
HETATM   27  C   UNL     1      -7.324  15.000  69.828  1.00  0.00    -0.132 C  
HETATM   28  C   UNL     1      -6.850  16.130  67.702  1.00  0.00    -0.152 C  
ENDBRANCH  22  24
ENDBRANCH  17  18
ENDBRANCH  11  17
TORSDOF 4
ENDMDL
MODEL      181
REMARK 921   NORMALIZED FREE ENERGY PREDICTED BY IDOCK:   -3.78 KCAL/MOL
REMARK 922        TOTAL FREE ENERGY PREDICTED BY IDOCK:   -5.63 KCAL/MOL
REMARK 923 INTER-LIGAND FREE ENERGY PREDICTED BY IDOCK:   -4.73 KCAL/MOL
REMARK 924 INTRA-LIGAND FREE ENERGY PREDICTED BY IDOCK:   -0.90 KCAL/MOL
REMARK 927      BINDING AFFINITY PREDICTED BY RF-SCORE:    0.00 PKD
ROOT
HETATM    1  C   UNL     1     -10.560  11.301  65.352  1.00  0.00    -0.312 C  
HETATM    2  C   UNL     1      -9.348  10.657  66.097  1.00  0.00    -0.177 C  
HETATM    3  C   UNL     1      -9.724  11.097  64.079  1.00  0.00    -0.283 C  
HETATM    4  N   UNL     1      -8.717  10.474  64.759  1.00  0.00    -0.186 N  
HETATM    5  C   UNL     1      -9.347   9.271  66.751  1.00  0.00    -0.202 C  
HETATM    6  O   UNL     1      -7.582   9.650  62.415  1.00  0.00    -0.107 OA 
HETATM    7  O   UNL     1      -9.826  11.285  62.890  1.00  0.00    -0.322 OA 
HETATM    8  C   UNL     1      -8.471   9.121  64.568  1.00  0.00    -0.180 C  
HETATM    9  O   UNL     1      -7.605   7.487  63.005  1.00  0.00    -0.103 OA 
HETATM   10  C   UNL     1      -7.879   8.646  63.274  1.00  0.00    -0.151 C  
HETATM   11  C   UNL     1      -8.798   8.389  65.651  1.00  0.00    -0.156 C  
HETATM   12  C   UNL     1     -10.718   8.906  67.302  1.00  0.00    -0.219 C  
ENDROOT
BRANCH   1  13
HETATM   13  C   UNL     1     -10.874  12.741  65.714  1.00  0.00    -0.272 C  
HETATM   14  C   UNL     1     -10.001  13.200  66.874  1.00  0.00    -0.245 C  
HETATM   15  O   UNL     1     -10.578  13.566  64.593  1.00  0.00    -0.387 OA 
HETATM   16  H   UNL     1     -10.775  14.467  64.820  1.00  0.00     0.000 HD 
ENDBRANCH   1  13
BRANCH  11  17
HETATM   17  S   UNL     1      -8.757   6.678  65.834  1.00  0.00    -0.106 SA 
BRANCH  17  18
HETATM   18  C   UNL     1      -7.359   6.343  66.970  1.00  0.00    -0.083 C  
HETATM   19  C   UNL     1      -7.324   4.980  67.648  1.00  0.00    -0.078 C  
HETATM   20  N   UNL     1      -8.034   5.180  68.903  1.00  0.00    -0.085 NA 
HETATM   21  H   UNL     1      -7.815   4.467  69.599  1.00  0.00     0.000 HD 
HETATM   22  C   UNL     1      -7.744   6.554  69.378  1.00  0.00    -0.101 C  
HETATM   23  C   UNL     1      -7.270   7.315  68.137  1.00  0.00    -0.091 C  
BRANCH  22  24
HETATM   24  C   UNL     1      -8.998   7.138  70.093  1.00  0.00    -0.145 C  
HETATM   25  O   UNL     1     -10.077   6.531  70.070  1.00  0.00    -0.170 OA 
HETATM   26  N   UNL     1      -8.875   8.328  70.800  1.00  0.00    -0.142 N  
HETATM   27  C   UNL     1      -7.650   9.087  70.990  1.00  0.00    -0.115 C  
HETATM   28  C   UNL     1     -10.059   8.906  71.424  1.00  0.00    -0.309 C  
ENDBRANCH  22  24
ENDBRANCH  17  18
ENDBRANCH  11  17
TORSDOF 4
ENDMDL
MODEL      182
REMARK 921   NORMALIZED FREE ENERGY PREDICTED BY IDOCK:   -3.75 KCAL/MOL
REMARK 922        TOTAL FREE ENERGY PREDICTED BY IDOCK:   -5.59 KCAL/MOL
REMARK 923 INTER-LIGAND FREE ENERGY PREDICTED BY IDOCK:   -4.83 KCAL/MOL
REMARK 924 INTRA-LIGAND FREE ENERGY PREDICTED BY IDOCK:   -0.76 KCAL/MOL
REMARK 927      BINDING AFFINITY PREDICTED BY RF-SCORE:    0.00 PKD
ROOT
HETATM    1  C   UNL     1      -9.965  10.771  67.448  1.00  0.00    -0.214 C  
HETATM    2  C   UNL     1     -10.478   9.867  68.615  1.00  0.00    -0.206 C  
HETATM    3  C   UNL     1      -8.780  11.077  68.377  1.00  0.00    -0.150 C  
HETATM    4  N   UNL     1      -9.227  10.222  69.342  1.00  0.00    -0.203 N  
HETATM    5  C   UNL     1     -10.526   8.335  68.590  1.00  0.00    -0.199 C  
HETATM    6  O   UNL     1      -6.837  10.380  70.655  1.00  0.00    -0.328 OA 
HETATM    7  O   UNL     1      -7.760  11.724  68.357  1.00  0.00    -0.117 OA 
HETATM    8  C   UNL     1      -8.532   9.052  69.623  1.00  0.00    -0.128 C  
HETATM    9  O   UNL     1      -6.515   8.162  70.623  1.00  0.00    -0.036 OA 
HETATM   10  C   UNL     1      -7.202   9.122  70.313  1.00  0.00    -0.075 C  
HETATM   11  C   UNL     1      -9.209   7.955  69.230  1.00  0.00    -0.148 C  
HETATM   12  C   UNL     1     -10.786   7.800  67.189  1.00  0.00    -0.337 C  
ENDROOT
BRANCH   1  13
HETATM   13  C   UNL     1     -10.846  11.953  67.087  1.00  0.00    -0.255 C  
HETATM   14  C   UNL     1     -11.223  11.905  65.613  1.00  0.00    -0.360 C  
HETATM   15  O   UNL     1     -12.047  11.873  67.847  1.00  0.00    -0.558 OA 
HETATM   16  H   UNL     1     -12.598  12.613  67.621  1.00  0.00     0.000 HD 
ENDBRANCH   1  13
BRANCH  11  17
HETATM   17  S   UNL     1      -8.699   6.312  69.284  1.00  0.00    -0.123 SA 
BRANCH  17  18
HETATM   18  C   UNL     1      -7.347   6.180  68.055  1.00  0.00    -0.088 C  
HETATM   19  C   UNL     1      -7.291   7.243  66.965  1.00  0.00    -0.093 C  
HETATM   20  N   UNL     1      -8.071   6.682  65.871  1.00  0.00    -0.119 NA 
HETATM   21  H   UNL     1      -7.858   7.116  64.972  1.00  0.00     0.000 HD 
HETATM   22  C   UNL     1      -7.860   5.215  65.864  1.00  0.00    -0.102 C  
HETATM   23  C   UNL     1      -7.355   4.876  67.269  1.00  0.00    -0.082 C  
BRANCH  22  24
HETATM   24  C   UNL     1      -9.171   4.498  65.425  1.00  0.00    -0.154 C  
HETATM   25  O   UNL     1     -10.018   4.163  66.263  1.00  0.00    -0.216 OA 
HETATM   26  N   UNL     1      -9.400   4.287  64.070  1.00  0.00    -0.153 N  
HETATM   27  C   UNL     1      -8.540   4.720  62.980  1.00  0.00    -0.120 C  
HETATM   28  C   UNL     1     -10.599   3.569  63.658  1.00  0.00    -0.272 C  
ENDBRANCH  22  24
ENDBRANCH  17  18
ENDBRANCH  11  17
TORSDOF 4
ENDMDL
MODEL      183
REMARK 921   NORMALIZED FREE ENERGY PREDICTED BY IDOCK:   -3.74 KCAL/MOL
REMARK 922        TOTAL FREE ENERGY PREDICTED BY IDOCK:   -5.58 KCAL/MOL
REMARK 923 INTER-LIGAND FREE ENERGY PREDICTED BY IDOCK:   -6.38 KCAL/MOL
REMARK 924 INTRA-LIGAND FREE ENERGY PREDICTED BY IDOCK:    0.79 KCAL/MOL
REMARK 927      BINDING AFFINITY PREDICTED BY RF-SCORE:    0.00 PKD
ROOT
HETATM    1  C   UNL     1     -10.369  10.943  64.089  1.00  0.00    -0.432 C  
HETATM    2  C   UNL     1      -9.368  11.131  65.274  1.00  0.00    -0.219 C  
HETATM    3  C   UNL     1      -9.236  10.144  63.426  1.00  0.00    -0.291 C  
HETATM    4  N   UNL     1      -8.418  10.271  64.512  1.00  0.00    -0.174 N  
HETATM    5  C   UNL     1      -9.502  10.481  66.655  1.00  0.00    -0.199 C  
HETATM    6  O   UNL     1      -6.715   8.387  63.509  1.00  0.00    -0.083 OA 
HETATM    7  O   UNL     1      -9.040   9.530  62.404  1.00  0.00    -0.264 OA 
HETATM    8  C   UNL     1      -8.103   9.164  65.289  1.00  0.00    -0.124 C  
HETATM    9  O   UNL     1      -6.839   7.100  65.340  1.00  0.00    -0.050 OA 
HETATM   10  C   UNL     1      -7.197   8.103  64.742  1.00  0.00    -0.082 C  
HETATM   11  C   UNL     1      -8.677   9.222  66.507  1.00  0.00    -0.132 C  
HETATM   12  C   UNL     1     -10.959  10.301  67.056  1.00  0.00    -0.189 C  
ENDROOT
BRANCH   1  13
HETATM   13  C   UNL     1     -10.793  12.211  63.371  1.00  0.00    -0.414 C  
HETATM   14  C   UNL     1     -12.288  12.444  63.543  1.00  0.00    -0.648 C  
HETATM   15  O   UNL     1     -10.109  13.314  63.954  1.00  0.00    -0.754 OA 
HETATM   16  H   UNL     1     -10.375  14.107  63.504  1.00  0.00     0.000 HD 
ENDBRANCH   1  13
BRANCH  11  17
HETATM   17  S   UNL     1      -8.646   8.038  67.756  1.00  0.00    -0.128 SA 
BRANCH  17  18
HETATM   18  C   UNL     1      -8.016   8.911  69.239  1.00  0.00    -0.104 C  
HETATM   19  C   UNL     1      -7.497   8.052  70.384  1.00  0.00    -0.075 C  
HETATM   20  N   UNL     1      -8.656   7.851  71.242  1.00  0.00    -0.121 NA 
HETATM   21  H   UNL     1      -8.401   7.582  72.193  1.00  0.00     0.000 HD 
HETATM   22  C   UNL     1      -9.479   9.083  71.195  1.00  0.00    -0.278 C  
HETATM   23  C   UNL     1      -9.049   9.802  69.913  1.00  0.00    -0.257 C  
BRANCH  22  24
HETATM   24  C   UNL     1     -10.988   8.710  71.288  1.00  0.00    -0.267 C  
HETATM   25  O   UNL     1     -11.861   9.548  71.029  1.00  0.00    -0.291 OA 
HETATM   26  N   UNL     1     -11.338   7.406  71.618  1.00  0.00    -0.251 N  
HETATM   27  C   UNL     1     -10.417   6.304  71.846  1.00  0.00    -0.209 C  
HETATM   28  C   UNL     1     -12.748   7.067  71.760  1.00  0.00    -0.340 C  
ENDBRANCH  22  24
ENDBRANCH  17  18
ENDBRANCH  11  17
TORSDOF 4
ENDMDL
MODEL      184
REMARK 921   NORMALIZED FREE ENERGY PREDICTED BY IDOCK:   -3.72 KCAL/MOL
REMARK 922        TOTAL FREE ENERGY PREDICTED BY IDOCK:   -5.56 KCAL/MOL
REMARK 923 INTER-LIGAND FREE ENERGY PREDICTED BY IDOCK:   -5.06 KCAL/MOL
REMARK 924 INTRA-LIGAND FREE ENERGY PREDICTED BY IDOCK:   -0.50 KCAL/MOL
REMARK 927      BINDING AFFINITY PREDICTED BY RF-SCORE:    0.00 PKD
ROOT
HETATM    1  C   UNL     1     -11.242   9.534  71.356  1.00  0.00    -0.452 C  
HETATM    2  C   UNL     1     -10.939   8.622  70.124  1.00  0.00    -0.226 C  
HETATM    3  C   UNL     1     -11.537   8.219  72.096  1.00  0.00    -0.364 C  
HETATM    4  N   UNL     1     -11.194   7.456  71.017  1.00  0.00    -0.258 N  
HETATM    5  C   UNL     1      -9.551   8.388  69.519  1.00  0.00    -0.170 C  
HETATM    6  O   UNL     1     -11.185   5.200  72.557  1.00  0.00    -0.226 OA 
HETATM    7  O   UNL     1     -11.865   7.858  73.201  1.00  0.00    -0.216 OA 
HETATM    8  C   UNL     1     -10.053   6.665  71.049  1.00  0.00    -0.187 C  
HETATM    9  O   UNL     1      -9.078   4.667  72.006  1.00  0.00    -0.124 OA 
HETATM   10  C   UNL     1     -10.017   5.442  71.915  1.00  0.00    -0.184 C  
HETATM   11  C   UNL     1      -9.093   7.131  70.226  1.00  0.00    -0.156 C  
HETATM   12  C   UNL     1      -8.660   9.613  69.656  1.00  0.00    -0.196 C  
ENDROOT
BRANCH   1  13
HETATM   13  C   UNL     1     -12.414  10.486  71.206  1.00  0.00    -0.419 C  
HETATM   14  C   UNL     1     -12.049  11.635  70.276  1.00  0.00    -0.443 C  
HETATM   15  O   UNL     1     -13.501   9.780  70.619  1.00  0.00    -0.619 OA 
HETATM   16  H   UNL     1     -14.234  10.376  70.525  1.00  0.00     0.000 HD 
ENDBRANCH   1  13
BRANCH  11  17
HETATM   17  S   UNL     1      -7.491   6.536  70.014  1.00  0.00    -0.097 SA 
BRANCH  17  18
HETATM   18  C   UNL     1      -7.527   5.589  68.446  1.00  0.00    -0.077 C  
HETATM   19  C   UNL     1      -6.212   4.991  67.964  1.00  0.00    -0.035 C  
HETATM   20  N   UNL     1      -5.642   6.015  67.099  1.00  0.00    -0.012 NA 
HETATM   21  H   UNL     1      -4.943   5.644  66.456  1.00  0.00     0.000 HD 
HETATM   22  C   UNL     1      -6.759   6.697  66.402  1.00  0.00    -0.053 C  
HETATM   23  C   UNL     1      -8.000   6.400  67.248  1.00  0.00    -0.112 C  
BRANCH  22  24
HETATM   24  C   UNL     1      -6.415   8.204  66.210  1.00  0.00    -0.047 C  
HETATM   25  O   UNL     1      -5.324   8.654  66.584  1.00  0.00    -0.034 OA 
HETATM   26  N   UNL     1      -7.332   9.025  65.566  1.00  0.00    -0.085 N  
HETATM   27  C   UNL     1      -8.600   8.605  64.990  1.00  0.00    -0.158 C  
HETATM   28  C   UNL     1      -7.038  10.446  65.432  1.00  0.00    -0.117 C  
ENDBRANCH  22  24
ENDBRANCH  17  18
ENDBRANCH  11  17
TORSDOF 4
ENDMDL
MODEL      185
REMARK 921   NORMALIZED FREE ENERGY PREDICTED BY IDOCK:   -3.72 KCAL/MOL
REMARK 922        TOTAL FREE ENERGY PREDICTED BY IDOCK:   -5.56 KCAL/MOL
REMARK 923 INTER-LIGAND FREE ENERGY PREDICTED BY IDOCK:   -4.84 KCAL/MOL
REMARK 924 INTRA-LIGAND FREE ENERGY PREDICTED BY IDOCK:   -0.72 KCAL/MOL
REMARK 927      BINDING AFFINITY PREDICTED BY RF-SCORE:    0.00 PKD
ROOT
HETATM    1  C   UNL     1      -9.191   5.269  68.122  1.00  0.00    -0.129 C  
HETATM    2  C   UNL     1      -8.427   6.631  68.152  1.00  0.00    -0.116 C  
HETATM    3  C   UNL     1      -9.934   5.804  69.356  1.00  0.00    -0.187 C  
HETATM    4  N   UNL     1      -9.295   7.009  69.304  1.00  0.00    -0.146 N  
HETATM    5  C   UNL     1      -8.586   7.756  67.123  1.00  0.00    -0.128 C  
HETATM    6  O   UNL     1     -11.044   8.070  71.113  1.00  0.00    -0.243 OA 
HETATM    7  O   UNL     1     -10.807   5.447  70.111  1.00  0.00    -0.281 OA 
HETATM    8  C   UNL     1      -9.993   8.162  68.971  1.00  0.00    -0.189 C  
HETATM    9  O   UNL     1     -11.637   9.755  69.759  1.00  0.00    -0.160 OA 
HETATM   10  C   UNL     1     -10.983   8.740  69.938  1.00  0.00    -0.179 C  
HETATM   11  C   UNL     1      -9.639   8.636  67.760  1.00  0.00    -0.148 C  
HETATM   12  C   UNL     1      -8.896   7.213  65.736  1.00  0.00    -0.090 C  
ENDROOT
BRANCH   1  13
HETATM   13  C   UNL     1      -8.346   4.028  68.345  1.00  0.00    -0.090 C  
HETATM   14  C   UNL     1      -7.614   4.115  69.677  1.00  0.00    -0.053 C  
HETATM   15  O   UNL     1      -9.205   2.895  68.393  1.00  0.00    -0.154 OA 
HETATM   16  H   UNL     1      -8.676   2.119  68.532  1.00  0.00     0.000 HD 
ENDBRANCH   1  13
BRANCH  11  17
HETATM   17  S   UNL     1     -10.304   9.973  66.903  1.00  0.00    -0.220 SA 
BRANCH  17  18
HETATM   18  C   UNL     1      -8.980  11.240  66.874  1.00  0.00    -0.162 C  
HETATM   19  C   UNL     1      -8.250  11.513  68.182  1.00  0.00    -0.149 C  
HETATM   20  N   UNL     1      -9.000  12.600  68.797  1.00  0.00    -0.389 NA 
HETATM   21  H   UNL     1      -8.459  13.105  69.500  1.00  0.00     0.000 HD 
HETATM   22  C   UNL     1      -9.499  13.480  67.714  1.00  0.00    -0.216 C  
HETATM   23  C   UNL     1      -9.460  12.620  66.448  1.00  0.00    -0.231 C  
BRANCH  22  24
HETATM   24  C   UNL     1     -10.896  14.050  68.103  1.00  0.00    -0.248 C  
HETATM   25  O   UNL     1     -11.930  13.434  67.814  1.00  0.00    -0.351 OA 
HETATM   26  N   UNL     1     -10.960  15.236  68.825  1.00  0.00    -0.248 N  
HETATM   27  C   UNL     1      -9.825  16.002  69.314  1.00  0.00    -0.255 C  
HETATM   28  C   UNL     1     -12.265  15.800  69.143  1.00  0.00    -0.072 C  
ENDBRANCH  22  24
ENDBRANCH  17  18
ENDBRANCH  11  17
TORSDOF 4
ENDMDL
MODEL      186
REMARK 921   NORMALIZED FREE ENERGY PREDICTED BY IDOCK:   -3.72 KCAL/MOL
REMARK 922        TOTAL FREE ENERGY PREDICTED BY IDOCK:   -5.55 KCAL/MOL
REMARK 923 INTER-LIGAND FREE ENERGY PREDICTED BY IDOCK:   -4.89 KCAL/MOL
REMARK 924 INTRA-LIGAND FREE ENERGY PREDICTED BY IDOCK:   -0.66 KCAL/MOL
REMARK 927      BINDING AFFINITY PREDICTED BY RF-SCORE:    0.00 PKD
ROOT
HETATM    1  C   UNL     1     -10.604   8.043  69.479  1.00  0.00    -0.216 C  
HETATM    2  C   UNL     1      -9.547   8.164  68.335  1.00  0.00    -0.147 C  
HETATM    3  C   UNL     1      -9.442   8.399  70.419  1.00  0.00    -0.168 C  
HETATM    4  N   UNL     1      -8.567   8.565  69.384  1.00  0.00    -0.127 N  
HETATM    5  C   UNL     1      -9.509   9.277  67.282  1.00  0.00    -0.181 C  
HETATM    6  O   UNL     1      -6.744   9.730  71.051  1.00  0.00    -0.267 OA 
HETATM    7  O   UNL     1      -9.255   8.576  71.599  1.00  0.00    -0.189 OA 
HETATM    8  C   UNL     1      -8.077   9.826  69.072  1.00  0.00    -0.101 C  
HETATM    9  O   UNL     1      -6.594  11.591  69.811  1.00  0.00    -0.130 OA 
HETATM   10  C   UNL     1      -7.101  10.496  69.994  1.00  0.00    -0.127 C  
HETATM   11  C   UNL     1      -8.563  10.283  67.901  1.00  0.00    -0.118 C  
HETATM   12  C   UNL     1     -10.904   9.774  66.934  1.00  0.00    -0.120 C  
ENDROOT
BRANCH   1  13
HETATM   13  C   UNL     1     -11.217   6.668  69.674  1.00  0.00    -0.340 C  
HETATM   14  C   UNL     1     -10.388   5.610  68.958  1.00  0.00    -0.314 C  
HETATM   15  O   UNL     1     -11.210   6.360  71.063  1.00  0.00    -0.282 OA 
HETATM   16  H   UNL     1     -11.593   5.500  71.185  1.00  0.00     0.000 HD 
ENDBRANCH   1  13
BRANCH  11  17
HETATM   17  S   UNL     1      -8.312  11.821  67.170  1.00  0.00    -0.173 SA 
BRANCH  17  18
HETATM   18  C   UNL     1      -9.070  13.033  68.315  1.00  0.00    -0.179 C  
HETATM   19  C   UNL     1     -10.347  12.612  69.031  1.00  0.00     0.065 C  
HETATM   20  N   UNL     1     -11.419  13.068  68.158  1.00  0.00    -0.297 NA 
HETATM   21  H   UNL     1     -12.313  13.153  68.642  1.00  0.00     0.000 HD 
HETATM   22  C   UNL     1     -10.986  14.337  67.525  1.00  0.00    -0.289 C  
HETATM   23  C   UNL     1      -9.460  14.346  67.651  1.00  0.00    -0.214 C  
BRANCH  22  24
HETATM   24  C   UNL     1     -11.547  14.418  66.075  1.00  0.00    -0.363 C  
HETATM   25  O   UNL     1     -12.250  13.507  65.619  1.00  0.00    -0.401 OA 
HETATM   26  N   UNL     1     -11.286  15.553  65.317  1.00  0.00    -0.243 N  
HETATM   27  C   UNL     1     -10.564  16.733  65.764  1.00  0.00    -0.250 C  
HETATM   28  C   UNL     1     -11.763  15.610  63.941  1.00  0.00     0.281 C  
ENDBRANCH  22  24
ENDBRANCH  17  18
ENDBRANCH  11  17
TORSDOF 4
ENDMDL
MODEL      187
REMARK 921   NORMALIZED FREE ENERGY PREDICTED BY IDOCK:   -3.71 KCAL/MOL
REMARK 922        TOTAL FREE ENERGY PREDICTED BY IDOCK:   -5.55 KCAL/MOL
REMARK 923 INTER-LIGAND FREE ENERGY PREDICTED BY IDOCK:   -4.87 KCAL/MOL
REMARK 924 INTRA-LIGAND FREE ENERGY PREDICTED BY IDOCK:   -0.68 KCAL/MOL
REMARK 927      BINDING AFFINITY PREDICTED BY RF-SCORE:    0.00 PKD
ROOT
HETATM    1  C   UNL     1     -10.632   9.120  70.716  1.00  0.00    -0.324 C  
HETATM    2  C   UNL     1     -10.608   7.873  69.775  1.00  0.00    -0.242 C  
HETATM    3  C   UNL     1     -11.385   8.207  71.696  1.00  0.00    -0.264 C  
HETATM    4  N   UNL     1     -11.280   7.123  70.873  1.00  0.00    -0.266 N  
HETATM    5  C   UNL     1      -9.359   7.061  69.417  1.00  0.00    -0.146 C  
HETATM    6  O   UNL     1     -12.098   5.461  72.880  1.00  0.00    -0.172 OA 
HETATM    7  O   UNL     1     -11.860   8.267  72.805  1.00  0.00    -0.388 OA 
HETATM    8  C   UNL     1     -10.477   6.046  71.227  1.00  0.00    -0.230 C  
HETATM    9  O   UNL     1     -10.278   4.160  72.732  1.00  0.00    -0.154 OA 
HETATM   10  C   UNL     1     -10.894   5.142  72.349  1.00  0.00    -0.203 C  
HETATM   11  C   UNL     1      -9.384   5.951  70.445  1.00  0.00    -0.159 C  
HETATM   12  C   UNL     1      -8.111   7.929  69.378  1.00  0.00    -0.125 C  
ENDROOT
BRANCH   1  13
HETATM   13  C   UNL     1     -11.403  10.323  70.206  1.00  0.00    -0.323 C  
HETATM   14  C   UNL     1     -12.236  10.934  71.324  1.00  0.00    -0.395 C  
HETATM   15  O   UNL     1     -10.473  11.307  69.768  1.00  0.00    -0.443 OA 
HETATM   16  H   UNL     1     -10.956  12.060  69.448  1.00  0.00     0.000 HD 
ENDBRANCH   1  13
BRANCH  11  17
HETATM   17  S   UNL     1      -8.072   4.844  70.576  1.00  0.00    -0.086 SA 
BRANCH  17  18
HETATM   18  C   UNL     1      -8.643   3.313  69.748  1.00  0.00    -0.064 C  
HETATM   19  C   UNL     1      -7.575   2.323  69.300  1.00  0.00    -0.043 C  
HETATM   20  N   UNL     1      -7.271   2.712  67.931  1.00  0.00    -0.049 NA 
HETATM   21  H   UNL     1      -6.828   1.963  67.397  1.00  0.00     0.000 HD 
HETATM   22  C   UNL     1      -8.522   3.200  67.305  1.00  0.00    -0.096 C  
HETATM   23  C   UNL     1      -9.440   3.563  68.475  1.00  0.00    -0.207 C  
BRANCH  22  24
HETATM   24  C   UNL     1      -8.197   4.358  66.315  1.00  0.00    -0.102 C  
HETATM   25  O   UNL     1      -7.303   5.174  66.572  1.00  0.00    -0.082 OA 
HETATM   26  N   UNL     1      -8.894   4.430  65.115  1.00  0.00    -0.132 N  
HETATM   27  C   UNL     1      -9.893   3.483  64.646  1.00  0.00    -0.168 C  
HETATM   28  C   UNL     1      -8.631   5.542  64.210  1.00  0.00    -0.007 C  
ENDBRANCH  22  24
ENDBRANCH  17  18
ENDBRANCH  11  17
TORSDOF 4
ENDMDL
MODEL      188
REMARK 921   NORMALIZED FREE ENERGY PREDICTED BY IDOCK:   -3.71 KCAL/MOL
REMARK 922        TOTAL FREE ENERGY PREDICTED BY IDOCK:   -5.55 KCAL/MOL
REMARK 923 INTER-LIGAND FREE ENERGY PREDICTED BY IDOCK:   -5.13 KCAL/MOL
REMARK 924 INTRA-LIGAND FREE ENERGY PREDICTED BY IDOCK:   -0.41 KCAL/MOL
REMARK 927      BINDING AFFINITY PREDICTED BY RF-SCORE:    0.00 PKD
ROOT
HETATM    1  C   UNL     1      -9.162   6.262  69.342  1.00  0.00    -0.139 C  
HETATM    2  C   UNL     1      -9.977   7.419  68.681  1.00  0.00    -0.169 C  
HETATM    3  C   UNL     1      -8.173   6.467  68.184  1.00  0.00    -0.117 C  
HETATM    4  N   UNL     1      -8.878   7.521  67.678  1.00  0.00    -0.128 N  
HETATM    5  C   UNL     1     -10.143   8.827  69.262  1.00  0.00    -0.206 C  
HETATM    6  O   UNL     1      -6.807   8.173  66.022  1.00  0.00    -0.056 OA 
HETATM    7  O   UNL     1      -7.121   6.012  67.802  1.00  0.00    -0.070 OA 
HETATM    8  C   UNL     1      -8.354   8.806  67.727  1.00  0.00    -0.118 C  
HETATM    9  O   UNL     1      -6.668  10.272  66.796  1.00  0.00    -0.077 OA 
HETATM   10  C   UNL     1      -7.195   9.172  66.849  1.00  0.00    -0.086 C  
HETATM   11  C   UNL     1      -9.022   9.593  68.594  1.00  0.00    -0.129 C  
HETATM   12  C   UNL     1     -10.150   8.814  70.783  1.00  0.00    -0.261 C  
ENDROOT
BRANCH   1  13
HETATM   13  C   UNL     1      -9.849   4.910  69.394  1.00  0.00    -0.211 C  
HETATM   14  C   UNL     1      -9.954   4.313  67.998  1.00  0.00    -0.040 C  
HETATM   15  O   UNL     1      -9.062   4.030  70.187  1.00  0.00    -0.094 OA 
HETATM   16  H   UNL     1      -9.492   3.184  70.220  1.00  0.00     0.000 HD 
ENDBRANCH   1  13
BRANCH  11  17
HETATM   17  S   UNL     1      -8.671  11.215  69.050  1.00  0.00     0.062 SA 
BRANCH  17  18
HETATM   18  C   UNL     1      -9.814  12.256  68.067  1.00  0.00    -0.204 C  
HETATM   19  C   UNL     1      -9.674  13.766  68.206  1.00  0.00    -0.231 C  
HETATM   20  N   UNL     1     -10.595  14.118  69.277  1.00  0.00    -0.408 NA 
HETATM   21  H   UNL     1     -10.855  15.105  69.266  1.00  0.00     0.000 HD 
HETATM   22  C   UNL     1     -11.767  13.215  69.189  1.00  0.00    -0.325 C  
HETATM   23  C   UNL     1     -11.285  12.012  68.374  1.00  0.00    -0.313 C  
BRANCH  22  24
HETATM   24  C   UNL     1     -12.292  12.896  70.620  1.00  0.00    -0.302 C  
HETATM   25  O   UNL     1     -12.121  11.776  71.119  1.00  0.00    -0.207 OA 
HETATM   26  N   UNL     1     -12.912  13.905  71.348  1.00  0.00    -0.344 N  
HETATM   27  C   UNL     1     -13.085  15.284  70.923  1.00  0.00    -0.464 C  
HETATM   28  C   UNL     1     -13.453  13.596  72.666  1.00  0.00    -0.498 C  
ENDBRANCH  22  24
ENDBRANCH  17  18
ENDBRANCH  11  17
TORSDOF 4
ENDMDL
MODEL      189
REMARK 921   NORMALIZED FREE ENERGY PREDICTED BY IDOCK:   -3.70 KCAL/MOL
REMARK 922        TOTAL FREE ENERGY PREDICTED BY IDOCK:   -5.53 KCAL/MOL
REMARK 923 INTER-LIGAND FREE ENERGY PREDICTED BY IDOCK:   -4.85 KCAL/MOL
REMARK 924 INTRA-LIGAND FREE ENERGY PREDICTED BY IDOCK:   -0.69 KCAL/MOL
REMARK 927      BINDING AFFINITY PREDICTED BY RF-SCORE:    0.00 PKD
ROOT
HETATM    1  C   UNL     1     -11.449  12.324  67.602  1.00  0.00    -0.401 C  
HETATM    2  C   UNL     1     -10.430  11.824  68.676  1.00  0.00    -0.222 C  
HETATM    3  C   UNL     1     -10.984  11.113  66.779  1.00  0.00    -0.249 C  
HETATM    4  N   UNL     1     -10.158  10.670  67.772  1.00  0.00    -0.170 N  
HETATM    5  C   UNL     1     -10.803  11.213  70.031  1.00  0.00     0.030 C  
HETATM    6  O   UNL     1      -9.830   8.277  66.497  1.00  0.00    -0.240 OA 
HETATM    7  O   UNL     1     -11.224  10.597  65.714  1.00  0.00     0.188 OA 
HETATM    8  C   UNL     1     -10.446   9.496  68.456  1.00  0.00    -0.217 C  
HETATM    9  O   UNL     1     -10.512   7.083  68.268  1.00  0.00    -0.185 OA 
HETATM   10  C   UNL     1     -10.305   8.174  67.761  1.00  0.00    -0.233 C  
HETATM   11  C   UNL     1     -10.811   9.730  69.732  1.00  0.00    -0.257 C  
HETATM   12  C   UNL     1     -12.091  11.806  70.582  1.00  0.00    -0.407 C  
ENDROOT
BRANCH   1  13
HETATM   13  C   UNL     1     -11.161  13.686  66.997  1.00  0.00    -0.301 C  
HETATM   14  C   UNL     1      -9.691  14.043  67.165  1.00  0.00    -0.242 C  
HETATM   15  O   UNL     1     -11.439  13.632  65.602  1.00  0.00    -0.303 OA 
HETATM   16  H   UNL     1     -11.259  14.484  65.224  1.00  0.00     0.000 HD 
ENDBRANCH   1  13
BRANCH  11  17
HETATM   17  S   UNL     1     -11.346   8.597  70.912  1.00  0.00    -0.275 SA 
BRANCH  17  18
HETATM   18  C   UNL     1      -9.885   8.263  71.965  1.00  0.00    -0.257 C  
HETATM   19  C   UNL     1      -8.521   8.644  71.404  1.00  0.00    -0.188 C  
HETATM   20  N   UNL     1      -8.058   7.441  70.727  1.00  0.00    -0.108 NA 
HETATM   21  H   UNL     1      -7.047   7.430  70.588  1.00  0.00     0.000 HD 
HETATM   22  C   UNL     1      -8.545   6.269  71.492  1.00  0.00    -0.131 C  
HETATM   23  C   UNL     1      -9.713   6.796  72.331  1.00  0.00    -0.165 C  
BRANCH  22  24
HETATM   24  C   UNL     1      -8.884   5.107  70.513  1.00  0.00    -0.119 C  
HETATM   25  O   UNL     1     -10.000   4.570  70.534  1.00  0.00    -0.217 OA 
HETATM   26  N   UNL     1      -7.931   4.715  69.580  1.00  0.00    -0.065 N  
HETATM   27  C   UNL     1      -6.626   5.325  69.382  1.00  0.00    -0.047 C  
HETATM   28  C   UNL     1      -8.224   3.592  68.699  1.00  0.00    -0.068 C  
ENDBRANCH  22  24
ENDBRANCH  17  18
ENDBRANCH  11  17
TORSDOF 4
ENDMDL
MODEL      190
REMARK 921   NORMALIZED FREE ENERGY PREDICTED BY IDOCK:   -3.70 KCAL/MOL
REMARK 922        TOTAL FREE ENERGY PREDICTED BY IDOCK:   -5.53 KCAL/MOL
REMARK 923 INTER-LIGAND FREE ENERGY PREDICTED BY IDOCK:   -4.68 KCAL/MOL
REMARK 924 INTRA-LIGAND FREE ENERGY PREDICTED BY IDOCK:   -0.85 KCAL/MOL
REMARK 927      BINDING AFFINITY PREDICTED BY RF-SCORE:    0.00 PKD
ROOT
HETATM    1  C   UNL     1     -10.620  11.751  68.825  1.00  0.00    -0.234 C  
HETATM    2  C   UNL     1     -11.111  10.272  68.718  1.00  0.00    -0.228 C  
HETATM    3  C   UNL     1     -11.818  11.947  69.767  1.00  0.00    -0.340 C  
HETATM    4  N   UNL     1     -12.172  10.630  69.702  1.00  0.00    -0.261 N  
HETATM    5  C   UNL     1     -10.388   9.056  69.307  1.00  0.00    -0.227 C  
HETATM    6  O   UNL     1     -13.896  10.941  71.797  1.00  0.00     0.061 OA 
HETATM    7  O   UNL     1     -12.313  12.828  70.429  1.00  0.00    -0.318 OA 
HETATM    8  C   UNL     1     -12.037   9.809  70.815  1.00  0.00    -0.279 C  
HETATM    9  O   UNL     1     -12.937   9.316  73.007  1.00  0.00    -0.156 OA 
HETATM   10  C   UNL     1     -12.953   9.988  71.989  1.00  0.00    -0.416 C  
HETATM   11  C   UNL     1     -11.055   8.900  70.656  1.00  0.00    -0.262 C  
HETATM   12  C   UNL     1      -8.878   9.242  69.308  1.00  0.00    -0.146 C  
ENDROOT
BRANCH   1  13
HETATM   13  C   UNL     1     -10.651  12.556  67.538  1.00  0.00    -0.220 C  
HETATM   14  C   UNL     1      -9.326  12.427  66.799  1.00  0.00    -0.220 C  
HETATM   15  O   UNL     1     -11.672  12.031  66.698  1.00  0.00    -0.522 OA 
HETATM   16  H   UNL     1     -11.691  12.534  65.893  1.00  0.00     0.000 HD 
ENDBRANCH   1  13
BRANCH  11  17
HETATM   17  S   UNL     1     -10.471   7.752  71.799  1.00  0.00    -0.223 SA 
BRANCH  17  18
HETATM   18  C   UNL     1     -10.464   6.147  70.917  1.00  0.00    -0.228 C  
HETATM   19  C   UNL     1     -10.984   4.933  71.675  1.00  0.00     0.185 C  
HETATM   20  N   UNL     1      -9.801   4.364  72.305  1.00  0.00    -0.164 NA 
HETATM   21  H   UNL     1      -9.926   3.387  72.570  1.00  0.00     0.000 HD 
HETATM   22  C   UNL     1      -8.652   4.569  71.391  1.00  0.00    -0.113 C  
HETATM   23  C   UNL     1      -9.082   5.704  70.457  1.00  0.00    -0.164 C  
BRANCH  22  24
HETATM   24  C   UNL     1      -7.360   4.828  72.220  1.00  0.00    -0.082 C  
HETATM   25  O   UNL     1      -7.176   5.918  72.776  1.00  0.00    -0.087 OA 
HETATM   26  N   UNL     1      -6.440   3.797  72.369  1.00  0.00    -0.017 N  
HETATM   27  C   UNL     1      -6.582   2.443  71.856  1.00  0.00    -0.015 C  
HETATM   28  C   UNL     1      -5.205   4.051  73.099  1.00  0.00     0.000 C  
ENDBRANCH  22  24
ENDBRANCH  17  18
ENDBRANCH  11  17
TORSDOF 4
ENDMDL
MODEL      191
REMARK 921   NORMALIZED FREE ENERGY PREDICTED BY IDOCK:   -3.69 KCAL/MOL
REMARK 922        TOTAL FREE ENERGY PREDICTED BY IDOCK:   -5.52 KCAL/MOL
REMARK 923 INTER-LIGAND FREE ENERGY PREDICTED BY IDOCK:   -4.94 KCAL/MOL
REMARK 924 INTRA-LIGAND FREE ENERGY PREDICTED BY IDOCK:   -0.58 KCAL/MOL
REMARK 927      BINDING AFFINITY PREDICTED BY RF-SCORE:    0.00 PKD
ROOT
HETATM    1  C   UNL     1      -8.167   7.185  65.989  1.00  0.00    -0.129 C  
HETATM    2  C   UNL     1      -7.178   8.150  66.718  1.00  0.00    -0.082 C  
HETATM    3  C   UNL     1      -8.429   6.602  67.387  1.00  0.00    -0.120 C  
HETATM    4  N   UNL     1      -7.609   7.510  67.993  1.00  0.00    -0.108 N  
HETATM    5  C   UNL     1      -7.393   9.654  66.912  1.00  0.00    -0.091 C  
HETATM    6  O   UNL     1      -8.560   6.797  70.452  1.00  0.00    -0.142 OA 
HETATM    7  O   UNL     1      -9.114   5.748  67.897  1.00  0.00    -0.112 OA 
HETATM    8  C   UNL     1      -8.137   8.491  68.823  1.00  0.00    -0.120 C  
HETATM    9  O   UNL     1      -9.165   8.891  70.977  1.00  0.00    -0.201 OA 
HETATM   10  C   UNL     1      -8.695   8.113  70.162  1.00  0.00    -0.130 C  
HETATM   11  C   UNL     1      -8.043   9.719  68.277  1.00  0.00    -0.104 C  
HETATM   12  C   UNL     1      -8.168  10.269  65.756  1.00  0.00    -0.147 C  
ENDROOT
BRANCH   1  13
HETATM   13  C   UNL     1      -7.547   6.235  64.981  1.00  0.00    -0.090 C  
HETATM   14  C   UNL     1      -6.307   6.858  64.356  1.00  0.00    -0.036 C  
HETATM   15  O   UNL     1      -7.145   5.051  65.660  1.00  0.00    -0.064 OA 
HETATM   16  H   UNL     1      -6.757   4.457  65.028  1.00  0.00     0.000 HD 
ENDBRANCH   1  13
BRANCH  11  17
HETATM   17  S   UNL     1      -8.647  11.209  68.894  1.00  0.00    -0.028 SA 
BRANCH  17  18
HETATM   18  C   UNL     1     -10.471  11.074  68.792  1.00  0.00    -0.198 C  
HETATM   19  C   UNL     1     -11.053  10.438  67.536  1.00  0.00    -0.267 C  
HETATM   20  N   UNL     1     -11.286  11.559  66.636  1.00  0.00    -0.397 NA 
HETATM   21  H   UNL     1     -11.961  11.342  65.902  1.00  0.00     0.000 HD 
HETATM   22  C   UNL     1     -11.685  12.728  67.456  1.00  0.00    -0.364 C  
HETATM   23  C   UNL     1     -11.192  12.412  68.871  1.00  0.00    -0.330 C  
BRANCH  22  24
HETATM   24  C   UNL     1     -11.122  14.032  66.818  1.00  0.00    -0.306 C  
HETATM   25  O   UNL     1     -10.328  14.748  67.442  1.00  0.00    -0.241 OA 
HETATM   26  N   UNL     1     -11.486  14.354  65.516  1.00  0.00    -0.333 N  
HETATM   27  C   UNL     1     -12.326  13.554  64.639  1.00  0.00    -0.372 C  
HETATM   28  C   UNL     1     -11.005  15.601  64.934  1.00  0.00    -0.431 C  
ENDBRANCH  22  24
ENDBRANCH  17  18
ENDBRANCH  11  17
TORSDOF 4
ENDMDL
MODEL      192
REMARK 921   NORMALIZED FREE ENERGY PREDICTED BY IDOCK:   -3.67 KCAL/MOL
REMARK 922        TOTAL FREE ENERGY PREDICTED BY IDOCK:   -5.50 KCAL/MOL
REMARK 923 INTER-LIGAND FREE ENERGY PREDICTED BY IDOCK:   -4.66 KCAL/MOL
REMARK 924 INTRA-LIGAND FREE ENERGY PREDICTED BY IDOCK:   -0.84 KCAL/MOL
REMARK 927      BINDING AFFINITY PREDICTED BY RF-SCORE:    0.00 PKD
ROOT
HETATM    1  C   UNL     1      -9.485   5.723  72.173  1.00  0.00    -0.164 C  
HETATM    2  C   UNL     1     -10.677   5.255  71.277  1.00  0.00    -0.128 C  
HETATM    3  C   UNL     1      -8.657   4.693  71.388  1.00  0.00    -0.111 C  
HETATM    4  N   UNL     1      -9.707   4.364  70.579  1.00  0.00    -0.202 N  
HETATM    5  C   UNL     1     -11.338   6.094  70.178  1.00  0.00    -0.433 C  
HETATM    6  O   UNL     1      -8.043   3.004  68.894  1.00  0.00    -0.056 OA 
HETATM    7  O   UNL     1      -7.518   4.293  71.343  1.00  0.00    -0.056 OA 
HETATM    8  C   UNL     1      -9.689   4.701  69.231  1.00  0.00    -0.196 C  
HETATM    9  O   UNL     1      -8.670   4.188  67.096  1.00  0.00    -0.106 OA 
HETATM   10  C   UNL     1      -8.757   3.988  68.297  1.00  0.00    -0.100 C  
HETATM   11  C   UNL     1     -10.585   5.664  68.938  1.00  0.00    -0.233 C  
HETATM   12  C   UNL     1     -11.317   7.579  70.510  1.00  0.00    -0.279 C  
ENDROOT
BRANCH   1  13
HETATM   13  C   UNL     1      -9.630   5.461  73.660  1.00  0.00    -0.139 C  
HETATM   14  C   UNL     1      -8.534   6.180  74.436  1.00  0.00    -0.121 C  
HETATM   15  O   UNL     1     -10.882   5.979  74.093  1.00  0.00    -0.363 OA 
HETATM   16  H   UNL     1     -10.973   5.815  75.024  1.00  0.00     0.000 HD 
ENDBRANCH   1  13
BRANCH  11  17
HETATM   17  S   UNL     1     -10.844   6.455  67.432  1.00  0.00    -0.390 SA 
BRANCH  17  18
HETATM   18  C   UNL     1      -9.816   7.970  67.494  1.00  0.00    -0.172 C  
HETATM   19  C   UNL     1     -10.246   9.141  66.621  1.00  0.00    -0.258 C  
HETATM   20  N   UNL     1      -9.527   8.945  65.370  1.00  0.00    -0.454 NA 
HETATM   21  H   UNL     1      -9.455   9.801  64.819  1.00  0.00     0.000 HD 
HETATM   22  C   UNL     1      -8.206   8.355  65.690  1.00  0.00    -0.132 C  
HETATM   23  C   UNL     1      -8.366   7.746  67.086  1.00  0.00    -0.118 C  
BRANCH  22  24
HETATM   24  C   UNL     1      -7.787   7.365  64.563  1.00  0.00    -0.129 C  
HETATM   25  O   UNL     1      -8.271   6.227  64.511  1.00  0.00    -0.126 OA 
HETATM   26  N   UNL     1      -6.897   7.797  63.587  1.00  0.00    -0.062 N  
HETATM   27  C   UNL     1      -6.334   9.133  63.473  1.00  0.00    -0.090 C  
HETATM   28  C   UNL     1      -6.460   6.858  62.562  1.00  0.00    -0.047 C  
ENDBRANCH  22  24
ENDBRANCH  17  18
ENDBRANCH  11  17
TORSDOF 4
ENDMDL
MODEL      193
REMARK 921   NORMALIZED FREE ENERGY PREDICTED BY IDOCK:   -3.65 KCAL/MOL
REMARK 922        TOTAL FREE ENERGY PREDICTED BY IDOCK:   -5.47 KCAL/MOL
REMARK 923 INTER-LIGAND FREE ENERGY PREDICTED BY IDOCK:   -5.33 KCAL/MOL
REMARK 924 INTRA-LIGAND FREE ENERGY PREDICTED BY IDOCK:   -0.14 KCAL/MOL
REMARK 927      BINDING AFFINITY PREDICTED BY RF-SCORE:    0.00 PKD
ROOT
HETATM    1  C   UNL     1      -9.275   6.137  69.277  1.00  0.00    -0.134 C  
HETATM    2  C   UNL     1     -10.308   7.063  68.558  1.00  0.00    -0.186 C  
HETATM    3  C   UNL     1      -8.445   6.280  67.992  1.00  0.00    -0.117 C  
HETATM    4  N   UNL     1      -9.340   7.143  67.428  1.00  0.00    -0.125 N  
HETATM    5  C   UNL     1     -10.616   8.513  68.947  1.00  0.00    -0.166 C  
HETATM    6  O   UNL     1      -7.557   7.781  65.460  1.00  0.00    -0.076 OA 
HETATM    7  O   UNL     1      -7.382   5.906  67.556  1.00  0.00    -0.075 OA 
HETATM    8  C   UNL     1      -9.003   8.475  67.229  1.00  0.00    -0.129 C  
HETATM    9  O   UNL     1      -7.644   9.977  65.903  1.00  0.00    -0.104 OA 
HETATM   10  C   UNL     1      -8.000   8.841  66.176  1.00  0.00    -0.103 C  
HETATM   11  C   UNL     1      -9.688   9.298  68.048  1.00  0.00    -0.150 C  
HETATM   12  C   UNL     1     -10.471   8.739  70.445  1.00  0.00    -0.240 C  
ENDROOT
BRANCH   1  13
HETATM   13  C   UNL     1      -9.754   4.735  69.604  1.00  0.00    -0.202 C  
HETATM   14  C   UNL     1      -8.796   3.699  69.033  1.00  0.00    -0.156 C  
HETATM   15  O   UNL     1      -9.772   4.579  71.018  1.00  0.00    -0.164 OA 
HETATM   16  H   UNL     1     -10.072   3.701  71.223  1.00  0.00     0.000 HD 
ENDBRANCH   1  13
BRANCH  11  17
HETATM   17  S   UNL     1      -9.529  11.003  68.221  1.00  0.00    -0.178 SA 
BRANCH  17  18
HETATM   18  C   UNL     1     -10.539  11.726  66.875  1.00  0.00    -0.235 C  
HETATM   19  C   UNL     1      -9.794  12.358  65.707  1.00  0.00    -0.240 C  
HETATM   20  N   UNL     1      -9.652  13.758  66.080  1.00  0.00    -0.432 NA 
HETATM   21  H   UNL     1      -9.472  14.364  65.279  1.00  0.00     0.000 HD 
HETATM   22  C   UNL     1     -10.861  14.154  66.840  1.00  0.00    -0.296 C  
HETATM   23  C   UNL     1     -11.471  12.839  67.336  1.00  0.00    -0.396 C  
BRANCH  22  24
HETATM   24  C   UNL     1     -10.474  15.179  67.946  1.00  0.00    -0.245 C  
HETATM   25  O   UNL     1     -10.341  14.818  69.123  1.00  0.00    -0.235 OA 
HETATM   26  N   UNL     1     -10.230  16.499  67.583  1.00  0.00    -0.271 N  
HETATM   27  C   UNL     1     -10.251  17.031  66.230  1.00  0.00    -0.329 C  
HETATM   28  C   UNL     1      -9.920  17.473  68.621  1.00  0.00    -0.347 C  
ENDBRANCH  22  24
ENDBRANCH  17  18
ENDBRANCH  11  17
TORSDOF 4
ENDMDL
MODEL      194
REMARK 921   NORMALIZED FREE ENERGY PREDICTED BY IDOCK:   -3.62 KCAL/MOL
REMARK 922        TOTAL FREE ENERGY PREDICTED BY IDOCK:   -5.43 KCAL/MOL
REMARK 923 INTER-LIGAND FREE ENERGY PREDICTED BY IDOCK:   -4.26 KCAL/MOL
REMARK 924 INTRA-LIGAND FREE ENERGY PREDICTED BY IDOCK:   -1.17 KCAL/MOL
REMARK 927      BINDING AFFINITY PREDICTED BY RF-SCORE:    0.00 PKD
ROOT
HETATM    1  C   UNL     1      -9.366   5.580  71.679  1.00  0.00    -0.168 C  
HETATM    2  C   UNL     1     -10.080   5.033  70.401  1.00  0.00    -0.260 C  
HETATM    3  C   UNL     1      -8.069   5.406  70.874  1.00  0.00    -0.112 C  
HETATM    4  N   UNL     1      -8.737   5.000  69.755  1.00  0.00    -0.090 N  
HETATM    5  C   UNL     1     -10.972   5.857  69.467  1.00  0.00    -0.438 C  
HETATM    6  O   UNL     1      -6.474   5.270  68.249  1.00  0.00    -0.037 OA 
HETATM    7  O   UNL     1      -6.884   5.592  71.018  1.00  0.00    -0.053 OA 
HETATM    8  C   UNL     1      -8.771   5.806  68.624  1.00  0.00    -0.108 C  
HETATM    9  O   UNL     1      -7.448   6.661  66.786  1.00  0.00    -0.077 OA 
HETATM   10  C   UNL     1      -7.529   5.993  67.805  1.00  0.00    -0.085 C  
HETATM   11  C   UNL     1      -9.999   6.315  68.403  1.00  0.00    -0.140 C  
HETATM   12  C   UNL     1     -11.726   6.944  70.218  1.00  0.00    -0.344 C  
ENDROOT
BRANCH   1  13
HETATM   13  C   UNL     1      -9.491   4.725  72.927  1.00  0.00    -0.130 C  
HETATM   14  C   UNL     1     -10.327   3.485  72.640  1.00  0.00    -0.222 C  
HETATM   15  O   UNL     1      -8.192   4.295  73.315  1.00  0.00    -0.090 OA 
HETATM   16  H   UNL     1      -8.270   3.760  74.096  1.00  0.00     0.000 HD 
ENDBRANCH   1  13
BRANCH  11  17
HETATM   17  S   UNL     1     -10.486   7.433  67.188  1.00  0.00    -0.346 SA 
BRANCH  17  18
HETATM   18  C   UNL     1     -10.190   9.092  67.906  1.00  0.00    -0.216 C  
HETATM   19  C   UNL     1     -10.871  10.275  67.231  1.00  0.00    -0.250 C  
HETATM   20  N   UNL     1      -9.900  10.745  66.254  1.00  0.00    -0.207 NA 
HETATM   21  H   UNL     1     -10.070  11.707  65.960  1.00  0.00     0.000 HD 
HETATM   22  C   UNL     1      -8.546  10.549  66.825  1.00  0.00    -0.126 C  
HETATM   23  C   UNL     1      -8.724   9.501  67.926  1.00  0.00    -0.119 C  
BRANCH  22  24
HETATM   24  C   UNL     1      -7.547  10.177  65.690  1.00  0.00    -0.144 C  
HETATM   25  O   UNL     1      -7.911   9.483  64.731  1.00  0.00    -0.112 OA 
HETATM   26  N   UNL     1      -6.251  10.677  65.744  1.00  0.00    -0.131 N  
HETATM   27  C   UNL     1      -5.725  11.581  66.755  1.00  0.00    -0.139 C  
HETATM   28  C   UNL     1      -5.298  10.287  64.713  1.00  0.00    -0.120 C  
ENDBRANCH  22  24
ENDBRANCH  17  18
ENDBRANCH  11  17
TORSDOF 4
ENDMDL
MODEL      195
REMARK 921   NORMALIZED FREE ENERGY PREDICTED BY IDOCK:   -3.56 KCAL/MOL
REMARK 922        TOTAL FREE ENERGY PREDICTED BY IDOCK:   -5.36 KCAL/MOL
REMARK 923 INTER-LIGAND FREE ENERGY PREDICTED BY IDOCK:   -5.63 KCAL/MOL
REMARK 924 INTRA-LIGAND FREE ENERGY PREDICTED BY IDOCK:    0.27 KCAL/MOL
REMARK 927      BINDING AFFINITY PREDICTED BY RF-SCORE:    0.00 PKD
ROOT
HETATM    1  C   UNL     1      -9.471   9.798  69.753  1.00  0.00    -0.253 C  
HETATM    2  C   UNL     1     -10.110  10.310  68.422  1.00  0.00    -0.159 C  
HETATM    3  C   UNL     1      -8.127  10.134  69.087  1.00  0.00    -0.134 C  
HETATM    4  N   UNL     1      -8.728  10.638  67.970  1.00  0.00    -0.124 N  
HETATM    5  C   UNL     1     -10.917  11.604  68.270  1.00  0.00    -0.273 C  
HETATM    6  O   UNL     1      -6.364  11.712  67.125  1.00  0.00    -0.108 OA 
HETATM    7  O   UNL     1      -6.950  10.097  69.357  1.00  0.00    -0.058 OA 
HETATM    8  C   UNL     1      -8.666  11.997  67.690  1.00  0.00    -0.166 C  
HETATM    9  O   UNL     1      -7.202  13.786  66.970  1.00  0.00     0.031 OA 
HETATM   10  C   UNL     1      -7.368  12.611  67.258  1.00  0.00    -0.104 C  
HETATM   11  C   UNL     1      -9.863  12.599  67.835  1.00  0.00    -0.218 C  
HETATM   12  C   UNL     1     -11.693  11.938  69.536  1.00  0.00    -0.410 C  
ENDROOT
BRANCH   1  13
HETATM   13  C   UNL     1      -9.701   8.334  70.080  1.00  0.00    -0.176 C  
HETATM   14  C   UNL     1     -10.088   7.563  68.825  1.00  0.00    -0.191 C  
HETATM   15  O   UNL     1      -8.485   7.782  70.572  1.00  0.00    -0.124 OA 
HETATM   16  H   UNL     1      -8.629   6.866  70.777  1.00  0.00     0.000 HD 
ENDBRANCH   1  13
BRANCH  11  17
HETATM   17  S   UNL     1     -10.240  14.272  67.692  1.00  0.00    -0.238 SA 
BRANCH  17  18
HETATM   18  C   UNL     1     -11.004  14.459  66.037  1.00  0.00    -0.316 C  
HETATM   19  C   UNL     1     -12.422  13.933  65.861  1.00  0.00    -0.481 C  
HETATM   20  N   UNL     1     -12.246  12.562  65.404  1.00  0.00    -0.578 NA 
HETATM   21  H   UNL     1     -13.075  12.192  64.938  1.00  0.00     0.000 HD 
HETATM   22  C   UNL     1     -11.038  12.516  64.548  1.00  0.00    -0.317 C  
HETATM   23  C   UNL     1     -10.234  13.764  64.923  1.00  0.00    -0.374 C  
BRANCH  22  24
HETATM   24  C   UNL     1     -10.306  11.156  64.744  1.00  0.00    -0.325 C  
HETATM   25  O   UNL     1     -10.660  10.372  65.634  1.00  0.00    -0.157 OA 
HETATM   26  N   UNL     1      -9.280  10.812  63.871  1.00  0.00    -0.222 N  
HETATM   27  C   UNL     1      -8.835  11.591  62.727  1.00  0.00     0.050 C  
HETATM   28  C   UNL     1      -8.557   9.565  64.084  1.00  0.00    -0.201 C  
ENDBRANCH  22  24
ENDBRANCH  17  18
ENDBRANCH  11  17
TORSDOF 4
ENDMDL
MODEL      196
REMARK 921   NORMALIZED FREE ENERGY PREDICTED BY IDOCK:   -3.55 KCAL/MOL
REMARK 922        TOTAL FREE ENERGY PREDICTED BY IDOCK:   -5.35 KCAL/MOL
REMARK 923 INTER-LIGAND FREE ENERGY PREDICTED BY IDOCK:   -3.97 KCAL/MOL
REMARK 924 INTRA-LIGAND FREE ENERGY PREDICTED BY IDOCK:   -1.38 KCAL/MOL
REMARK 927      BINDING AFFINITY PREDICTED BY RF-SCORE:    0.00 PKD
ROOT
HETATM    1  C   UNL     1     -10.559   8.044  70.022  1.00  0.00    -0.242 C  
HETATM    2  C   UNL     1      -9.387   7.698  69.048  1.00  0.00    -0.146 C  
HETATM    3  C   UNL     1      -9.456   8.524  70.977  1.00  0.00    -0.186 C  
HETATM    4  N   UNL     1      -8.467   8.273  70.070  1.00  0.00    -0.121 N  
HETATM    5  C   UNL     1      -9.075   8.436  67.742  1.00  0.00    -0.142 C  
HETATM    6  O   UNL     1      -6.663   9.658  71.583  1.00  0.00    -0.307 OA 
HETATM    7  O   UNL     1      -9.363   9.019  72.075  1.00  0.00    -0.358 OA 
HETATM    8  C   UNL     1      -7.762   9.320  69.489  1.00  0.00    -0.084 C  
HETATM    9  O   UNL     1      -6.109  11.038  69.906  1.00  0.00    -0.083 OA 
HETATM   10  C   UNL     1      -6.793  10.113  70.314  1.00  0.00    -0.148 C  
HETATM   11  C   UNL     1      -8.054   9.463  68.182  1.00  0.00    -0.110 C  
HETATM   12  C   UNL     1     -10.337   8.968  67.078  1.00  0.00    -0.339 C  
ENDROOT
BRANCH   1  13
HETATM   13  C   UNL     1     -11.390   6.870  70.506  1.00  0.00    -0.327 C  
HETATM   14  C   UNL     1     -10.998   5.600  69.764  1.00  0.00    -0.301 C  
HETATM   15  O   UNL     1     -11.126   6.666  71.889  1.00  0.00    -0.236 OA 
HETATM   16  H   UNL     1     -11.646   5.931  72.192  1.00  0.00     0.000 HD 
ENDBRANCH   1  13
BRANCH  11  17
HETATM   17  S   UNL     1      -7.501  10.675  67.093  1.00  0.00    -0.103 SA 
BRANCH  17  18
HETATM   18  C   UNL     1      -5.897  10.061  66.454  1.00  0.00    -0.060 C  
HETATM   19  C   UNL     1      -5.507  10.471  65.040  1.00  0.00    -0.147 C  
HETATM   20  N   UNL     1      -6.024   9.403  64.197  1.00  0.00    -0.075 NA 
HETATM   21  H   UNL     1      -5.569   9.366  63.284  1.00  0.00     0.000 HD 
HETATM   22  C   UNL     1      -5.909   8.131  64.948  1.00  0.00    -0.045 C  
HETATM   23  C   UNL     1      -5.790   8.543  66.418  1.00  0.00    -0.047 C  
BRANCH  22  24
HETATM   24  C   UNL     1      -7.112   7.205  64.600  1.00  0.00    -0.061 C  
HETATM   25  O   UNL     1      -8.221   7.686  64.333  1.00  0.00    -0.122 OA 
HETATM   26  N   UNL     1      -6.908   5.831  64.544  1.00  0.00    -0.049 N  
HETATM   27  C   UNL     1      -5.640   5.146  64.734  1.00  0.00    -0.013 C  
HETATM   28  C   UNL     1      -8.043   4.958  64.271  1.00  0.00    -0.115 C  
ENDBRANCH  22  24
ENDBRANCH  17  18
ENDBRANCH  11  17
TORSDOF 4
ENDMDL
MODEL      197
REMARK 921   NORMALIZED FREE ENERGY PREDICTED BY IDOCK:   -3.54 KCAL/MOL
REMARK 922        TOTAL FREE ENERGY PREDICTED BY IDOCK:   -5.34 KCAL/MOL
REMARK 923 INTER-LIGAND FREE ENERGY PREDICTED BY IDOCK:   -5.05 KCAL/MOL
REMARK 924 INTRA-LIGAND FREE ENERGY PREDICTED BY IDOCK:   -0.29 KCAL/MOL
REMARK 927      BINDING AFFINITY PREDICTED BY RF-SCORE:    0.00 PKD
ROOT
HETATM    1  C   UNL     1      -8.552   4.719  67.627  1.00  0.00    -0.103 C  
HETATM    2  C   UNL     1      -9.563   5.350  66.617  1.00  0.00    -0.151 C  
HETATM    3  C   UNL     1      -7.485   5.519  66.862  1.00  0.00    -0.088 C  
HETATM    4  N   UNL     1      -8.411   6.103  66.046  1.00  0.00    -0.130 N  
HETATM    5  C   UNL     1     -10.619   6.405  66.966  1.00  0.00    -0.396 C  
HETATM    6  O   UNL     1      -6.553   7.890  65.141  1.00  0.00    -0.047 OA 
HETATM    7  O   UNL     1      -6.293   5.711  66.908  1.00  0.00    -0.033 OA 
HETATM    8  C   UNL     1      -8.678   7.462  66.145  1.00  0.00    -0.156 C  
HETATM    9  O   UNL     1      -7.790   9.672  65.708  1.00  0.00    -0.102 OA 
HETATM   10  C   UNL     1      -7.656   8.459  65.685  1.00  0.00    -0.089 C  
HETATM   11  C   UNL     1      -9.904   7.701  66.650  1.00  0.00    -0.213 C  
HETATM   12  C   UNL     1     -11.136   6.239  68.387  1.00  0.00    -0.371 C  
ENDROOT
BRANCH   1  13
HETATM   13  C   UNL     1      -8.414   3.209  67.572  1.00  0.00    -0.091 C  
HETATM   14  C   UNL     1      -9.107   2.656  66.334  1.00  0.00    -0.124 C  
HETATM   15  O   UNL     1      -7.032   2.882  67.480  1.00  0.00    -0.048 OA 
HETATM   16  H   UNL     1      -6.945   1.937  67.445  1.00  0.00     0.000 HD 
ENDBRANCH   1  13
BRANCH  11  17
HETATM   17  S   UNL     1     -10.619   9.218  67.039  1.00  0.00    -0.128 SA 
BRANCH  17  18
HETATM   18  C   UNL     1      -9.627   9.883  68.427  1.00  0.00    -0.148 C  
HETATM   19  C   UNL     1      -9.038   8.877  69.408  1.00  0.00    -0.145 C  
HETATM   20  N   UNL     1     -10.047   8.754  70.451  1.00  0.00    -0.186 NA 
HETATM   21  H   UNL     1      -9.670   8.379  71.322  1.00  0.00     0.000 HD 
HETATM   22  C   UNL     1     -10.688  10.078  70.625  1.00  0.00    -0.254 C  
HETATM   23  C   UNL     1     -10.394  10.839  69.329  1.00  0.00    -0.228 C  
BRANCH  22  24
HETATM   24  C   UNL     1     -12.195   9.890  70.973  1.00  0.00    -0.353 C  
HETATM   25  O   UNL     1     -13.066  10.531  70.370  1.00  0.00    -0.279 OA 
HETATM   26  N   UNL     1     -12.550   8.953  71.936  1.00  0.00    -0.350 N  
HETATM   27  C   UNL     1     -11.640   8.066  72.643  1.00  0.00    -0.387 C  
HETATM   28  C   UNL     1     -13.953   8.812  72.303  1.00  0.00    -0.447 C  
ENDBRANCH  22  24
ENDBRANCH  17  18
ENDBRANCH  11  17
TORSDOF 4
ENDMDL
MODEL      198
REMARK 921   NORMALIZED FREE ENERGY PREDICTED BY IDOCK:   -3.47 KCAL/MOL
REMARK 922        TOTAL FREE ENERGY PREDICTED BY IDOCK:   -5.25 KCAL/MOL
REMARK 923 INTER-LIGAND FREE ENERGY PREDICTED BY IDOCK:   -4.45 KCAL/MOL
REMARK 924 INTRA-LIGAND FREE ENERGY PREDICTED BY IDOCK:   -0.80 KCAL/MOL
REMARK 927      BINDING AFFINITY PREDICTED BY RF-SCORE:    0.00 PKD
ROOT
HETATM    1  C   UNL     1     -11.101  12.564  67.570  1.00  0.00    -0.311 C  
HETATM    2  C   UNL     1     -10.261  12.062  68.788  1.00  0.00    -0.129 C  
HETATM    3  C   UNL     1      -9.800  13.244  67.116  1.00  0.00    -0.237 C  
HETATM    4  N   UNL     1      -9.085  12.726  68.157  1.00  0.00    -0.202 N  
HETATM    5  C   UNL     1      -9.839  10.609  69.031  1.00  0.00    -0.218 C  
HETATM    6  O   UNL     1      -6.738  13.481  66.983  1.00  0.00    -0.048 OA 
HETATM    7  O   UNL     1      -9.407  13.920  66.195  1.00  0.00    -0.213 OA 
HETATM    8  C   UNL     1      -8.106  11.768  67.931  1.00  0.00    -0.144 C  
HETATM    9  O   UNL     1      -5.891  11.406  67.024  1.00  0.00    -0.078 OA 
HETATM   10  C   UNL     1      -6.824  12.157  67.256  1.00  0.00    -0.149 C  
HETATM   11  C   UNL     1      -8.464  10.557  68.401  1.00  0.00    -0.128 C  
HETATM   12  C   UNL     1     -10.871   9.624  68.501  1.00  0.00    -0.202 C  
ENDROOT
BRANCH   1  13
HETATM   13  C   UNL     1     -12.255  13.494  67.898  1.00  0.00    -0.133 C  
HETATM   14  C   UNL     1     -12.034  14.162  69.248  1.00  0.00    -0.382 C  
HETATM   15  O   UNL     1     -12.310  14.516  66.909  1.00  0.00    -0.535 OA 
HETATM   16  H   UNL     1     -13.032  15.098  67.114  1.00  0.00     0.000 HD 
ENDBRANCH   1  13
BRANCH  11  17
HETATM   17  S   UNL     1      -7.617   9.065  68.259  1.00  0.00    -0.092 SA 
BRANCH  17  18
HETATM   18  C   UNL     1      -7.820   8.555  66.512  1.00  0.00    -0.096 C  
HETATM   19  C   UNL     1      -9.238   8.293  66.023  1.00  0.00    -0.166 C  
HETATM   20  N   UNL     1      -9.446   6.871  66.254  1.00  0.00    -0.348 NA 
HETATM   21  H   UNL     1     -10.205   6.486  65.691  1.00  0.00     0.000 HD 
HETATM   22  C   UNL     1      -8.156   6.178  66.029  1.00  0.00    -0.118 C  
HETATM   23  C   UNL     1      -7.088   7.268  66.159  1.00  0.00    -0.070 C  
BRANCH  22  24
HETATM   24  C   UNL     1      -8.024   4.980  67.015  1.00  0.00    -0.103 C  
HETATM   25  O   UNL     1      -7.893   5.175  68.230  1.00  0.00    -0.086 OA 
HETATM   26  N   UNL     1      -8.107   3.686  66.514  1.00  0.00    -0.095 N  
HETATM   27  C   UNL     1      -8.359   3.318  65.130  1.00  0.00    -0.095 C  
HETATM   28  C   UNL     1      -7.930   2.562  67.425  1.00  0.00    -0.069 C  
ENDBRANCH  22  24
ENDBRANCH  17  18
ENDBRANCH  11  17
TORSDOF 4
ENDMDL
MODEL      199
REMARK 921   NORMALIZED FREE ENERGY PREDICTED BY IDOCK:   -3.41 KCAL/MOL
REMARK 922        TOTAL FREE ENERGY PREDICTED BY IDOCK:   -5.18 KCAL/MOL
REMARK 923 INTER-LIGAND FREE ENERGY PREDICTED BY IDOCK:   -4.24 KCAL/MOL
REMARK 924 INTRA-LIGAND FREE ENERGY PREDICTED BY IDOCK:   -0.95 KCAL/MOL
REMARK 927      BINDING AFFINITY PREDICTED BY RF-SCORE:    0.00 PKD
ROOT
HETATM    1  C   UNL     1      -6.933  11.045  68.736  1.00  0.00    -0.081 C  
HETATM    2  C   UNL     1      -8.352  11.134  68.088  1.00  0.00    -0.136 C  
HETATM    3  C   UNL     1      -7.641  10.299  69.877  1.00  0.00    -0.143 C  
HETATM    4  N   UNL     1      -8.850  10.336  69.244  1.00  0.00    -0.175 N  
HETATM    5  C   UNL     1      -8.800  10.376  66.833  1.00  0.00    -0.141 C  
HETATM    6  O   UNL     1      -9.886   8.533  71.014  1.00  0.00    -0.175 OA 
HETATM    7  O   UNL     1      -7.356   9.768  70.925  1.00  0.00    -0.321 OA 
HETATM    8  C   UNL     1      -9.426   9.169  68.759  1.00  0.00    -0.147 C  
HETATM    9  O   UNL     1     -10.512   7.104  69.404  1.00  0.00    -0.209 OA 
HETATM   10  C   UNL     1      -9.970   8.152  69.718  1.00  0.00    -0.191 C  
HETATM   11  C   UNL     1      -9.434   9.130  67.412  1.00  0.00    -0.143 C  
HETATM   12  C   UNL     1      -7.650  10.169  65.858  1.00  0.00    -0.128 C  
ENDROOT
BRANCH   1  13
HETATM   13  C   UNL     1      -6.289  12.368  69.109  1.00  0.00    -0.095 C  
HETATM   14  C   UNL     1      -7.010  13.522  68.426  1.00  0.00    -0.105 C  
HETATM   15  O   UNL     1      -6.407  12.551  70.515  1.00  0.00    -0.489 OA 
HETATM   16  H   UNL     1      -6.004  13.378  70.748  1.00  0.00     0.000 HD 
ENDBRANCH   1  13
BRANCH  11  17
HETATM   17  S   UNL     1      -9.954   7.850  66.386  1.00  0.00    -0.029 SA 
BRANCH  17  18
HETATM   18  C   UNL     1      -8.550   6.674  66.325  1.00  0.00    -0.138 C  
HETATM   19  C   UNL     1      -7.693   6.677  65.066  1.00  0.00    -0.103 C  
HETATM   20  N   UNL     1      -8.308   5.676  64.206  1.00  0.00    -0.227 NA 
HETATM   21  H   UNL     1      -7.674   5.334  63.483  1.00  0.00     0.000 HD 
HETATM   22  C   UNL     1      -8.833   4.591  65.069  1.00  0.00    -0.146 C  
HETATM   23  C   UNL     1      -8.963   5.216  66.461  1.00  0.00    -0.118 C  
BRANCH  22  24
HETATM   24  C   UNL     1     -10.146   4.022  64.456  1.00  0.00    -0.200 C  
HETATM   25  O   UNL     1     -11.250   4.401  64.869  1.00  0.00    -0.264 OA 
HETATM   26  N   UNL     1     -10.060   3.119  63.403  1.00  0.00    -0.143 N  
HETATM   27  C   UNL     1      -8.836   2.671  62.759  1.00  0.00    -0.085 C  
HETATM   28  C   UNL     1     -11.285   2.544  62.863  1.00  0.00    -0.107 C  
ENDBRANCH  22  24
ENDBRANCH  17  18
ENDBRANCH  11  17
TORSDOF 4
ENDMDL
MODEL      200
REMARK 921   NORMALIZED FREE ENERGY PREDICTED BY IDOCK:   -3.40 KCAL/MOL
REMARK 922        TOTAL FREE ENERGY PREDICTED BY IDOCK:   -5.16 KCAL/MOL
REMARK 923 INTER-LIGAND FREE ENERGY PREDICTED BY IDOCK:   -4.69 KCAL/MOL
REMARK 924 INTRA-LIGAND FREE ENERGY PREDICTED BY IDOCK:   -0.47 KCAL/MOL
REMARK 927      BINDING AFFINITY PREDICTED BY RF-SCORE:    0.00 PKD
ROOT
HETATM    1  C   UNL     1      -8.696  10.557  68.127  1.00  0.00    -0.130 C  
HETATM    2  C   UNL     1     -10.105  10.145  67.593  1.00  0.00    -0.190 C  
HETATM    3  C   UNL     1      -9.176   9.980  69.468  1.00  0.00    -0.221 C  
HETATM    4  N   UNL     1     -10.369   9.573  68.944  1.00  0.00    -0.202 N  
HETATM    5  C   UNL     1     -10.377   9.011  66.599  1.00  0.00    -0.289 C  
HETATM    6  O   UNL     1     -10.896   8.088  71.175  1.00  0.00    -0.232 OA 
HETATM    7  O   UNL     1      -8.749   9.815  70.586  1.00  0.00    -0.164 OA 
HETATM    8  C   UNL     1     -10.650   8.220  68.803  1.00  0.00    -0.123 C  
HETATM    9  O   UNL     1     -11.182   6.192  70.014  1.00  0.00    -0.365 OA 
HETATM   10  C   UNL     1     -10.909   7.382  70.020  1.00  0.00    -0.252 C  
HETATM   11  C   UNL     1     -10.675   7.840  67.511  1.00  0.00    -0.195 C  
HETATM   12  C   UNL     1      -9.232   8.836  65.613  1.00  0.00    -0.244 C  
ENDROOT
BRANCH   1  13
HETATM   13  C   UNL     1      -8.389  12.043  68.116  1.00  0.00    -0.165 C  
HETATM   14  C   UNL     1      -9.676  12.852  68.198  1.00  0.00    -0.227 C  
HETATM   15  O   UNL     1      -7.605  12.353  69.262  1.00  0.00    -0.324 OA 
HETATM   16  H   UNL     1      -7.413  13.284  69.255  1.00  0.00     0.000 HD 
ENDBRANCH   1  13
BRANCH  11  17
HETATM   17  S   UNL     1     -10.884   6.257  66.869  1.00  0.00    -0.303 SA 
BRANCH  17  18
HETATM   18  C   UNL     1      -9.469   5.283  67.505  1.00  0.00    -0.125 C  
HETATM   19  C   UNL     1      -8.092   5.933  67.445  1.00  0.00    -0.102 C  
HETATM   20  N   UNL     1      -7.548   5.511  66.162  1.00  0.00    -0.089 NA 
HETATM   21  H   UNL     1      -6.531   5.590  66.120  1.00  0.00     0.000 HD 
HETATM   22  C   UNL     1      -8.029   4.135  65.891  1.00  0.00    -0.094 C  
HETATM   23  C   UNL     1      -9.260   3.959  66.785  1.00  0.00    -0.186 C  
BRANCH  22  24
HETATM   24  C   UNL     1      -8.270   3.955  64.363  1.00  0.00    -0.090 C  
HETATM   25  O   UNL     1      -7.951   4.846  63.565  1.00  0.00    -0.082 OA 
HETATM   26  N   UNL     1      -8.803   2.756  63.904  1.00  0.00    -0.089 N  
HETATM   27  C   UNL     1      -9.125   1.596  64.719  1.00  0.00    -0.123 C  
HETATM   28  C   UNL     1      -9.080   2.604  62.482  1.00  0.00    -0.084 C  
ENDBRANCH  22  24
ENDBRANCH  17  18
ENDBRANCH  11  17
TORSDOF 4
ENDMDL
MODEL      201
REMARK 921   NORMALIZED FREE ENERGY PREDICTED BY IDOCK:   -3.38 KCAL/MOL
REMARK 922        TOTAL FREE ENERGY PREDICTED BY IDOCK:   -5.14 KCAL/MOL
REMARK 923 INTER-LIGAND FREE ENERGY PREDICTED BY IDOCK:   -4.53 KCAL/MOL
REMARK 924 INTRA-LIGAND FREE ENERGY PREDICTED BY IDOCK:   -0.61 KCAL/MOL
REMARK 927      BINDING AFFINITY PREDICTED BY RF-SCORE:    0.00 PKD
ROOT
HETATM    1  C   UNL     1      -9.063   9.714  66.576  1.00  0.00    -0.185 C  
HETATM    2  C   UNL     1     -10.427   8.966  66.723  1.00  0.00    -0.199 C  
HETATM    3  C   UNL     1      -9.481  10.464  67.851  1.00  0.00    -0.138 C  
HETATM    4  N   UNL     1     -10.630   9.738  67.982  1.00  0.00    -0.230 N  
HETATM    5  C   UNL     1     -10.589   7.491  67.107  1.00  0.00    -0.415 C  
HETATM    6  O   UNL     1     -11.004  10.701  70.511  1.00  0.00    -0.225 OA 
HETATM    7  O   UNL     1      -9.037  11.311  68.588  1.00  0.00    -0.172 OA 
HETATM    8  C   UNL     1     -10.778   8.840  69.031  1.00  0.00    -0.112 C  
HETATM    9  O   UNL     1     -11.107   8.656  71.423  1.00  0.00    -0.241 OA 
HETATM   10  C   UNL     1     -10.951   9.350  70.431  1.00  0.00    -0.266 C  
HETATM   11  C   UNL     1     -10.768   7.561  68.607  1.00  0.00    -0.077 C  
HETATM   12  C   UNL     1      -9.434   6.644  66.594  1.00  0.00    -0.201 C  
ENDROOT
BRANCH   1  13
HETATM   13  C   UNL     1      -8.903  10.565  65.329  1.00  0.00    -0.188 C  
HETATM   14  C   UNL     1     -10.123  10.426  64.431  1.00  0.00    -0.342 C  
HETATM   15  O   UNL     1      -8.802  11.929  65.720  1.00  0.00    -0.402 OA 
HETATM   16  H   UNL     1      -8.702  12.461  64.940  1.00  0.00     0.000 HD 
ENDBRANCH   1  13
BRANCH  11  17
HETATM   17  S   UNL     1     -10.823   6.124  69.554  1.00  0.00    -0.394 SA 
BRANCH  17  18
HETATM   18  C   UNL     1      -9.211   6.050  70.420  1.00  0.00    -0.156 C  
HETATM   19  C   UNL     1      -8.142   7.045  69.988  1.00  0.00    -0.128 C  
HETATM   20  N   UNL     1      -7.392   6.346  68.954  1.00  0.00    -0.084 NA 
HETATM   21  H   UNL     1      -6.464   6.743  68.803  1.00  0.00     0.000 HD 
HETATM   22  C   UNL     1      -7.349   4.908  69.313  1.00  0.00    -0.056 C  
HETATM   23  C   UNL     1      -8.507   4.706  70.295  1.00  0.00    -0.090 C  
BRANCH  22  24
HETATM   24  C   UNL     1      -7.400   4.043  68.019  1.00  0.00    -0.063 C  
HETATM   25  O   UNL     1      -8.320   3.235  67.836  1.00  0.00    -0.081 OA 
HETATM   26  N   UNL     1      -6.422   4.228  67.048  1.00  0.00    -0.041 N  
HETATM   27  C   UNL     1      -5.349   5.209  67.091  1.00  0.00    -0.012 C  
HETATM   28  C   UNL     1      -6.434   3.383  65.861  1.00  0.00    -0.033 C  
ENDBRANCH  22  24
ENDBRANCH  17  18
ENDBRANCH  11  17
TORSDOF 4
ENDMDL
MODEL      202
REMARK 921   NORMALIZED FREE ENERGY PREDICTED BY IDOCK:   -3.36 KCAL/MOL
REMARK 922        TOTAL FREE ENERGY PREDICTED BY IDOCK:   -5.12 KCAL/MOL
REMARK 923 INTER-LIGAND FREE ENERGY PREDICTED BY IDOCK:   -5.77 KCAL/MOL
REMARK 924 INTRA-LIGAND FREE ENERGY PREDICTED BY IDOCK:    0.66 KCAL/MOL
REMARK 927      BINDING AFFINITY PREDICTED BY RF-SCORE:    0.00 PKD
ROOT
HETATM    1  C   UNL     1     -10.389  16.547  66.769  1.00  0.00    -0.296 C  
HETATM    2  C   UNL     1      -9.424  15.401  67.211  1.00  0.00    -0.210 C  
HETATM    3  C   UNL     1     -10.427  15.821  65.415  1.00  0.00    -0.414 C  
HETATM    4  N   UNL     1      -9.639  14.801  65.863  1.00  0.00    -0.307 N  
HETATM    5  C   UNL     1      -9.766  14.298  68.218  1.00  0.00    -0.221 C  
HETATM    6  O   UNL     1     -10.223  13.313  63.648  1.00  0.00    -0.091 OA 
HETATM    7  O   UNL     1     -10.960  15.944  64.338  1.00  0.00    -0.489 OA 
HETATM    8  C   UNL     1     -10.163  13.525  66.027  1.00  0.00    -0.305 C  
HETATM    9  O   UNL     1     -10.971  11.572  64.846  1.00  0.00    -0.298 OA 
HETATM   10  C   UNL     1     -10.522  12.707  64.822  1.00  0.00    -0.320 C  
HETATM   11  C   UNL     1     -10.257  13.179  67.325  1.00  0.00    -0.243 C  
HETATM   12  C   UNL     1     -10.727  14.789  69.290  1.00  0.00    -0.263 C  
ENDROOT
BRANCH   1  13
HETATM   13  C   UNL     1      -9.798  17.945  66.754  1.00  0.00    -0.333 C  
HETATM   14  C   UNL     1     -10.710  18.916  67.490  1.00  0.00    -0.509 C  
HETATM   15  O   UNL     1      -8.550  17.917  67.437  1.00  0.00    -0.235 OA 
HETATM   16  H   UNL     1      -8.180  18.792  67.427  1.00  0.00     0.000 HD 
ENDBRANCH   1  13
BRANCH  11  17
HETATM   17  S   UNL     1     -10.933  11.747  68.001  1.00  0.00    -0.244 SA 
BRANCH  17  18
HETATM   18  C   UNL     1      -9.600  11.014  69.022  1.00  0.00    -0.121 C  
HETATM   19  C   UNL     1      -8.196  11.578  68.843  1.00  0.00    -0.017 C  
HETATM   20  N   UNL     1      -7.596  10.739  67.816  1.00  0.00    -0.094 NA 
HETATM   21  H   UNL     1      -6.576  10.778  67.820  1.00  0.00     0.000 HD 
HETATM   22  C   UNL     1      -8.118   9.362  67.986  1.00  0.00    -0.106 C  
HETATM   23  C   UNL     1      -9.406   9.521  68.800  1.00  0.00    -0.146 C  
BRANCH  22  24
HETATM   24  C   UNL     1      -8.277   8.685  66.593  1.00  0.00    -0.107 C  
HETATM   25  O   UNL     1      -8.817   7.576  66.489  1.00  0.00    -0.134 OA 
HETATM   26  N   UNL     1      -7.848   9.368  65.461  1.00  0.00    -0.102 N  
HETATM   27  C   UNL     1      -7.293  10.712  65.432  1.00  0.00    -0.020 C  
HETATM   28  C   UNL     1      -7.945   8.716  64.162  1.00  0.00    -0.149 C  
ENDBRANCH  22  24
ENDBRANCH  17  18
ENDBRANCH  11  17
TORSDOF 4
ENDMDL
MODEL      203
REMARK 921   NORMALIZED FREE ENERGY PREDICTED BY IDOCK:   -3.32 KCAL/MOL
REMARK 922        TOTAL FREE ENERGY PREDICTED BY IDOCK:   -5.07 KCAL/MOL
REMARK 923 INTER-LIGAND FREE ENERGY PREDICTED BY IDOCK:   -5.42 KCAL/MOL
REMARK 924 INTRA-LIGAND FREE ENERGY PREDICTED BY IDOCK:    0.35 KCAL/MOL
REMARK 927      BINDING AFFINITY PREDICTED BY RF-SCORE:    0.00 PKD
ROOT
HETATM    1  C   UNL     1     -11.276  14.035  67.811  1.00  0.00    -0.302 C  
HETATM    2  C   UNL     1      -9.862  13.864  67.169  1.00  0.00    -0.241 C  
HETATM    3  C   UNL     1     -11.796  14.006  66.365  1.00  0.00    -0.418 C  
HETATM    4  N   UNL     1     -10.551  13.787  65.849  1.00  0.00    -0.284 N  
HETATM    5  C   UNL     1      -8.996  12.603  67.262  1.00  0.00    -0.194 C  
HETATM    6  O   UNL     1     -11.617  13.184  63.408  1.00  0.00    -0.420 OA 
HETATM    7  O   UNL     1     -12.853  14.061  65.783  1.00  0.00    -0.516 OA 
HETATM    8  C   UNL     1     -10.239  12.569  65.259  1.00  0.00    -0.282 C  
HETATM    9  O   UNL     1     -10.625  11.175  63.318  1.00  0.00    -0.343 OA 
HETATM   10  C   UNL     1     -10.842  12.206  63.935  1.00  0.00    -0.406 C  
HETATM   11  C   UNL     1      -9.366  11.857  65.999  1.00  0.00    -0.206 C  
HETATM   12  C   UNL     1      -9.206  11.868  68.577  1.00  0.00    -0.136 C  
ENDROOT
BRANCH   1  13
HETATM   13  C   UNL     1     -11.508  15.326  68.573  1.00  0.00    -0.342 C  
HETATM   14  C   UNL     1     -10.443  15.509  69.646  1.00  0.00    -0.289 C  
HETATM   15  O   UNL     1     -11.402  16.416  67.664  1.00  0.00    -0.145 OA 
HETATM   16  H   UNL     1     -11.547  17.224  68.141  1.00  0.00     0.000 HD 
ENDBRANCH   1  13
BRANCH  11  17
HETATM   17  S   UNL     1      -8.777  10.265  65.713  1.00  0.00    -0.163 SA 
BRANCH  17  18
HETATM   18  C   UNL     1      -6.964  10.443  65.524  1.00  0.00    -0.134 C  
HETATM   19  C   UNL     1      -6.364  10.073  64.174  1.00  0.00    -0.132 C  
HETATM   20  N   UNL     1      -6.010   8.667  64.307  1.00  0.00    -0.066 NA 
HETATM   21  H   UNL     1      -5.316   8.369  63.621  1.00  0.00     0.000 HD 
HETATM   22  C   UNL     1      -5.574   8.435  65.704  1.00  0.00    -0.043 C  
HETATM   23  C   UNL     1      -6.158   9.603  66.505  1.00  0.00    -0.060 C  
BRANCH  22  24
HETATM   24  C   UNL     1      -6.014   7.013  66.162  1.00  0.00    -0.035 C  
HETATM   25  O   UNL     1      -5.489   6.477  67.146  1.00  0.00    -0.011 OA 
HETATM   26  N   UNL     1      -7.043   6.376  65.478  1.00  0.00    -0.063 N  
HETATM   27  C   UNL     1      -7.810   6.932  64.375  1.00  0.00    -0.112 C  
HETATM   28  C   UNL     1      -7.421   5.024  65.869  1.00  0.00    -0.082 C  
ENDBRANCH  22  24
ENDBRANCH  17  18
ENDBRANCH  11  17
TORSDOF 4
ENDMDL
MODEL      204
REMARK 921   NORMALIZED FREE ENERGY PREDICTED BY IDOCK:   -3.29 KCAL/MOL
REMARK 922        TOTAL FREE ENERGY PREDICTED BY IDOCK:   -5.03 KCAL/MOL
REMARK 923 INTER-LIGAND FREE ENERGY PREDICTED BY IDOCK:   -4.42 KCAL/MOL
REMARK 924 INTRA-LIGAND FREE ENERGY PREDICTED BY IDOCK:   -0.61 KCAL/MOL
REMARK 927      BINDING AFFINITY PREDICTED BY RF-SCORE:    0.00 PKD
ROOT
HETATM    1  C   UNL     1      -9.816  15.396  66.115  1.00  0.00    -0.337 C  
HETATM    2  C   UNL     1      -9.810  14.583  67.449  1.00  0.00    -0.227 C  
HETATM    3  C   UNL     1      -8.483  15.978  66.611  1.00  0.00    -0.288 C  
HETATM    4  N   UNL     1      -8.481  15.196  67.731  1.00  0.00    -0.145 N  
HETATM    5  C   UNL     1      -9.603  13.068  67.560  1.00  0.00    -0.204 C  
HETATM    6  O   UNL     1      -5.878  15.848  68.238  1.00  0.00    -0.098 OA 
HETATM    7  O   UNL     1      -7.637  16.752  66.232  1.00  0.00    -0.291 OA 
HETATM    8  C   UNL     1      -7.547  14.179  67.878  1.00  0.00    -0.158 C  
HETATM    9  O   UNL     1      -5.208  13.709  68.284  1.00  0.00    -0.091 OA 
HETATM   10  C   UNL     1      -6.107  14.518  68.122  1.00  0.00    -0.143 C  
HETATM   11  C   UNL     1      -8.112  12.958  67.796  1.00  0.00    -0.166 C  
HETATM   12  C   UNL     1     -10.160  12.331  66.351  1.00  0.00    -0.245 C  
ENDROOT
BRANCH   1  13
HETATM   13  C   UNL     1     -10.951  16.389  65.947  1.00  0.00     0.003 C  
HETATM   14  C   UNL     1     -10.773  17.565  66.898  1.00  0.00    -0.127 C  
HETATM   15  O   UNL     1     -10.920  16.895  64.618  1.00  0.00    -0.894 OA 
HETATM   16  H   UNL     1     -11.630  17.517  64.513  1.00  0.00     0.000 HD 
ENDBRANCH   1  13
BRANCH  11  17
HETATM   17  S   UNL     1      -7.337  11.421  67.822  1.00  0.00    -0.104 SA 
BRANCH  17  18
HETATM   18  C   UNL     1      -7.241  10.954  69.591  1.00  0.00    -0.095 C  
HETATM   19  C   UNL     1      -5.888  10.492  70.117  1.00  0.00    -0.080 C  
HETATM   20  N   UNL     1      -5.905   9.047  69.942  1.00  0.00    -0.031 NA 
HETATM   21  H   UNL     1      -5.224   8.570  70.534  1.00  0.00     0.000 HD 
HETATM   22  C   UNL     1      -7.291   8.575  70.168  1.00  0.00    -0.051 C  
HETATM   23  C   UNL     1      -8.172   9.813  69.977  1.00  0.00    -0.207 C  
BRANCH  22  24
HETATM   24  C   UNL     1      -7.597   7.375  69.224  1.00  0.00    -0.101 C  
HETATM   25  O   UNL     1      -7.931   7.567  68.047  1.00  0.00    -0.119 OA 
HETATM   26  N   UNL     1      -7.440   6.082  69.709  1.00  0.00    -0.078 N  
HETATM   27  C   UNL     1      -6.958   5.717  71.032  1.00  0.00    -0.066 C  
HETATM   28  C   UNL     1      -7.776   4.956  68.846  1.00  0.00    -0.073 C  
ENDBRANCH  22  24
ENDBRANCH  17  18
ENDBRANCH  11  17
TORSDOF 4
ENDMDL
MODEL      205
REMARK 921   NORMALIZED FREE ENERGY PREDICTED BY IDOCK:   -3.28 KCAL/MOL
REMARK 922        TOTAL FREE ENERGY PREDICTED BY IDOCK:   -5.02 KCAL/MOL
REMARK 923 INTER-LIGAND FREE ENERGY PREDICTED BY IDOCK:   -4.24 KCAL/MOL
REMARK 924 INTRA-LIGAND FREE ENERGY PREDICTED BY IDOCK:   -0.77 KCAL/MOL
REMARK 927      BINDING AFFINITY PREDICTED BY RF-SCORE:    0.00 PKD
ROOT
HETATM    1  C   UNL     1      -9.586  11.142  66.117  1.00  0.00    -0.239 C  
HETATM    2  C   UNL     1     -10.272  10.773  67.472  1.00  0.00    -0.196 C  
HETATM    3  C   UNL     1      -8.482  11.758  66.991  1.00  0.00    -0.175 C  
HETATM    4  N   UNL     1      -9.079  11.355  68.150  1.00  0.00    -0.167 N  
HETATM    5  C   UNL     1     -10.418   9.353  68.030  1.00  0.00    -0.278 C  
HETATM    6  O   UNL     1      -6.828  11.957  69.574  1.00  0.00    -0.092 OA 
HETATM    7  O   UNL     1      -7.425  12.324  66.845  1.00  0.00    -0.100 OA 
HETATM    8  C   UNL     1      -8.495  10.370  68.937  1.00  0.00    -0.144 C  
HETATM    9  O   UNL     1      -6.652   9.894  70.433  1.00  0.00    -0.096 OA 
HETATM   10  C   UNL     1      -7.239  10.673  69.699  1.00  0.00    -0.139 C  
HETATM   11  C   UNL     1      -9.200   9.222  68.917  1.00  0.00    -0.143 C  
HETATM   12  C   UNL     1     -10.571   8.322  66.921  1.00  0.00    -0.302 C  
ENDROOT
BRANCH   1  13
HETATM   13  C   UNL     1     -10.347  12.110  65.230  1.00  0.00    -0.277 C  
HETATM   14  C   UNL     1     -10.868  11.397  63.990  1.00  0.00    -0.450 C  
HETATM   15  O   UNL     1     -11.469  12.604  65.953  1.00  0.00    -0.326 OA 
HETATM   16  H   UNL     1     -11.945  13.210  65.398  1.00  0.00     0.000 HD 
ENDBRANCH   1  13
BRANCH  11  17
HETATM   17  S   UNL     1      -8.808   7.718  69.657  1.00  0.00    -0.139 SA 
BRANCH  17  18
HETATM   18  C   UNL     1      -7.302   7.130  68.795  1.00  0.00    -0.096 C  
HETATM   19  C   UNL     1      -7.244   7.321  67.285  1.00  0.00    -0.093 C  
HETATM   20  N   UNL     1      -7.794   6.087  66.742  1.00  0.00    -0.100 NA 
HETATM   21  H   UNL     1      -7.525   5.930  65.770  1.00  0.00     0.000 HD 
HETATM   22  C   UNL     1      -7.395   4.975  67.636  1.00  0.00    -0.078 C  
HETATM   23  C   UNL     1      -7.037   5.641  68.968  1.00  0.00    -0.068 C  
BRANCH  22  24
HETATM   24  C   UNL     1      -8.532   3.913  67.694  1.00  0.00    -0.095 C  
HETATM   25  O   UNL     1      -9.708   4.236  67.477  1.00  0.00    -0.178 OA 
HETATM   26  N   UNL     1      -8.201   2.587  67.944  1.00  0.00    -0.062 N  
HETATM   27  C   UNL     1      -6.857   2.058  68.115  1.00  0.00    -0.036 C  
HETATM   28  C   UNL     1      -9.267   1.599  68.052  1.00  0.00    -0.173 C  
ENDBRANCH  22  24
ENDBRANCH  17  18
ENDBRANCH  11  17
TORSDOF 4
ENDMDL
MODEL      206
REMARK 921   NORMALIZED FREE ENERGY PREDICTED BY IDOCK:   -3.28 KCAL/MOL
REMARK 922        TOTAL FREE ENERGY PREDICTED BY IDOCK:   -5.01 KCAL/MOL
REMARK 923 INTER-LIGAND FREE ENERGY PREDICTED BY IDOCK:   -4.23 KCAL/MOL
REMARK 924 INTRA-LIGAND FREE ENERGY PREDICTED BY IDOCK:   -0.79 KCAL/MOL
REMARK 927      BINDING AFFINITY PREDICTED BY RF-SCORE:    0.00 PKD
ROOT
HETATM    1  C   UNL     1      -9.205  10.820  65.991  1.00  0.00    -0.210 C  
HETATM    2  C   UNL     1     -10.061  10.923  67.294  1.00  0.00    -0.191 C  
HETATM    3  C   UNL     1      -8.058  11.371  66.853  1.00  0.00    -0.158 C  
HETATM    4  N   UNL     1      -8.821  11.379  67.985  1.00  0.00    -0.149 N  
HETATM    5  C   UNL     1     -10.579   9.733  68.108  1.00  0.00    -0.276 C  
HETATM    6  O   UNL     1      -6.609  11.801  69.530  1.00  0.00    -0.114 OA 
HETATM    7  O   UNL     1      -6.890  11.652  66.731  1.00  0.00    -0.137 OA 
HETATM    8  C   UNL     1      -8.547  10.500  69.025  1.00  0.00    -0.157 C  
HETATM    9  O   UNL     1      -6.989   9.999  70.808  1.00  0.00    -0.305 OA 
HETATM   10  C   UNL     1      -7.319  10.696  69.862  1.00  0.00    -0.064 C  
HETATM   11  C   UNL     1      -9.498   9.553  69.151  1.00  0.00    -0.163 C  
HETATM   12  C   UNL     1     -10.883   8.533  67.224  1.00  0.00    -0.076 C  
ENDROOT
BRANCH   1  13
HETATM   13  C   UNL     1      -9.646  11.698  64.835  1.00  0.00    -0.150 C  
HETATM   14  C   UNL     1     -11.106  11.434  64.493  1.00  0.00    -0.302 C  
HETATM   15  O   UNL     1      -9.529  13.060  65.228  1.00  0.00    -0.468 OA 
HETATM   16  H   UNL     1      -9.805  13.610  64.505  1.00  0.00     0.000 HD 
ENDBRANCH   1  13
BRANCH  11  17
HETATM   17  S   UNL     1      -9.528   8.210  70.227  1.00  0.00    -0.171 SA 
BRANCH  17  18
HETATM   18  C   UNL     1      -8.339   7.002  69.532  1.00  0.00    -0.133 C  
HETATM   19  C   UNL     1      -8.848   6.078  68.433  1.00  0.00    -0.112 C  
HETATM   20  N   UNL     1      -9.325   4.899  69.141  1.00  0.00    -0.118 NA 
HETATM   21  H   UNL     1      -9.389   4.077  68.541  1.00  0.00     0.000 HD 
HETATM   22  C   UNL     1      -8.446   4.685  70.316  1.00  0.00    -0.075 C  
HETATM   23  C   UNL     1      -7.770   6.037  70.562  1.00  0.00    -0.101 C  
BRANCH  22  24
HETATM   24  C   UNL     1      -9.283   4.121  71.501  1.00  0.00    -0.134 C  
HETATM   25  O   UNL     1      -9.912   4.882  72.248  1.00  0.00    -0.166 OA 
HETATM   26  N   UNL     1      -9.354   2.744  71.678  1.00  0.00    -0.112 N  
HETATM   27  C   UNL     1      -8.750   1.739  70.818  1.00  0.00    -0.055 C  
HETATM   28  C   UNL     1     -10.092   2.214  72.818  1.00  0.00    -0.130 C  
ENDBRANCH  22  24
ENDBRANCH  17  18
ENDBRANCH  11  17
TORSDOF 4
ENDMDL
MODEL      207
REMARK 921   NORMALIZED FREE ENERGY PREDICTED BY IDOCK:   -3.24 KCAL/MOL
REMARK 922        TOTAL FREE ENERGY PREDICTED BY IDOCK:   -4.97 KCAL/MOL
REMARK 923 INTER-LIGAND FREE ENERGY PREDICTED BY IDOCK:   -3.90 KCAL/MOL
REMARK 924 INTRA-LIGAND FREE ENERGY PREDICTED BY IDOCK:   -1.07 KCAL/MOL
REMARK 927      BINDING AFFINITY PREDICTED BY RF-SCORE:    0.00 PKD
ROOT
HETATM    1  C   UNL     1      -9.748   9.894  65.339  1.00  0.00    -0.375 C  
HETATM    2  C   UNL     1      -8.882   9.841  66.639  1.00  0.00    -0.138 C  
HETATM    3  C   UNL     1      -8.515   9.295  64.645  1.00  0.00    -0.178 C  
HETATM    4  N   UNL     1      -7.818   9.200  65.815  1.00  0.00    -0.097 N  
HETATM    5  C   UNL     1      -9.121   8.896  67.821  1.00  0.00    -0.143 C  
HETATM    6  O   UNL     1      -5.928   7.634  64.617  1.00  0.00    -0.037 OA 
HETATM    7  O   UNL     1      -8.187   8.930  63.541  1.00  0.00    -0.164 OA 
HETATM    8  C   UNL     1      -7.526   7.956  66.361  1.00  0.00    -0.087 C  
HETATM    9  O   UNL     1      -6.170   5.969  66.098  1.00  0.00    -0.034 OA 
HETATM   10  C   UNL     1      -6.516   7.069  65.697  1.00  0.00    -0.047 C  
HETATM   11  C   UNL     1      -8.221   7.725  67.493  1.00  0.00    -0.124 C  
HETATM   12  C   UNL     1     -10.599   8.590  68.011  1.00  0.00    -0.197 C  
ENDROOT
BRANCH   1  13
HETATM   13  C   UNL     1     -10.163  11.278  64.874  1.00  0.00    -0.286 C  
HETATM   14  C   UNL     1     -10.008  12.287  66.003  1.00  0.00    -0.270 C  
HETATM   15  O   UNL     1      -9.304  11.677  63.812  1.00  0.00    -0.450 OA 
HETATM   16  H   UNL     1      -9.564  12.542  63.521  1.00  0.00     0.000 HD 
ENDBRANCH   1  13
BRANCH  11  17
HETATM   17  S   UNL     1      -8.256   6.293  68.448  1.00  0.00    -0.116 SA 
BRANCH  17  18
HETATM   18  C   UNL     1      -7.665   6.801  70.107  1.00  0.00    -0.101 C  
HETATM   19  C   UNL     1      -6.435   6.091  70.655  1.00  0.00    -0.040 C  
HETATM   20  N   UNL     1      -6.970   4.967  71.410  1.00  0.00    -0.046 NA 
HETATM   21  H   UNL     1      -6.307   4.598  72.092  1.00  0.00     0.000 HD 
HETATM   22  C   UNL     1      -8.248   5.397  72.026  1.00  0.00    -0.115 C  
HETATM   23  C   UNL     1      -8.697   6.612  71.210  1.00  0.00    -0.129 C  
BRANCH  22  24
HETATM   24  C   UNL     1      -9.243   4.200  72.060  1.00  0.00    -0.124 C  
HETATM   25  O   UNL     1      -9.311   3.409  71.111  1.00  0.00    -0.113 OA 
HETATM   26  N   UNL     1     -10.019   4.003  73.197  1.00  0.00    -0.135 N  
HETATM   27  C   UNL     1      -9.964   4.794  74.417  1.00  0.00    -0.198 C  
HETATM   28  C   UNL     1     -10.990   2.917  73.212  1.00  0.00    -0.158 C  
ENDBRANCH  22  24
ENDBRANCH  17  18
ENDBRANCH  11  17
TORSDOF 4
ENDMDL
MODEL      208
REMARK 921   NORMALIZED FREE ENERGY PREDICTED BY IDOCK:   -3.24 KCAL/MOL
REMARK 922        TOTAL FREE ENERGY PREDICTED BY IDOCK:   -4.97 KCAL/MOL
REMARK 923 INTER-LIGAND FREE ENERGY PREDICTED BY IDOCK:   -5.43 KCAL/MOL
REMARK 924 INTRA-LIGAND FREE ENERGY PREDICTED BY IDOCK:    0.45 KCAL/MOL
REMARK 927      BINDING AFFINITY PREDICTED BY RF-SCORE:    0.00 PKD
ROOT
HETATM    1  C   UNL     1      -8.431  10.303  64.051  1.00  0.00    -0.177 C  
HETATM    2  C   UNL     1      -9.151   9.545  65.212  1.00  0.00    -0.224 C  
HETATM    3  C   UNL     1      -9.709  11.153  63.984  1.00  0.00    -0.283 C  
HETATM    4  N   UNL     1     -10.273  10.512  65.049  1.00  0.00    -0.317 N  
HETATM    5  C   UNL     1      -8.754   9.612  66.691  1.00  0.00    -0.146 C  
HETATM    6  O   UNL     1     -12.224  12.416  65.222  1.00  0.00    -0.495 OA 
HETATM    7  O   UNL     1     -10.140  12.090  63.354  1.00  0.00    -0.428 OA 
HETATM    8  C   UNL     1     -10.461  11.178  66.253  1.00  0.00    -0.259 C  
HETATM    9  O   UNL     1     -11.767  12.886  67.366  1.00  0.00    -0.340 OA 
HETATM   10  C   UNL     1     -11.504  12.250  66.357  1.00  0.00    -0.378 C  
HETATM   11  C   UNL     1      -9.642  10.718  67.219  1.00  0.00    -0.160 C  
HETATM   12  C   UNL     1      -7.254   9.797  66.866  1.00  0.00    -0.090 C  
ENDROOT
BRANCH   1  13
HETATM   13  C   UNL     1      -8.117   9.480  62.815  1.00  0.00    -0.137 C  
HETATM   14  C   UNL     1      -6.663   9.669  62.405  1.00  0.00    -0.097 C  
HETATM   15  O   UNL     1      -8.308   8.104  63.124  1.00  0.00    -0.340 OA 
HETATM   16  H   UNL     1      -8.112   7.590  62.350  1.00  0.00     0.000 HD 
ENDBRANCH   1  13
BRANCH  11  17
HETATM   17  S   UNL     1      -9.455  11.304  68.827  1.00  0.00    -0.088 SA 
BRANCH  17  18
HETATM   18  C   UNL     1     -10.563  10.268  69.854  1.00  0.00    -0.276 C  
HETATM   19  C   UNL     1      -9.921   9.457  70.972  1.00  0.00    -0.264 C  
HETATM   20  N   UNL     1      -9.617   8.172  70.359  1.00  0.00    -0.170 NA 
HETATM   21  H   UNL     1      -9.490   7.428  71.046  1.00  0.00     0.000 HD 
HETATM   22  C   UNL     1     -10.685   7.870  69.376  1.00  0.00    -0.168 C  
HETATM   23  C   UNL     1     -11.334   9.221  69.063  1.00  0.00     0.246 C  
BRANCH  22  24
HETATM   24  C   UNL     1     -10.078   7.112  68.159  1.00  0.00    -0.169 C  
HETATM   25  O   UNL     1     -10.662   7.102  67.067  1.00  0.00    -0.327 OA 
HETATM   26  N   UNL     1      -8.844   6.487  68.303  1.00  0.00    -0.120 N  
HETATM   27  C   UNL     1      -8.010   6.507  69.494  1.00  0.00    -0.117 C  
HETATM   28  C   UNL     1      -8.299   5.731  67.184  1.00  0.00    -0.104 C  
ENDBRANCH  22  24
ENDBRANCH  17  18
ENDBRANCH  11  17
TORSDOF 4
ENDMDL
MODEL      209
REMARK 921   NORMALIZED FREE ENERGY PREDICTED BY IDOCK:   -3.23 KCAL/MOL
REMARK 922        TOTAL FREE ENERGY PREDICTED BY IDOCK:   -4.95 KCAL/MOL
REMARK 923 INTER-LIGAND FREE ENERGY PREDICTED BY IDOCK:   -4.49 KCAL/MOL
REMARK 924 INTRA-LIGAND FREE ENERGY PREDICTED BY IDOCK:   -0.47 KCAL/MOL
REMARK 927      BINDING AFFINITY PREDICTED BY RF-SCORE:    0.00 PKD
ROOT
HETATM    1  C   UNL     1      -9.550   4.732  72.063  1.00  0.00    -0.201 C  
HETATM    2  C   UNL     1     -10.556   5.584  71.224  1.00  0.00    -0.236 C  
HETATM    3  C   UNL     1      -8.622   4.860  70.846  1.00  0.00    -0.115 C  
HETATM    4  N   UNL     1      -9.500   5.661  70.174  1.00  0.00    -0.155 N  
HETATM    5  C   UNL     1     -10.952   7.033  71.524  1.00  0.00    -0.260 C  
HETATM    6  O   UNL     1      -7.586   6.297  68.333  1.00  0.00    -0.092 OA 
HETATM    7  O   UNL     1      -7.512   4.516  70.514  1.00  0.00    -0.048 OA 
HETATM    8  C   UNL     1      -9.201   6.998  69.947  1.00  0.00    -0.144 C  
HETATM    9  O   UNL     1      -7.796   8.503  68.673  1.00  0.00    -0.104 OA 
HETATM   10  C   UNL     1      -8.129   7.365  68.964  1.00  0.00    -0.127 C  
HETATM   11  C   UNL     1      -9.984   7.822  70.671  1.00  0.00    -0.186 C  
HETATM   12  C   UNL     1     -10.942   7.324  73.018  1.00  0.00    -0.388 C  
ENDROOT
BRANCH   1  13
HETATM   13  C   UNL     1      -9.999   3.325  72.410  1.00  0.00    -0.162 C  
HETATM   14  C   UNL     1      -9.465   2.330  71.388  1.00  0.00    -0.207 C  
HETATM   15  O   UNL     1      -9.461   2.976  73.680  1.00  0.00    -0.090 OA 
HETATM   16  H   UNL     1      -9.742   2.095  73.897  1.00  0.00     0.000 HD 
ENDBRANCH   1  13
BRANCH  11  17
HETATM   17  S   UNL     1      -9.907   9.538  70.784  1.00  0.00    -0.168 SA 
BRANCH  17  18
HETATM   18  C   UNL     1     -11.407  10.150  69.928  1.00  0.00    -0.275 C  
HETATM   19  C   UNL     1     -11.575   9.772  68.462  1.00  0.00     0.394 C  
HETATM   20  N   UNL     1     -10.954  10.867  67.731  1.00  0.00    -0.261 NA 
HETATM   21  H   UNL     1     -11.268  10.922  66.761  1.00  0.00     0.000 HD 
HETATM   22  C   UNL     1     -11.199  12.118  68.486  1.00  0.00    -0.260 C  
HETATM   23  C   UNL     1     -11.529  11.667  69.912  1.00  0.00    -0.308 C  
BRANCH  22  24
HETATM   24  C   UNL     1      -9.971  13.066  68.344  1.00  0.00    -0.216 C  
HETATM   25  O   UNL     1      -8.823  12.642  68.524  1.00  0.00    -0.146 OA 
HETATM   26  N   UNL     1     -10.183  14.385  67.961  1.00  0.00    -0.225 N  
HETATM   27  C   UNL     1     -11.464  14.983  67.621  1.00  0.00    -0.333 C  
HETATM   28  C   UNL     1      -9.043  15.290  67.878  1.00  0.00    -0.175 C  
ENDBRANCH  22  24
ENDBRANCH  17  18
ENDBRANCH  11  17
TORSDOF 4
ENDMDL
MODEL      210
REMARK 921   NORMALIZED FREE ENERGY PREDICTED BY IDOCK:   -3.21 KCAL/MOL
REMARK 922        TOTAL FREE ENERGY PREDICTED BY IDOCK:   -4.93 KCAL/MOL
REMARK 923 INTER-LIGAND FREE ENERGY PREDICTED BY IDOCK:   -5.09 KCAL/MOL
REMARK 924 INTRA-LIGAND FREE ENERGY PREDICTED BY IDOCK:    0.16 KCAL/MOL
REMARK 927      BINDING AFFINITY PREDICTED BY RF-SCORE:    0.00 PKD
ROOT
HETATM    1  C   UNL     1     -10.416  11.179  69.449  1.00  0.00    -0.132 C  
HETATM    2  C   UNL     1     -10.563  12.295  68.366  1.00  0.00    -0.235 C  
HETATM    3  C   UNL     1      -8.997  10.998  68.889  1.00  0.00    -0.115 C  
HETATM    4  N   UNL     1      -9.142  12.028  68.004  1.00  0.00    -0.182 N  
HETATM    5  C   UNL     1     -10.646  13.798  68.651  1.00  0.00    -0.263 C  
HETATM    6  O   UNL     1      -6.462  12.017  67.479  1.00  0.00    -0.094 OA 
HETATM    7  O   UNL     1      -8.020  10.321  69.102  1.00  0.00    -0.112 OA 
HETATM    8  C   UNL     1      -8.418  13.202  68.166  1.00  0.00    -0.173 C  
HETATM    9  O   UNL     1      -6.209  14.181  68.009  1.00  0.00    -0.118 OA 
HETATM   10  C   UNL     1      -6.939  13.207  67.915  1.00  0.00    -0.132 C  
HETATM   11  C   UNL     1      -9.204  14.236  68.525  1.00  0.00    -0.197 C  
HETATM   12  C   UNL     1     -11.334  14.084  69.978  1.00  0.00    -0.163 C  
ENDROOT
BRANCH   1  13
HETATM   13  C   UNL     1     -11.343   9.985  69.303  1.00  0.00    -0.117 C  
HETATM   14  C   UNL     1     -12.659  10.243  70.024  1.00  0.00    -0.059 C  
HETATM   15  O   UNL     1     -11.630   9.800  67.922  1.00  0.00    -0.523 OA 
HETATM   16  H   UNL     1     -12.210   9.053  67.831  1.00  0.00     0.000 HD 
ENDBRANCH   1  13
BRANCH  11  17
HETATM   17  S   UNL     1      -8.734  15.843  68.927  1.00  0.00    -0.239 SA 
BRANCH  17  18
HETATM   18  C   UNL     1      -9.170  16.858  67.466  1.00  0.00    -0.223 C  
HETATM   19  C   UNL     1     -10.633  17.250  67.302  1.00  0.00    -0.283 C  
HETATM   20  N   UNL     1     -11.204  16.188  66.485  1.00  0.00     0.084 NA 
HETATM   21  H   UNL     1     -12.071  16.468  66.024  1.00  0.00     0.000 HD 
HETATM   22  C   UNL     1     -10.165  15.737  65.529  1.00  0.00    -0.378 C  
HETATM   23  C   UNL     1      -8.836  16.196  66.136  1.00  0.00    -0.367 C  
BRANCH  22  24
HETATM   24  C   UNL     1     -10.305  14.206  65.286  1.00  0.00    -0.388 C  
HETATM   25  O   UNL     1      -9.302  13.495  65.146  1.00  0.00     0.300 OA 
HETATM   26  N   UNL     1     -11.575  13.640  65.279  1.00  0.00    -0.313 N  
HETATM   27  C   UNL     1     -12.825  14.340  65.530  1.00  0.00    -0.312 C  
HETATM   28  C   UNL     1     -11.714  12.217  64.998  1.00  0.00    -0.352 C  
ENDBRANCH  22  24
ENDBRANCH  17  18
ENDBRANCH  11  17
TORSDOF 4
ENDMDL
MODEL      211
REMARK 921   NORMALIZED FREE ENERGY PREDICTED BY IDOCK:   -3.19 KCAL/MOL
REMARK 922        TOTAL FREE ENERGY PREDICTED BY IDOCK:   -4.91 KCAL/MOL
REMARK 923 INTER-LIGAND FREE ENERGY PREDICTED BY IDOCK:   -4.90 KCAL/MOL
REMARK 924 INTRA-LIGAND FREE ENERGY PREDICTED BY IDOCK:   -0.00 KCAL/MOL
REMARK 927      BINDING AFFINITY PREDICTED BY RF-SCORE:    0.00 PKD
ROOT
HETATM    1  C   UNL     1      -9.019   8.525  67.950  1.00  0.00    -0.139 C  
HETATM    2  C   UNL     1      -9.659   7.918  69.240  1.00  0.00    -0.157 C  
HETATM    3  C   UNL     1      -8.125   9.315  68.918  1.00  0.00    -0.103 C  
HETATM    4  N   UNL     1      -8.662   8.708  70.017  1.00  0.00    -0.136 N  
HETATM    5  C   UNL     1      -9.498   6.468  69.708  1.00  0.00    -0.155 C  
HETATM    6  O   UNL     1      -6.673   9.708  71.599  1.00  0.00    -0.307 OA 
HETATM    7  O   UNL     1      -7.221  10.114  68.866  1.00  0.00    -0.072 OA 
HETATM    8  C   UNL     1      -7.901   7.831  70.779  1.00  0.00    -0.099 C  
HETATM    9  O   UNL     1      -6.064   7.685  72.349  1.00  0.00    -0.040 OA 
HETATM   10  C   UNL     1      -6.782   8.359  71.628  1.00  0.00    -0.073 C  
HETATM   11  C   UNL     1      -8.321   6.557  70.655  1.00  0.00    -0.133 C  
HETATM   12  C   UNL     1      -9.362   5.508  68.536  1.00  0.00    -0.143 C  
ENDROOT
BRANCH   1  13
HETATM   13  C   UNL     1      -9.943   9.353  67.077  1.00  0.00    -0.221 C  
HETATM   14  C   UNL     1      -9.595   9.166  65.606  1.00  0.00    -0.287 C  
HETATM   15  O   UNL     1     -11.278   8.900  67.270  1.00  0.00    -0.276 OA 
HETATM   16  H   UNL     1     -11.856   9.418  66.723  1.00  0.00     0.000 HD 
ENDBRANCH   1  13
BRANCH  11  17
HETATM   17  S   UNL     1      -7.625   5.135  71.330  1.00  0.00    -0.098 SA 
BRANCH  17  18
HETATM   18  C   UNL     1      -8.789   4.597  72.638  1.00  0.00    -0.114 C  
HETATM   19  C   UNL     1     -10.142   4.060  72.189  1.00  0.00    -0.163 C  
HETATM   20  N   UNL     1     -11.011   5.228  72.176  1.00  0.00    -0.199 NA 
HETATM   21  H   UNL     1     -12.001   4.984  72.215  1.00  0.00     0.000 HD 
HETATM   22  C   UNL     1     -10.595   6.120  73.284  1.00  0.00    -0.258 C  
HETATM   23  C   UNL     1      -9.161   5.699  73.620  1.00  0.00    -0.130 C  
BRANCH  22  24
HETATM   24  C   UNL     1     -10.781   7.607  72.859  1.00  0.00    -0.371 C  
HETATM   25  O   UNL     1      -9.911   8.450  73.115  1.00  0.00    -0.181 OA 
HETATM   26  N   UNL     1     -11.917   7.963  72.141  1.00  0.00    -0.317 N  
HETATM   27  C   UNL     1     -12.961   7.058  71.688  1.00  0.00    -0.352 C  
HETATM   28  C   UNL     1     -12.122   9.362  71.789  1.00  0.00    -0.382 C  
ENDBRANCH  22  24
ENDBRANCH  17  18
ENDBRANCH  11  17
TORSDOF 4
ENDMDL
MODEL      212
REMARK 921   NORMALIZED FREE ENERGY PREDICTED BY IDOCK:   -3.18 KCAL/MOL
REMARK 922        TOTAL FREE ENERGY PREDICTED BY IDOCK:   -4.89 KCAL/MOL
REMARK 923 INTER-LIGAND FREE ENERGY PREDICTED BY IDOCK:   -4.40 KCAL/MOL
REMARK 924 INTRA-LIGAND FREE ENERGY PREDICTED BY IDOCK:   -0.49 KCAL/MOL
REMARK 927      BINDING AFFINITY PREDICTED BY RF-SCORE:    0.00 PKD
ROOT
HETATM    1  C   UNL     1      -7.608   3.945  67.285  1.00  0.00    -0.076 C  
HETATM    2  C   UNL     1      -6.865   4.508  68.539  1.00  0.00    -0.051 C  
HETATM    3  C   UNL     1      -8.568   3.303  68.299  1.00  0.00    -0.094 C  
HETATM    4  N   UNL     1      -7.932   3.874  69.364  1.00  0.00    -0.055 N  
HETATM    5  C   UNL     1      -6.834   5.982  68.959  1.00  0.00    -0.062 C  
HETATM    6  O   UNL     1      -9.988   3.180  71.023  1.00  0.00    -0.101 OA 
HETATM    7  O   UNL     1      -9.564   2.621  68.294  1.00  0.00    -0.192 OA 
HETATM    8  C   UNL     1      -8.559   4.862  70.111  1.00  0.00    -0.091 C  
HETATM    9  O   UNL     1     -10.323   5.286  71.714  1.00  0.00    -0.203 OA 
HETATM   10  C   UNL     1      -9.712   4.505  71.002  1.00  0.00    -0.189 C  
HETATM   11  C   UNL     1      -7.988   6.070  69.933  1.00  0.00    -0.113 C  
HETATM   12  C   UNL     1      -6.880   6.913  67.757  1.00  0.00    -0.081 C  
ENDROOT
BRANCH   1  13
HETATM   13  C   UNL     1      -6.816   2.981  66.421  1.00  0.00    -0.052 C  
HETATM   14  C   UNL     1      -5.340   3.022  66.794  1.00  0.00    -0.016 C  
HETATM   15  O   UNL     1      -7.289   1.660  66.662  1.00  0.00    -0.053 OA 
HETATM   16  H   UNL     1      -6.793   1.057  66.122  1.00  0.00     0.000 HD 
ENDBRANCH   1  13
BRANCH  11  17
HETATM   17  S   UNL     1      -8.485   7.589  70.573  1.00  0.00    -0.134 SA 
BRANCH  17  18
HETATM   18  C   UNL     1      -9.027   8.572  69.125  1.00  0.00    -0.146 C  
HETATM   19  C   UNL     1      -8.457   9.978  68.986  1.00  0.00    -0.147 C  
HETATM   20  N   UNL     1      -9.417  10.830  69.672  1.00  0.00    -0.403 NA 
HETATM   21  H   UNL     1      -9.350  11.808  69.389  1.00  0.00     0.000 HD 
HETATM   22  C   UNL     1     -10.769  10.261  69.456  1.00  0.00    -0.249 C  
HETATM   23  C   UNL     1     -10.531   8.800  69.065  1.00  0.00    -0.220 C  
BRANCH  22  24
HETATM   24  C   UNL     1     -11.643  10.489  70.725  1.00  0.00    -0.338 C  
HETATM   25  O   UNL     1     -11.774   9.594  71.569  1.00  0.00    -0.371 OA 
HETATM   26  N   UNL     1     -12.233  11.733  70.919  1.00  0.00    -0.337 N  
HETATM   27  C   UNL     1     -12.078  12.897  70.062  1.00  0.00    -0.286 C  
HETATM   28  C   UNL     1     -13.095  11.933  72.077  1.00  0.00    -0.336 C  
ENDBRANCH  22  24
ENDBRANCH  17  18
ENDBRANCH  11  17
TORSDOF 4
ENDMDL
MODEL      213
REMARK 921   NORMALIZED FREE ENERGY PREDICTED BY IDOCK:   -3.17 KCAL/MOL
REMARK 922        TOTAL FREE ENERGY PREDICTED BY IDOCK:   -4.88 KCAL/MOL
REMARK 923 INTER-LIGAND FREE ENERGY PREDICTED BY IDOCK:   -4.64 KCAL/MOL
REMARK 924 INTRA-LIGAND FREE ENERGY PREDICTED BY IDOCK:   -0.25 KCAL/MOL
REMARK 927      BINDING AFFINITY PREDICTED BY RF-SCORE:    0.00 PKD
ROOT
HETATM    1  C   UNL     1      -8.623   4.881  67.404  1.00  0.00    -0.104 C  
HETATM    2  C   UNL     1      -9.812   5.642  66.735  1.00  0.00    -0.164 C  
HETATM    3  C   UNL     1      -7.729   5.893  66.670  1.00  0.00    -0.100 C  
HETATM    4  N   UNL     1      -8.798   6.573  66.163  1.00  0.00    -0.150 N  
HETATM    5  C   UNL     1     -10.822   6.527  67.473  1.00  0.00    -0.433 C  
HETATM    6  O   UNL     1      -7.179   8.630  65.384  1.00  0.00    -0.081 OA 
HETATM    7  O   UNL     1      -6.553   6.149  66.563  1.00  0.00    -0.051 OA 
HETATM    8  C   UNL     1      -9.085   7.860  66.600  1.00  0.00    -0.163 C  
HETATM    9  O   UNL     1      -8.352  10.166  66.520  1.00  0.00    -0.121 OA 
HETATM   10  C   UNL     1      -8.188   8.997  66.210  1.00  0.00    -0.115 C  
HETATM   11  C   UNL     1     -10.212   7.905  67.337  1.00  0.00    -0.251 C  
HETATM   12  C   UNL     1     -11.081   6.030  68.888  1.00  0.00    -0.349 C  
ENDROOT
BRANCH   1  13
HETATM   13  C   UNL     1      -8.451   3.429  66.997  1.00  0.00    -0.106 C  
HETATM   14  C   UNL     1      -9.028   2.506  68.063  1.00  0.00    -0.195 C  
HETATM   15  O   UNL     1      -9.173   3.206  65.791  1.00  0.00    -0.151 OA 
HETATM   16  H   UNL     1      -9.065   2.297  65.537  1.00  0.00     0.000 HD 
ENDBRANCH   1  13
BRANCH  11  17
HETATM   17  S   UNL     1     -10.894   9.254  68.160  1.00  0.00    -0.015 SA 
BRANCH  17  18
HETATM   18  C   UNL     1      -9.721   9.644  69.512  1.00  0.00    -0.203 C  
HETATM   19  C   UNL     1      -8.514   8.730  69.672  1.00  0.00    -0.129 C  
HETATM   20  N   UNL     1      -8.952   7.712  70.616  1.00  0.00    -0.152 NA 
HETATM   21  H   UNL     1      -8.173   7.230  71.067  1.00  0.00     0.000 HD 
HETATM   22  C   UNL     1      -9.870   8.354  71.587  1.00  0.00    -0.221 C  
HETATM   23  C   UNL     1     -10.353   9.632  70.897  1.00  0.00    -0.334 C  
BRANCH  22  24
HETATM   24  C   UNL     1     -10.983   7.346  72.002  1.00  0.00    -0.236 C  
HETATM   25  O   UNL     1     -12.168   7.566  71.721  1.00  0.00    -0.292 OA 
HETATM   26  N   UNL     1     -10.618   6.171  72.649  1.00  0.00    -0.208 N  
HETATM   27  C   UNL     1      -9.260   5.745  72.946  1.00  0.00    -0.134 C  
HETATM   28  C   UNL     1     -11.660   5.252  73.086  1.00  0.00    -0.178 C  
ENDBRANCH  22  24
ENDBRANCH  17  18
ENDBRANCH  11  17
TORSDOF 4
ENDMDL
MODEL      214
REMARK 921   NORMALIZED FREE ENERGY PREDICTED BY IDOCK:   -3.17 KCAL/MOL
REMARK 922        TOTAL FREE ENERGY PREDICTED BY IDOCK:   -4.88 KCAL/MOL
REMARK 923 INTER-LIGAND FREE ENERGY PREDICTED BY IDOCK:   -5.11 KCAL/MOL
REMARK 924 INTRA-LIGAND FREE ENERGY PREDICTED BY IDOCK:    0.23 KCAL/MOL
REMARK 927      BINDING AFFINITY PREDICTED BY RF-SCORE:    0.00 PKD
ROOT
HETATM    1  C   UNL     1     -10.336  11.627  64.460  1.00  0.00    -0.349 C  
HETATM    2  C   UNL     1     -10.065  10.185  64.998  1.00  0.00    -0.235 C  
HETATM    3  C   UNL     1      -9.775  12.100  65.810  1.00  0.00    -0.229 C  
HETATM    4  N   UNL     1      -9.488  10.827  66.213  1.00  0.00    -0.176 N  
HETATM    5  C   UNL     1      -8.982   9.236  64.474  1.00  0.00    -0.183 C  
HETATM    6  O   UNL     1      -8.005  11.774  68.302  1.00  0.00    -0.132 OA 
HETATM    7  O   UNL     1      -9.546  13.140  66.379  1.00  0.00    -0.264 OA 
HETATM    8  C   UNL     1      -8.169  10.412  66.347  1.00  0.00    -0.141 C  
HETATM    9  O   UNL     1      -6.169  10.641  67.693  1.00  0.00    -0.054 OA 
HETATM   10  C   UNL     1      -7.329  10.948  67.469  1.00  0.00    -0.096 C  
HETATM   11  C   UNL     1      -7.822   9.515  65.404  1.00  0.00    -0.109 C  
HETATM   12  C   UNL     1      -8.729   9.433  62.987  1.00  0.00    -0.225 C  
ENDROOT
BRANCH   1  13
HETATM   13  C   UNL     1     -11.789  11.972  64.189  1.00  0.00    -0.373 C  
HETATM   14  C   UNL     1     -12.027  13.463  64.384  1.00  0.00    -0.460 C  
HETATM   15  O   UNL     1     -12.086  11.656  62.834  1.00  0.00    -0.876 OA 
HETATM   16  H   UNL     1     -12.995  11.872  62.664  1.00  0.00     0.000 HD 
ENDBRANCH   1  13
BRANCH  11  17
HETATM   17  S   UNL     1      -6.279   8.807  65.123  1.00  0.00    -0.060 SA 
BRANCH  17  18
HETATM   18  C   UNL     1      -6.549   6.997  65.217  1.00  0.00    -0.047 C  
HETATM   19  C   UNL     1      -7.861   6.459  64.663  1.00  0.00    -0.112 C  
HETATM   20  N   UNL     1      -8.762   6.451  65.807  1.00  0.00    -0.202 NA 
HETATM   21  H   UNL     1      -9.558   5.825  65.678  1.00  0.00     0.000 HD 
HETATM   22  C   UNL     1      -7.966   6.127  67.014  1.00  0.00    -0.102 C  
HETATM   23  C   UNL     1      -6.517   6.444  66.635  1.00  0.00    -0.047 C  
BRANCH  22  24
HETATM   24  C   UNL     1      -8.531   6.904  68.240  1.00  0.00    -0.125 C  
HETATM   25  O   UNL     1      -7.978   7.937  68.641  1.00  0.00    -0.120 OA 
HETATM   26  N   UNL     1      -9.695   6.447  68.846  1.00  0.00    -0.126 N  
HETATM   27  C   UNL     1     -10.496   5.312  68.415  1.00  0.00    -0.073 C  
HETATM   28  C   UNL     1     -10.197   7.139  70.026  1.00  0.00    -0.196 C  
ENDBRANCH  22  24
ENDBRANCH  17  18
ENDBRANCH  11  17
TORSDOF 4
ENDMDL
MODEL      215
REMARK 921   NORMALIZED FREE ENERGY PREDICTED BY IDOCK:   -3.14 KCAL/MOL
REMARK 922        TOTAL FREE ENERGY PREDICTED BY IDOCK:   -4.84 KCAL/MOL
REMARK 923 INTER-LIGAND FREE ENERGY PREDICTED BY IDOCK:   -4.73 KCAL/MOL
REMARK 924 INTRA-LIGAND FREE ENERGY PREDICTED BY IDOCK:   -0.11 KCAL/MOL
REMARK 927      BINDING AFFINITY PREDICTED BY RF-SCORE:    0.00 PKD
ROOT
HETATM    1  C   UNL     1      -7.967   9.237  66.173  1.00  0.00    -0.107 C  
HETATM    2  C   UNL     1      -8.512   8.126  67.127  1.00  0.00    -0.124 C  
HETATM    3  C   UNL     1      -9.325   9.920  66.401  1.00  0.00    -0.167 C  
HETATM    4  N   UNL     1      -9.734   8.964  67.285  1.00  0.00    -0.169 N  
HETATM    5  C   UNL     1      -8.005   7.854  68.547  1.00  0.00    -0.121 C  
HETATM    6  O   UNL     1     -11.844  10.516  68.060  1.00  0.00    -0.425 OA 
HETATM    7  O   UNL     1      -9.896  10.931  66.067  1.00  0.00    -0.214 OA 
HETATM    8  C   UNL     1      -9.889   9.269  68.631  1.00  0.00    -0.162 C  
HETATM    9  O   UNL     1     -11.264  10.466  70.224  1.00  0.00    -0.283 OA 
HETATM   10  C   UNL     1     -11.022  10.148  69.071  1.00  0.00    -0.226 C  
HETATM   11  C   UNL     1      -8.953   8.674  69.396  1.00  0.00    -0.145 C  
HETATM   12  C   UNL     1      -6.522   8.162  68.687  1.00  0.00    -0.053 C  
ENDROOT
BRANCH   1  13
HETATM   13  C   UNL     1      -7.675   8.805  64.748  1.00  0.00    -0.113 C  
HETATM   14  C   UNL     1      -8.034   7.338  64.553  1.00  0.00    -0.112 C  
HETATM   15  O   UNL     1      -8.484   9.573  63.865  1.00  0.00    -0.164 OA 
HETATM   16  H   UNL     1      -8.300   9.303  62.973  1.00  0.00     0.000 HD 
ENDBRANCH   1  13
BRANCH  11  17
HETATM   17  S   UNL     1      -8.696   8.842  71.090  1.00  0.00    -0.227 SA 
BRANCH  17  18
HETATM   18  C   UNL     1      -9.271   7.267  71.828  1.00  0.00    -0.142 C  
HETATM   19  C   UNL     1      -8.357   6.057  71.687  1.00  0.00    -0.127 C  
HETATM   20  N   UNL     1      -8.797   5.410  70.459  1.00  0.00    -0.132 NA 
HETATM   21  H   UNL     1      -8.511   4.432  70.403  1.00  0.00     0.000 HD 
HETATM   22  C   UNL     1     -10.264   5.586  70.350  1.00  0.00    -0.251 C  
HETATM   23  C   UNL     1     -10.594   6.770  71.263  1.00  0.00    -0.246 C  
BRANCH  22  24
HETATM   24  C   UNL     1     -10.663   5.753  68.854  1.00  0.00    -0.263 C  
HETATM   25  O   UNL     1     -11.510   6.591  68.517  1.00  0.00    -0.193 OA 
HETATM   26  N   UNL     1     -10.017   4.981  67.896  1.00  0.00    -0.153 N  
HETATM   27  C   UNL     1      -8.938   4.037  68.144  1.00  0.00    -0.121 C  
HETATM   28  C   UNL     1     -10.424   5.095  66.502  1.00  0.00    -0.294 C  
ENDBRANCH  22  24
ENDBRANCH  17  18
ENDBRANCH  11  17
TORSDOF 4
ENDMDL
MODEL      216
REMARK 921   NORMALIZED FREE ENERGY PREDICTED BY IDOCK:   -3.10 KCAL/MOL
REMARK 922        TOTAL FREE ENERGY PREDICTED BY IDOCK:   -4.79 KCAL/MOL
REMARK 923 INTER-LIGAND FREE ENERGY PREDICTED BY IDOCK:   -4.05 KCAL/MOL
REMARK 924 INTRA-LIGAND FREE ENERGY PREDICTED BY IDOCK:   -0.75 KCAL/MOL
REMARK 927      BINDING AFFINITY PREDICTED BY RF-SCORE:    0.00 PKD
ROOT
HETATM    1  C   UNL     1      -9.111  10.535  66.941  1.00  0.00    -0.161 C  
HETATM    2  C   UNL     1      -8.207   9.297  66.638  1.00  0.00    -0.115 C  
HETATM    3  C   UNL     1     -10.163   9.502  67.375  1.00  0.00    -0.227 C  
HETATM    4  N   UNL     1      -9.316   8.452  67.165  1.00  0.00    -0.147 N  
HETATM    5  C   UNL     1      -6.962   8.896  67.436  1.00  0.00    -0.075 C  
HETATM    6  O   UNL     1     -11.014   6.761  68.476  1.00  0.00    -0.231 OA 
HETATM    7  O   UNL     1     -11.286   9.487  67.818  1.00  0.00    -0.091 OA 
HETATM    8  C   UNL     1      -8.835   7.710  68.236  1.00  0.00    -0.125 C  
HETATM    9  O   UNL     1      -9.445   6.094  69.932  1.00  0.00    -0.150 OA 
HETATM   10  C   UNL     1      -9.761   6.803  68.990  1.00  0.00    -0.145 C  
HETATM   11  C   UNL     1      -7.519   7.911  68.440  1.00  0.00    -0.100 C  
HETATM   12  C   UNL     1      -6.236  10.110  67.999  1.00  0.00    -0.056 C  
ENDROOT
BRANCH   1  13
HETATM   13  C   UNL     1      -9.481  11.395  65.746  1.00  0.00    -0.233 C  
HETATM   14  C   UNL     1      -9.581  10.543  64.488  1.00  0.00    -0.359 C  
HETATM   15  O   UNL     1     -10.758  11.976  65.982  1.00  0.00    -0.260 OA 
HETATM   16  H   UNL     1     -10.989  12.514  65.235  1.00  0.00     0.000 HD 
ENDBRANCH   1  13
BRANCH  11  17
HETATM   17  S   UNL     1      -6.528   7.285  69.701  1.00  0.00    -0.036 SA 
BRANCH  17  18
HETATM   18  C   UNL     1      -6.676   8.485  71.078  1.00  0.00    -0.054 C  
HETATM   19  C   UNL     1      -5.689   8.350  72.229  1.00  0.00    -0.049 C  
HETATM   20  N   UNL     1      -6.360   7.478  73.183  1.00  0.00    -0.059 NA 
HETATM   21  H   UNL     1      -5.978   7.556  74.126  1.00  0.00     0.000 HD 
HETATM   22  C   UNL     1      -7.812   7.769  73.125  1.00  0.00    -0.122 C  
HETATM   23  C   UNL     1      -8.029   8.457  71.774  1.00  0.00    -0.173 C  
BRANCH  22  24
HETATM   24  C   UNL     1      -8.620   6.458  73.355  1.00  0.00    -0.124 C  
HETATM   25  O   UNL     1      -8.038   5.395  73.609  1.00  0.00    -0.111 OA 
HETATM   26  N   UNL     1     -10.009   6.509  73.319  1.00  0.00    -0.172 N  
HETATM   27  C   UNL     1     -10.816   7.705  73.133  1.00  0.00    -0.382 C  
HETATM   28  C   UNL     1     -10.767   5.275  73.480  1.00  0.00    -0.289 C  
ENDBRANCH  22  24
ENDBRANCH  17  18
ENDBRANCH  11  17
TORSDOF 4
ENDMDL
MODEL      217
REMARK 921   NORMALIZED FREE ENERGY PREDICTED BY IDOCK:   -3.07 KCAL/MOL
REMARK 922        TOTAL FREE ENERGY PREDICTED BY IDOCK:   -4.76 KCAL/MOL
REMARK 923 INTER-LIGAND FREE ENERGY PREDICTED BY IDOCK:   -4.07 KCAL/MOL
REMARK 924 INTRA-LIGAND FREE ENERGY PREDICTED BY IDOCK:   -0.69 KCAL/MOL
REMARK 927      BINDING AFFINITY PREDICTED BY RF-SCORE:    0.00 PKD
ROOT
HETATM    1  C   UNL     1      -8.246   3.905  64.841  1.00  0.00    -0.093 C  
HETATM    2  C   UNL     1      -7.680   4.539  66.152  1.00  0.00    -0.094 C  
HETATM    3  C   UNL     1      -9.612   4.402  65.342  1.00  0.00    -0.184 C  
HETATM    4  N   UNL     1      -9.067   5.004  66.440  1.00  0.00    -0.125 N  
HETATM    5  C   UNL     1      -6.798   5.791  66.219  1.00  0.00    -0.058 C  
HETATM    6  O   UNL     1     -11.409   6.316  66.941  1.00  0.00    -0.260 OA 
HETATM    7  O   UNL     1     -10.763   4.403  64.977  1.00  0.00    -0.236 OA 
HETATM    8  C   UNL     1      -9.054   6.389  66.549  1.00  0.00    -0.151 C  
HETATM    9  O   UNL     1     -10.441   8.338  66.921  1.00  0.00    -0.319 OA 
HETATM   10  C   UNL     1     -10.336   7.129  66.791  1.00  0.00    -0.227 C  
HETATM   11  C   UNL     1      -7.810   6.894  66.439  1.00  0.00    -0.103 C  
HETATM   12  C   UNL     1      -5.903   5.918  64.995  1.00  0.00    -0.025 C  
ENDROOT
BRANCH   1  13
HETATM   13  C   UNL     1      -8.095   2.401  64.712  1.00  0.00    -0.082 C  
HETATM   14  C   UNL     1      -6.632   2.028  64.522  1.00  0.00    -0.023 C  
HETATM   15  O   UNL     1      -8.548   1.794  65.917  1.00  0.00    -0.100 OA 
HETATM   16  H   UNL     1      -8.453   0.852  65.836  1.00  0.00     0.000 HD 
ENDBRANCH   1  13
BRANCH  11  17
HETATM   17  S   UNL     1      -7.329   8.547  66.415  1.00  0.00    -0.080 SA 
BRANCH  17  18
HETATM   18  C   UNL     1      -6.791   8.922  68.126  1.00  0.00    -0.069 C  
HETATM   19  C   UNL     1      -7.212   7.948  69.218  1.00  0.00    -0.080 C  
HETATM   20  N   UNL     1      -8.475   8.479  69.712  1.00  0.00    -0.127 NA 
HETATM   21  H   UNL     1      -8.711   8.133  70.642  1.00  0.00     0.000 HD 
HETATM   22  C   UNL     1      -8.404   9.958  69.649  1.00  0.00    -0.172 C  
HETATM   23  C   UNL     1      -7.288  10.263  68.646  1.00  0.00    -0.083 C  
BRANCH  22  24
HETATM   24  C   UNL     1      -9.807  10.536  69.298  1.00  0.00    -0.205 C  
HETATM   25  O   UNL     1      -9.977  11.193  68.263  1.00  0.00    -0.174 OA 
HETATM   26  N   UNL     1     -10.877  10.259  70.141  1.00  0.00    -0.298 N  
HETATM   27  C   UNL     1     -10.837   9.420  71.328  1.00  0.00    -0.361 C  
HETATM   28  C   UNL     1     -12.180  10.842  69.845  1.00  0.00    -0.336 C  
ENDBRANCH  22  24
ENDBRANCH  17  18
ENDBRANCH  11  17
TORSDOF 4
ENDMDL
MODEL      218
REMARK 921   NORMALIZED FREE ENERGY PREDICTED BY IDOCK:   -3.07 KCAL/MOL
REMARK 922        TOTAL FREE ENERGY PREDICTED BY IDOCK:   -4.75 KCAL/MOL
REMARK 923 INTER-LIGAND FREE ENERGY PREDICTED BY IDOCK:   -4.34 KCAL/MOL
REMARK 924 INTRA-LIGAND FREE ENERGY PREDICTED BY IDOCK:   -0.41 KCAL/MOL
REMARK 927      BINDING AFFINITY PREDICTED BY RF-SCORE:    0.00 PKD
ROOT
HETATM    1  C   UNL     1      -9.703  10.101  68.687  1.00  0.00    -0.167 C  
HETATM    2  C   UNL     1     -10.835   9.196  68.103  1.00  0.00    -0.061 C  
HETATM    3  C   UNL     1      -9.942   9.336  69.998  1.00  0.00    -0.209 C  
HETATM    4  N   UNL     1     -10.877   8.518  69.430  1.00  0.00    -0.152 N  
HETATM    5  C   UNL     1     -10.632   8.082  67.071  1.00  0.00    -0.364 C  
HETATM    6  O   UNL     1     -10.821   6.866  71.604  1.00  0.00    -0.222 OA 
HETATM    7  O   UNL     1      -9.501   9.307  71.122  1.00  0.00    -0.267 OA 
HETATM    8  C   UNL     1     -10.611   7.168  69.244  1.00  0.00    -0.221 C  
HETATM    9  O   UNL     1     -10.335   5.050  70.383  1.00  0.00    -0.265 OA 
HETATM   10  C   UNL     1     -10.543   6.252  70.429  1.00  0.00    -0.252 C  
HETATM   11  C   UNL     1     -10.467   6.855  67.941  1.00  0.00    -0.212 C  
HETATM   12  C   UNL     1      -9.494   8.399  66.113  1.00  0.00    -0.263 C  
ENDROOT
BRANCH   1  13
HETATM   13  C   UNL     1      -9.995  11.589  68.726  1.00  0.00    -0.157 C  
HETATM   14  C   UNL     1     -10.808  12.004  67.507  1.00  0.00    -0.284 C  
HETATM   15  O   UNL     1     -10.772  11.870  69.885  1.00  0.00    -0.338 OA 
HETATM   16  H   UNL     1     -10.955  12.802  69.909  1.00  0.00     0.000 HD 
ENDBRANCH   1  13
BRANCH  11  17
HETATM   17  S   UNL     1     -10.038   5.338  67.251  1.00  0.00    -0.199 SA 
BRANCH  17  18
HETATM   18  C   UNL     1      -8.253   5.129  67.607  1.00  0.00    -0.099 C  
HETATM   19  C   UNL     1      -7.514   6.326  68.191  1.00  0.00    -0.090 C  
HETATM   20  N   UNL     1      -6.995   7.034  67.030  1.00  0.00    -0.068 NA 
HETATM   21  H   UNL     1      -6.220   7.656  67.261  1.00  0.00     0.000 HD 
HETATM   22  C   UNL     1      -6.635   6.027  66.003  1.00  0.00    -0.048 C  
HETATM   23  C   UNL     1      -7.420   4.769  66.385  1.00  0.00    -0.086 C  
BRANCH  22  24
HETATM   24  C   UNL     1      -6.922   6.599  64.584  1.00  0.00    -0.054 C  
HETATM   25  O   UNL     1      -7.697   6.017  63.814  1.00  0.00    -0.087 OA 
HETATM   26  N   UNL     1      -6.333   7.802  64.213  1.00  0.00    -0.052 N  
HETATM   27  C   UNL     1      -5.488   8.636  65.053  1.00  0.00    -0.039 C  
HETATM   28  C   UNL     1      -6.556   8.314  62.867  1.00  0.00    -0.086 C  
ENDBRANCH  22  24
ENDBRANCH  17  18
ENDBRANCH  11  17
TORSDOF 4
ENDMDL
MODEL      219
REMARK 921   NORMALIZED FREE ENERGY PREDICTED BY IDOCK:   -3.06 KCAL/MOL
REMARK 922        TOTAL FREE ENERGY PREDICTED BY IDOCK:   -4.75 KCAL/MOL
REMARK 923 INTER-LIGAND FREE ENERGY PREDICTED BY IDOCK:   -4.05 KCAL/MOL
REMARK 924 INTRA-LIGAND FREE ENERGY PREDICTED BY IDOCK:   -0.70 KCAL/MOL
REMARK 927      BINDING AFFINITY PREDICTED BY RF-SCORE:    0.00 PKD
ROOT
HETATM    1  C   UNL     1     -10.323   5.975  71.470  1.00  0.00    -0.261 C  
HETATM    2  C   UNL     1      -9.044   6.745  71.008  1.00  0.00    -0.156 C  
HETATM    3  C   UNL     1     -10.967   6.535  70.192  1.00  0.00    -0.317 C  
HETATM    4  N   UNL     1      -9.808   7.134  69.789  1.00  0.00    -0.172 N  
HETATM    5  C   UNL     1      -7.754   6.092  70.502  1.00  0.00    -0.101 C  
HETATM    6  O   UNL     1     -10.853   7.591  67.307  1.00  0.00    -0.299 OA 
HETATM    7  O   UNL     1     -12.026   6.479  69.615  1.00  0.00    -0.216 OA 
HETATM    8  C   UNL     1      -9.126   6.667  68.673  1.00  0.00    -0.126 C  
HETATM    9  O   UNL     1      -9.182   6.529  66.257  1.00  0.00    -0.159 OA 
HETATM   10  C   UNL     1      -9.701   6.879  67.304  1.00  0.00    -0.146 C  
HETATM   11  C   UNL     1      -7.961   6.075  69.003  1.00  0.00    -0.104 C  
HETATM   12  C   UNL     1      -7.498   4.751  71.172  1.00  0.00    -0.072 C  
ENDROOT
BRANCH   1  13
HETATM   13  C   UNL     1     -10.939   6.435  72.778  1.00  0.00    -0.257 C  
HETATM   14  C   UNL     1     -11.739   7.714  72.569  1.00  0.00    -0.352 C  
HETATM   15  O   UNL     1     -11.836   5.430  73.236  1.00  0.00    -0.515 OA 
HETATM   16  H   UNL     1     -12.221   5.718  74.055  1.00  0.00     0.000 HD 
ENDBRANCH   1  13
BRANCH  11  17
HETATM   17  S   UNL     1      -6.843   5.272  67.969  1.00  0.00    -0.061 SA 
BRANCH  17  18
HETATM   18  C   UNL     1      -7.422   3.537  67.880  1.00  0.00    -0.061 C  
HETATM   19  C   UNL     1      -6.450   2.506  67.322  1.00  0.00    -0.035 C  
HETATM   20  N   UNL     1      -6.741   2.466  65.896  1.00  0.00    -0.038 NA 
HETATM   21  H   UNL     1      -6.411   1.609  65.450  1.00  0.00     0.000 HD 
HETATM   22  C   UNL     1      -8.196   2.681  65.720  1.00  0.00    -0.087 C  
HETATM   23  C   UNL     1      -8.663   3.346  67.018  1.00  0.00    -0.132 C  
BRANCH  22  24
HETATM   24  C   UNL     1      -8.453   3.490  64.415  1.00  0.00    -0.093 C  
HETATM   25  O   UNL     1      -7.674   4.386  64.064  1.00  0.00    -0.076 OA 
HETATM   26  N   UNL     1      -9.544   3.155  63.621  1.00  0.00    -0.113 N  
HETATM   27  C   UNL     1     -10.475   2.064  63.862  1.00  0.00     0.032 C  
HETATM   28  C   UNL     1      -9.819   3.945  62.427  1.00  0.00    -0.135 C  
ENDBRANCH  22  24
ENDBRANCH  17  18
ENDBRANCH  11  17
TORSDOF 4
ENDMDL
MODEL      220
REMARK 921   NORMALIZED FREE ENERGY PREDICTED BY IDOCK:   -3.04 KCAL/MOL
REMARK 922        TOTAL FREE ENERGY PREDICTED BY IDOCK:   -4.71 KCAL/MOL
REMARK 923 INTER-LIGAND FREE ENERGY PREDICTED BY IDOCK:   -5.08 KCAL/MOL
REMARK 924 INTRA-LIGAND FREE ENERGY PREDICTED BY IDOCK:    0.36 KCAL/MOL
REMARK 927      BINDING AFFINITY PREDICTED BY RF-SCORE:    0.00 PKD
ROOT
HETATM    1  C   UNL     1      -8.253   9.796  63.825  1.00  0.00    -0.162 C  
HETATM    2  C   UNL     1      -9.256   9.471  64.977  1.00  0.00    -0.236 C  
HETATM    3  C   UNL     1      -9.244  10.908  63.447  1.00  0.00    -0.265 C  
HETATM    4  N   UNL     1     -10.058  10.637  64.508  1.00  0.00    -0.342 N  
HETATM    5  C   UNL     1      -8.999   9.714  66.468  1.00  0.00    -0.171 C  
HETATM    6  O   UNL     1     -11.435  12.961  64.105  1.00  0.00    -0.350 OA 
HETATM    7  O   UNL     1      -9.346  11.786  62.624  1.00  0.00    -0.306 OA 
HETATM    8  C   UNL     1     -10.175  11.542  65.555  1.00  0.00    -0.258 C  
HETATM    9  O   UNL     1     -11.076  13.697  66.192  1.00  0.00    -0.294 OA 
HETATM   10  C   UNL     1     -10.898  12.839  65.342  1.00  0.00    -0.286 C  
HETATM   11  C   UNL     1      -9.605  11.084  66.687  1.00  0.00    -0.189 C  
HETATM   12  C   UNL     1      -7.528   9.553  66.822  1.00  0.00    -0.094 C  
ENDROOT
BRANCH   1  13
HETATM   13  C   UNL     1      -8.054   8.705  62.790  1.00  0.00    -0.178 C  
HETATM   14  C   UNL     1      -6.573   8.523  62.486  1.00  0.00    -0.091 C  
HETATM   15  O   UNL     1      -8.544   7.479  63.321  1.00  0.00    -0.362 OA 
HETATM   16  H   UNL     1      -8.420   6.797  62.673  1.00  0.00     0.000 HD 
ENDBRANCH   1  13
BRANCH  11  17
HETATM   17  S   UNL     1      -9.422  11.896  68.193  1.00  0.00    -0.197 SA 
BRANCH  17  18
HETATM   18  C   UNL     1      -7.686  12.479  68.225  1.00  0.00    -0.141 C  
HETATM   19  C   UNL     1      -7.201  13.154  69.501  1.00  0.00     0.359 C  
HETATM   20  N   UNL     1      -7.462  14.570  69.285  1.00  0.00    -0.249 NA 
HETATM   21  H   UNL     1      -6.906  15.172  69.893  1.00  0.00     0.000 HD 
HETATM   22  C   UNL     1      -7.253  14.859  67.846  1.00  0.00    -0.153 C  
HETATM   23  C   UNL     1      -7.361  13.502  67.145  1.00  0.00     0.117 C  
BRANCH  22  24
HETATM   24  C   UNL     1      -8.264  15.946  67.376  1.00  0.00    -0.168 C  
HETATM   25  O   UNL     1      -8.014  16.659  66.396  1.00  0.00    -0.276 OA 
HETATM   26  N   UNL     1      -9.477  16.068  68.045  1.00  0.00    -0.206 N  
HETATM   27  C   UNL     1      -9.937  15.231  69.141  1.00  0.00    -0.238 C  
HETATM   28  C   UNL     1     -10.403  17.119  67.643  1.00  0.00    -0.344 C  
ENDBRANCH  22  24
ENDBRANCH  17  18
ENDBRANCH  11  17
TORSDOF 4
ENDMDL
MODEL      221
REMARK 921   NORMALIZED FREE ENERGY PREDICTED BY IDOCK:   -3.02 KCAL/MOL
REMARK 922        TOTAL FREE ENERGY PREDICTED BY IDOCK:   -4.70 KCAL/MOL
REMARK 923 INTER-LIGAND FREE ENERGY PREDICTED BY IDOCK:   -3.97 KCAL/MOL
REMARK 924 INTRA-LIGAND FREE ENERGY PREDICTED BY IDOCK:   -0.73 KCAL/MOL
REMARK 927      BINDING AFFINITY PREDICTED BY RF-SCORE:    0.00 PKD
ROOT
HETATM    1  C   UNL     1     -11.388  12.174  65.732  1.00  0.00    -0.402 C  
HETATM    2  C   UNL     1     -11.285  12.295  67.287  1.00  0.00    -0.300 C  
HETATM    3  C   UNL     1     -10.333  13.290  65.703  1.00  0.00    -0.287 C  
HETATM    4  N   UNL     1     -10.221  13.315  67.063  1.00  0.00    -0.242 N  
HETATM    5  C   UNL     1     -10.667  11.244  68.216  1.00  0.00    -0.231 C  
HETATM    6  O   UNL     1      -7.976  14.861  66.898  1.00  0.00    -0.180 OA 
HETATM    7  O   UNL     1      -9.708  13.923  64.884  1.00  0.00    -0.094 OA 
HETATM    8  C   UNL     1      -9.056  12.880  67.682  1.00  0.00    -0.194 C  
HETATM    9  O   UNL     1      -6.733  13.425  68.089  1.00  0.00    -0.089 OA 
HETATM   10  C   UNL     1      -7.804  13.700  67.573  1.00  0.00    -0.177 C  
HETATM   11  C   UNL     1      -9.238  11.725  68.350  1.00  0.00    -0.175 C  
HETATM   12  C   UNL     1     -10.866   9.832  67.685  1.00  0.00    -0.301 C  
ENDROOT
BRANCH   1  13
HETATM   13  C   UNL     1     -12.736  12.519  65.127  1.00  0.00    -0.127 C  
HETATM   14  C   UNL     1     -13.264  13.821  65.713  1.00  0.00     0.158 C  
HETATM   15  O   UNL     1     -12.570  12.707  63.726  1.00  0.00    -0.651 OA 
HETATM   16  H   UNL     1     -13.414  12.923  63.347  1.00  0.00     0.000 HD 
ENDBRANCH   1  13
BRANCH  11  17
HETATM   17  S   UNL     1      -8.065  10.774  69.176  1.00  0.00    -0.093 SA 
BRANCH  17  18
HETATM   18  C   UNL     1      -6.913  10.187  67.877  1.00  0.00    -0.083 C  
HETATM   19  C   UNL     1      -7.526   9.523  66.652  1.00  0.00    -0.093 C  
HETATM   20  N   UNL     1      -7.557   8.106  66.984  1.00  0.00    -0.094 NA 
HETATM   21  H   UNL     1      -7.631   7.509  66.159  1.00  0.00     0.000 HD 
HETATM   22  C   UNL     1      -6.361   7.803  67.806  1.00  0.00    -0.051 C  
HETATM   23  C   UNL     1      -5.909   9.154  68.368  1.00  0.00    -0.041 C  
BRANCH  22  24
HETATM   24  C   UNL     1      -6.713   6.714  68.863  1.00  0.00    -0.056 C  
HETATM   25  O   UNL     1      -7.464   6.976  69.812  1.00  0.00    -0.092 OA 
HETATM   26  N   UNL     1      -6.212   5.429  68.695  1.00  0.00    -0.029 N  
HETATM   27  C   UNL     1      -5.406   4.964  67.578  1.00  0.00    -0.012 C  
HETATM   28  C   UNL     1      -6.494   4.421  69.710  1.00  0.00    -0.032 C  
ENDBRANCH  22  24
ENDBRANCH  17  18
ENDBRANCH  11  17
TORSDOF 4
ENDMDL
MODEL      222
REMARK 921   NORMALIZED FREE ENERGY PREDICTED BY IDOCK:   -2.98 KCAL/MOL
REMARK 922        TOTAL FREE ENERGY PREDICTED BY IDOCK:   -4.65 KCAL/MOL
REMARK 923 INTER-LIGAND FREE ENERGY PREDICTED BY IDOCK:   -3.78 KCAL/MOL
REMARK 924 INTRA-LIGAND FREE ENERGY PREDICTED BY IDOCK:   -0.87 KCAL/MOL
REMARK 927      BINDING AFFINITY PREDICTED BY RF-SCORE:    0.00 PKD
ROOT
HETATM    1  C   UNL     1      -9.474   9.643  64.531  1.00  0.00    -0.182 C  
HETATM    2  C   UNL     1      -8.755   8.935  65.724  1.00  0.00    -0.176 C  
HETATM    3  C   UNL     1      -8.572   8.777  63.638  1.00  0.00    -0.041 C  
HETATM    4  N   UNL     1      -8.019   8.131  64.707  1.00  0.00    -0.140 N  
HETATM    5  C   UNL     1      -9.404   7.918  66.669  1.00  0.00    -0.244 C  
HETATM    6  O   UNL     1      -6.896   6.266  63.058  1.00  0.00    -0.039 OA 
HETATM    7  O   UNL     1      -8.382   8.584  62.461  1.00  0.00    -0.188 OA 
HETATM    8  C   UNL     1      -8.284   6.786  64.930  1.00  0.00    -0.082 C  
HETATM    9  O   UNL     1      -7.855   4.544  64.126  1.00  0.00    -0.081 OA 
HETATM   10  C   UNL     1      -7.704   5.750  64.014  1.00  0.00    -0.101 C  
HETATM   11  C   UNL     1      -9.054   6.596  66.020  1.00  0.00    -0.077 C  
HETATM   12  C   UNL     1     -10.883   8.205  66.879  1.00  0.00    -0.007 C  
ENDROOT
BRANCH   1  13
HETATM   13  C   UNL     1      -9.267  11.143  64.427  1.00  0.00    -0.107 C  
HETATM   14  C   UNL     1     -10.310  11.761  63.507  1.00  0.00    -0.490 C  
HETATM   15  O   UNL     1      -9.430  11.715  65.719  1.00  0.00    -0.228 OA 
HETATM   16  H   UNL     1      -9.300  12.654  65.654  1.00  0.00     0.000 HD 
ENDBRANCH   1  13
BRANCH  11  17
HETATM   17  S   UNL     1      -9.708   5.121  66.619  1.00  0.00    -0.188 SA 
BRANCH  17  18
HETATM   18  C   UNL     1      -8.403   4.408  67.688  1.00  0.00    -0.099 C  
HETATM   19  C   UNL     1      -8.686   3.054  68.324  1.00  0.00    -0.107 C  
HETATM   20  N   UNL     1      -9.285   3.375  69.612  1.00  0.00    -0.140 NA 
HETATM   21  H   UNL     1      -9.229   2.604  70.277  1.00  0.00     0.000 HD 
HETATM   22  C   UNL     1      -8.648   4.615  70.115  1.00  0.00    -0.078 C  
HETATM   23  C   UNL     1      -8.038   5.282  68.879  1.00  0.00    -0.086 C  
BRANCH  22  24
HETATM   24  C   UNL     1      -9.695   5.464  70.895  1.00  0.00    -0.180 C  
HETATM   25  O   UNL     1     -10.644   5.995  70.303  1.00  0.00    -0.229 OA 
HETATM   26  N   UNL     1      -9.576   5.574  72.276  1.00  0.00    -0.151 N  
HETATM   27  C   UNL     1      -8.574   4.921  73.103  1.00  0.00    -0.106 C  
HETATM   28  C   UNL     1     -10.522   6.411  73.003  1.00  0.00    -0.230 C  
ENDBRANCH  22  24
ENDBRANCH  17  18
ENDBRANCH  11  17
TORSDOF 4
ENDMDL
MODEL      223
REMARK 921   NORMALIZED FREE ENERGY PREDICTED BY IDOCK:   -2.97 KCAL/MOL
REMARK 922        TOTAL FREE ENERGY PREDICTED BY IDOCK:   -4.64 KCAL/MOL
REMARK 923 INTER-LIGAND FREE ENERGY PREDICTED BY IDOCK:   -3.59 KCAL/MOL
REMARK 924 INTRA-LIGAND FREE ENERGY PREDICTED BY IDOCK:   -1.05 KCAL/MOL
REMARK 927      BINDING AFFINITY PREDICTED BY RF-SCORE:    0.00 PKD
ROOT
HETATM    1  C   UNL     1      -7.953   4.013  71.907  1.00  0.00    -0.079 C  
HETATM    2  C   UNL     1      -9.401   4.580  71.754  1.00  0.00    -0.142 C  
HETATM    3  C   UNL     1      -8.104   3.579  70.441  1.00  0.00    -0.052 C  
HETATM    4  N   UNL     1      -9.339   4.150  70.329  1.00  0.00    -0.143 N  
HETATM    5  C   UNL     1      -9.769   6.067  71.726  1.00  0.00    -0.171 C  
HETATM    6  O   UNL     1      -9.282   3.850  67.614  1.00  0.00    -0.139 OA 
HETATM    7  O   UNL     1      -7.450   3.026  69.590  1.00  0.00    -0.044 OA 
HETATM    8  C   UNL     1      -9.528   5.265  69.523  1.00  0.00    -0.138 C  
HETATM    9  O   UNL     1      -9.633   6.031  67.228  1.00  0.00    -0.111 OA 
HETATM   10  C   UNL     1      -9.466   5.126  68.031  1.00  0.00    -0.127 C  
HETATM   11  C   UNL     1      -9.778   6.375  70.245  1.00  0.00    -0.167 C  
HETATM   12  C   UNL     1      -8.833   6.898  72.592  1.00  0.00    -0.137 C  
ENDROOT
BRANCH   1  13
HETATM   13  C   UNL     1      -7.781   2.892  72.916  1.00  0.00    -0.051 C  
HETATM   14  C   UNL     1      -9.107   2.585  73.600  1.00  0.00    -0.083 C  
HETATM   15  O   UNL     1      -7.364   1.720  72.226  1.00  0.00    -0.036 OA 
HETATM   16  H   UNL     1      -7.257   1.019  72.858  1.00  0.00     0.000 HD 
ENDBRANCH   1  13
BRANCH  11  17
HETATM   17  S   UNL     1      -9.976   7.990  69.683  1.00  0.00    -0.193 SA 
BRANCH  17  18
HETATM   18  C   UNL     1      -8.289   8.572  69.268  1.00  0.00    -0.120 C  
HETATM   19  C   UNL     1      -7.611   9.507  70.261  1.00  0.00    -0.155 C  
HETATM   20  N   UNL     1      -7.967  10.843  69.803  1.00  0.00    -0.334 NA 
HETATM   21  H   UNL     1      -7.337  11.562  70.158  1.00  0.00     0.000 HD 
HETATM   22  C   UNL     1      -8.034  10.816  68.323  1.00  0.00    -0.118 C  
HETATM   23  C   UNL     1      -8.209   9.340  67.956  1.00  0.00    -0.115 C  
BRANCH  22  24
HETATM   24  C   UNL     1      -9.160  11.773  67.831  1.00  0.00    -0.181 C  
HETATM   25  O   UNL     1     -10.308  11.351  67.639  1.00  0.00    -0.177 OA 
HETATM   26  N   UNL     1      -8.868  13.121  67.659  1.00  0.00    -0.179 N  
HETATM   27  C   UNL     1      -7.595  13.764  67.945  1.00  0.00    -0.156 C  
HETATM   28  C   UNL     1      -9.903  14.010  67.148  1.00  0.00    -0.240 C  
ENDBRANCH  22  24
ENDBRANCH  17  18
ENDBRANCH  11  17
TORSDOF 4
ENDMDL
MODEL      224
REMARK 921   NORMALIZED FREE ENERGY PREDICTED BY IDOCK:   -2.96 KCAL/MOL
REMARK 922        TOTAL FREE ENERGY PREDICTED BY IDOCK:   -4.63 KCAL/MOL
REMARK 923 INTER-LIGAND FREE ENERGY PREDICTED BY IDOCK:   -3.81 KCAL/MOL
REMARK 924 INTRA-LIGAND FREE ENERGY PREDICTED BY IDOCK:   -0.82 KCAL/MOL
REMARK 927      BINDING AFFINITY PREDICTED BY RF-SCORE:    0.00 PKD
ROOT
HETATM    1  C   UNL     1      -8.826   3.696  68.229  1.00  0.00    -0.151 C  
HETATM    2  C   UNL     1      -7.541   4.315  67.591  1.00  0.00    -0.073 C  
HETATM    3  C   UNL     1      -8.450   4.515  69.473  1.00  0.00    -0.076 C  
HETATM    4  N   UNL     1      -7.376   5.087  68.855  1.00  0.00    -0.057 N  
HETATM    5  C   UNL     1      -7.526   5.351  66.463  1.00  0.00    -0.087 C  
HETATM    6  O   UNL     1      -7.123   6.907  70.876  1.00  0.00    -0.065 OA 
HETATM    7  O   UNL     1      -8.882   4.725  70.582  1.00  0.00    -0.107 OA 
HETATM    8  C   UNL     1      -7.380   6.442  68.548  1.00  0.00    -0.087 C  
HETATM    9  O   UNL     1      -7.252   8.667  69.494  1.00  0.00    -0.057 OA 
HETATM   10  C   UNL     1      -7.276   7.456  69.648  1.00  0.00    -0.078 C  
HETATM   11  C   UNL     1      -7.458   6.659  67.221  1.00  0.00    -0.092 C  
HETATM   12  C   UNL     1      -8.701   5.171  65.513  1.00  0.00    -0.147 C  
ENDROOT
BRANCH   1  13
HETATM   13  C   UNL     1      -8.822   2.188  68.402  1.00  0.00    -0.109 C  
HETATM   14  C   UNL     1      -7.516   1.597  67.889  1.00  0.00    -0.053 C  
HETATM   15  O   UNL     1      -8.920   1.890  69.790  1.00  0.00    -0.068 OA 
HETATM   16  H   UNL     1      -8.918   0.946  69.898  1.00  0.00     0.000 HD 
ENDBRANCH   1  13
BRANCH  11  17
HETATM   17  S   UNL     1      -7.589   8.163  66.393  1.00  0.00    -0.092 SA 
BRANCH  17  18
HETATM   18  C   UNL     1      -9.373   8.364  66.029  1.00  0.00    -0.177 C  
HETATM   19  C   UNL     1      -9.848   9.750  65.615  1.00  0.00    -0.301 C  
HETATM   20  N   UNL     1     -10.236  10.389  66.864  1.00  0.00    -0.218 NA 
HETATM   21  H   UNL     1     -10.867  11.179  66.724  1.00  0.00     0.000 HD 
HETATM   22  C   UNL     1     -10.807   9.349  67.752  1.00  0.00    -0.159 C  
HETATM   23  C   UNL     1     -10.282   8.020  67.200  1.00  0.00    -0.362 C  
BRANCH  22  24
HETATM   24  C   UNL     1     -10.436   9.661  69.232  1.00  0.00    -0.217 C  
HETATM   25  O   UNL     1     -10.043  10.788  69.560  1.00  0.00    -0.189 OA 
HETATM   26  N   UNL     1     -10.601   8.667  70.189  1.00  0.00    -0.220 N  
HETATM   27  C   UNL     1     -11.146   7.339  69.958  1.00  0.00    -0.240 C  
HETATM   28  C   UNL     1     -10.204   8.937  71.565  1.00  0.00    -0.328 C  
ENDBRANCH  22  24
ENDBRANCH  17  18
ENDBRANCH  11  17
TORSDOF 4
ENDMDL
MODEL      225
REMARK 921   NORMALIZED FREE ENERGY PREDICTED BY IDOCK:   -2.92 KCAL/MOL
REMARK 922        TOTAL FREE ENERGY PREDICTED BY IDOCK:   -4.58 KCAL/MOL
REMARK 923 INTER-LIGAND FREE ENERGY PREDICTED BY IDOCK:   -5.08 KCAL/MOL
REMARK 924 INTRA-LIGAND FREE ENERGY PREDICTED BY IDOCK:    0.50 KCAL/MOL
REMARK 927      BINDING AFFINITY PREDICTED BY RF-SCORE:    0.00 PKD
ROOT
HETATM    1  C   UNL     1      -6.714   8.849  65.165  1.00  0.00    -0.072 C  
HETATM    2  C   UNL     1      -7.954   7.899  65.133  1.00  0.00    -0.132 C  
HETATM    3  C   UNL     1      -7.739   9.984  65.014  1.00  0.00    -0.138 C  
HETATM    4  N   UNL     1      -8.799   9.125  65.061  1.00  0.00    -0.197 N  
HETATM    5  C   UNL     1      -8.483   7.096  66.325  1.00  0.00    -0.138 C  
HETATM    6  O   UNL     1     -10.535  11.211  65.367  1.00  0.00    -0.264 OA 
HETATM    7  O   UNL     1      -7.749  11.190  64.951  1.00  0.00     0.343 OA 
HETATM    8  C   UNL     1      -9.661   9.130  66.150  1.00  0.00    -0.287 C  
HETATM    9  O   UNL     1     -11.408  10.386  67.260  1.00  0.00    -0.327 OA 
HETATM   10  C   UNL     1     -10.598  10.284  66.353  1.00  0.00    -0.107 C  
HETATM   11  C   UNL     1      -9.538   8.017  66.899  1.00  0.00    -0.204 C  
HETATM   12  C   UNL     1      -7.363   6.671  67.263  1.00  0.00    -0.090 C  
ENDROOT
BRANCH   1  13
HETATM   13  C   UNL     1      -5.726   8.692  64.024  1.00  0.00    -0.066 C  
HETATM   14  C   UNL     1      -6.022   7.423  63.236  1.00  0.00    -0.053 C  
HETATM   15  O   UNL     1      -5.872   9.798  63.141  1.00  0.00    -0.097 OA 
HETATM   16  H   UNL     1      -5.254   9.699  62.427  1.00  0.00     0.000 HD 
ENDBRANCH   1  13
BRANCH  11  17
HETATM   17  S   UNL     1     -10.326   7.637  68.381  1.00  0.00    -0.176 SA 
BRANCH  17  18
HETATM   18  C   UNL     1      -9.645   8.814  69.609  1.00  0.00    -0.171 C  
HETATM   19  C   UNL     1      -9.099   8.230  70.905  1.00  0.00    -0.152 C  
HETATM   20  N   UNL     1     -10.234   8.245  71.817  1.00  0.00    -0.210 NA 
HETATM   21  H   UNL     1      -9.953   8.195  72.797  1.00  0.00     0.000 HD 
HETATM   22  C   UNL     1     -11.049   9.445  71.514  1.00  0.00    -0.376 C  
HETATM   23  C   UNL     1     -10.652   9.850  70.091  1.00  0.00    -0.350 C  
BRANCH  22  24
HETATM   24  C   UNL     1     -12.557   9.124  71.731  1.00  0.00    -0.370 C  
HETATM   25  O   UNL     1     -13.365  10.029  71.982  1.00  0.00    -0.429 OA 
HETATM   26  N   UNL     1     -12.992   7.812  71.588  1.00  0.00    -0.340 N  
HETATM   27  C   UNL     1     -12.171   6.677  71.197  1.00  0.00    -0.301 C  
HETATM   28  C   UNL     1     -14.392   7.498  71.842  1.00  0.00    -0.381 C  
ENDBRANCH  22  24
ENDBRANCH  17  18
ENDBRANCH  11  17
TORSDOF 4
ENDMDL
MODEL      226
REMARK 921   NORMALIZED FREE ENERGY PREDICTED BY IDOCK:   -2.87 KCAL/MOL
REMARK 922        TOTAL FREE ENERGY PREDICTED BY IDOCK:   -4.51 KCAL/MOL
REMARK 923 INTER-LIGAND FREE ENERGY PREDICTED BY IDOCK:   -4.37 KCAL/MOL
REMARK 924 INTRA-LIGAND FREE ENERGY PREDICTED BY IDOCK:   -0.14 KCAL/MOL
REMARK 927      BINDING AFFINITY PREDICTED BY RF-SCORE:    0.00 PKD
ROOT
HETATM    1  C   UNL     1      -8.221   7.912  65.634  1.00  0.00    -0.137 C  
HETATM    2  C   UNL     1      -7.303   8.794  66.540  1.00  0.00    -0.081 C  
HETATM    3  C   UNL     1      -7.698   6.734  66.471  1.00  0.00    -0.102 C  
HETATM    4  N   UNL     1      -6.965   7.549  67.285  1.00  0.00    -0.081 N  
HETATM    5  C   UNL     1      -7.797   9.790  67.594  1.00  0.00    -0.095 C  
HETATM    6  O   UNL     1      -6.552   5.500  69.043  1.00  0.00    -0.047 OA 
HETATM    7  O   UNL     1      -7.851   5.538  66.543  1.00  0.00    -0.099 OA 
HETATM    8  C   UNL     1      -7.322   7.720  68.616  1.00  0.00    -0.087 C  
HETATM    9  O   UNL     1      -7.396   6.638  70.781  1.00  0.00    -0.075 OA 
HETATM   10  C   UNL     1      -7.135   6.594  69.589  1.00  0.00    -0.068 C  
HETATM   11  C   UNL     1      -7.793   8.959  68.858  1.00  0.00    -0.096 C  
HETATM   12  C   UNL     1      -9.122  10.424  67.197  1.00  0.00    -0.152 C  
ENDROOT
BRANCH   1  13
HETATM   13  C   UNL     1      -7.868   7.884  64.158  1.00  0.00    -0.136 C  
HETATM   14  C   UNL     1      -7.935   6.460  63.622  1.00  0.00    -0.084 C  
HETATM   15  O   UNL     1      -8.824   8.663  63.448  1.00  0.00    -0.429 OA 
HETATM   16  H   UNL     1      -8.603   8.645  62.525  1.00  0.00     0.000 HD 
ENDBRANCH   1  13
BRANCH  11  17
HETATM   17  S   UNL     1      -8.440   9.585  70.326  1.00  0.00    -0.195 SA 
BRANCH  17  18
HETATM   18  C   UNL     1     -10.259   9.489  70.136  1.00  0.00    -0.246 C  
HETATM   19  C   UNL     1     -11.097   9.570  71.406  1.00  0.00    -0.368 C  
HETATM   20  N   UNL     1     -11.267   8.184  71.818  1.00  0.00    -0.258 NA 
HETATM   21  H   UNL     1     -12.060   8.054  72.447  1.00  0.00     0.000 HD 
HETATM   22  C   UNL     1     -11.363   7.352  70.595  1.00  0.00    -0.281 C  
HETATM   23  C   UNL     1     -10.742   8.202  69.483  1.00  0.00    -0.180 C  
BRANCH  22  24
HETATM   24  C   UNL     1     -10.691   5.970  70.846  1.00  0.00    -0.267 C  
HETATM   25  O   UNL     1     -10.492   5.566  71.999  1.00  0.00    -0.209 OA 
HETATM   26  N   UNL     1     -10.363   5.174  69.755  1.00  0.00    -0.285 N  
HETATM   27  C   UNL     1     -10.633   5.482  68.360  1.00  0.00    -0.140 C  
HETATM   28  C   UNL     1      -9.685   3.905  69.983  1.00  0.00    -0.172 C  
ENDBRANCH  22  24
ENDBRANCH  17  18
ENDBRANCH  11  17
TORSDOF 4
ENDMDL
MODEL      227
REMARK 921   NORMALIZED FREE ENERGY PREDICTED BY IDOCK:   -2.75 KCAL/MOL
REMARK 922        TOTAL FREE ENERGY PREDICTED BY IDOCK:   -4.36 KCAL/MOL
REMARK 923 INTER-LIGAND FREE ENERGY PREDICTED BY IDOCK:   -4.91 KCAL/MOL
REMARK 924 INTRA-LIGAND FREE ENERGY PREDICTED BY IDOCK:    0.55 KCAL/MOL
REMARK 927      BINDING AFFINITY PREDICTED BY RF-SCORE:    0.00 PKD
ROOT
HETATM    1  C   UNL     1      -7.440   8.605  65.611  1.00  0.00    -0.085 C  
HETATM    2  C   UNL     1      -8.928   9.060  65.467  1.00  0.00    -0.204 C  
HETATM    3  C   UNL     1      -7.147  10.086  65.893  1.00  0.00    -0.114 C  
HETATM    4  N   UNL     1      -8.467  10.430  65.829  1.00  0.00    -0.160 N  
HETATM    5  C   UNL     1     -10.054   8.724  66.451  1.00  0.00    -0.313 C  
HETATM    6  O   UNL     1      -7.926  12.889  66.888  1.00  0.00    -0.071 OA 
HETATM    7  O   UNL     1      -6.199  10.786  66.160  1.00  0.00    -0.112 OA 
HETATM    8  C   UNL     1      -9.145  10.836  66.971  1.00  0.00    -0.144 C  
HETATM    9  O   UNL     1      -9.381  12.634  68.575  1.00  0.00    -0.178 OA 
HETATM   10  C   UNL     1      -8.836  12.169  67.586  1.00  0.00    -0.172 C  
HETATM   11  C   UNL     1     -10.054   9.926  67.371  1.00  0.00    -0.205 C  
HETATM   12  C   UNL     1      -9.850   7.365  67.101  1.00  0.00    -0.253 C  
ENDROOT
BRANCH   1  13
HETATM   13  C   UNL     1      -6.798   8.028  64.362  1.00  0.00    -0.064 C  
HETATM   14  C   UNL     1      -5.459   7.388  64.700  1.00  0.00    -0.033 C  
HETATM   15  O   UNL     1      -7.648   7.013  63.841  1.00  0.00    -0.095 OA 
HETATM   16  H   UNL     1      -7.246   6.652  63.060  1.00  0.00     0.000 HD 
ENDBRANCH   1  13
BRANCH  11  17
HETATM   17  S   UNL     1     -11.047   9.957  68.776  1.00  0.00    -0.077 SA 
BRANCH  17  18
HETATM   18  C   UNL     1      -9.919   9.604  70.177  1.00  0.00    -0.261 C  
HETATM   19  C   UNL     1      -9.017   8.383  70.053  1.00  0.00    -0.138 C  
HETATM   20  N   UNL     1      -9.783   7.303  70.659  1.00  0.00    -0.176 NA 
HETATM   21  H   UNL     1      -9.199   6.516  70.943  1.00  0.00     0.000 HD 
HETATM   22  C   UNL     1     -10.568   7.871  71.781  1.00  0.00    -0.226 C  
HETATM   23  C   UNL     1     -10.636   9.375  71.500  1.00  0.00    -0.331 C  
BRANCH  22  24
HETATM   24  C   UNL     1     -11.938   7.139  71.887  1.00  0.00    -0.307 C  
HETATM   25  O   UNL     1     -11.994   5.903  71.890  1.00  0.00    -0.206 OA 
HETATM   26  N   UNL     1     -13.095   7.897  72.029  1.00  0.00    -0.270 N  
HETATM   27  C   UNL     1     -13.160   9.345  72.141  1.00  0.00    -0.442 C  
HETATM   28  C   UNL     1     -14.384   7.219  72.074  1.00  0.00    -0.272 C  
ENDBRANCH  22  24
ENDBRANCH  17  18
ENDBRANCH  11  17
TORSDOF 4
ENDMDL
MODEL      228
REMARK 921   NORMALIZED FREE ENERGY PREDICTED BY IDOCK:   -2.74 KCAL/MOL
REMARK 922        TOTAL FREE ENERGY PREDICTED BY IDOCK:   -4.36 KCAL/MOL
REMARK 923 INTER-LIGAND FREE ENERGY PREDICTED BY IDOCK:   -3.80 KCAL/MOL
REMARK 924 INTRA-LIGAND FREE ENERGY PREDICTED BY IDOCK:   -0.56 KCAL/MOL
REMARK 927      BINDING AFFINITY PREDICTED BY RF-SCORE:    0.00 PKD
ROOT
HETATM    1  C   UNL     1      -7.390   4.784  65.825  1.00  0.00    -0.077 C  
HETATM    2  C   UNL     1      -8.949   4.817  65.715  1.00  0.00    -0.138 C  
HETATM    3  C   UNL     1      -7.473   6.309  65.650  1.00  0.00    -0.082 C  
HETATM    4  N   UNL     1      -8.838   6.301  65.630  1.00  0.00    -0.120 N  
HETATM    5  C   UNL     1      -9.922   4.536  66.865  1.00  0.00    -0.229 C  
HETATM    6  O   UNL     1      -8.904   9.018  65.899  1.00  0.00    -0.153 OA 
HETATM    7  O   UNL     1      -6.725   7.256  65.611  1.00  0.00    -0.050 OA 
HETATM    8  C   UNL     1      -9.560   6.858  66.678  1.00  0.00    -0.168 C  
HETATM    9  O   UNL     1     -10.193   8.943  67.732  1.00  0.00    -0.201 OA 
HETATM   10  C   UNL     1      -9.580   8.346  66.861  1.00  0.00    -0.202 C  
HETATM   11  C   UNL     1     -10.197   5.921  67.408  1.00  0.00    -0.194 C  
HETATM   12  C   UNL     1      -9.360   3.516  67.845  1.00  0.00    -0.238 C  
ENDROOT
BRANCH   1  13
HETATM   13  C   UNL     1      -6.663   4.030  64.727  1.00  0.00    -0.044 C  
HETATM   14  C   UNL     1      -7.359   4.235  63.389  1.00  0.00    -0.050 C  
HETATM   15  O   UNL     1      -5.343   4.551  64.616  1.00  0.00    -0.012 OA 
HETATM   16  H   UNL     1      -4.888   4.079  63.929  1.00  0.00     0.000 HD 
ENDBRANCH   1  13
BRANCH  11  17
HETATM   17  S   UNL     1     -11.121   6.135  68.845  1.00  0.00    -0.247 SA 
BRANCH  17  18
HETATM   18  C   UNL     1      -9.923   6.690  70.115  1.00  0.00    -0.173 C  
HETATM   19  C   UNL     1      -8.453   6.376  69.871  1.00  0.00    -0.131 C  
HETATM   20  N   UNL     1      -8.244   5.090  70.522  1.00  0.00    -0.098 NA 
HETATM   21  H   UNL     1      -7.261   4.907  70.727  1.00  0.00     0.000 HD 
HETATM   22  C   UNL     1      -9.100   5.045  71.731  1.00  0.00    -0.137 C  
HETATM   23  C   UNL     1     -10.179   6.106  71.497  1.00  0.00    -0.243 C  
BRANCH  22  24
HETATM   24  C   UNL     1      -9.615   3.593  71.955  1.00  0.00    -0.144 C  
HETATM   25  O   UNL     1      -9.325   2.691  71.159  1.00  0.00    -0.115 OA 
HETATM   26  N   UNL     1     -10.366   3.314  73.092  1.00  0.00    -0.150 N  
HETATM   27  C   UNL     1     -10.691   4.253  74.153  1.00  0.00    -0.240 C  
HETATM   28  C   UNL     1     -10.896   1.970  73.278  1.00  0.00    -0.159 C  
ENDBRANCH  22  24
ENDBRANCH  17  18
ENDBRANCH  11  17
TORSDOF 4
ENDMDL
MODEL      229
REMARK 921   NORMALIZED FREE ENERGY PREDICTED BY IDOCK:   -2.73 KCAL/MOL
REMARK 922        TOTAL FREE ENERGY PREDICTED BY IDOCK:   -4.34 KCAL/MOL
REMARK 923 INTER-LIGAND FREE ENERGY PREDICTED BY IDOCK:   -3.71 KCAL/MOL
REMARK 924 INTRA-LIGAND FREE ENERGY PREDICTED BY IDOCK:   -0.64 KCAL/MOL
REMARK 927      BINDING AFFINITY PREDICTED BY RF-SCORE:    0.00 PKD
ROOT
HETATM    1  C   UNL     1     -11.207   7.341  70.106  1.00  0.00    -0.264 C  
HETATM    2  C   UNL     1     -10.428   6.166  69.433  1.00  0.00    -0.256 C  
HETATM    3  C   UNL     1      -9.846   7.734  70.702  1.00  0.00    -0.182 C  
HETATM    4  N   UNL     1      -9.192   6.736  70.039  1.00  0.00    -0.158 N  
HETATM    5  C   UNL     1     -10.139   6.042  67.933  1.00  0.00    -0.183 C  
HETATM    6  O   UNL     1      -6.774   7.836  70.674  1.00  0.00    -0.038 OA 
HETATM    7  O   UNL     1      -9.385   8.595  71.412  1.00  0.00    -0.190 OA 
HETATM    8  C   UNL     1      -8.298   7.037  69.019  1.00  0.00    -0.126 C  
HETATM    9  O   UNL     1      -6.115   7.963  68.535  1.00  0.00    -0.038 OA 
HETATM   10  C   UNL     1      -6.980   7.673  69.346  1.00  0.00    -0.063 C  
HETATM   11  C   UNL     1      -8.768   6.668  67.811  1.00  0.00    -0.116 C  
HETATM   12  C   UNL     1     -11.249   6.654  67.091  1.00  0.00    -0.306 C  
ENDROOT
BRANCH   1  13
HETATM   13  C   UNL     1     -12.278   6.943  71.105  1.00  0.00    -0.379 C  
HETATM   14  C   UNL     1     -11.759   5.855  72.034  1.00  0.00    -0.255 C  
HETATM   15  O   UNL     1     -12.602   8.078  71.900  1.00  0.00    -0.310 OA 
HETATM   16  H   UNL     1     -13.272   7.828  72.525  1.00  0.00     0.000 HD 
ENDBRANCH   1  13
BRANCH  11  17
HETATM   17  S   UNL     1      -8.054   6.929  66.266  1.00  0.00    -0.117 SA 
BRANCH  17  18
HETATM   18  C   UNL     1      -6.827   5.584  66.063  1.00  0.00    -0.058 C  
HETATM   19  C   UNL     1      -7.077   4.576  64.949  1.00  0.00    -0.062 C  
HETATM   20  N   UNL     1      -7.840   3.512  65.586  1.00  0.00    -0.088 NA 
HETATM   21  H   UNL     1      -7.800   2.634  65.068  1.00  0.00     0.000 HD 
HETATM   22  C   UNL     1      -7.360   3.378  66.982  1.00  0.00    -0.067 C  
HETATM   23  C   UNL     1      -6.667   4.707  67.296  1.00  0.00    -0.051 C  
BRANCH  22  24
HETATM   24  C   UNL     1      -8.550   2.998  67.911  1.00  0.00    -0.095 C  
HETATM   25  O   UNL     1      -9.605   2.557  67.437  1.00  0.00    -0.097 OA 
HETATM   26  N   UNL     1      -8.391   3.114  69.287  1.00  0.00    -0.058 N  
HETATM   27  C   UNL     1      -7.176   3.520  69.977  1.00  0.00    -0.041 C  
HETATM   28  C   UNL     1      -9.519   2.812  70.158  1.00  0.00    -0.107 C  
ENDBRANCH  22  24
ENDBRANCH  17  18
ENDBRANCH  11  17
TORSDOF 4
ENDMDL
MODEL      230
REMARK 921   NORMALIZED FREE ENERGY PREDICTED BY IDOCK:   -2.73 KCAL/MOL
REMARK 922        TOTAL FREE ENERGY PREDICTED BY IDOCK:   -4.34 KCAL/MOL
REMARK 923 INTER-LIGAND FREE ENERGY PREDICTED BY IDOCK:   -5.71 KCAL/MOL
REMARK 924 INTRA-LIGAND FREE ENERGY PREDICTED BY IDOCK:    1.37 KCAL/MOL
REMARK 927      BINDING AFFINITY PREDICTED BY RF-SCORE:    0.00 PKD
ROOT
HETATM    1  C   UNL     1      -8.276   9.529  64.050  1.00  0.00    -0.160 C  
HETATM    2  C   UNL     1      -9.408   9.475  65.126  1.00  0.00    -0.252 C  
HETATM    3  C   UNL     1      -9.087  10.682  63.438  1.00  0.00    -0.241 C  
HETATM    4  N   UNL     1     -10.017  10.648  64.437  1.00  0.00    -0.330 N  
HETATM    5  C   UNL     1      -9.252   9.887  66.594  1.00  0.00    -0.185 C  
HETATM    6  O   UNL     1     -11.059  13.035  63.612  1.00  0.00    -0.383 OA 
HETATM    7  O   UNL     1      -9.010  11.448  62.507  1.00  0.00    -0.321 OA 
HETATM    8  C   UNL     1     -10.111  11.694  65.347  1.00  0.00    -0.259 C  
HETATM    9  O   UNL     1     -10.792  14.001  65.617  1.00  0.00    -0.284 OA 
HETATM   10  C   UNL     1     -10.649  13.022  64.903  1.00  0.00    -0.337 C  
HETATM   11  C   UNL     1      -9.702  11.332  66.578  1.00  0.00    -0.202 C  
HETATM   12  C   UNL     1      -7.848   9.613  67.112  1.00  0.00    -0.091 C  
ENDROOT
BRANCH   1  13
HETATM   13  C   UNL     1      -8.125   8.293  63.183  1.00  0.00    -0.142 C  
HETATM   14  C   UNL     1      -6.687   8.153  62.702  1.00  0.00    -0.086 C  
HETATM   15  O   UNL     1      -8.435   7.147  63.967  1.00  0.00    -0.353 OA 
HETATM   16  H   UNL     1      -8.340   6.373  63.424  1.00  0.00     0.000 HD 
ENDBRANCH   1  13
BRANCH  11  17
HETATM   17  S   UNL     1      -9.551  12.315  67.983  1.00  0.00    -0.209 SA 
BRANCH  17  18
HETATM   18  C   UNL     1     -11.214  12.323  68.752  1.00  0.00    -0.265 C  
HETATM   19  C   UNL     1     -12.355  12.916  67.937  1.00  0.00     0.263 C  
HETATM   20  N   UNL     1     -12.388  14.319  68.326  1.00  0.00    -0.580 NA 
HETATM   21  H   UNL     1     -13.284  14.764  68.121  1.00  0.00     0.000 HD 
HETATM   22  C   UNL     1     -12.018  14.405  69.758  1.00  0.00    -0.332 C  
HETATM   23  C   UNL     1     -11.282  13.097  70.061  1.00  0.00     0.174 C  
BRANCH  22  24
HETATM   24  C   UNL     1     -11.209  15.711  70.013  1.00  0.00    -0.325 C  
HETATM   25  O   UNL     1     -11.335  16.334  71.076  1.00  0.00    -0.389 OA 
HETATM   26  N   UNL     1     -10.305  16.141  69.048  1.00  0.00    -0.241 N  
HETATM   27  C   UNL     1      -9.988  15.453  67.807  1.00  0.00    -0.225 C  
HETATM   28  C   UNL     1      -9.587  17.391  69.259  1.00  0.00     0.042 C  
ENDBRANCH  22  24
ENDBRANCH  17  18
ENDBRANCH  11  17
TORSDOF 4
ENDMDL
MODEL      231
REMARK 921   NORMALIZED FREE ENERGY PREDICTED BY IDOCK:   -2.68 KCAL/MOL
REMARK 922        TOTAL FREE ENERGY PREDICTED BY IDOCK:   -4.28 KCAL/MOL
REMARK 923 INTER-LIGAND FREE ENERGY PREDICTED BY IDOCK:   -3.53 KCAL/MOL
REMARK 924 INTRA-LIGAND FREE ENERGY PREDICTED BY IDOCK:   -0.75 KCAL/MOL
REMARK 927      BINDING AFFINITY PREDICTED BY RF-SCORE:    0.00 PKD
ROOT
HETATM    1  C   UNL     1      -6.916  10.296  67.174  1.00  0.00    -0.088 C  
HETATM    2  C   UNL     1      -7.867   9.451  66.268  1.00  0.00    -0.100 C  
HETATM    3  C   UNL     1      -8.148  10.484  68.073  1.00  0.00    -0.111 C  
HETATM    4  N   UNL     1      -8.926   9.680  67.291  1.00  0.00    -0.134 N  
HETATM    5  C   UNL     1      -7.790   7.932  66.080  1.00  0.00    -0.094 C  
HETATM    6  O   UNL     1     -10.862   9.600  69.217  1.00  0.00    -0.224 OA 
HETATM    7  O   UNL     1      -8.433  11.025  69.115  1.00  0.00    -0.118 OA 
HETATM    8  C   UNL     1      -9.360   8.447  67.761  1.00  0.00    -0.134 C  
HETATM    9  O   UNL     1     -10.863   7.361  69.317  1.00  0.00    -0.213 OA 
HETATM   10  C   UNL     1     -10.397   8.384  68.843  1.00  0.00    -0.215 C  
HETATM   11  C   UNL     1      -8.764   7.423  67.120  1.00  0.00    -0.121 C  
HETATM   12  C   UNL     1      -6.359   7.423  66.176  1.00  0.00    -0.042 C  
ENDROOT
BRANCH   1  13
HETATM   13  C   UNL     1      -6.353  11.560  66.550  1.00  0.00    -0.054 C  
HETATM   14  C   UNL     1      -5.226  12.119  67.406  1.00  0.00    -0.110 C  
HETATM   15  O   UNL     1      -5.812  11.234  65.274  1.00  0.00    -0.460 OA 
HETATM   16  H   UNL     1      -5.460  12.025  64.884  1.00  0.00     0.000 HD 
ENDBRANCH   1  13
BRANCH  11  17
HETATM   17  S   UNL     1      -8.917   5.737  67.431  1.00  0.00    -0.106 SA 
BRANCH  17  18
HETATM   18  C   UNL     1      -7.586   5.340  68.626  1.00  0.00    -0.082 C  
HETATM   19  C   UNL     1      -7.284   3.867  68.869  1.00  0.00    -0.054 C  
HETATM   20  N   UNL     1      -8.130   3.503  69.996  1.00  0.00    -0.046 NA 
HETATM   21  H   UNL     1      -7.808   2.662  70.476  1.00  0.00     0.000 HD 
HETATM   22  C   UNL     1      -8.222   4.678  70.896  1.00  0.00    -0.089 C  
HETATM   23  C   UNL     1      -7.836   5.879  70.027  1.00  0.00    -0.100 C  
BRANCH  22  24
HETATM   24  C   UNL     1      -9.638   4.736  71.541  1.00  0.00    -0.160 C  
HETATM   25  O   UNL     1     -10.649   4.837  70.833  1.00  0.00    -0.105 OA 
HETATM   26  N   UNL     1      -9.753   4.620  72.921  1.00  0.00    -0.134 N  
HETATM   27  C   UNL     1      -8.661   4.396  73.855  1.00  0.00    -0.101 C  
HETATM   28  C   UNL     1     -11.071   4.728  73.533  1.00  0.00    -0.335 C  
ENDBRANCH  22  24
ENDBRANCH  17  18
ENDBRANCH  11  17
TORSDOF 4
ENDMDL
MODEL      232
REMARK 921   NORMALIZED FREE ENERGY PREDICTED BY IDOCK:   -2.68 KCAL/MOL
REMARK 922        TOTAL FREE ENERGY PREDICTED BY IDOCK:   -4.27 KCAL/MOL
REMARK 923 INTER-LIGAND FREE ENERGY PREDICTED BY IDOCK:   -5.98 KCAL/MOL
REMARK 924 INTRA-LIGAND FREE ENERGY PREDICTED BY IDOCK:    1.70 KCAL/MOL
REMARK 927      BINDING AFFINITY PREDICTED BY RF-SCORE:    0.00 PKD
ROOT
HETATM    1  C   UNL     1      -9.528   7.381  68.238  1.00  0.00    -0.143 C  
HETATM    2  C   UNL     1      -9.107   8.849  68.565  1.00  0.00    -0.137 C  
HETATM    3  C   UNL     1      -9.960   7.310  69.711  1.00  0.00    -0.183 C  
HETATM    4  N   UNL     1      -9.644   8.619  69.937  1.00  0.00    -0.170 N  
HETATM    5  C   UNL     1      -9.812  10.107  68.047  1.00  0.00    -0.169 C  
HETATM    6  O   UNL     1     -10.948   8.569  72.336  1.00  0.00    -0.357 OA 
HETATM    7  O   UNL     1     -10.462   6.516  70.469  1.00  0.00    -0.197 OA 
HETATM    8  C   UNL     1     -10.644   9.552  70.181  1.00  0.00    -0.254 C  
HETATM    9  O   UNL     1     -12.275  10.296  71.808  1.00  0.00    -0.351 OA 
HETATM   10  C   UNL     1     -11.394   9.518  71.480  1.00  0.00    -0.385 C  
HETATM   11  C   UNL     1     -10.786  10.421  69.161  1.00  0.00    -0.236 C  
HETATM   12  C   UNL     1     -10.403   9.894  66.661  1.00  0.00    -0.275 C  
ENDROOT
BRANCH   1  13
HETATM   13  C   UNL     1      -8.407   6.443  67.830  1.00  0.00    -0.118 C  
HETATM   14  C   UNL     1      -7.517   7.101  66.784  1.00  0.00    -0.089 C  
HETATM   15  O   UNL     1      -7.606   6.169  68.974  1.00  0.00    -0.088 OA 
HETATM   16  H   UNL     1      -6.904   5.582  68.718  1.00  0.00     0.000 HD 
ENDBRANCH   1  13
BRANCH  11  17
HETATM   17  S   UNL     1     -11.954  11.673  68.982  1.00  0.00    -0.248 SA 
BRANCH  17  18
HETATM   18  C   UNL     1     -11.134  12.963  67.972  1.00  0.00    -0.253 C  
HETATM   19  C   UNL     1      -9.664  13.243  68.260  1.00  0.00    -0.225 C  
HETATM   20  N   UNL     1      -9.685  14.312  69.247  1.00  0.00    -0.415 NA 
HETATM   21  H   UNL     1      -8.803  14.823  69.294  1.00  0.00     0.000 HD 
HETATM   22  C   UNL     1     -10.841  15.190  68.947  1.00  0.00    -0.241 C  
HETATM   23  C   UNL     1     -11.779  14.337  68.088  1.00  0.00    -0.385 C  
BRANCH  22  24
HETATM   24  C   UNL     1     -11.446  15.732  70.275  1.00  0.00    -0.359 C  
HETATM   25  O   UNL     1     -11.050  16.800  70.760  1.00  0.00    -0.100 OA 
HETATM   26  N   UNL     1     -12.476  15.023  70.883  1.00  0.00    -0.317 N  
HETATM   27  C   UNL     1     -13.102  13.815  70.370  1.00  0.00     0.142 C  
HETATM   28  C   UNL     1     -13.008  15.498  72.154  1.00  0.00    -0.422 C  
ENDBRANCH  22  24
ENDBRANCH  17  18
ENDBRANCH  11  17
TORSDOF 4
ENDMDL
MODEL      233
REMARK 921   NORMALIZED FREE ENERGY PREDICTED BY IDOCK:   -2.67 KCAL/MOL
REMARK 922        TOTAL FREE ENERGY PREDICTED BY IDOCK:   -4.26 KCAL/MOL
REMARK 923 INTER-LIGAND FREE ENERGY PREDICTED BY IDOCK:   -3.70 KCAL/MOL
REMARK 924 INTRA-LIGAND FREE ENERGY PREDICTED BY IDOCK:   -0.56 KCAL/MOL
REMARK 927      BINDING AFFINITY PREDICTED BY RF-SCORE:    0.00 PKD
ROOT
HETATM    1  C   UNL     1      -9.601  11.616  66.663  1.00  0.00    -0.220 C  
HETATM    2  C   UNL     1      -8.232  11.042  66.174  1.00  0.00    -0.155 C  
HETATM    3  C   UNL     1     -10.046  10.148  66.737  1.00  0.00    -0.219 C  
HETATM    4  N   UNL     1      -8.814   9.685  66.375  1.00  0.00    -0.147 N  
HETATM    5  C   UNL     1      -6.928  11.061  66.979  1.00  0.00    -0.117 C  
HETATM    6  O   UNL     1      -9.511   7.140  67.080  1.00  0.00    -0.136 OA 
HETATM    7  O   UNL     1     -11.027   9.515  67.050  1.00  0.00    -0.138 OA 
HETATM    8  C   UNL     1      -8.025   8.997  67.288  1.00  0.00    -0.099 C  
HETATM    9  O   UNL     1      -7.785   6.910  68.492  1.00  0.00    -0.108 OA 
HETATM   10  C   UNL     1      -8.411   7.612  67.713  1.00  0.00    -0.118 C  
HETATM   11  C   UNL     1      -6.946   9.712  67.664  1.00  0.00    -0.087 C  
HETATM   12  C   UNL     1      -6.836  12.285  67.878  1.00  0.00    -0.093 C  
ENDROOT
BRANCH   1  13
HETATM   13  C   UNL     1     -10.349  12.486  65.670  1.00  0.00    -0.271 C  
HETATM   14  C   UNL     1     -11.705  12.889  66.232  1.00  0.00    -0.457 C  
HETATM   15  O   UNL     1      -9.598  13.675  65.451  1.00  0.00    -0.520 OA 
HETATM   16  H   UNL     1     -10.066  14.219  64.829  1.00  0.00     0.000 HD 
ENDBRANCH   1  13
BRANCH  11  17
HETATM   17  S   UNL     1      -5.755   9.307  68.839  1.00  0.00    -0.040 SA 
BRANCH  17  18
HETATM   18  C   UNL     1      -6.352  10.037  70.410  1.00  0.00    -0.115 C  
HETATM   19  C   UNL     1      -5.300  10.431  71.438  1.00  0.00    -0.055 C  
HETATM   20  N   UNL     1      -5.151   9.250  72.277  1.00  0.00    -0.067 NA 
HETATM   21  H   UNL     1      -4.738   9.460  73.186  1.00  0.00     0.000 HD 
HETATM   22  C   UNL     1      -6.477   8.596  72.386  1.00  0.00    -0.062 C  
HETATM   23  C   UNL     1      -7.283   9.125  71.196  1.00  0.00    -0.091 C  
BRANCH  22  24
HETATM   24  C   UNL     1      -6.297   7.051  72.448  1.00  0.00    -0.052 C  
HETATM   25  O   UNL     1      -5.173   6.542  72.340  1.00  0.00    -0.030 OA 
HETATM   26  N   UNL     1      -7.412   6.253  72.677  1.00  0.00    -0.098 N  
HETATM   27  C   UNL     1      -8.765   6.725  72.921  1.00  0.00    -0.120 C  
HETATM   28  C   UNL     1      -7.256   4.804  72.682  1.00  0.00    -0.083 C  
ENDBRANCH  22  24
ENDBRANCH  17  18
ENDBRANCH  11  17
TORSDOF 4
ENDMDL
MODEL      234
REMARK 921   NORMALIZED FREE ENERGY PREDICTED BY IDOCK:   -2.66 KCAL/MOL
REMARK 922        TOTAL FREE ENERGY PREDICTED BY IDOCK:   -4.26 KCAL/MOL
REMARK 923 INTER-LIGAND FREE ENERGY PREDICTED BY IDOCK:   -5.12 KCAL/MOL
REMARK 924 INTRA-LIGAND FREE ENERGY PREDICTED BY IDOCK:    0.86 KCAL/MOL
REMARK 927      BINDING AFFINITY PREDICTED BY RF-SCORE:    0.00 PKD
ROOT
HETATM    1  C   UNL     1     -10.737  13.204  66.764  1.00  0.00    -0.274 C  
HETATM    2  C   UNL     1     -11.635  11.941  66.568  1.00  0.00    -0.255 C  
HETATM    3  C   UNL     1     -11.148  13.112  68.241  1.00  0.00    -0.266 C  
HETATM    4  N   UNL     1     -11.866  11.968  68.041  1.00  0.00    -0.319 N  
HETATM    5  C   UNL     1     -11.122  10.532  66.252  1.00  0.00     0.145 C  
HETATM    6  O   UNL     1     -12.067  11.566  70.735  1.00  0.00    -0.364 OA 
HETATM    7  O   UNL     1     -10.935  13.695  69.278  1.00  0.00    -0.228 OA 
HETATM    8  C   UNL     1     -11.432  10.762  68.577  1.00  0.00    -0.292 C  
HETATM    9  O   UNL     1     -11.169   9.514  70.635  1.00  0.00    -0.258 OA 
HETATM   10  C   UNL     1     -11.503  10.537  70.058  1.00  0.00    -0.316 C  
HETATM   11  C   UNL     1     -11.005   9.909  67.626  1.00  0.00    -0.200 C  
HETATM   12  C   UNL     1      -9.856  10.568  65.408  1.00  0.00    -0.335 C  
ENDROOT
BRANCH   1  13
HETATM   13  C   UNL     1     -11.181  14.456  66.029  1.00  0.00    -0.333 C  
HETATM   14  C   UNL     1     -10.370  14.641  64.755  1.00  0.00    -0.286 C  
HETATM   15  O   UNL     1     -12.547  14.304  65.658  1.00  0.00    -0.461 OA 
HETATM   16  H   UNL     1     -12.825  15.087  65.198  1.00  0.00     0.000 HD 
ENDBRANCH   1  13
BRANCH  11  17
HETATM   17  S   UNL     1     -10.296   8.354  67.829  1.00  0.00    -0.224 SA 
BRANCH  17  18
HETATM   18  C   UNL     1      -8.562   8.532  67.266  1.00  0.00    -0.123 C  
HETATM   19  C   UNL     1      -8.040   7.495  66.280  1.00  0.00    -0.113 C  
HETATM   20  N   UNL     1      -7.451   6.460  67.118  1.00  0.00    -0.083 NA 
HETATM   21  H   UNL     1      -6.785   5.875  66.613  1.00  0.00     0.000 HD 
HETATM   22  C   UNL     1      -6.854   7.118  68.304  1.00  0.00    -0.074 C  
HETATM   23  C   UNL     1      -7.542   8.483  68.395  1.00  0.00    -0.096 C  
BRANCH  22  24
HETATM   24  C   UNL     1      -7.011   6.197  69.550  1.00  0.00    -0.067 C  
HETATM   25  O   UNL     1      -6.298   6.360  70.549  1.00  0.00    -0.037 OA 
HETATM   26  N   UNL     1      -8.000   5.220  69.542  1.00  0.00    -0.086 N  
HETATM   27  C   UNL     1      -8.967   4.990  68.480  1.00  0.00    -0.107 C  
HETATM   28  C   UNL     1      -8.115   4.321  70.683  1.00  0.00    -0.063 C  
ENDBRANCH  22  24
ENDBRANCH  17  18
ENDBRANCH  11  17
TORSDOF 4
ENDMDL
MODEL      235
REMARK 921   NORMALIZED FREE ENERGY PREDICTED BY IDOCK:   -2.57 KCAL/MOL
REMARK 922        TOTAL FREE ENERGY PREDICTED BY IDOCK:   -4.15 KCAL/MOL
REMARK 923 INTER-LIGAND FREE ENERGY PREDICTED BY IDOCK:   -3.59 KCAL/MOL
REMARK 924 INTRA-LIGAND FREE ENERGY PREDICTED BY IDOCK:   -0.55 KCAL/MOL
REMARK 927      BINDING AFFINITY PREDICTED BY RF-SCORE:    0.00 PKD
ROOT
HETATM    1  C   UNL     1      -7.119   5.878  68.750  1.00  0.00    -0.081 C  
HETATM    2  C   UNL     1      -6.141   6.883  68.061  1.00  0.00    -0.033 C  
HETATM    3  C   UNL     1      -7.172   6.908  69.889  1.00  0.00    -0.076 C  
HETATM    4  N   UNL     1      -6.371   7.789  69.222  1.00  0.00    -0.035 N  
HETATM    5  C   UNL     1      -6.460   7.714  66.814  1.00  0.00    -0.053 C  
HETATM    6  O   UNL     1      -6.979   9.766  71.007  1.00  0.00    -0.310 OA 
HETATM    7  O   UNL     1      -7.721   7.048  70.956  1.00  0.00    -0.089 OA 
HETATM    8  C   UNL     1      -6.885   8.990  68.750  1.00  0.00    -0.061 C  
HETATM    9  O   UNL     1      -7.699  11.171  69.415  1.00  0.00    -0.085 OA 
HETATM   10  C   UNL     1      -7.257  10.074  69.718  1.00  0.00    -0.127 C  
HETATM   11  C   UNL     1      -6.958   9.015  67.405  1.00  0.00    -0.078 C  
HETATM   12  C   UNL     1      -7.409   6.982  65.875  1.00  0.00    -0.075 C  
ENDROOT
BRANCH   1  13
HETATM   13  C   UNL     1      -6.536   4.524  69.108  1.00  0.00    -0.041 C  
HETATM   14  C   UNL     1      -6.442   3.642  67.871  1.00  0.00    -0.037 C  
HETATM   15  O   UNL     1      -5.218   4.714  69.609  1.00  0.00     0.000 OA 
HETATM   16  H   UNL     1      -4.854   3.866  69.833  1.00  0.00     0.000 HD 
ENDBRANCH   1  13
BRANCH  11  17
HETATM   17  S   UNL     1      -7.614  10.245  66.395  1.00  0.00    -0.122 SA 
BRANCH  17  18
HETATM   18  C   UNL     1      -9.293   9.664  65.948  1.00  0.00    -0.218 C  
HETATM   19  C   UNL     1     -10.349  10.727  65.677  1.00  0.00    -0.230 C  
HETATM   20  N   UNL     1     -10.986  10.945  66.968  1.00  0.00    -0.269 NA 
HETATM   21  H   UNL     1     -11.908  11.374  66.886  1.00  0.00     0.000 HD 
HETATM   22  C   UNL     1     -11.018   9.649  67.687  1.00  0.00    -0.124 C  
HETATM   23  C   UNL     1      -9.944   8.790  67.011  1.00  0.00    -0.307 C  
BRANCH  22  24
HETATM   24  C   UNL     1     -10.830   9.890  69.213  1.00  0.00    -0.227 C  
HETATM   25  O   UNL     1     -10.678  11.036  69.656  1.00  0.00    -0.224 OA 
HETATM   26  N   UNL     1     -10.887   8.803  70.077  1.00  0.00    -0.232 N  
HETATM   27  C   UNL     1     -11.160   7.425  69.701  1.00  0.00    -0.111 C  
HETATM   28  C   UNL     1     -10.658   9.017  71.500  1.00  0.00    -0.345 C  
ENDBRANCH  22  24
ENDBRANCH  17  18
ENDBRANCH  11  17
TORSDOF 4
ENDMDL
MODEL      236
REMARK 921   NORMALIZED FREE ENERGY PREDICTED BY IDOCK:   -2.57 KCAL/MOL
REMARK 922        TOTAL FREE ENERGY PREDICTED BY IDOCK:   -4.14 KCAL/MOL
REMARK 923 INTER-LIGAND FREE ENERGY PREDICTED BY IDOCK:   -3.69 KCAL/MOL
REMARK 924 INTRA-LIGAND FREE ENERGY PREDICTED BY IDOCK:   -0.45 KCAL/MOL
REMARK 927      BINDING AFFINITY PREDICTED BY RF-SCORE:    0.00 PKD
ROOT
HETATM    1  C   UNL     1      -9.255  11.235  65.892  1.00  0.00    -0.229 C  
HETATM    2  C   UNL     1      -8.464  10.182  65.052  1.00  0.00    -0.163 C  
HETATM    3  C   UNL     1     -10.184  10.065  66.250  1.00  0.00    -0.215 C  
HETATM    4  N   UNL     1      -9.424   9.162  65.563  1.00  0.00    -0.239 N  
HETATM    5  C   UNL     1      -7.068   9.648  65.393  1.00  0.00    -0.100 C  
HETATM    6  O   UNL     1     -10.778   7.083  66.704  1.00  0.00    -0.249 OA 
HETATM    7  O   UNL     1     -11.169   9.864  66.920  1.00  0.00     0.032 OA 
HETATM    8  C   UNL     1      -8.709   8.183  66.241  1.00  0.00    -0.150 C  
HETATM    9  O   UNL     1      -8.914   6.130  67.508  1.00  0.00    -0.114 OA 
HETATM   10  C   UNL     1      -9.439   7.052  66.903  1.00  0.00    -0.160 C  
HETATM   11  C   UNL     1      -7.380   8.394  66.180  1.00  0.00    -0.084 C  
HETATM   12  C   UNL     1      -6.216  10.699  66.090  1.00  0.00    -0.125 C  
ENDROOT
BRANCH   1  13
HETATM   13  C   UNL     1      -9.890  12.368  65.107  1.00  0.00    -0.136 C  
HETATM   14  C   UNL     1     -10.864  11.819  64.073  1.00  0.00    -0.446 C  
HETATM   15  O   UNL     1     -10.627  13.188  66.007  1.00  0.00    -0.274 OA 
HETATM   16  H   UNL     1     -11.024  13.897  65.516  1.00  0.00     0.000 HD 
ENDBRANCH   1  13
BRANCH  11  17
HETATM   17  S   UNL     1      -6.124   7.503  66.949  1.00  0.00    -0.048 SA 
BRANCH  17  18
HETATM   18  C   UNL     1      -5.691   8.464  68.447  1.00  0.00    -0.038 C  
HETATM   19  C   UNL     1      -5.128   7.691  69.632  1.00  0.00    -0.019 C  
HETATM   20  N   UNL     1      -6.296   7.351  70.432  1.00  0.00    -0.038 NA 
HETATM   21  H   UNL     1      -6.060   7.126  71.399  1.00  0.00     0.000 HD 
HETATM   22  C   UNL     1      -7.266   8.465  70.321  1.00  0.00    -0.044 C  
HETATM   23  C   UNL     1      -6.865   9.221  69.052  1.00  0.00    -0.055 C  
BRANCH  22  24
HETATM   24  C   UNL     1      -8.718   7.901  70.343  1.00  0.00    -0.137 C  
HETATM   25  O   UNL     1      -8.926   6.704  70.581  1.00  0.00    -0.150 OA 
HETATM   26  N   UNL     1      -9.780   8.774  70.140  1.00  0.00    -0.168 N  
HETATM   27  C   UNL     1      -9.682  10.213  69.952  1.00  0.00    -0.150 C  
HETATM   28  C   UNL     1     -11.136   8.242  70.106  1.00  0.00    -0.189 C  
ENDBRANCH  22  24
ENDBRANCH  17  18
ENDBRANCH  11  17
TORSDOF 4
ENDMDL
MODEL      237
REMARK 921   NORMALIZED FREE ENERGY PREDICTED BY IDOCK:   -2.54 KCAL/MOL
REMARK 922        TOTAL FREE ENERGY PREDICTED BY IDOCK:   -4.10 KCAL/MOL
REMARK 923 INTER-LIGAND FREE ENERGY PREDICTED BY IDOCK:   -3.90 KCAL/MOL
REMARK 924 INTRA-LIGAND FREE ENERGY PREDICTED BY IDOCK:   -0.20 KCAL/MOL
REMARK 927      BINDING AFFINITY PREDICTED BY RF-SCORE:    0.00 PKD
ROOT
HETATM    1  C   UNL     1     -10.708  12.930  64.372  1.00  0.00    -0.407 C  
HETATM    2  C   UNL     1     -10.341  11.864  65.453  1.00  0.00    -0.267 C  
HETATM    3  C   UNL     1     -10.261  13.961  65.421  1.00  0.00    -0.337 C  
HETATM    4  N   UNL     1      -9.886  12.995  66.310  1.00  0.00    -0.275 N  
HETATM    5  C   UNL     1      -9.154  10.897  65.373  1.00  0.00    -0.218 C  
HETATM    6  O   UNL     1      -8.603  14.848  67.852  1.00  0.00    -0.152 OA 
HETATM    7  O   UNL     1     -10.154  15.160  65.521  1.00  0.00    -0.332 OA 
HETATM    8  C   UNL     1      -8.545  12.804  66.618  1.00  0.00    -0.006 C  
HETATM    9  O   UNL     1      -6.646  13.756  67.779  1.00  0.00    -0.148 OA 
HETATM   10  C   UNL     1      -7.815  13.828  67.435  1.00  0.00    -0.153 C  
HETATM   11  C   UNL     1      -8.073  11.642  66.125  1.00  0.00     0.128 C  
HETATM   12  C   UNL     1      -8.842  10.503  63.938  1.00  0.00    -0.203 C  
ENDROOT
BRANCH   1  13
HETATM   13  C   UNL     1     -12.169  12.989  63.966  1.00  0.00    -0.417 C  
HETATM   14  C   UNL     1     -12.797  11.604  64.035  1.00  0.00     0.001 C  
HETATM   15  O   UNL     1     -12.862  13.828  64.884  1.00  0.00    -0.690 OA 
HETATM   16  H   UNL     1     -13.777  13.865  64.630  1.00  0.00     0.000 HD 
ENDBRANCH   1  13
BRANCH  11  17
HETATM   17  S   UNL     1      -6.462  11.040  66.175  1.00  0.00    -0.032 SA 
BRANCH  17  18
HETATM   18  C   UNL     1      -6.439   9.825  67.546  1.00  0.00    -0.068 C  
HETATM   19  C   UNL     1      -7.196   8.520  67.333  1.00  0.00    -0.084 C  
HETATM   20  N   UNL     1      -8.528   8.784  67.856  1.00  0.00    -0.125 NA 
HETATM   21  H   UNL     1      -9.040   7.931  68.082  1.00  0.00     0.000 HD 
HETATM   22  C   UNL     1      -8.392   9.696  69.017  1.00  0.00    -0.122 C  
HETATM   23  C   UNL     1      -7.020  10.356  68.848  1.00  0.00    -0.067 C  
BRANCH  22  24
HETATM   24  C   UNL     1      -9.608  10.667  69.067  1.00  0.00    -0.195 C  
HETATM   25  O   UNL     1      -9.461  11.845  69.418  1.00  0.00     0.454 OA 
HETATM   26  N   UNL     1     -10.855  10.203  68.664  1.00  0.00    -0.227 N  
HETATM   27  C   UNL     1     -11.146   8.879  68.137  1.00  0.00     0.268 C  
HETATM   28  C   UNL     1     -12.006  11.091  68.761  1.00  0.00    -0.225 C  
ENDBRANCH  22  24
ENDBRANCH  17  18
ENDBRANCH  11  17
TORSDOF 4
ENDMDL
MODEL      238
REMARK 921   NORMALIZED FREE ENERGY PREDICTED BY IDOCK:   -2.53 KCAL/MOL
REMARK 922        TOTAL FREE ENERGY PREDICTED BY IDOCK:   -4.09 KCAL/MOL
REMARK 923 INTER-LIGAND FREE ENERGY PREDICTED BY IDOCK:   -4.29 KCAL/MOL
REMARK 924 INTRA-LIGAND FREE ENERGY PREDICTED BY IDOCK:    0.19 KCAL/MOL
REMARK 927      BINDING AFFINITY PREDICTED BY RF-SCORE:    0.00 PKD
ROOT
HETATM    1  C   UNL     1      -9.406  10.623  68.460  1.00  0.00    -0.170 C  
HETATM    2  C   UNL     1     -10.258   9.796  67.446  1.00  0.00    -0.230 C  
HETATM    3  C   UNL     1     -10.198   9.873  69.543  1.00  0.00    -0.225 C  
HETATM    4  N   UNL     1     -10.871   9.119  68.625  1.00  0.00    -0.113 N  
HETATM    5  C   UNL     1      -9.723   8.672  66.552  1.00  0.00    -0.325 C  
HETATM    6  O   UNL     1     -11.792   7.463  70.591  1.00  0.00    -0.286 OA 
HETATM    7  O   UNL     1     -10.249   9.814  70.748  1.00  0.00    -0.280 OA 
HETATM    8  C   UNL     1     -10.632   7.755  68.524  1.00  0.00    -0.114 C  
HETATM    9  O   UNL     1     -10.963   5.621  69.618  1.00  0.00    -0.348 OA 
HETATM   10  C   UNL     1     -11.101   6.834  69.611  1.00  0.00    -0.292 C  
HETATM   11  C   UNL     1      -9.995   7.436  67.380  1.00  0.00    -0.183 C  
HETATM   12  C   UNL     1      -8.279   8.916  66.140  1.00  0.00    -0.116 C  
ENDROOT
BRANCH   1  13
HETATM   13  C   UNL     1      -9.601  12.128  68.420  1.00  0.00    -0.186 C  
HETATM   14  C   UNL     1      -9.427  12.649  67.000  1.00  0.00    -0.220 C  
HETATM   15  O   UNL     1     -10.930  12.425  68.833  1.00  0.00    -0.229 OA 
HETATM   16  H   UNL     1     -11.051  13.367  68.808  1.00  0.00     0.000 HD 
ENDBRANCH   1  13
BRANCH  11  17
HETATM   17  S   UNL     1      -9.413   5.895  66.878  1.00  0.00    -0.141 SA 
BRANCH  17  18
HETATM   18  C   UNL     1      -7.621   5.905  67.256  1.00  0.00    -0.096 C  
HETATM   19  C   UNL     1      -6.960   4.561  67.531  1.00  0.00    -0.060 C  
HETATM   20  N   UNL     1      -7.059   4.396  68.974  1.00  0.00    -0.051 NA 
HETATM   21  H   UNL     1      -6.388   3.720  69.341  1.00  0.00     0.000 HD 
HETATM   22  C   UNL     1      -6.926   5.734  69.597  1.00  0.00    -0.063 C  
HETATM   23  C   UNL     1      -7.255   6.730  68.481  1.00  0.00    -0.085 C  
BRANCH  22  24
HETATM   24  C   UNL     1      -7.828   5.814  70.864  1.00  0.00    -0.105 C  
HETATM   25  O   UNL     1      -8.392   6.873  71.170  1.00  0.00    -0.118 OA 
HETATM   26  N   UNL     1      -8.030   4.665  71.619  1.00  0.00    -0.099 N  
HETATM   27  C   UNL     1      -7.512   3.340  71.315  1.00  0.00    -0.037 C  
HETATM   28  C   UNL     1      -8.829   4.748  72.835  1.00  0.00    -0.116 C  
ENDBRANCH  22  24
ENDBRANCH  17  18
ENDBRANCH  11  17
TORSDOF 4
ENDMDL
MODEL      239
REMARK 921   NORMALIZED FREE ENERGY PREDICTED BY IDOCK:   -2.48 KCAL/MOL
REMARK 922        TOTAL FREE ENERGY PREDICTED BY IDOCK:   -4.04 KCAL/MOL
REMARK 923 INTER-LIGAND FREE ENERGY PREDICTED BY IDOCK:   -4.24 KCAL/MOL
REMARK 924 INTRA-LIGAND FREE ENERGY PREDICTED BY IDOCK:    0.20 KCAL/MOL
REMARK 927      BINDING AFFINITY PREDICTED BY RF-SCORE:    0.00 PKD
ROOT
HETATM    1  C   UNL     1      -7.371   6.475  71.032  1.00  0.00    -0.083 C  
HETATM    2  C   UNL     1      -7.709   7.761  70.212  1.00  0.00    -0.089 C  
HETATM    3  C   UNL     1      -8.873   6.168  70.929  1.00  0.00    -0.136 C  
HETATM    4  N   UNL     1      -9.114   7.265  70.154  1.00  0.00    -0.149 N  
HETATM    5  C   UNL     1      -7.297   8.016  68.759  1.00  0.00    -0.085 C  
HETATM    6  O   UNL     1     -11.615   6.349  69.551  1.00  0.00    -0.404 OA 
HETATM    7  O   UNL     1      -9.645   5.304  71.273  1.00  0.00    -0.150 OA 
HETATM    8  C   UNL     1      -9.476   7.120  68.821  1.00  0.00    -0.141 C  
HETATM    9  O   UNL     1     -11.263   6.434  67.339  1.00  0.00    -0.352 OA 
HETATM   10  C   UNL     1     -10.833   6.586  68.471  1.00  0.00    -0.288 C  
HETATM   11  C   UNL     1      -8.502   7.528  67.985  1.00  0.00    -0.123 C  
HETATM   12  C   UNL     1      -5.962   7.366  68.427  1.00  0.00    -0.027 C  
ENDROOT
BRANCH   1  13
HETATM   13  C   UNL     1      -6.836   6.702  72.434  1.00  0.00    -0.068 C  
HETATM   14  C   UNL     1      -7.332   8.033  72.983  1.00  0.00    -0.141 C  
HETATM   15  O   UNL     1      -7.328   5.670  73.281  1.00  0.00    -0.092 OA 
HETATM   16  H   UNL     1      -6.993   5.813  74.158  1.00  0.00     0.000 HD 
ENDBRANCH   1  13
BRANCH  11  17
HETATM   17  S   UNL     1      -8.468   7.443  66.266  1.00  0.00    -0.143 SA 
BRANCH  17  18
HETATM   18  C   UNL     1      -8.042   9.133  65.703  1.00  0.00    -0.113 C  
HETATM   19  C   UNL     1      -7.079   9.934  66.570  1.00  0.00    -0.094 C  
HETATM   20  N   UNL     1      -7.941  10.671  67.483  1.00  0.00    -0.109 NA 
HETATM   21  H   UNL     1      -7.477  11.482  67.896  1.00  0.00     0.000 HD 
HETATM   22  C   UNL     1      -9.180  11.029  66.754  1.00  0.00    -0.161 C  
HETATM   23  C   UNL     1      -9.243  10.059  65.571  1.00  0.00    -0.247 C  
BRANCH  22  24
HETATM   24  C   UNL     1     -10.394  10.986  67.729  1.00  0.00    -0.188 C  
HETATM   25  O   UNL     1     -10.795   9.910  68.190  1.00  0.00    -0.241 OA 
HETATM   26  N   UNL     1     -10.988  12.182  68.115  1.00  0.00    -0.217 N  
HETATM   27  C   UNL     1     -10.553  13.516  67.731  1.00  0.00    -0.246 C  
HETATM   28  C   UNL     1     -12.156  12.144  68.984  1.00  0.00    -0.153 C  
ENDBRANCH  22  24
ENDBRANCH  17  18
ENDBRANCH  11  17
TORSDOF 4
ENDMDL
MODEL      240
REMARK 921   NORMALIZED FREE ENERGY PREDICTED BY IDOCK:   -2.36 KCAL/MOL
REMARK 922        TOTAL FREE ENERGY PREDICTED BY IDOCK:   -3.88 KCAL/MOL
REMARK 923 INTER-LIGAND FREE ENERGY PREDICTED BY IDOCK:   -3.92 KCAL/MOL
REMARK 924 INTRA-LIGAND FREE ENERGY PREDICTED BY IDOCK:    0.04 KCAL/MOL
REMARK 927      BINDING AFFINITY PREDICTED BY RF-SCORE:    0.00 PKD
ROOT
HETATM    1  C   UNL     1      -7.572  10.793  69.141  1.00  0.00    -0.133 C  
HETATM    2  C   UNL     1      -8.338  11.269  67.866  1.00  0.00    -0.131 C  
HETATM    3  C   UNL     1      -7.033  12.231  69.200  1.00  0.00    -0.041 C  
HETATM    4  N   UNL     1      -7.774  12.625  68.123  1.00  0.00    -0.132 N  
HETATM    5  C   UNL     1      -9.855  11.460  67.766  1.00  0.00    -0.186 C  
HETATM    6  O   UNL     1      -7.222  15.248  68.644  1.00  0.00    -0.113 OA 
HETATM    7  O   UNL     1      -6.311  12.898  69.901  1.00  0.00    -0.111 OA 
HETATM    8  C   UNL     1      -8.827  13.517  68.282  1.00  0.00    -0.179 C  
HETATM    9  O   UNL     1      -9.385  15.827  68.745  1.00  0.00    -0.195 OA 
HETATM   10  C   UNL     1      -8.543  14.955  68.602  1.00  0.00    -0.168 C  
HETATM   11  C   UNL     1     -10.023  12.928  68.090  1.00  0.00    -0.234 C  
HETATM   12  C   UNL     1     -10.608  10.474  68.646  1.00  0.00    -0.226 C  
ENDROOT
BRANCH   1  13
HETATM   13  C   UNL     1      -6.535   9.705  68.926  1.00  0.00    -0.046 C  
HETATM   14  C   UNL     1      -7.060   8.655  67.957  1.00  0.00    -0.082 C  
HETATM   15  O   UNL     1      -5.375  10.291  68.348  1.00  0.00    -0.036 OA 
HETATM   16  H   UNL     1      -4.726   9.611  68.214  1.00  0.00     0.000 HD 
ENDBRANCH   1  13
BRANCH  11  17
HETATM   17  S   UNL     1     -11.591  13.614  68.277  1.00  0.00    -0.360 SA 
BRANCH  17  18
HETATM   18  C   UNL     1     -11.844  14.662  66.797  1.00  0.00    -0.317 C  
HETATM   19  C   UNL     1     -13.012  14.310  65.885  1.00  0.00    -0.026 C  
HETATM   20  N   UNL     1     -12.441  13.403  64.898  1.00  0.00    -0.556 NA 
HETATM   21  H   UNL     1     -13.003  13.341  64.048  1.00  0.00     0.000 HD 
HETATM   22  C   UNL     1     -11.047  13.831  64.635  1.00  0.00    -0.388 C  
HETATM   23  C   UNL     1     -10.655  14.682  65.847  1.00  0.00    -0.319 C  
BRANCH  22  24
HETATM   24  C   UNL     1     -10.156  12.583  64.368  1.00  0.00    -0.258 C  
HETATM   25  O   UNL     1      -9.062  12.456  64.933  1.00  0.00     0.436 OA 
HETATM   26  N   UNL     1     -10.632  11.587  63.522  1.00  0.00    -0.403 N  
HETATM   27  C   UNL     1     -11.935  11.563  62.877  1.00  0.00     0.532 C  
HETATM   28  C   UNL     1      -9.779  10.443  63.226  1.00  0.00    -0.255 C  
ENDBRANCH  22  24
ENDBRANCH  17  18
ENDBRANCH  11  17
TORSDOF 4
ENDMDL
MODEL      241
REMARK 921   NORMALIZED FREE ENERGY PREDICTED BY IDOCK:   -2.25 KCAL/MOL
REMARK 922        TOTAL FREE ENERGY PREDICTED BY IDOCK:   -3.74 KCAL/MOL
REMARK 923 INTER-LIGAND FREE ENERGY PREDICTED BY IDOCK:   -4.04 KCAL/MOL
REMARK 924 INTRA-LIGAND FREE ENERGY PREDICTED BY IDOCK:    0.30 KCAL/MOL
REMARK 927      BINDING AFFINITY PREDICTED BY RF-SCORE:    0.00 PKD
ROOT
HETATM    1  C   UNL     1     -10.542  15.534  67.036  1.00  0.00    -0.311 C  
HETATM    2  C   UNL     1      -9.541  14.389  66.676  1.00  0.00    -0.281 C  
HETATM    3  C   UNL     1     -11.117  15.300  65.630  1.00  0.00    -0.308 C  
HETATM    4  N   UNL     1     -10.271  14.258  65.383  1.00  0.00    -0.356 N  
HETATM    5  C   UNL     1      -9.539  12.989  67.299  1.00  0.00    -0.225 C  
HETATM    6  O   UNL     1     -11.711  13.551  63.173  1.00  0.00    -0.107 OA 
HETATM    7  O   UNL     1     -12.005  15.731  64.934  1.00  0.00     0.043 OA 
HETATM    8  C   UNL     1     -10.761  12.962  65.283  1.00  0.00    -0.296 C  
HETATM    9  O   UNL     1     -12.048  11.455  63.892  1.00  0.00    -0.121 OA 
HETATM   10  C   UNL     1     -11.583  12.566  64.093  1.00  0.00    -0.389 C  
HETATM   11  C   UNL     1     -10.383  12.196  66.325  1.00  0.00    -0.221 C  
HETATM   12  C   UNL     1     -10.006  13.013  68.747  1.00  0.00    -0.022 C  
ENDROOT
BRANCH   1  13
HETATM   13  C   UNL     1      -9.928  16.900  67.282  1.00  0.00    -0.277 C  
HETATM   14  C   UNL     1     -10.410  17.468  68.610  1.00  0.00    -0.369 C  
HETATM   15  O   UNL     1      -8.514  16.756  67.356  1.00  0.00    -0.184 OA 
HETATM   16  H   UNL     1      -8.130  17.611  67.510  1.00  0.00     0.000 HD 
ENDBRANCH   1  13
BRANCH  11  17
HETATM   17  S   UNL     1     -10.830  10.570  66.670  1.00  0.00    -0.026 SA 
BRANCH  17  18
HETATM   18  C   UNL     1      -9.544   9.532  65.880  1.00  0.00    -0.261 C  
HETATM   19  C   UNL     1      -9.507   8.058  66.261  1.00  0.00    -0.172 C  
HETATM   20  N   UNL     1      -8.582   7.996  67.384  1.00  0.00    -0.125 NA 
HETATM   21  H   UNL     1      -8.207   7.060  67.535  1.00  0.00     0.000 HD 
HETATM   22  C   UNL     1      -7.524   9.010  67.161  1.00  0.00    -0.087 C  
HETATM   23  C   UNL     1      -8.122   9.999  66.157  1.00  0.00    -0.122 C  
BRANCH  22  24
HETATM   24  C   UNL     1      -7.082   9.615  68.526  1.00  0.00    -0.069 C  
HETATM   25  O   UNL     1      -5.988  10.184  68.638  1.00  0.00    -0.041 OA 
HETATM   26  N   UNL     1      -7.956   9.551  69.604  1.00  0.00    -0.106 N  
HETATM   27  C   UNL     1      -9.303   9.003  69.582  1.00  0.00    -0.167 C  
HETATM   28  C   UNL     1      -7.525  10.067  70.897  1.00  0.00     0.557 C  
ENDBRANCH  22  24
ENDBRANCH  17  18
ENDBRANCH  11  17
TORSDOF 4
ENDMDL
MODEL      242
REMARK 921   NORMALIZED FREE ENERGY PREDICTED BY IDOCK:   -2.13 KCAL/MOL
REMARK 922        TOTAL FREE ENERGY PREDICTED BY IDOCK:   -3.60 KCAL/MOL
REMARK 923 INTER-LIGAND FREE ENERGY PREDICTED BY IDOCK:   -4.00 KCAL/MOL
REMARK 924 INTRA-LIGAND FREE ENERGY PREDICTED BY IDOCK:    0.40 KCAL/MOL
REMARK 927      BINDING AFFINITY PREDICTED BY RF-SCORE:    0.00 PKD
ROOT
HETATM    1  C   UNL     1      -9.610  12.877  66.178  1.00  0.00    -0.215 C  
HETATM    2  C   UNL     1     -10.552  11.632  66.229  1.00  0.00    -0.258 C  
HETATM    3  C   UNL     1      -9.135  12.417  67.565  1.00  0.00    -0.185 C  
HETATM    4  N   UNL     1      -9.922  11.301  67.539  1.00  0.00    -0.180 N  
HETATM    5  C   UNL     1     -10.403  10.375  65.365  1.00  0.00    -0.270 C  
HETATM    6  O   UNL     1      -8.618  10.274  69.708  1.00  0.00    -0.162 OA 
HETATM    7  O   UNL     1      -8.340  12.758  68.407  1.00  0.00    -0.159 OA 
HETATM    8  C   UNL     1      -9.349  10.039  67.447  1.00  0.00    -0.148 C  
HETATM    9  O   UNL     1      -8.075   8.372  68.654  1.00  0.00    -0.118 OA 
HETATM   10  C   UNL     1      -8.600   9.473  68.616  1.00  0.00    -0.119 C  
HETATM   11  C   UNL     1      -9.586   9.462  66.252  1.00  0.00    -0.234 C  
HETATM   12  C   UNL     1      -9.823  10.696  63.996  1.00  0.00    -0.399 C  
ENDROOT
BRANCH   1  13
HETATM   13  C   UNL     1     -10.298  14.229  66.128  1.00  0.00    -0.299 C  
HETATM   14  C   UNL     1      -9.275  15.351  66.239  1.00  0.00    -0.354 C  
HETATM   15  O   UNL     1     -10.954  14.360  64.872  1.00  0.00    -0.366 OA 
HETATM   16  H   UNL     1     -11.384  15.206  64.841  1.00  0.00     0.000 HD 
ENDBRANCH   1  13
BRANCH  11  17
HETATM   17  S   UNL     1      -8.997   7.957  65.660  1.00  0.00     0.046 SA 
BRANCH  17  18
HETATM   18  C   UNL     1      -7.291   8.295  65.085  1.00  0.00    -0.081 C  
HETATM   19  C   UNL     1      -7.038   8.238  63.584  1.00  0.00    -0.086 C  
HETATM   20  N   UNL     1      -6.635   6.861  63.335  1.00  0.00    -0.042 NA 
HETATM   21  H   UNL     1      -6.127   6.751  62.457  1.00  0.00     0.000 HD 
HETATM   22  C   UNL     1      -5.861   6.392  64.509  1.00  0.00    -0.023 C  
HETATM   23  C   UNL     1      -6.251   7.337  65.649  1.00  0.00    -0.038 C  
BRANCH  22  24
HETATM   24  C   UNL     1      -6.146   4.881  64.755  1.00  0.00    -0.029 C  
HETATM   25  O   UNL     1      -5.350   4.186  65.399  1.00  0.00    -0.009 OA 
HETATM   26  N   UNL     1      -7.334   4.336  64.283  1.00  0.00    -0.068 N  
HETATM   27  C   UNL     1      -8.397   5.060  63.603  1.00  0.00    -0.127 C  
HETATM   28  C   UNL     1      -7.580   2.911  64.463  1.00  0.00    -0.076 C  
ENDBRANCH  22  24
ENDBRANCH  17  18
ENDBRANCH  11  17
TORSDOF 4
ENDMDL
MODEL      243
REMARK 921   NORMALIZED FREE ENERGY PREDICTED BY IDOCK:   -1.74 KCAL/MOL
REMARK 922        TOTAL FREE ENERGY PREDICTED BY IDOCK:   -3.12 KCAL/MOL
REMARK 923 INTER-LIGAND FREE ENERGY PREDICTED BY IDOCK:   -3.01 KCAL/MOL
REMARK 924 INTRA-LIGAND FREE ENERGY PREDICTED BY IDOCK:   -0.11 KCAL/MOL
REMARK 927      BINDING AFFINITY PREDICTED BY RF-SCORE:    0.00 PKD
ROOT
HETATM    1  C   UNL     1      -9.596  12.287  67.198  1.00  0.00    -0.200 C  
HETATM    2  C   UNL     1     -10.162  10.881  67.578  1.00  0.00    -0.190 C  
HETATM    3  C   UNL     1      -8.342  11.851  67.971  1.00  0.00    -0.160 C  
HETATM    4  N   UNL     1      -8.845  10.607  68.221  1.00  0.00    -0.133 N  
HETATM    5  C   UNL     1     -10.396   9.728  66.597  1.00  0.00    -0.276 C  
HETATM    6  O   UNL     1      -6.397   9.734  69.061  1.00  0.00    -0.041 OA 
HETATM    7  O   UNL     1      -7.253  12.293  68.250  1.00  0.00    -0.085 OA 
HETATM    8  C   UNL     1      -8.285   9.487  67.619  1.00  0.00    -0.121 C  
HETATM    9  O   UNL     1      -6.349   8.035  67.599  1.00  0.00    -0.050 OA 
HETATM   10  C   UNL     1      -6.927   9.013  68.044  1.00  0.00    -0.077 C  
HETATM   11  C   UNL     1      -9.107   8.942  66.701  1.00  0.00    -0.156 C  
HETATM   12  C   UNL     1     -10.781  10.231  65.214  1.00  0.00     0.210 C  
ENDROOT
BRANCH   1  13
HETATM   13  C   UNL     1     -10.343  13.480  67.766  1.00  0.00    -0.241 C  
HETATM   14  C   UNL     1      -9.394  14.378  68.547  1.00  0.00    -0.204 C  
HETATM   15  O   UNL     1     -10.874  14.240  66.686  1.00  0.00    -0.295 OA 
HETATM   16  H   UNL     1     -11.341  14.986  67.042  1.00  0.00     0.000 HD 
ENDBRANCH   1  13
BRANCH  11  17
HETATM   17  S   UNL     1      -8.798   7.616  65.648  1.00  0.00     0.020 SA 
BRANCH  17  18
HETATM   18  C   UNL     1     -10.018   6.331  66.112  1.00  0.00     0.121 C  
HETATM   19  C   UNL     1     -11.237   6.782  66.905  1.00  0.00    -0.047 C  
HETATM   20  N   UNL     1     -10.843   6.627  68.298  1.00  0.00    -0.348 NA 
HETATM   21  H   UNL     1     -11.642   6.576  68.931  1.00  0.00     0.000 HD 
HETATM   22  C   UNL     1      -9.957   5.443  68.393  1.00  0.00    -0.161 C  
HETATM   23  C   UNL     1      -9.439   5.215  66.971  1.00  0.00    -0.143 C  
BRANCH  22  24
HETATM   24  C   UNL     1      -8.869   5.687  69.479  1.00  0.00    -0.112 C  
HETATM   25  O   UNL     1      -8.558   6.838  69.813  1.00  0.00    -0.138 OA 
HETATM   26  N   UNL     1      -8.287   4.591  70.106  1.00  0.00    -0.069 N  
HETATM   27  C   UNL     1      -8.630   3.196  69.882  1.00  0.00    -0.061 C  
HETATM   28  C   UNL     1      -7.229   4.814  71.084  1.00  0.00    -0.052 C  
ENDBRANCH  22  24
ENDBRANCH  17  18
ENDBRANCH  11  17
TORSDOF 4
ENDMDL
MODEL      244
REMARK 921   NORMALIZED FREE ENERGY PREDICTED BY IDOCK:   -1.36 KCAL/MOL
REMARK 922        TOTAL FREE ENERGY PREDICTED BY IDOCK:   -2.65 KCAL/MOL
REMARK 923 INTER-LIGAND FREE ENERGY PREDICTED BY IDOCK:   -2.58 KCAL/MOL
REMARK 924 INTRA-LIGAND FREE ENERGY PREDICTED BY IDOCK:   -0.07 KCAL/MOL
REMARK 927      BINDING AFFINITY PREDICTED BY RF-SCORE:    0.00 PKD
ROOT
HETATM    1  C   UNL     1      -8.783   9.931  67.372  1.00  0.00    -0.129 C  
HETATM    2  C   UNL     1      -9.548   8.951  68.318  1.00  0.00    -0.146 C  
HETATM    3  C   UNL     1      -7.934  10.261  68.609  1.00  0.00    -0.111 C  
HETATM    4  N   UNL     1      -8.582   9.342  69.384  1.00  0.00    -0.138 N  
HETATM    5  C   UNL     1      -9.489   7.422  68.242  1.00  0.00    -0.143 C  
HETATM    6  O   UNL     1      -6.682   9.573  71.331  1.00  0.00    -0.286 OA 
HETATM    7  O   UNL     1      -6.994  10.962  68.900  1.00  0.00    -0.070 OA 
HETATM    8  C   UNL     1      -7.923   8.201  69.822  1.00  0.00    -0.111 C  
HETATM    9  O   UNL     1      -6.223   7.379  71.337  1.00  0.00    -0.036 OA 
HETATM   10  C   UNL     1      -6.853   8.313  70.867  1.00  0.00    -0.044 C  
HETATM   11  C   UNL     1      -8.388   7.087  69.223  1.00  0.00    -0.129 C  
HETATM   12  C   UNL     1      -9.304   6.934  66.813  1.00  0.00    -0.190 C  
ENDROOT
BRANCH   1  13
HETATM   13  C   UNL     1      -9.598  11.078  66.803  1.00  0.00    -0.190 C  
HETATM   14  C   UNL     1      -9.417  11.161  65.294  1.00  0.00    -0.257 C  
HETATM   15  O   UNL     1     -10.975  10.830  67.064  1.00  0.00    -0.272 OA 
HETATM   16  H   UNL     1     -11.485  11.548  66.707  1.00  0.00     0.000 HD 
ENDBRANCH   1  13
BRANCH  11  17
HETATM   17  S   UNL     1      -7.811   5.473  69.381  1.00  0.00    -0.088 SA 
BRANCH  17  18
HETATM   18  C   UNL     1      -6.075   5.517  68.798  1.00  0.00    -0.025 C  
HETATM   19  C   UNL     1      -5.796   6.257  67.496  1.00  0.00    -0.016 C  
HETATM   20  N   UNL     1      -5.906   5.234  66.466  1.00  0.00    -0.018 NA 
HETATM   21  H   UNL     1      -5.435   5.495  65.599  1.00  0.00     0.000 HD 
HETATM   22  C   UNL     1      -5.404   3.960  67.031  1.00  0.00    -0.013 C  
HETATM   23  C   UNL     1      -5.474   4.140  68.550  1.00  0.00    -0.013 C  
BRANCH  22  24
HETATM   24  C   UNL     1      -6.223   2.769  66.452  1.00  0.00    -0.024 C  
HETATM   25  O   UNL     1      -6.733   1.929  67.205  1.00  0.00    -0.037 OA 
HETATM   26  N   UNL     1      -6.417   2.693  65.078  1.00  0.00    -0.030 N  
HETATM   27  C   UNL     1      -5.962   3.662  64.094  1.00  0.00    -0.018 C  
HETATM   28  C   UNL     1      -7.137   1.552  64.527  1.00  0.00    -0.047 C  
ENDBRANCH  22  24
ENDBRANCH  17  18
ENDBRANCH  11  17
TORSDOF 4
ENDMDL
MODEL      245
REMARK 921   NORMALIZED FREE ENERGY PREDICTED BY IDOCK:   -1.14 KCAL/MOL
REMARK 922        TOTAL FREE ENERGY PREDICTED BY IDOCK:   -2.38 KCAL/MOL
REMARK 923 INTER-LIGAND FREE ENERGY PREDICTED BY IDOCK:   -2.65 KCAL/MOL
REMARK 924 INTRA-LIGAND FREE ENERGY PREDICTED BY IDOCK:    0.28 KCAL/MOL
REMARK 927      BINDING AFFINITY PREDICTED BY RF-SCORE:    0.00 PKD
ROOT
HETATM    1  C   UNL     1      -9.232  10.971  65.532  1.00  0.00    -0.235 C  
HETATM    2  C   UNL     1      -8.402   9.698  65.167  1.00  0.00    -0.137 C  
HETATM    3  C   UNL     1     -10.308   9.980  66.001  1.00  0.00    -0.152 C  
HETATM    4  N   UNL     1      -9.523   8.895  65.735  1.00  0.00    -0.230 N  
HETATM    5  C   UNL     1      -7.140   9.227  65.897  1.00  0.00    -0.090 C  
HETATM    6  O   UNL     1     -11.232   7.262  67.103  1.00  0.00    -0.215 OA 
HETATM    7  O   UNL     1     -11.408  10.009  66.499  1.00  0.00     0.278 OA 
HETATM    8  C   UNL     1      -9.026   8.114  66.770  1.00  0.00    -0.146 C  
HETATM    9  O   UNL     1      -9.628   6.499  68.470  1.00  0.00    -0.125 OA 
HETATM   10  C   UNL     1      -9.956   7.237  67.555  1.00  0.00    -0.169 C  
HETATM   11  C   UNL     1      -7.693   8.251  66.912  1.00  0.00    -0.095 C  
HETATM   12  C   UNL     1      -6.332  10.396  66.442  1.00  0.00    -0.092 C  
ENDROOT
BRANCH   1  13
HETATM   13  C   UNL     1      -9.618  11.867  64.369  1.00  0.00    -0.017 C  
HETATM   14  C   UNL     1      -9.089  11.298  63.060  1.00  0.00    -0.257 C  
HETATM   15  O   UNL     1     -11.038  11.912  64.283  1.00  0.00    -0.316 OA 
HETATM   16  H   UNL     1     -11.279  12.473  63.556  1.00  0.00     0.000 HD 
ENDBRANCH   1  13
BRANCH  11  17
HETATM   17  S   UNL     1      -6.673   7.559  68.114  1.00  0.00    -0.060 SA 
BRANCH  17  18
HETATM   18  C   UNL     1      -6.569   8.813  69.445  1.00  0.00    -0.045 C  
HETATM   19  C   UNL     1      -5.265   8.893  70.227  1.00  0.00    -0.027 C  
HETATM   20  N   UNL     1      -5.464   7.999  71.359  1.00  0.00    -0.034 NA 
HETATM   21  H   UNL     1      -4.825   8.191  72.131  1.00  0.00     0.000 HD 
HETATM   22  C   UNL     1      -6.889   8.079  71.759  1.00  0.00    -0.067 C  
HETATM   23  C   UNL     1      -7.618   8.640  70.535  1.00  0.00    -0.077 C  
BRANCH  22  24
HETATM   24  C   UNL     1      -7.374   6.684  72.255  1.00  0.00    -0.089 C  
HETATM   25  O   UNL     1      -8.254   6.594  73.121  1.00  0.00    -0.112 OA 
HETATM   26  N   UNL     1      -6.837   5.541  71.674  1.00  0.00    -0.064 N  
HETATM   27  C   UNL     1      -5.876   5.506  70.584  1.00  0.00    -0.021 C  
HETATM   28  C   UNL     1      -7.248   4.235  72.173  1.00  0.00    -0.061 C  
ENDBRANCH  22  24
ENDBRANCH  17  18
ENDBRANCH  11  17
TORSDOF 4
ENDMDL
MODEL      246
REMARK 921   NORMALIZED FREE ENERGY PREDICTED BY IDOCK:   -1.05 KCAL/MOL
REMARK 922        TOTAL FREE ENERGY PREDICTED BY IDOCK:   -2.26 KCAL/MOL
REMARK 923 INTER-LIGAND FREE ENERGY PREDICTED BY IDOCK:   -2.66 KCAL/MOL
REMARK 924 INTRA-LIGAND FREE ENERGY PREDICTED BY IDOCK:    0.39 KCAL/MOL
REMARK 927      BINDING AFFINITY PREDICTED BY RF-SCORE:    0.00 PKD
ROOT
HETATM    1  C   UNL     1      -9.894  14.587  67.690  1.00  0.00    -0.223 C  
HETATM    2  C   UNL     1      -9.708  13.564  68.856  1.00  0.00     0.100 C  
HETATM    3  C   UNL     1      -9.437  13.438  66.778  1.00  0.00    -0.261 C  
HETATM    4  N   UNL     1      -9.355  12.556  67.817  1.00  0.00    -0.190 N  
HETATM    5  C   UNL     1     -10.844  12.940  69.674  1.00  0.00     0.281 C  
HETATM    6  O   UNL     1      -9.114  10.462  66.079  1.00  0.00    -0.154 OA 
HETATM    7  O   UNL     1      -9.258  13.235  65.601  1.00  0.00     0.150 OA 
HETATM    8  C   UNL     1     -10.247  11.495  67.910  1.00  0.00    -0.184 C  
HETATM    9  O   UNL     1     -10.868   9.364  66.943  1.00  0.00    -0.149 OA 
HETATM   10  C   UNL     1     -10.151  10.353  66.943  1.00  0.00    -0.219 C  
HETATM   11  C   UNL     1     -11.108  11.646  68.936  1.00  0.00    -0.232 C  
HETATM   12  C   UNL     1     -12.020  13.893  69.827  1.00  0.00    -0.398 C  
ENDROOT
BRANCH   1  13
HETATM   13  C   UNL     1      -8.989  15.805  67.725  1.00  0.00    -0.176 C  
HETATM   14  C   UNL     1      -9.814  17.076  67.874  1.00  0.00    -0.269 C  
HETATM   15  O   UNL     1      -8.135  15.705  68.859  1.00  0.00    -0.164 OA 
HETATM   16  H   UNL     1      -7.570  16.467  68.881  1.00  0.00     0.000 HD 
ENDBRANCH   1  13
BRANCH  11  17
HETATM   17  S   UNL     1     -12.436  10.641  69.370  1.00  0.00     0.366 SA 
BRANCH  17  18
HETATM   18  C   UNL     1     -11.819   9.580  70.731  1.00  0.00    -0.277 C  
HETATM   19  C   UNL     1     -10.557  10.036  71.452  1.00  0.00     0.563 C  
HETATM   20  N   UNL     1      -9.471   9.393  70.726  1.00  0.00    -0.261 NA 
HETATM   21  H   UNL     1      -8.611   9.336  71.273  1.00  0.00     0.000 HD 
HETATM   22  C   UNL     1      -9.949   8.068  70.267  1.00  0.00    -0.189 C  
HETATM   23  C   UNL     1     -11.477   8.161  70.297  1.00  0.00    -0.066 C  
BRANCH  22  24
HETATM   24  C   UNL     1      -9.319   7.733  68.883  1.00  0.00    -0.146 C  
HETATM   25  O   UNL     1      -8.450   8.466  68.392  1.00  0.00    -0.133 OA 
HETATM   26  N   UNL     1      -9.711   6.570  68.230  1.00  0.00    -0.130 N  
HETATM   27  C   UNL     1     -10.641   5.576  68.739  1.00  0.00    -0.166 C  
HETATM   28  C   UNL     1      -9.164   6.281  66.910  1.00  0.00    -0.130 C  
ENDBRANCH  22  24
ENDBRANCH  17  18
ENDBRANCH  11  17
TORSDOF 4
ENDMDL
MODEL      247
REMARK 921   NORMALIZED FREE ENERGY PREDICTED BY IDOCK:   -0.68 KCAL/MOL
REMARK 922        TOTAL FREE ENERGY PREDICTED BY IDOCK:   -1.81 KCAL/MOL
REMARK 923 INTER-LIGAND FREE ENERGY PREDICTED BY IDOCK:   -1.88 KCAL/MOL
REMARK 924 INTRA-LIGAND FREE ENERGY PREDICTED BY IDOCK:    0.08 KCAL/MOL
REMARK 927      BINDING AFFINITY PREDICTED BY RF-SCORE:    0.00 PKD
ROOT
HETATM    1  C   UNL     1      -9.256  14.421  66.384  1.00  0.00    -0.242 C  
HETATM    2  C   UNL     1      -9.785  13.129  65.683  1.00  0.00    -0.091 C  
HETATM    3  C   UNL     1     -10.506  14.299  67.270  1.00  0.00    -0.269 C  
HETATM    4  N   UNL     1     -10.896  13.133  66.677  1.00  0.00    -0.278 N  
HETATM    5  C   UNL     1      -9.140  11.742  65.782  1.00  0.00    -0.088 C  
HETATM    6  O   UNL     1     -12.742  12.696  68.642  1.00  0.00     0.552 OA 
HETATM    7  O   UNL     1     -11.015  14.878  68.200  1.00  0.00    -0.256 OA 
HETATM    8  C   UNL     1     -10.859  11.938  67.384  1.00  0.00    -0.243 C  
HETATM    9  O   UNL     1     -11.914  10.679  69.163  1.00  0.00    -0.264 OA 
HETATM   10  C   UNL     1     -11.843  11.695  68.490  1.00  0.00    -0.292 C  
HETATM   11  C   UNL     1      -9.898  11.110  66.929  1.00  0.00    -0.194 C  
HETATM   12  C   UNL     1      -7.629  11.831  65.928  1.00  0.00     0.692 C  
ENDROOT
BRANCH   1  13
HETATM   13  C   UNL     1      -9.178  15.663  65.516  1.00  0.00     0.112 C  
HETATM   14  C   UNL     1     -10.126  16.735  66.035  1.00  0.00    -0.350 C  
HETATM   15  O   UNL     1      -7.854  16.182  65.584  1.00  0.00     0.509 OA 
HETATM   16  H   UNL     1      -7.806  16.960  65.041  1.00  0.00     0.000 HD 
ENDBRANCH   1  13
BRANCH  11  17
HETATM   17  S   UNL     1      -9.426   9.578  67.557  1.00  0.00    -0.132 SA 
BRANCH  17  18
HETATM   18  C   UNL     1      -7.878   9.889  68.487  1.00  0.00    -0.081 C  
HETATM   19  C   UNL     1      -6.630   9.146  68.030  1.00  0.00    -0.060 C  
HETATM   20  N   UNL     1      -6.624   7.924  68.823  1.00  0.00    -0.051 NA 
HETATM   21  H   UNL     1      -5.703   7.489  68.870  1.00  0.00     0.000 HD 
HETATM   22  C   UNL     1      -7.178   8.244  70.160  1.00  0.00    -0.055 C  
HETATM   23  C   UNL     1      -7.969   9.541  69.966  1.00  0.00    -0.163 C  
BRANCH  22  24
HETATM   24  C   UNL     1      -7.991   7.029  70.696  1.00  0.00    -0.109 C  
HETATM   25  O   UNL     1      -8.239   6.063  69.962  1.00  0.00    -0.117 OA 
HETATM   26  N   UNL     1      -8.392   7.024  72.027  1.00  0.00    -0.105 N  
HETATM   27  C   UNL     1      -8.081   8.042  73.018  1.00  0.00    -0.168 C  
HETATM   28  C   UNL     1      -9.199   5.914  72.518  1.00  0.00    -0.138 C  
ENDBRANCH  22  24
ENDBRANCH  17  18
ENDBRANCH  11  17
TORSDOF 4
ENDMDL
MODEL      248
REMARK 921   NORMALIZED FREE ENERGY PREDICTED BY IDOCK:   -0.12 KCAL/MOL
REMARK 922        TOTAL FREE ENERGY PREDICTED BY IDOCK:   -1.12 KCAL/MOL
REMARK 923 INTER-LIGAND FREE ENERGY PREDICTED BY IDOCK:   -3.71 KCAL/MOL
REMARK 924 INTRA-LIGAND FREE ENERGY PREDICTED BY IDOCK:    2.59 KCAL/MOL
REMARK 927      BINDING AFFINITY PREDICTED BY RF-SCORE:    0.00 PKD
ROOT
HETATM    1  C   UNL     1      -9.799  16.231  65.749  1.00  0.00    -0.332 C  
HETATM    2  C   UNL     1     -10.194  15.275  66.919  1.00  0.00    -0.268 C  
HETATM    3  C   UNL     1      -8.381  16.159  66.338  1.00  0.00    -0.322 C  
HETATM    4  N   UNL     1      -8.754  15.268  67.302  1.00  0.00    -0.185 N  
HETATM    5  C   UNL     1     -10.591  13.803  66.762  1.00  0.00    -0.273 C  
HETATM    6  O   UNL     1      -6.139  14.764  67.911  1.00  0.00    -0.141 OA 
HETATM    7  O   UNL     1      -7.280  16.594  66.098  1.00  0.00    -0.127 OA 
HETATM    8  C   UNL     1      -8.293  13.958  67.266  1.00  0.00    -0.185 C  
HETATM    9  O   UNL     1      -6.344  12.556  67.578  1.00  0.00    -0.126 OA 
HETATM   10  C   UNL     1      -6.852  13.666  67.564  1.00  0.00    -0.137 C  
HETATM   11  C   UNL     1      -9.276  13.084  66.972  1.00  0.00    -0.232 C  
HETATM   12  C   UNL     1     -11.306  13.548  65.444  1.00  0.00    -0.302 C  
ENDROOT
BRANCH   1  13
HETATM   13  C   UNL     1     -10.453  17.601  65.762  1.00  0.00    -0.205 C  
HETATM   14  C   UNL     1      -9.395  18.695  65.816  1.00  0.00     0.392 C  
HETATM   15  O   UNL     1     -11.188  17.765  64.554  1.00  0.00    -0.692 OA 
HETATM   16  H   UNL     1     -11.597  18.622  64.562  1.00  0.00     0.000 HD 
ENDBRANCH   1  13
BRANCH  11  17
HETATM   17  S   UNL     1      -9.152  11.385  66.726  1.00  0.00    -0.181 SA 
BRANCH  17  18
HETATM   18  C   UNL     1      -8.009  10.786  68.026  1.00  0.00    -0.108 C  
HETATM   19  C   UNL     1      -7.210   9.525  67.724  1.00  0.00    -0.082 C  
HETATM   20  N   UNL     1      -8.038   8.441  68.233  1.00  0.00    -0.118 NA 
HETATM   21  H   UNL     1      -7.507   7.585  68.399  1.00  0.00     0.000 HD 
HETATM   22  C   UNL     1      -8.736   8.928  69.445  1.00  0.00    -0.142 C  
HETATM   23  C   UNL     1      -8.696  10.456  69.344  1.00  0.00    -0.138 C  
BRANCH  22  24
HETATM   24  C   UNL     1     -10.156   8.292  69.525  1.00  0.00    -0.197 C  
HETATM   25  O   UNL     1     -10.958   8.649  70.397  1.00  0.00    -0.232 OA 
HETATM   26  N   UNL     1     -10.525   7.353  68.569  1.00  0.00    -0.197 N  
HETATM   27  C   UNL     1      -9.720   6.922  67.437  1.00  0.00    -0.139 C  
HETATM   28  C   UNL     1     -11.832   6.716  68.671  1.00  0.00     0.955 C  
ENDBRANCH  22  24
ENDBRANCH  17  18
ENDBRANCH  11  17
TORSDOF 4
ENDMDL
MODEL      249
REMARK 921   NORMALIZED FREE ENERGY PREDICTED BY IDOCK:    0.31 KCAL/MOL
REMARK 922        TOTAL FREE ENERGY PREDICTED BY IDOCK:   -0.59 KCAL/MOL
REMARK 923 INTER-LIGAND FREE ENERGY PREDICTED BY IDOCK:   -2.07 KCAL/MOL
REMARK 924 INTRA-LIGAND FREE ENERGY PREDICTED BY IDOCK:    1.48 KCAL/MOL
REMARK 927      BINDING AFFINITY PREDICTED BY RF-SCORE:    0.00 PKD
ROOT
HETATM    1  C   UNL     1      -9.139  10.977  64.908  1.00  0.00    -0.164 C  
HETATM    2  C   UNL     1      -8.031   9.876  64.955  1.00  0.00    -0.138 C  
HETATM    3  C   UNL     1     -10.039   9.918  65.565  1.00  0.00    -0.227 C  
HETATM    4  N   UNL     1      -9.023   9.010  65.651  1.00  0.00    -0.190 N  
HETATM    5  C   UNL     1      -6.794   9.905  65.860  1.00  0.00    -0.101 C  
HETATM    6  O   UNL     1     -10.515   7.431  67.307  1.00  0.00    -0.253 OA 
HETATM    7  O   UNL     1     -11.173   9.821  65.969  1.00  0.00     0.736 OA 
HETATM    8  C   UNL     1      -8.504   8.650  66.888  1.00  0.00    -0.112 C  
HETATM    9  O   UNL     1      -8.962   7.423  68.924  1.00  0.00    -0.132 OA 
HETATM   10  C   UNL     1      -9.323   7.812  67.825  1.00  0.00    -0.143 C  
HETATM   11  C   UNL     1      -7.253   9.117  67.067  1.00  0.00    -0.090 C  
HETATM   12  C   UNL     1      -6.312  11.325  66.112  1.00  0.00     0.009 C  
ENDROOT
BRANCH   1  13
HETATM   13  C   UNL     1      -9.559  11.438  63.525  1.00  0.00    -0.298 C  
HETATM   14  C   UNL     1     -10.499  12.631  63.625  1.00  0.00    -0.348 C  
HETATM   15  O   UNL     1      -8.400  11.855  62.813  1.00  0.00    -0.365 OA 
HETATM   16  H   UNL     1      -8.663  12.143  61.947  1.00  0.00     0.000 HD 
ENDBRANCH   1  13
BRANCH  11  17
HETATM   17  S   UNL     1      -6.263   9.003  68.471  1.00  0.00    -0.050 SA 
BRANCH  17  18
HETATM   18  C   UNL     1      -7.195   9.861  69.795  1.00  0.00    -0.118 C  
HETATM   19  C   UNL     1      -8.575  10.397  69.440  1.00  0.00    -0.130 C  
HETATM   20  N   UNL     1      -8.333  11.763  69.001  1.00  0.00    -0.368 NA 
HETATM   21  H   UNL     1      -9.170  12.346  69.043  1.00  0.00     0.000 HD 
HETATM   22  C   UNL     1      -7.212  12.309  69.803  1.00  0.00     0.635 C  
HETATM   23  C   UNL     1      -6.481  11.082  70.356  1.00  0.00     0.005 C  
BRANCH  22  24
HETATM   24  C   UNL     1      -6.356  13.268  68.924  1.00  0.00    -0.096 C  
HETATM   25  O   UNL     1      -5.989  12.927  67.792  1.00  0.00    -0.112 OA 
HETATM   26  N   UNL     1      -6.053  14.534  69.410  1.00  0.00    -0.100 N  
HETATM   27  C   UNL     1      -6.505  15.096  70.673  1.00  0.00     0.176 C  
HETATM   28  C   UNL     1      -5.207  15.415  68.614  1.00  0.00    -0.095 C  
ENDBRANCH  22  24
ENDBRANCH  17  18
ENDBRANCH  11  17
TORSDOF 4
ENDMDL
MODEL      250
REMARK 921   NORMALIZED FREE ENERGY PREDICTED BY IDOCK:    0.74 KCAL/MOL
REMARK 922        TOTAL FREE ENERGY PREDICTED BY IDOCK:   -0.05 KCAL/MOL
REMARK 923 INTER-LIGAND FREE ENERGY PREDICTED BY IDOCK:   -4.17 KCAL/MOL
REMARK 924 INTRA-LIGAND FREE ENERGY PREDICTED BY IDOCK:    4.12 KCAL/MOL
REMARK 927      BINDING AFFINITY PREDICTED BY RF-SCORE:    0.00 PKD
ROOT
HETATM    1  C   UNL     1      -9.836  16.323  66.408  1.00  0.00    -0.310 C  
HETATM    2  C   UNL     1     -10.520  15.184  67.230  1.00  0.00    -0.271 C  
HETATM    3  C   UNL     1      -8.916  16.478  67.629  1.00  0.00    -0.197 C  
HETATM    4  N   UNL     1      -9.495  15.430  68.284  1.00  0.00    -0.198 N  
HETATM    5  C   UNL     1     -10.436  13.688  66.907  1.00  0.00    -0.272 C  
HETATM    6  O   UNL     1      -7.479  15.407  70.126  1.00  0.00    -0.002 OA 
HETATM    7  O   UNL     1      -7.973  17.152  67.971  1.00  0.00    -0.200 OA 
HETATM    8  C   UNL     1      -8.787  14.254  68.495  1.00  0.00    -0.176 C  
HETATM    9  O   UNL     1      -6.978  13.253  69.754  1.00  0.00     0.127 OA 
HETATM   10  C   UNL     1      -7.654  14.231  69.477  1.00  0.00     0.149 C  
HETATM   11  C   UNL     1      -9.267  13.235  67.755  1.00  0.00    -0.209 C  
HETATM   12  C   UNL     1     -10.332  13.438  65.410  1.00  0.00    -0.321 C  
ENDROOT
BRANCH   1  13
HETATM   13  C   UNL     1     -10.708  17.520  66.079  1.00  0.00    -0.116 C  
HETATM   14  C   UNL     1      -9.970  18.816  66.384  1.00  0.00    -0.426 C  
HETATM   15  O   UNL     1     -10.999  17.502  64.686  1.00  0.00    -0.892 OA 
HETATM   16  H   UNL     1     -11.545  18.251  64.480  1.00  0.00     0.000 HD 
ENDBRANCH   1  13
BRANCH  11  17
HETATM   17  S   UNL     1      -8.650  11.634  67.618  1.00  0.00    -0.149 SA 
BRANCH  17  18
HETATM   18  C   UNL     1      -6.832  11.822  67.490  1.00  0.00    -0.113 C  
HETATM   19  C   UNL     1      -6.130  11.067  66.369  1.00  0.00    -0.141 C  
HETATM   20  N   UNL     1      -5.755   9.794  66.968  1.00  0.00    -0.050 NA 
HETATM   21  H   UNL     1      -5.008   9.323  66.457  1.00  0.00     0.000 HD 
HETATM   22  C   UNL     1      -5.414  10.040  68.389  1.00  0.00    -0.039 C  
HETATM   23  C   UNL     1      -6.079  11.375  68.735  1.00  0.00    -0.048 C  
BRANCH  22  24
HETATM   24  C   UNL     1      -5.853   8.821  69.253  1.00  0.00    -0.035 C  
HETATM   25  O   UNL     1      -5.129   7.821  69.347  1.00  0.00    -0.015 OA 
HETATM   26  N   UNL     1      -7.049   8.893  69.958  1.00  0.00    -0.046 N  
HETATM   27  C   UNL     1      -7.940  10.041  70.015  1.00  0.00    -0.150 C  
HETATM   28  C   UNL     1      -7.490   7.734  70.723  1.00  0.00    -0.070 C  
ENDBRANCH  22  24
ENDBRANCH  17  18
ENDBRANCH  11  17
TORSDOF 4
ENDMDL
MODEL      251
REMARK 921   NORMALIZED FREE ENERGY PREDICTED BY IDOCK:    0.81 KCAL/MOL
REMARK 922        TOTAL FREE ENERGY PREDICTED BY IDOCK:    0.03 KCAL/MOL
REMARK 923 INTER-LIGAND FREE ENERGY PREDICTED BY IDOCK:    0.90 KCAL/MOL
REMARK 924 INTRA-LIGAND FREE ENERGY PREDICTED BY IDOCK:   -0.88 KCAL/MOL
REMARK 927      BINDING AFFINITY PREDICTED BY RF-SCORE:    0.00 PKD
ROOT
HETATM    1  C   UNL     1      -6.773  15.459  67.950  1.00  0.00    -0.177 C  
HETATM    2  C   UNL     1      -7.538  14.097  67.930  1.00  0.00    -0.158 C  
HETATM    3  C   UNL     1      -7.865  15.941  66.982  1.00  0.00    -0.232 C  
HETATM    4  N   UNL     1      -8.541  14.757  67.048  1.00  0.00    -0.228 N  
HETATM    5  C   UNL     1      -8.333  13.512  69.103  1.00  0.00     0.459 C  
HETATM    6  O   UNL     1     -10.703  15.869  65.804  1.00  0.00    -0.331 OA 
HETATM    7  O   UNL     1      -8.169  16.950  66.393  1.00  0.00    -0.256 OA 
HETATM    8  C   UNL     1      -9.784  14.690  67.666  1.00  0.00    -0.214 C  
HETATM    9  O   UNL     1     -12.114  15.312  67.455  1.00  0.00    -0.005 OA 
HETATM   10  C   UNL     1     -10.976  15.325  67.013  1.00  0.00    -0.324 C  
HETATM   11  C   UNL     1      -9.737  14.001  68.822  1.00  0.00    -0.121 C  
HETATM   12  C   UNL     1      -7.729  13.900  70.444  1.00  0.00     1.886 C  
ENDROOT
BRANCH   1  13
HETATM   13  C   UNL     1      -5.360  15.436  67.398  1.00  0.00     0.178 C  
HETATM   14  C   UNL     1      -5.125  14.167  66.591  1.00  0.00     2.538 C  
HETATM   15  O   UNL     1      -5.197  16.546  66.521  1.00  0.00    -0.337 OA 
HETATM   16  H   UNL     1      -4.313  16.531  66.175  1.00  0.00     0.000 HD 
ENDBRANCH   1  13
BRANCH  11  17
HETATM   17  S   UNL     1     -11.001  13.747  69.963  1.00  0.00     0.483 SA 
BRANCH  17  18
HETATM   18  C   UNL     1     -11.792  12.169  69.471  1.00  0.00    -0.321 C  
HETATM   19  C   UNL     1     -11.851  11.064  70.518  1.00  0.00    -0.367 C  
HETATM   20  N   UNL     1     -10.636  10.292  70.299  1.00  0.00    -0.419 NA 
HETATM   21  H   UNL     1     -10.691   9.351  70.690  1.00  0.00     0.000 HD 
HETATM   22  C   UNL     1     -10.349  10.293  68.845  1.00  0.00    -0.204 C  
HETATM   23  C   UNL     1     -11.123  11.490  68.285  1.00  0.00    -0.295 C  
BRANCH  22  24
HETATM   24  C   UNL     1      -8.809  10.315  68.614  1.00  0.00    -0.137 C  
HETATM   25  O   UNL     1      -8.029  10.417  69.570  1.00  0.00    -0.155 OA 
HETATM   26  N   UNL     1      -8.322  10.166  67.321  1.00  0.00    -0.121 N  
HETATM   27  C   UNL     1      -9.120   9.937  66.127  1.00  0.00    -0.158 C  
HETATM   28  C   UNL     1      -6.884  10.240  67.094  1.00  0.00    -0.082 C  
ENDBRANCH  22  24
ENDBRANCH  17  18
ENDBRANCH  11  17
TORSDOF 4
ENDMDL
MODEL      252
REMARK 921   NORMALIZED FREE ENERGY PREDICTED BY IDOCK:    3.02 KCAL/MOL
REMARK 922        TOTAL FREE ENERGY PREDICTED BY IDOCK:    2.75 KCAL/MOL
REMARK 923 INTER-LIGAND FREE ENERGY PREDICTED BY IDOCK:    0.26 KCAL/MOL
REMARK 924 INTRA-LIGAND FREE ENERGY PREDICTED BY IDOCK:    2.49 KCAL/MOL
REMARK 927      BINDING AFFINITY PREDICTED BY RF-SCORE:    0.00 PKD
ROOT
HETATM    1  C   UNL     1      -9.341  19.277  66.134  1.00  0.00    -0.302 C  
HETATM    2  C   UNL     1      -9.529  18.066  67.105  1.00  0.00    -0.264 C  
HETATM    3  C   UNL     1      -8.526  19.903  67.277  1.00  0.00    -0.324 C  
HETATM    4  N   UNL     1      -8.654  18.796  68.066  1.00  0.00    -0.289 N  
HETATM    5  C   UNL     1      -8.892  16.684  66.927  1.00  0.00    -0.235 C  
HETATM    6  O   UNL     1      -6.745  19.738  69.777  1.00  0.00    -0.340 OA 
HETATM    7  O   UNL     1      -7.902  20.914  67.493  1.00  0.00    -0.283 OA 
HETATM    8  C   UNL     1      -7.550  18.002  68.349  1.00  0.00    -0.284 C  
HETATM    9  O   UNL     1      -5.475  17.901  69.590  1.00  0.00    -0.187 OA 
HETATM   10  C   UNL     1      -6.476  18.516  69.259  1.00  0.00    -0.258 C  
HETATM   11  C   UNL     1      -7.623  16.800  67.743  1.00  0.00    -0.167 C  
HETATM   12  C   UNL     1      -8.729  16.321  65.458  1.00  0.00     0.767 C  
ENDROOT
BRANCH   1  13
HETATM   13  C   UNL     1     -10.607  20.016  65.742  1.00  0.00    -0.323 C  
HETATM   14  C   UNL     1     -11.561  19.084  65.007  1.00  0.00     2.941 C  
HETATM   15  O   UNL     1     -11.259  20.461  66.925  1.00  0.00     0.536 OA 
HETATM   16  H   UNL     1     -12.051  20.924  66.679  1.00  0.00     0.000 HD 
ENDBRANCH   1  13
BRANCH  11  17
HETATM   17  S   UNL     1      -6.449  15.541  67.729  1.00  0.00    -0.175 SA 
BRANCH  17  18
HETATM   18  C   UNL     1      -7.388  13.996  68.023  1.00  0.00    -0.141 C  
HETATM   19  C   UNL     1      -8.530  13.682  67.065  1.00  0.00    -0.125 C  
HETATM   20  N   UNL     1      -9.702  14.277  67.689  1.00  0.00    -0.217 NA 
HETATM   21  H   UNL     1     -10.577  13.879  67.346  1.00  0.00     0.000 HD 
HETATM   22  C   UNL     1      -9.552  14.151  69.158  1.00  0.00     0.144 C  
HETATM   23  C   UNL     1      -8.054  13.932  69.390  1.00  0.00     0.492 C  
BRANCH  22  24
HETATM   24  C   UNL     1     -10.171  15.396  69.858  1.00  0.00    -0.266 C  
HETATM   25  O   UNL     1      -9.577  16.483  69.854  1.00  0.00     0.162 OA 
HETATM   26  N   UNL     1     -11.426  15.283  70.445  1.00  0.00    -0.274 N  
HETATM   27  C   UNL     1     -12.271  14.100  70.434  1.00  0.00    -0.356 C  
HETATM   28  C   UNL     1     -11.984  16.431  71.148  1.00  0.00     0.030 C  
ENDBRANCH  22  24
ENDBRANCH  17  18
ENDBRANCH  11  17
TORSDOF 4
ENDMDL
MODEL      253
REMARK 921   NORMALIZED FREE ENERGY PREDICTED BY IDOCK:    3.28 KCAL/MOL
REMARK 922        TOTAL FREE ENERGY PREDICTED BY IDOCK:    3.08 KCAL/MOL
REMARK 923 INTER-LIGAND FREE ENERGY PREDICTED BY IDOCK:    3.05 KCAL/MOL
REMARK 924 INTRA-LIGAND FREE ENERGY PREDICTED BY IDOCK:    0.03 KCAL/MOL
REMARK 927      BINDING AFFINITY PREDICTED BY RF-SCORE:    0.00 PKD
ROOT
HETATM    1  C   UNL     1     -11.998  14.821  71.708  1.00  0.00    -0.409 C  
HETATM    2  C   UNL     1     -11.307  16.035  71.009  1.00  0.00    -0.379 C  
HETATM    3  C   UNL     1     -12.554  14.496  70.312  1.00  0.00    -0.323 C  
HETATM    4  N   UNL     1     -11.875  15.527  69.728  1.00  0.00    -0.338 N  
HETATM    5  C   UNL     1      -9.800  16.177  70.770  1.00  0.00     1.602 C  
HETATM    6  O   UNL     1     -12.437  14.549  67.241  1.00  0.00    -0.157 OA 
HETATM    7  O   UNL     1     -13.247  13.658  69.788  1.00  0.00     0.617 OA 
HETATM    8  C   UNL     1     -10.829  15.273  68.851  1.00  0.00    -0.247 C  
HETATM    9  O   UNL     1     -10.279  14.459  66.638  1.00  0.00    -0.268 OA 
HETATM   10  C   UNL     1     -11.115  14.704  67.493  1.00  0.00    -0.313 C  
HETATM   11  C   UNL     1      -9.636  15.620  69.373  1.00  0.00    -0.287 C  
HETATM   12  C   UNL     1      -8.988  15.511  71.871  1.00  0.00     5.925 C  
ENDROOT
BRANCH   1  13
HETATM   13  C   UNL     1     -13.029  15.163  72.768  1.00  0.00    -0.427 C  
HETATM   14  C   UNL     1     -12.759  16.545  73.347  1.00  0.00    -0.283 C  
HETATM   15  O   UNL     1     -14.315  15.190  72.159  1.00  0.00    -0.513 OA 
HETATM   16  H   UNL     1     -14.960  15.404  72.823  1.00  0.00     0.000 HD 
ENDBRANCH   1  13
BRANCH  11  17
HETATM   17  S   UNL     1      -8.070  15.399  68.692  1.00  0.00    -0.169 SA 
BRANCH  17  18
HETATM   18  C   UNL     1      -7.891  16.724  67.441  1.00  0.00    -0.171 C  
HETATM   19  C   UNL     1      -6.489  17.001  66.915  1.00  0.00    -0.213 C  
HETATM   20  N   UNL     1      -5.969  18.037  67.795  1.00  0.00    -0.155 NA 
HETATM   21  H   UNL     1      -5.188  18.550  67.383  1.00  0.00     0.000 HD 
HETATM   22  C   UNL     1      -7.096  18.919  68.179  1.00  0.00    -0.250 C  
HETATM   23  C   UNL     1      -8.358  18.091  67.922  1.00  0.00    -0.249 C  
BRANCH  22  24
HETATM   24  C   UNL     1      -6.899  19.415  69.642  1.00  0.00    -0.208 C  
HETATM   25  O   UNL     1      -7.479  20.431  70.047  1.00  0.00     0.329 OA 
HETATM   26  N   UNL     1      -6.100  18.670  70.502  1.00  0.00     0.011 N  
HETATM   27  C   UNL     1      -5.446  17.411  70.186  1.00  0.00    -0.246 C  
HETATM   28  C   UNL     1      -5.869  19.160  71.855  1.00  0.00     0.175 C  
ENDBRANCH  22  24
ENDBRANCH  17  18
ENDBRANCH  11  17
TORSDOF 4
ENDMDL
MODEL      254
REMARK 921   NORMALIZED FREE ENERGY PREDICTED BY IDOCK:    3.29 KCAL/MOL
REMARK 922        TOTAL FREE ENERGY PREDICTED BY IDOCK:    3.09 KCAL/MOL
REMARK 923 INTER-LIGAND FREE ENERGY PREDICTED BY IDOCK:    3.13 KCAL/MOL
REMARK 924 INTRA-LIGAND FREE ENERGY PREDICTED BY IDOCK:   -0.04 KCAL/MOL
REMARK 927      BINDING AFFINITY PREDICTED BY RF-SCORE:    0.00 PKD
ROOT
HETATM    1  C   UNL     1     -11.483  13.415  63.648  1.00  0.00    -0.197 C  
HETATM    2  C   UNL     1     -11.240  12.876  65.094  1.00  0.00    -0.288 C  
HETATM    3  C   UNL     1     -11.483  14.805  64.302  1.00  0.00    -0.146 C  
HETATM    4  N   UNL     1     -11.200  14.298  65.538  1.00  0.00    -0.311 N  
HETATM    5  C   UNL     1      -9.937  12.245  65.595  1.00  0.00    -0.271 C  
HETATM    6  O   UNL     1     -10.655  16.799  66.491  1.00  0.00    -0.287 OA 
HETATM    7  O   UNL     1     -11.592  15.961  63.970  1.00  0.00    -0.497 OA 
HETATM    8  C   UNL     1      -9.968  14.540  66.133  1.00  0.00    -0.311 C  
HETATM    9  O   UNL     1      -8.598  16.236  67.184  1.00  0.00    -0.169 OA 
HETATM   10  C   UNL     1      -9.638  15.915  66.631  1.00  0.00    -0.246 C  
HETATM   11  C   UNL     1      -9.212  13.427  66.200  1.00  0.00     0.029 C  
HETATM   12  C   UNL     1      -9.212  11.491  64.490  1.00  0.00     0.063 C  
ENDROOT
BRANCH   1  13
HETATM   13  C   UNL     1     -12.784  12.992  62.990  1.00  0.00     0.455 C  
HETATM   14  C   UNL     1     -13.371  11.782  63.703  1.00  0.00     0.321 C  
HETATM   15  O   UNL     1     -13.717  14.060  63.103  1.00  0.00     2.832 OA 
HETATM   16  H   UNL     1     -14.531  13.796  62.691  1.00  0.00     0.000 HD 
ENDBRANCH   1  13
BRANCH  11  17
HETATM   17  S   UNL     1      -7.592  13.272  66.762  1.00  0.00     0.853 SA 
BRANCH  17  18
HETATM   18  C   UNL     1      -7.651  11.990  68.070  1.00  0.00    -0.120 C  
HETATM   19  C   UNL     1      -8.474  10.741  67.784  1.00  0.00    -0.120 C  
HETATM   20  N   UNL     1      -9.797  11.050  68.307  1.00  0.00    -0.172 NA 
HETATM   21  H   UNL     1     -10.356  10.215  68.484  1.00  0.00     0.000 HD 
HETATM   22  C   UNL     1      -9.627  11.894  69.513  1.00  0.00     1.076 C  
HETATM   23  C   UNL     1      -8.220  12.487  69.392  1.00  0.00     0.998 C  
BRANCH  22  24
HETATM   24  C   UNL     1     -10.791  12.925  69.600  1.00  0.00     0.339 C  
HETATM   25  O   UNL     1     -10.679  14.047  69.089  1.00  0.00    -0.236 OA 
HETATM   26  N   UNL     1     -11.977  12.548  70.218  1.00  0.00    -0.333 N  
HETATM   27  C   UNL     1     -12.276  11.235  70.766  1.00  0.00    -0.380 C  
HETATM   28  C   UNL     1     -13.049  13.527  70.349  1.00  0.00     0.243 C  
ENDBRANCH  22  24
ENDBRANCH  17  18
ENDBRANCH  11  17
TORSDOF 4
ENDMDL
MODEL      255
REMARK 921   NORMALIZED FREE ENERGY PREDICTED BY IDOCK:    3.35 KCAL/MOL
REMARK 922        TOTAL FREE ENERGY PREDICTED BY IDOCK:    3.16 KCAL/MOL
REMARK 923 INTER-LIGAND FREE ENERGY PREDICTED BY IDOCK:    1.94 KCAL/MOL
REMARK 924 INTRA-LIGAND FREE ENERGY PREDICTED BY IDOCK:    1.22 KCAL/MOL
REMARK 927      BINDING AFFINITY PREDICTED BY RF-SCORE:    0.00 PKD
ROOT
HETATM    1  C   UNL     1      -7.203  19.178  66.813  1.00  0.00    -0.222 C  
HETATM    2  C   UNL     1      -7.774  17.905  66.111  1.00  0.00    -0.237 C  
HETATM    3  C   UNL     1      -8.626  19.357  67.365  1.00  0.00    -0.297 C  
HETATM    4  N   UNL     1      -9.067  18.198  66.792  1.00  0.00    -0.275 N  
HETATM    5  C   UNL     1      -7.425  16.459  66.482  1.00  0.00    -0.223 C  
HETATM    6  O   UNL     1     -11.367  18.291  68.262  1.00  0.00     0.429 OA 
HETATM    7  O   UNL     1      -9.227  20.116  68.087  1.00  0.00    -0.269 OA 
HETATM    8  C   UNL     1      -9.407  17.108  67.582  1.00  0.00    -0.239 C  
HETATM    9  O   UNL     1     -11.053  16.251  69.137  1.00  0.00    -0.300 OA 
HETATM   10  C   UNL     1     -10.649  17.154  68.422  1.00  0.00    -0.371 C  
HETATM   11  C   UNL     1      -8.529  16.094  67.451  1.00  0.00    -0.170 C  
HETATM   12  C   UNL     1      -5.998  16.336  66.993  1.00  0.00    -0.043 C  
ENDROOT
BRANCH   1  13
HETATM   13  C   UNL     1      -6.707  20.278  65.893  1.00  0.00    -0.252 C  
HETATM   14  C   UNL     1      -7.836  20.777  65.002  1.00  0.00     0.914 C  
HETATM   15  O   UNL     1      -6.264  21.372  66.689  1.00  0.00    -0.338 OA 
HETATM   16  H   UNL     1      -5.954  22.060  66.113  1.00  0.00     0.000 HD 
ENDBRANCH   1  13
BRANCH  11  17
HETATM   17  S   UNL     1      -8.494  14.598  68.301  1.00  0.00    -0.165 SA 
BRANCH  17  18
HETATM   18  C   UNL     1      -7.003  13.726  67.690  1.00  0.00    -0.174 C  
HETATM   19  C   UNL     1      -6.856  13.572  66.182  1.00  0.00     4.281 C  
HETATM   20  N   UNL     1      -7.483  12.292  65.884  1.00  0.00     0.722 NA 
HETATM   21  H   UNL     1      -7.181  11.903  64.990  1.00  0.00     0.000 HD 
HETATM   22  C   UNL     1      -7.223  11.380  67.023  1.00  0.00    -0.141 C  
HETATM   23  C   UNL     1      -6.875  12.297  68.199  1.00  0.00    -0.078 C  
BRANCH  22  24
HETATM   24  C   UNL     1      -8.449  10.443  67.235  1.00  0.00    -0.122 C  
HETATM   25  O   UNL     1      -9.567  10.761  66.810  1.00  0.00    -0.167 OA 
HETATM   26  N   UNL     1      -8.257   9.219  67.865  1.00  0.00    -0.115 N  
HETATM   27  C   UNL     1      -6.985   8.681  68.320  1.00  0.00    -0.073 C  
HETATM   28  C   UNL     1      -9.410   8.363  68.114  1.00  0.00    -0.133 C  
ENDBRANCH  22  24
ENDBRANCH  17  18
ENDBRANCH  11  17
TORSDOF 4
ENDMDL
MODEL      256
REMARK 921   NORMALIZED FREE ENERGY PREDICTED BY IDOCK:    9.80 KCAL/MOL
REMARK 922        TOTAL FREE ENERGY PREDICTED BY IDOCK:   11.12 KCAL/MOL
REMARK 923 INTER-LIGAND FREE ENERGY PREDICTED BY IDOCK:   -4.14 KCAL/MOL
REMARK 924 INTRA-LIGAND FREE ENERGY PREDICTED BY IDOCK:   15.26 KCAL/MOL
REMARK 927      BINDING AFFINITY PREDICTED BY RF-SCORE:    0.00 PKD
ROOT
HETATM    1  C   UNL     1      -8.369  12.432  67.897  1.00  0.00    -0.165 C  
HETATM    2  C   UNL     1      -8.054  13.375  69.102  1.00  0.00     0.419 C  
HETATM    3  C   UNL     1      -9.313  13.552  67.432  1.00  0.00    -0.228 C  
HETATM    4  N   UNL     1      -8.957  14.373  68.462  1.00  0.00    -0.187 N  
HETATM    5  C   UNL     1      -6.725  14.102  69.332  1.00  0.00    -0.116 C  
HETATM    6  O   UNL     1     -10.201  16.490  67.266  1.00  0.00    -0.275 OA 
HETATM    7  O   UNL     1     -10.060  13.780  66.510  1.00  0.00    -0.272 OA 
HETATM    8  C   UNL     1      -8.232  15.533  68.219  1.00  0.00    -0.142 C  
HETATM    9  O   UNL     1      -8.355  17.763  67.285  1.00  0.00    -0.214 OA 
HETATM   10  C   UNL     1      -8.889  16.693  67.532  1.00  0.00    -0.196 C  
HETATM   11  C   UNL     1      -6.971  15.448  68.687  1.00  0.00    -0.111 C  
HETATM   12  C   UNL     1      -5.543  13.298  68.809  1.00  0.00    -0.073 C  
ENDROOT
BRANCH   1  13
HETATM   13  C   UNL     1      -9.028  11.110  68.243  1.00  0.00    -0.166 C  
HETATM   14  C   UNL     1      -8.264  10.410  69.357  1.00  0.00    -0.158 C  
HETATM   15  O   UNL     1     -10.346  11.369  68.714  1.00  0.00    -0.201 OA 
HETATM   16  H   UNL     1     -10.759  10.541  68.930  1.00  0.00     0.000 HD 
ENDBRANCH   1  13
BRANCH  11  17
HETATM   17  S   UNL     1      -5.696  16.593  68.527  1.00  0.00    -0.123 SA 
BRANCH  17  18
HETATM   18  C   UNL     1      -6.443  18.215  68.938  1.00  0.00    -0.229 C  
HETATM   19  C   UNL     1      -7.939  18.373  68.697  1.00  0.00    -0.296 C  
HETATM   20  N   UNL     1      -8.035  18.898  67.342  1.00  0.00    -0.245 NA 
HETATM   21  H   UNL     1      -8.928  19.356  67.158  1.00  0.00     0.000 HD 
HETATM   22  C   UNL     1      -6.874  19.791  67.114  1.00  0.00    -0.202 C  
HETATM   23  C   UNL     1      -5.841  19.382  68.169  1.00  0.00    -0.228 C  
BRANCH  22  24
HETATM   24  C   UNL     1      -6.409  19.679  65.632  1.00  0.00    -0.221 C  
HETATM   25  O   UNL     1      -6.643  20.590  64.827  1.00  0.00    -0.300 OA 
HETATM   26  N   UNL     1      -5.682  18.561  65.239  1.00  0.00    -0.209 N  
HETATM   27  C   UNL     1      -5.253  17.472  66.102  1.00  0.00    -0.180 C  
HETATM   28  C   UNL     1      -5.291  18.427  63.842  1.00  0.00     0.182 C  
ENDBRANCH  22  24
ENDBRANCH  17  18
ENDBRANCH  11  17
TORSDOF 4
ENDMDL
MODEL      257
REMARK 921   NORMALIZED FREE ENERGY PREDICTED BY IDOCK:   12.97 KCAL/MOL
REMARK 922        TOTAL FREE ENERGY PREDICTED BY IDOCK:   15.04 KCAL/MOL
REMARK 923 INTER-LIGAND FREE ENERGY PREDICTED BY IDOCK:    7.56 KCAL/MOL
REMARK 924 INTRA-LIGAND FREE ENERGY PREDICTED BY IDOCK:    7.48 KCAL/MOL
REMARK 927      BINDING AFFINITY PREDICTED BY RF-SCORE:    0.00 PKD
ROOT
HETATM    1  C   UNL     1      -9.758  19.150  66.785  1.00  0.00    -0.396 C  
HETATM    2  C   UNL     1      -9.380  18.034  67.811  1.00  0.00    -0.263 C  
HETATM    3  C   UNL     1     -10.059  20.009  68.023  1.00  0.00    -0.420 C  
HETATM    4  N   UNL     1      -9.652  19.031  68.884  1.00  0.00    -0.379 N  
HETATM    5  C   UNL     1      -7.961  17.517  68.071  1.00  0.00    -0.234 C  
HETATM    6  O   UNL     1      -9.667  20.797  70.968  1.00  0.00     1.384 OA 
HETATM    7  O   UNL     1     -10.430  21.130  68.277  1.00  0.00     0.510 OA 
HETATM    8  C   UNL     1      -8.497  19.194  69.639  1.00  0.00     0.519 C  
HETATM    9  O   UNL     1      -7.526  20.396  71.502  1.00  0.00     0.345 OA 
HETATM   10  C   UNL     1      -8.476  20.184  70.765  1.00  0.00     1.852 C  
HETATM   11  C   UNL     1      -7.510  18.370  69.237  1.00  0.00    -0.008 C  
HETATM   12  C   UNL     1      -7.103  17.565  66.816  1.00  0.00    -0.246 C  
ENDROOT
BRANCH   1  13
HETATM   13  C   UNL     1     -10.941  18.850  65.883  1.00  0.00     0.053 C  
HETATM   14  C   UNL     1     -12.056  18.180  66.673  1.00  0.00     3.957 C  
HETATM   15  O   UNL     1     -11.446  20.078  65.372  1.00  0.00     0.086 OA 
HETATM   16  H   UNL     1     -12.186  19.890  64.808  1.00  0.00     0.000 HD 
ENDBRANCH   1  13
BRANCH  11  17
HETATM   17  S   UNL     1      -5.889  18.291  69.809  1.00  0.00    -0.229 SA 
BRANCH  17  18
HETATM   18  C   UNL     1      -5.212  16.725  69.140  1.00  0.00    -0.130 C  
HETATM   19  C   UNL     1      -5.577  16.366  67.705  1.00  0.00    -0.134 C  
HETATM   20  N   UNL     1      -6.782  15.559  67.828  1.00  0.00    -0.149 NA 
HETATM   21  H   UNL     1      -6.957  14.983  67.004  1.00  0.00     0.000 HD 
HETATM   22  C   UNL     1      -6.674  14.762  69.074  1.00  0.00    -0.105 C  
HETATM   23  C   UNL     1      -5.629  15.490  69.925  1.00  0.00    -0.130 C  
BRANCH  22  24
HETATM   24  C   UNL     1      -8.082  14.605  69.719  1.00  0.00     0.291 C  
HETATM   25  O   UNL     1      -8.232  14.721  70.943  1.00  0.00     1.606 OA 
HETATM   26  N   UNL     1      -9.178  14.381  68.894  1.00  0.00    -0.138 N  
HETATM   27  C   UNL     1      -9.158  14.324  67.441  1.00  0.00    -0.196 C  
HETATM   28  C   UNL     1     -10.489  14.178  69.498  1.00  0.00     0.115 C  
ENDBRANCH  22  24
ENDBRANCH  17  18
ENDBRANCH  11  17
TORSDOF 4
ENDMDL
MODEL      258
REMARK 921   NORMALIZED FREE ENERGY PREDICTED BY IDOCK:   29.39 KCAL/MOL
REMARK 922        TOTAL FREE ENERGY PREDICTED BY IDOCK:   35.29 KCAL/MOL
REMARK 923 INTER-LIGAND FREE ENERGY PREDICTED BY IDOCK:   33.36 KCAL/MOL
REMARK 924 INTRA-LIGAND FREE ENERGY PREDICTED BY IDOCK:    1.93 KCAL/MOL
REMARK 927      BINDING AFFINITY PREDICTED BY RF-SCORE:    0.00 PKD
ROOT
HETATM    1  C   UNL     1     -11.945  16.144  71.126  1.00  0.00    -0.357 C  
HETATM    2  C   UNL     1     -10.439  16.211  70.713  1.00  0.00     0.523 C  
HETATM    3  C   UNL     1     -12.221  16.025  69.618  1.00  0.00    -0.001 C  
HETATM    4  N   UNL     1     -10.892  16.016  69.307  1.00  0.00    -0.276 N  
HETATM    5  C   UNL     1      -9.402  15.114  70.974  1.00  0.00     2.184 C  
HETATM    6  O   UNL     1     -11.450  15.238  66.749  1.00  0.00    -0.259 OA 
HETATM    7  O   UNL     1     -13.169  15.901  68.880  1.00  0.00     1.345 OA 
HETATM    8  C   UNL     1     -10.294  14.867  68.806  1.00  0.00    -0.245 C  
HETATM    9  O   UNL     1     -10.137  13.424  66.868  1.00  0.00    -0.247 OA 
HETATM   10  C   UNL     1     -10.615  14.405  67.415  1.00  0.00    -0.270 C  
HETATM   11  C   UNL     1      -9.442  14.313  69.690  1.00  0.00     0.655 C  
HETATM   12  C   UNL     1      -9.691  14.357  72.261  1.00  0.00     6.387 C  
ENDROOT
BRANCH   1  13
HETATM   13  C   UNL     1     -12.503  17.380  71.806  1.00  0.00     5.163 C  
HETATM   14  C   UNL     1     -11.376  18.224  72.384  1.00  0.00     3.254 C  
HETATM   15  O   UNL     1     -13.183  18.166  70.834  1.00  0.00    14.744 OA 
HETATM   16  H   UNL     1     -13.533  18.939  71.261  1.00  0.00     0.000 HD 
ENDBRANCH   1  13
BRANCH  11  17
HETATM   17  S   UNL     1      -8.561  12.842  69.543  1.00  0.00     1.895 SA 
BRANCH  17  18
HETATM   18  C   UNL     1      -7.638  12.983  67.967  1.00  0.00    -0.139 C  
HETATM   19  C   UNL     1      -6.214  12.442  67.943  1.00  0.00    -0.093 C  
HETATM   20  N   UNL     1      -5.385  13.584  68.299  1.00  0.00    -0.093 NA 
HETATM   21  H   UNL     1      -4.412  13.471  68.011  1.00  0.00     0.000 HD 
HETATM   22  C   UNL     1      -6.014  14.800  67.731  1.00  0.00    -0.107 C  
HETATM   23  C   UNL     1      -7.474  14.415  67.477  1.00  0.00    -0.206 C  
BRANCH  22  24
HETATM   24  C   UNL     1      -5.789  16.005  68.693  1.00  0.00    -0.104 C  
HETATM   25  O   UNL     1      -5.677  17.154  68.248  1.00  0.00    -0.125 OA 
HETATM   26  N   UNL     1      -5.768  15.775  70.063  1.00  0.00    -0.147 N  
HETATM   27  C   UNL     1      -5.987  14.496  70.720  1.00  0.00    -0.173 C  
HETATM   28  C   UNL     1      -5.504  16.890  70.964  1.00  0.00     0.051 C  
ENDBRANCH  22  24
ENDBRANCH  17  18
ENDBRANCH  11  17
TORSDOF 4
ENDMDL
MODEL      259
REMARK 921   NORMALIZED FREE ENERGY PREDICTED BY IDOCK:   34.43 KCAL/MOL
REMARK 922        TOTAL FREE ENERGY PREDICTED BY IDOCK:   41.51 KCAL/MOL
REMARK 923 INTER-LIGAND FREE ENERGY PREDICTED BY IDOCK:   37.57 KCAL/MOL
REMARK 924 INTRA-LIGAND FREE ENERGY PREDICTED BY IDOCK:    3.94 KCAL/MOL
REMARK 927      BINDING AFFINITY PREDICTED BY RF-SCORE:    0.00 PKD
ROOT
HETATM    1  C   UNL     1      -9.530  14.243  65.016  1.00  0.00     0.663 C  
HETATM    2  C   UNL     1      -9.734  13.072  66.030  1.00  0.00    -0.216 C  
HETATM    3  C   UNL     1     -10.515  13.472  64.123  1.00  0.00    -0.081 C  
HETATM    4  N   UNL     1     -10.719  12.506  65.065  1.00  0.00    -0.285 N  
HETATM    5  C   UNL     1     -10.473  13.180  67.367  1.00  0.00    -0.243 C  
HETATM    6  O   UNL     1     -12.856  11.531  63.671  1.00  0.00    -0.240 OA 
HETATM    7  O   UNL     1     -11.044  13.595  63.044  1.00  0.00     1.017 OA 
HETATM    8  C   UNL     1     -11.948  12.394  65.704  1.00  0.00    -0.386 C  
HETATM    9  O   UNL     1     -14.259  11.738  65.408  1.00  0.00     5.728 OA 
HETATM   10  C   UNL     1     -13.140  11.893  64.945  1.00  0.00     1.455 C  
HETATM   11  C   UNL     1     -11.878  12.753  67.001  1.00  0.00    -0.361 C  
HETATM   12  C   UNL     1     -10.318  14.560  67.989  1.00  0.00    -0.229 C  
ENDROOT
BRANCH   1  13
HETATM   13  C   UNL     1      -8.126  14.407  64.464  1.00  0.00    10.611 C  
HETATM   14  C   UNL     1      -7.325  15.372  65.327  1.00  0.00     7.677 C  
HETATM   15  O   UNL     1      -7.472  13.144  64.502  1.00  0.00     7.724 OA 
HETATM   16  H   UNL     1      -6.593  13.247  64.156  1.00  0.00     0.000 HD 
ENDBRANCH   1  13
BRANCH  11  17
HETATM   17  S   UNL     1     -13.159  12.867  68.146  1.00  0.00     4.114 SA 
BRANCH  17  18
HETATM   18  C   UNL     1     -12.495  12.143  69.693  1.00  0.00     0.155 C  
HETATM   19  C   UNL     1     -11.396  12.918  70.408  1.00  0.00     0.602 C  
HETATM   20  N   UNL     1     -10.158  12.381  69.862  1.00  0.00     0.973 NA 
HETATM   21  H   UNL     1      -9.352  12.559  70.462  1.00  0.00     0.000 HD 
HETATM   22  C   UNL     1     -10.365  10.939  69.590  1.00  0.00    -0.038 C  
HETATM   23  C   UNL     1     -11.884  10.761  69.512  1.00  0.00    -0.380 C  
BRANCH  22  24
HETATM   24  C   UNL     1      -9.568  10.524  68.319  1.00  0.00    -0.158 C  
HETATM   25  O   UNL     1     -10.142  10.395  67.229  1.00  0.00    -0.183 OA 
HETATM   26  N   UNL     1      -8.193  10.349  68.415  1.00  0.00    -0.110 N  
HETATM   27  C   UNL     1      -7.384  10.566  69.604  1.00  0.00    -0.149 C  
HETATM   28  C   UNL     1      -7.451   9.908  67.241  1.00  0.00    -0.087 C  
ENDBRANCH  22  24
ENDBRANCH  17  18
ENDBRANCH  11  17
TORSDOF 4
ENDMDL
MODEL      260
REMARK 921   NORMALIZED FREE ENERGY PREDICTED BY IDOCK:   48.87 KCAL/MOL
REMARK 922        TOTAL FREE ENERGY PREDICTED BY IDOCK:   59.32 KCAL/MOL
REMARK 923 INTER-LIGAND FREE ENERGY PREDICTED BY IDOCK:   57.01 KCAL/MOL
REMARK 924 INTRA-LIGAND FREE ENERGY PREDICTED BY IDOCK:    2.31 KCAL/MOL
REMARK 927      BINDING AFFINITY PREDICTED BY RF-SCORE:    0.00 PKD
ROOT
HETATM    1  C   UNL     1     -10.956  10.175  72.018  1.00  0.00     1.879 C  
HETATM    2  C   UNL     1      -9.845   9.656  71.050  1.00  0.00    -0.035 C  
HETATM    3  C   UNL     1      -9.979  11.323  72.319  1.00  0.00    13.359 C  
HETATM    4  N   UNL     1      -9.064  10.874  71.410  1.00  0.00     6.090 N  
HETATM    5  C   UNL     1      -9.935   9.656  69.520  1.00  0.00    -0.223 C  
HETATM    6  O   UNL     1      -7.672  13.217  71.584  1.00  0.00     6.556 OA 
HETATM    7  O   UNL     1      -9.940  12.323  72.996  1.00  0.00    17.938 OA 
HETATM    8  C   UNL     1      -8.811  11.595  70.251  1.00  0.00     3.734 C  
HETATM    9  O   UNL     1      -7.786  13.608  69.379  1.00  0.00     0.203 OA 
HETATM   10  C   UNL     1      -8.078  12.901  70.331  1.00  0.00     4.518 C  
HETATM   11  C   UNL     1      -9.270  10.965  69.152  1.00  0.00    -0.060 C  
HETATM   12  C   UNL     1     -11.363   9.455  69.038  1.00  0.00     0.183 C  
ENDROOT
BRANCH   1  13
HETATM   13  C   UNL     1     -11.295   9.270  73.187  1.00  0.00     2.856 C  
HETATM   14  C   UNL     1     -12.665   8.637  72.989  1.00  0.00     0.384 C  
HETATM   15  O   UNL     1     -10.334   8.221  73.243  1.00  0.00    -0.104 OA 
HETATM   16  H   UNL     1     -10.547   7.654  73.975  1.00  0.00     0.000 HD 
ENDBRANCH   1  13
BRANCH  11  17
HETATM   17  S   UNL     1      -9.268  11.523  67.524  1.00  0.00    -0.169 SA 
BRANCH  17  18
HETATM   18  C   UNL     1     -10.788  12.531  67.353  1.00  0.00    -0.240 C  
HETATM   19  C   UNL     1     -12.121  11.821  67.548  1.00  0.00     0.218 C  
HETATM   20  N   UNL     1     -12.499  11.385  66.211  1.00  0.00     1.625 NA 
HETATM   21  H   UNL     1     -13.498  11.190  66.128  1.00  0.00     0.000 HD 
HETATM   22  C   UNL     1     -12.031  12.409  65.247  1.00  0.00    -0.404 C  
HETATM   23  C   UNL     1     -10.940  13.187  65.987  1.00  0.00    -0.295 C  
BRANCH  22  24
HETATM   24  C   UNL     1     -11.591  11.719  63.922  1.00  0.00    -0.377 C  
HETATM   25  O   UNL     1     -12.343  11.704  62.939  1.00  0.00    -0.144 OA 
HETATM   26  N   UNL     1     -10.318  11.165  63.845  1.00  0.00    -0.352 N  
HETATM   27  C   UNL     1      -9.304  11.203  64.886  1.00  0.00    -0.194 C  
HETATM   28  C   UNL     1      -9.922  10.471  62.626  1.00  0.00     0.070 C  
ENDBRANCH  22  24
ENDBRANCH  17  18
ENDBRANCH  11  17
TORSDOF 4
ENDMDL
