MODEL        1
REMARK 921   NORMALIZED FREE ENERGY PREDICTED BY IDOCK:   -7.50 KCAL/MOL
REMARK 922        TOTAL FREE ENERGY PREDICTED BY IDOCK:  -10.03 KCAL/MOL
REMARK 923 INTER-LIGAND FREE ENERGY PREDICTED BY IDOCK:   -9.26 KCAL/MOL
REMARK 924 INTRA-LIGAND FREE ENERGY PREDICTED BY IDOCK:   -0.78 KCAL/MOL
REMARK 927      BINDING AFFINITY PREDICTED BY RF-SCORE:    0.00 PKD
ROOT
HETATM    1  C   UNL     1     -10.229  19.451  66.089  1.00  0.00    -0.484 C  
HETATM    2  N   UNL     1      -9.651  18.108  66.031  1.00  0.00    -0.517 NA 
HETATM    3  C   UNL     1      -8.220  18.112  66.359  1.00  0.00    -0.253 C  
HETATM    4  C   UNL     1      -7.919  18.281  67.849  1.00  0.00    -0.261 C  
HETATM    5  C   UNL     1      -8.698  17.286  68.698  1.00  0.00    -0.268 C  
HETATM    6  C   UNL     1     -10.181  17.310  68.343  1.00  0.00    -0.358 C  
HETATM    7  C   UNL     1     -10.431  17.133  66.835  1.00  0.00    -0.274 C  
ENDROOT
BRANCH   7   8
HETATM    8  C   UNL     1     -10.109  15.712  66.333  1.00  0.00    -0.301 C  
BRANCH   8   9
HETATM    9  C   UNL     1     -11.317  14.819  65.977  1.00  0.00    -0.332 C  
BRANCH   9  10
HETATM   10  N   UNL     1     -11.221  13.405  66.436  1.00  0.00    -0.299 NA 
HETATM   11  C   UNL     1     -10.716  12.421  65.530  1.00  0.00    -0.280 A  
HETATM   12  C   UNL     1     -10.438  11.102  65.948  1.00  0.00    -0.253 A  
HETATM   13  S   UNL     1     -10.734  10.488  67.586  1.00  0.00    -0.295 SA 
HETATM   14  C   UNL     1      -9.889  10.144  65.062  1.00  0.00    -0.392 A  
HETATM   15  C   UNL     1      -9.613  10.459  63.740  1.00  0.00    -0.366 A  
HETATM   16  C   UNL     1     -11.406  11.904  68.411  1.00  0.00    -0.276 A  
HETATM   17  C   UNL     1      -9.912  11.730  63.288  1.00  0.00    -0.435 A  
HETATM   18  C   UNL     1     -11.594  13.157  67.800  1.00  0.00    -0.337 A  
HETATM   19  C   UNL     1     -12.155  14.159  68.627  1.00  0.00    -0.320 A  
HETATM   20  C   UNL     1     -10.466  12.678  64.161  1.00  0.00    -0.438 A  
HETATM   21  C   UNL     1     -12.391  13.983  70.000  1.00  0.00    -0.337 A  
HETATM   22  C   UNL     1     -11.729  11.696  69.769  1.00  0.00    -0.425 A  
HETATM   23  C   UNL     1     -12.197  12.735  70.567  1.00  0.00    -0.389 A  
BRANCH  21  24
HETATM   24  S   UNL     1     -12.907  15.372  71.038  1.00  0.00    -0.478 S  
HETATM   25  O   UNL     1     -11.643  16.048  71.482  1.00  0.00    -0.425 OA 
HETATM   26  C   UNL     1     -13.502  14.388  72.446  1.00  0.00    -0.462 C  
ENDBRANCH  21  24
ENDBRANCH   9  10
ENDBRANCH   8   9
ENDBRANCH   7   8
TORSDOF 4
ENDMDL
MODEL        2
REMARK 921   NORMALIZED FREE ENERGY PREDICTED BY IDOCK:   -7.41 KCAL/MOL
REMARK 922        TOTAL FREE ENERGY PREDICTED BY IDOCK:   -9.92 KCAL/MOL
REMARK 923 INTER-LIGAND FREE ENERGY PREDICTED BY IDOCK:   -9.32 KCAL/MOL
REMARK 924 INTRA-LIGAND FREE ENERGY PREDICTED BY IDOCK:   -0.60 KCAL/MOL
REMARK 927      BINDING AFFINITY PREDICTED BY RF-SCORE:    0.00 PKD
ROOT
HETATM    1  C   UNL     1      -7.232  18.286  66.850  1.00  0.00    -0.206 C  
HETATM    2  N   UNL     1      -8.253  18.155  67.890  1.00  0.00    -0.244 NA 
HETATM    3  C   UNL     1      -8.655  19.459  68.433  1.00  0.00    -0.360 C  
HETATM    4  C   UNL     1      -9.565  20.270  67.509  1.00  0.00    -0.562 C  
HETATM    5  C   UNL     1     -10.761  19.453  67.037  1.00  0.00    -0.582 C  
HETATM    6  C   UNL     1     -10.314  18.110  66.470  1.00  0.00    -0.397 C  
HETATM    7  C   UNL     1      -9.404  17.333  67.437  1.00  0.00    -0.236 C  
ENDROOT
BRANCH   7   8
HETATM    8  C   UNL     1     -10.153  16.808  68.679  1.00  0.00    -0.279 C  
BRANCH   8   9
HETATM    9  C   UNL     1     -11.509  16.117  68.422  1.00  0.00    -0.298 C  
BRANCH   9  10
HETATM   10  N   UNL     1     -11.695  14.807  69.105  1.00  0.00    -0.297 NA 
HETATM   11  C   UNL     1     -12.119  14.797  70.471  1.00  0.00    -0.315 A  
HETATM   12  C   UNL     1     -12.481  13.601  71.127  1.00  0.00    -0.359 A  
HETATM   13  S   UNL     1     -12.392  11.990  70.389  1.00  0.00    -0.175 SA 
HETATM   14  C   UNL     1     -12.949  13.601  72.463  1.00  0.00    -0.396 A  
HETATM   15  C   UNL     1     -13.062  14.777  73.188  1.00  0.00    -0.598 A  
HETATM   16  C   UNL     1     -11.781  12.343  68.765  1.00  0.00    -0.332 A  
HETATM   17  C   UNL     1     -12.678  15.962  72.588  1.00  0.00    -0.554 A  
HETATM   18  C   UNL     1     -11.490  13.638  68.297  1.00  0.00    -0.313 A  
HETATM   19  C   UNL     1     -11.000  13.709  66.971  1.00  0.00    -0.298 A  
HETATM   20  C   UNL     1     -12.202  15.963  71.268  1.00  0.00    -0.473 A  
HETATM   21  C   UNL     1     -10.930  12.599  66.115  1.00  0.00    -0.282 A  
HETATM   22  C   UNL     1     -11.623  11.213  67.936  1.00  0.00    -0.328 A  
HETATM   23  C   UNL     1     -11.222  11.340  66.610  1.00  0.00    -0.247 A  
BRANCH  21  24
HETATM   24  S   UNL     1     -10.499  12.801  64.369  1.00  0.00    -0.384 S  
HETATM   25  O   UNL     1     -11.782  13.131  63.662  1.00  0.00    -0.458 OA 
HETATM   26  C   UNL     1     -10.142  11.052  64.025  1.00  0.00    -0.350 C  
ENDBRANCH  21  24
ENDBRANCH   9  10
ENDBRANCH   8   9
ENDBRANCH   7   8
TORSDOF 4
ENDMDL
MODEL        3
REMARK 921   NORMALIZED FREE ENERGY PREDICTED BY IDOCK:   -7.25 KCAL/MOL
REMARK 922        TOTAL FREE ENERGY PREDICTED BY IDOCK:   -9.72 KCAL/MOL
REMARK 923 INTER-LIGAND FREE ENERGY PREDICTED BY IDOCK:   -8.94 KCAL/MOL
REMARK 924 INTRA-LIGAND FREE ENERGY PREDICTED BY IDOCK:   -0.78 KCAL/MOL
REMARK 927      BINDING AFFINITY PREDICTED BY RF-SCORE:    0.00 PKD
ROOT
HETATM    1  C   UNL     1      -9.977  14.752  66.269  1.00  0.00    -0.291 C  
HETATM    2  N   UNL     1     -10.808  13.648  66.751  1.00  0.00    -0.289 NA 
HETATM    3  C   UNL     1     -12.240  13.921  66.571  1.00  0.00    -0.442 C  
HETATM    4  C   UNL     1     -12.727  13.783  65.128  1.00  0.00    -0.439 C  
HETATM    5  C   UNL     1     -12.318  12.449  64.518  1.00  0.00    -0.519 C  
HETATM    6  C   UNL     1     -10.826  12.197  64.711  1.00  0.00    -0.351 C  
HETATM    7  C   UNL     1     -10.386  12.344  66.178  1.00  0.00    -0.247 C  
ENDROOT
BRANCH   7   8
HETATM    8  C   UNL     1     -10.918  11.215  67.083  1.00  0.00    -0.350 C  
BRANCH   8   9
HETATM    9  C   UNL     1     -10.277  11.096  68.482  1.00  0.00    -0.198 C  
BRANCH   9  10
HETATM   10  N   UNL     1     -11.151  10.510  69.536  1.00  0.00    -0.249 NA 
HETATM   11  C   UNL     1     -11.115   9.097  69.752  1.00  0.00    -0.125 A  
HETATM   12  C   UNL     1     -11.783   8.495  70.840  1.00  0.00    -0.245 A  
HETATM   13  S   UNL     1     -12.783   9.377  72.010  1.00  0.00    -0.400 SA 
HETATM   14  C   UNL     1     -11.703   7.103  71.080  1.00  0.00    -0.350 A  
HETATM   15  C   UNL     1     -10.973   6.268  70.248  1.00  0.00    -0.400 A  
HETATM   16  C   UNL     1     -12.673  11.046  71.430  1.00  0.00    -0.429 A  
HETATM   17  C   UNL     1     -10.340   6.819  69.150  1.00  0.00    -0.213 A  
HETATM   18  C   UNL     1     -11.926  11.443  70.305  1.00  0.00    -0.373 A  
HETATM   19  C   UNL     1     -11.975  12.823  69.997  1.00  0.00    -0.371 A  
HETATM   20  C   UNL     1     -10.428   8.197  68.902  1.00  0.00    -0.202 A  
HETATM   21  C   UNL     1     -12.605  13.773  70.817  1.00  0.00    -0.340 A  
HETATM   22  C   UNL     1     -13.385  11.988  72.204  1.00  0.00    -0.396 A  
HETATM   23  C   UNL     1     -13.333  13.347  71.915  1.00  0.00    -0.539 A  
BRANCH  21  24
HETATM   24  S   UNL     1     -12.445  15.543  70.476  1.00  0.00    -0.393 S  
HETATM   25  O   UNL     1     -11.168  15.700  69.702  1.00  0.00    -0.261 OA 
HETATM   26  C   UNL     1     -12.095  16.066  72.181  1.00  0.00    -0.526 C  
ENDBRANCH  21  24
ENDBRANCH   9  10
ENDBRANCH   8   9
ENDBRANCH   7   8
TORSDOF 4
ENDMDL
MODEL        4
REMARK 921   NORMALIZED FREE ENERGY PREDICTED BY IDOCK:   -7.20 KCAL/MOL
REMARK 922        TOTAL FREE ENERGY PREDICTED BY IDOCK:   -9.66 KCAL/MOL
REMARK 923 INTER-LIGAND FREE ENERGY PREDICTED BY IDOCK:   -9.01 KCAL/MOL
REMARK 924 INTRA-LIGAND FREE ENERGY PREDICTED BY IDOCK:   -0.65 KCAL/MOL
REMARK 927      BINDING AFFINITY PREDICTED BY RF-SCORE:    0.00 PKD
ROOT
HETATM    1  C   UNL     1     -12.026   6.740  70.497  1.00  0.00    -0.328 C  
HETATM    2  N   UNL     1     -11.874   8.111  70.986  1.00  0.00    -0.284 NA 
HETATM    3  C   UNL     1     -11.802   8.166  72.452  1.00  0.00    -0.388 C  
HETATM    4  C   UNL     1     -10.462   7.710  73.031  1.00  0.00    -0.414 C  
HETATM    5  C   UNL     1      -9.290   8.425  72.373  1.00  0.00    -0.356 C  
HETATM    6  C   UNL     1      -9.385   8.343  70.853  1.00  0.00    -0.201 C  
HETATM    7  C   UNL     1     -10.749   8.816  70.320  1.00  0.00    -0.227 C  
ENDROOT
BRANCH   7   8
HETATM    8  C   UNL     1     -10.962  10.335  70.471  1.00  0.00    -0.343 C  
BRANCH   8   9
HETATM    9  C   UNL     1     -12.207  10.926  69.777  1.00  0.00    -0.311 C  
BRANCH   9  10
HETATM   10  N   UNL     1     -12.131  12.381  69.464  1.00  0.00    -0.236 NA 
HETATM   11  C   UNL     1     -12.529  13.321  70.465  1.00  0.00    -0.260 A  
HETATM   12  C   UNL     1     -12.324  14.708  70.303  1.00  0.00    -0.349 A  
HETATM   13  S   UNL     1     -11.631  15.454  68.851  1.00  0.00    -0.361 SA 
HETATM   14  C   UNL     1     -12.671  15.632  71.318  1.00  0.00    -0.537 A  
HETATM   15  C   UNL     1     -13.239  15.213  72.512  1.00  0.00    -0.505 A  
HETATM   16  C   UNL     1     -11.322  14.054  67.810  1.00  0.00    -0.303 A  
HETATM   17  C   UNL     1     -13.491  13.865  72.686  1.00  0.00    -0.652 A  
HETATM   18  C   UNL     1     -11.595  12.723  68.177  1.00  0.00    -0.336 A  
HETATM   19  C   UNL     1     -11.286  11.748  67.200  1.00  0.00    -0.375 A  
HETATM   20  C   UNL     1     -13.159  12.948  71.677  1.00  0.00    -0.430 A  
HETATM   21  C   UNL     1     -10.627  12.044  65.996  1.00  0.00    -0.268 A  
HETATM   22  C   UNL     1     -10.744  14.365  66.561  1.00  0.00    -0.306 A  
HETATM   23  C   UNL     1     -10.375  13.365  65.667  1.00  0.00    -0.295 A  
BRANCH  21  24
HETATM   24  S   UNL     1     -10.072  10.721  64.893  1.00  0.00    -0.332 S  
HETATM   25  O   UNL     1      -8.590  10.602  65.105  1.00  0.00    -0.181 OA 
HETATM   26  C   UNL     1     -10.312  11.619  63.332  1.00  0.00    -0.435 C  
ENDBRANCH  21  24
ENDBRANCH   9  10
ENDBRANCH   8   9
ENDBRANCH   7   8
TORSDOF 4
ENDMDL
MODEL        5
REMARK 921   NORMALIZED FREE ENERGY PREDICTED BY IDOCK:   -7.19 KCAL/MOL
REMARK 922        TOTAL FREE ENERGY PREDICTED BY IDOCK:   -9.65 KCAL/MOL
REMARK 923 INTER-LIGAND FREE ENERGY PREDICTED BY IDOCK:   -8.94 KCAL/MOL
REMARK 924 INTRA-LIGAND FREE ENERGY PREDICTED BY IDOCK:   -0.71 KCAL/MOL
REMARK 927      BINDING AFFINITY PREDICTED BY RF-SCORE:    0.00 PKD
ROOT
HETATM    1  C   UNL     1      -7.223  18.451  66.970  1.00  0.00    -0.203 C  
HETATM    2  N   UNL     1      -8.261  17.920  67.853  1.00  0.00    -0.240 NA 
HETATM    3  C   UNL     1      -8.842  18.964  68.707  1.00  0.00    -0.296 C  
HETATM    4  C   UNL     1      -9.807  19.902  67.981  1.00  0.00    -0.534 C  
HETATM    5  C   UNL     1     -10.873  19.132  67.214  1.00  0.00    -0.529 C  
HETATM    6  C   UNL     1     -10.241  18.062  66.329  1.00  0.00    -0.381 C  
HETATM    7  C   UNL     1      -9.283  17.143  67.105  1.00  0.00    -0.236 C  
ENDROOT
BRANCH   7   8
HETATM    8  C   UNL     1     -10.010  16.209  68.093  1.00  0.00    -0.230 C  
BRANCH   8   9
HETATM    9  C   UNL     1     -11.345  15.604  67.609  1.00  0.00    -0.228 C  
BRANCH   9  10
HETATM   10  N   UNL     1     -11.432  14.119  67.672  1.00  0.00    -0.319 NA 
HETATM   11  C   UNL     1     -11.001  13.357  66.540  1.00  0.00    -0.290 A  
HETATM   12  C   UNL     1     -10.893  11.950  66.591  1.00  0.00    -0.276 A  
HETATM   13  S   UNL     1     -11.330  10.964  67.999  1.00  0.00    -0.286 SA 
HETATM   14  C   UNL     1     -10.418  11.204  65.486  1.00  0.00    -0.317 A  
HETATM   15  C   UNL     1     -10.048  11.823  64.302  1.00  0.00    -0.326 A  
HETATM   16  C   UNL     1     -11.874  12.179  69.166  1.00  0.00    -0.305 A  
HETATM   17  C   UNL     1     -10.180  13.195  64.205  1.00  0.00    -0.283 A  
HETATM   18  C   UNL     1     -11.891  13.564  68.913  1.00  0.00    -0.345 A  
HETATM   19  C   UNL     1     -12.372  14.370  69.972  1.00  0.00    -0.391 A  
HETATM   20  C   UNL     1     -10.662  13.937  65.295  1.00  0.00    -0.352 A  
HETATM   21  C   UNL     1     -12.687  13.864  71.244  1.00  0.00    -0.367 A  
HETATM   22  C   UNL     1     -12.279  11.659  70.414  1.00  0.00    -0.434 A  
HETATM   23  C   UNL     1     -12.661  12.496  71.456  1.00  0.00    -0.325 A  
BRANCH  21  24
HETATM   24  S   UNL     1     -13.089  14.979  72.611  1.00  0.00    -0.461 S  
HETATM   25  O   UNL     1     -14.362  15.672  72.218  1.00  0.00    -0.539 OA 
HETATM   26  C   UNL     1     -11.737  16.163  72.337  1.00  0.00    -0.447 C  
ENDBRANCH  21  24
ENDBRANCH   9  10
ENDBRANCH   8   9
ENDBRANCH   7   8
TORSDOF 4
ENDMDL
MODEL        6
REMARK 921   NORMALIZED FREE ENERGY PREDICTED BY IDOCK:   -7.11 KCAL/MOL
REMARK 922        TOTAL FREE ENERGY PREDICTED BY IDOCK:   -9.55 KCAL/MOL
REMARK 923 INTER-LIGAND FREE ENERGY PREDICTED BY IDOCK:   -8.84 KCAL/MOL
REMARK 924 INTRA-LIGAND FREE ENERGY PREDICTED BY IDOCK:   -0.71 KCAL/MOL
REMARK 927      BINDING AFFINITY PREDICTED BY RF-SCORE:    0.00 PKD
ROOT
HETATM    1  C   UNL     1     -12.095  14.946  64.117  1.00  0.00    -0.267 C  
HETATM    2  N   UNL     1     -12.418  13.867  65.051  1.00  0.00    -0.556 NA 
HETATM    3  C   UNL     1     -12.889  12.662  64.356  1.00  0.00    -0.257 C  
HETATM    4  C   UNL     1     -11.783  11.863  63.667  1.00  0.00    -0.572 C  
HETATM    5  C   UNL     1     -10.630  11.562  64.616  1.00  0.00    -0.369 C  
HETATM    6  C   UNL     1     -10.155  12.831  65.315  1.00  0.00    -0.263 C  
HETATM    7  C   UNL     1     -11.303  13.597  65.995  1.00  0.00    -0.312 C  
ENDROOT
BRANCH   7   8
HETATM    8  C   UNL     1     -11.869  12.866  67.229  1.00  0.00    -0.416 C  
BRANCH   8   9
HETATM    9  C   UNL     1     -10.929  12.746  68.446  1.00  0.00    -0.254 C  
BRANCH   9  10
HETATM   10  N   UNL     1     -11.547  12.170  69.674  1.00  0.00    -0.303 NA 
HETATM   11  C   UNL     1     -12.329  13.023  70.515  1.00  0.00    -0.287 A  
HETATM   12  C   UNL     1     -13.082  12.512  71.594  1.00  0.00    -0.315 A  
HETATM   13  S   UNL     1     -13.101  10.806  72.080  1.00  0.00    -0.202 SA 
HETATM   14  C   UNL     1     -13.895  13.350  72.392  1.00  0.00    -0.665 A  
HETATM   15  C   UNL     1     -13.979  14.714  72.154  1.00  0.00    -0.591 A  
HETATM   16  C   UNL     1     -12.005  10.059  70.907  1.00  0.00    -0.361 A  
HETATM   17  C   UNL     1     -13.223  15.253  71.130  1.00  0.00    -0.567 A  
HETATM   18  C   UNL     1     -11.351  10.763  69.879  1.00  0.00    -0.311 A  
HETATM   19  C   UNL     1     -10.506   9.986  69.051  1.00  0.00    -0.233 A  
HETATM   20  C   UNL     1     -12.406  14.426  70.344  1.00  0.00    -0.406 A  
HETATM   21  C   UNL     1     -10.414   8.588  69.140  1.00  0.00    -0.205 A  
HETATM   22  C   UNL     1     -11.841   8.665  71.058  1.00  0.00    -0.303 A  
HETATM   23  C   UNL     1     -11.069   7.928  70.166  1.00  0.00    -0.204 A  
BRANCH  21  24
HETATM   24  S   UNL     1      -9.481   7.640  67.912  1.00  0.00    -0.144 S  
HETATM   25  O   UNL     1      -9.356   8.532  66.711  1.00  0.00    -0.158 OA 
HETATM   26  C   UNL     1     -10.781   6.426  67.536  1.00  0.00    -0.319 C  
ENDBRANCH  21  24
ENDBRANCH   9  10
ENDBRANCH   8   9
ENDBRANCH   7   8
TORSDOF 4
ENDMDL
MODEL        7
REMARK 921   NORMALIZED FREE ENERGY PREDICTED BY IDOCK:   -7.09 KCAL/MOL
REMARK 922        TOTAL FREE ENERGY PREDICTED BY IDOCK:   -9.53 KCAL/MOL
REMARK 923 INTER-LIGAND FREE ENERGY PREDICTED BY IDOCK:   -8.94 KCAL/MOL
REMARK 924 INTRA-LIGAND FREE ENERGY PREDICTED BY IDOCK:   -0.59 KCAL/MOL
REMARK 927      BINDING AFFINITY PREDICTED BY RF-SCORE:    0.00 PKD
ROOT
HETATM    1  C   UNL     1     -10.958  14.616  65.564  1.00  0.00    -0.340 C  
HETATM    2  N   UNL     1     -11.444  13.295  65.961  1.00  0.00    -0.319 NA 
HETATM    3  C   UNL     1     -12.549  12.838  65.109  1.00  0.00    -0.444 C  
HETATM    4  C   UNL     1     -12.116  12.367  63.720  1.00  0.00    -0.618 C  
HETATM    5  C   UNL     1     -10.992  11.343  63.797  1.00  0.00    -0.448 C  
HETATM    6  C   UNL     1      -9.855  11.847  64.679  1.00  0.00    -0.207 C  
HETATM    7  C   UNL     1     -10.340  12.306  66.065  1.00  0.00    -0.245 C  
ENDROOT
BRANCH   7   8
HETATM    8  C   UNL     1     -10.808  11.138  66.957  1.00  0.00    -0.338 C  
BRANCH   8   9
HETATM    9  C   UNL     1     -10.174  11.050  68.361  1.00  0.00    -0.185 C  
BRANCH   9  10
HETATM   10  N   UNL     1     -11.046  10.466  69.418  1.00  0.00    -0.239 NA 
HETATM   11  C   UNL     1     -11.029   9.050  69.619  1.00  0.00    -0.136 A  
HETATM   12  C   UNL     1     -11.694   8.448  70.708  1.00  0.00    -0.202 A  
HETATM   13  S   UNL     1     -12.669   9.332  71.898  1.00  0.00    -0.414 SA 
HETATM   14  C   UNL     1     -11.633   7.052  70.934  1.00  0.00    -0.370 A  
HETATM   15  C   UNL     1     -10.924   6.215  70.085  1.00  0.00    -0.426 A  
HETATM   16  C   UNL     1     -12.541  11.005  71.333  1.00  0.00    -0.393 A  
HETATM   17  C   UNL     1     -10.295   6.768  68.986  1.00  0.00    -0.212 A  
HETATM   18  C   UNL     1     -11.799  11.402  70.204  1.00  0.00    -0.355 A  
HETATM   19  C   UNL     1     -11.831  12.786  69.911  1.00  0.00    -0.371 A  
HETATM   20  C   UNL     1     -10.364   8.150  68.754  1.00  0.00    -0.220 A  
HETATM   21  C   UNL     1     -12.438  13.737  70.747  1.00  0.00    -0.370 A  
HETATM   22  C   UNL     1     -13.230  11.949  72.124  1.00  0.00    -0.366 A  
HETATM   23  C   UNL     1     -13.161  13.311  71.848  1.00  0.00    -0.523 A  
BRANCH  21  24
HETATM   24  S   UNL     1     -12.255  15.508  70.423  1.00  0.00    -0.404 S  
HETATM   25  O   UNL     1     -10.932  15.666  69.731  1.00  0.00    -0.252 OA 
HETATM   26  C   UNL     1     -12.014  16.026  72.148  1.00  0.00    -0.538 C  
ENDBRANCH  21  24
ENDBRANCH   9  10
ENDBRANCH   8   9
ENDBRANCH   7   8
TORSDOF 4
ENDMDL
MODEL        8
REMARK 921   NORMALIZED FREE ENERGY PREDICTED BY IDOCK:   -7.00 KCAL/MOL
REMARK 922        TOTAL FREE ENERGY PREDICTED BY IDOCK:   -9.41 KCAL/MOL
REMARK 923 INTER-LIGAND FREE ENERGY PREDICTED BY IDOCK:   -8.87 KCAL/MOL
REMARK 924 INTRA-LIGAND FREE ENERGY PREDICTED BY IDOCK:   -0.55 KCAL/MOL
REMARK 927      BINDING AFFINITY PREDICTED BY RF-SCORE:    0.00 PKD
ROOT
HETATM    1  C   UNL     1     -10.934   7.670  72.953  1.00  0.00    -0.400 C  
HETATM    2  N   UNL     1     -11.252   8.158  71.611  1.00  0.00    -0.251 NA 
HETATM    3  C   UNL     1     -12.124   7.228  70.882  1.00  0.00    -0.288 C  
HETATM    4  C   UNL     1     -13.584   7.249  71.338  1.00  0.00    -0.399 C  
HETATM    5  C   UNL     1     -14.147   8.663  71.362  1.00  0.00    -0.337 C  
HETATM    6  C   UNL     1     -13.227   9.604  72.133  1.00  0.00    -0.535 C  
HETATM    7  C   UNL     1     -11.773   9.549  71.635  1.00  0.00    -0.390 C  
ENDROOT
BRANCH   7   8
HETATM    8  C   UNL     1     -11.591  10.166  70.233  1.00  0.00    -0.379 C  
BRANCH   8   9
HETATM    9  C   UNL     1     -12.646  11.205  69.799  1.00  0.00    -0.063 C  
BRANCH   9  10
HETATM   10  N   UNL     1     -12.143  12.599  69.649  1.00  0.00    -0.256 NA 
HETATM   11  C   UNL     1     -12.314  13.512  70.736  1.00  0.00    -0.363 A  
HETATM   12  C   UNL     1     -11.715  14.790  70.733  1.00  0.00    -0.300 A  
HETATM   13  S   UNL     1     -10.756  15.441  69.390  1.00  0.00    -0.278 SA 
HETATM   14  C   UNL     1     -11.844  15.671  71.833  1.00  0.00    -0.536 A  
HETATM   15  C   UNL     1     -12.575  15.320  72.958  1.00  0.00    -0.539 A  
HETATM   16  C   UNL     1     -10.797  14.120  68.212  1.00  0.00    -0.247 A  
HETATM   17  C   UNL     1     -13.209  14.092  72.976  1.00  0.00    -0.436 A  
HETATM   18  C   UNL     1     -11.458  12.895  68.423  1.00  0.00    -0.312 A  
HETATM   19  C   UNL     1     -11.383  11.971  67.354  1.00  0.00    -0.393 A  
HETATM   20  C   UNL     1     -13.092  13.221  71.882  1.00  0.00    -0.483 A  
HETATM   21  C   UNL     1     -10.598  12.180  66.208  1.00  0.00    -0.250 A  
HETATM   22  C   UNL     1     -10.084  14.370  67.020  1.00  0.00    -0.256 A  
HETATM   23  C   UNL     1      -9.964  13.398  66.033  1.00  0.00    -0.300 A  
BRANCH  21  24
HETATM   24  S   UNL     1     -10.379  10.867  64.983  1.00  0.00    -0.265 S  
HETATM   25  O   UNL     1      -9.071  10.208  65.313  1.00  0.00    -0.167 OA 
HETATM   26  C   UNL     1     -10.079  11.947  63.552  1.00  0.00    -0.441 C  
ENDBRANCH  21  24
ENDBRANCH   9  10
ENDBRANCH   8   9
ENDBRANCH   7   8
TORSDOF 4
ENDMDL
MODEL        9
REMARK 921   NORMALIZED FREE ENERGY PREDICTED BY IDOCK:   -6.96 KCAL/MOL
REMARK 922        TOTAL FREE ENERGY PREDICTED BY IDOCK:   -9.36 KCAL/MOL
REMARK 923 INTER-LIGAND FREE ENERGY PREDICTED BY IDOCK:   -8.70 KCAL/MOL
REMARK 924 INTRA-LIGAND FREE ENERGY PREDICTED BY IDOCK:   -0.66 KCAL/MOL
REMARK 927      BINDING AFFINITY PREDICTED BY RF-SCORE:    0.00 PKD
ROOT
HETATM    1  C   UNL     1     -10.466  19.023  65.935  1.00  0.00    -0.399 C  
HETATM    2  N   UNL     1     -10.006  17.672  66.256  1.00  0.00    -0.398 NA 
HETATM    3  C   UNL     1      -8.540  17.580  66.274  1.00  0.00    -0.199 C  
HETATM    4  C   UNL     1      -7.889  18.198  67.512  1.00  0.00    -0.223 C  
HETATM    5  C   UNL     1      -8.511  17.672  68.799  1.00  0.00    -0.213 C  
HETATM    6  C   UNL     1     -10.031  17.788  68.756  1.00  0.00    -0.367 C  
HETATM    7  C   UNL     1     -10.638  17.150  67.495  1.00  0.00    -0.323 C  
ENDROOT
BRANCH   7   8
HETATM    8  C   UNL     1     -10.536  15.611  67.489  1.00  0.00    -0.285 C  
BRANCH   8   9
HETATM    9  C   UNL     1     -11.866  14.835  67.574  1.00  0.00    -0.301 C  
BRANCH   9  10
HETATM   10  N   UNL     1     -11.904  13.747  68.592  1.00  0.00    -0.357 NA 
HETATM   11  C   UNL     1     -12.409  14.044  69.897  1.00  0.00    -0.310 A  
HETATM   12  C   UNL     1     -12.634  13.030  70.853  1.00  0.00    -0.280 A  
HETATM   13  S   UNL     1     -12.266  11.314  70.597  1.00  0.00    -0.379 SA 
HETATM   14  C   UNL     1     -13.182  13.321  72.125  1.00  0.00    -0.562 A  
HETATM   15  C   UNL     1     -13.511  14.618  72.490  1.00  0.00    -0.565 A  
HETATM   16  C   UNL     1     -11.610  11.303  68.952  1.00  0.00    -0.319 A  
HETATM   17  C   UNL     1     -13.265  15.639  71.592  1.00  0.00    -0.554 A  
HETATM   18  C   UNL     1     -11.480  12.450  68.147  1.00  0.00    -0.318 A  
HETATM   19  C   UNL     1     -10.922  12.233  66.865  1.00  0.00    -0.312 A  
HETATM   20  C   UNL     1     -12.711  15.355  70.335  1.00  0.00    -0.407 A  
HETATM   21  C   UNL     1     -10.637  10.957  66.354  1.00  0.00    -0.229 A  
HETATM   22  C   UNL     1     -11.237  10.028  68.474  1.00  0.00    -0.180 A  
HETATM   23  C   UNL     1     -10.776   9.850  67.175  1.00  0.00    -0.276 A  
BRANCH  21  24
HETATM   24  S   UNL     1     -10.129  10.740  64.631  1.00  0.00    -0.355 S  
HETATM   25  O   UNL     1      -8.629  10.679  64.648  1.00  0.00    -0.175 OA 
HETATM   26  C   UNL     1     -10.584  12.402  64.054  1.00  0.00    -0.413 C  
ENDBRANCH  21  24
ENDBRANCH   9  10
ENDBRANCH   8   9
ENDBRANCH   7   8
TORSDOF 4
ENDMDL
MODEL       10
REMARK 921   NORMALIZED FREE ENERGY PREDICTED BY IDOCK:   -6.95 KCAL/MOL
REMARK 922        TOTAL FREE ENERGY PREDICTED BY IDOCK:   -9.35 KCAL/MOL
REMARK 923 INTER-LIGAND FREE ENERGY PREDICTED BY IDOCK:   -8.65 KCAL/MOL
REMARK 924 INTRA-LIGAND FREE ENERGY PREDICTED BY IDOCK:   -0.71 KCAL/MOL
REMARK 927      BINDING AFFINITY PREDICTED BY RF-SCORE:    0.00 PKD
ROOT
HETATM    1  C   UNL     1     -10.481   6.746  73.864  1.00  0.00    -0.327 C  
HETATM    2  N   UNL     1     -10.298   7.675  72.749  1.00  0.00    -0.265 NA 
HETATM    3  C   UNL     1      -9.549   7.065  71.643  1.00  0.00    -0.156 C  
HETATM    4  C   UNL     1     -10.360   6.073  70.808  1.00  0.00    -0.280 C  
HETATM    5  C   UNL     1     -11.680   6.674  70.342  1.00  0.00    -0.446 C  
HETATM    6  C   UNL     1     -12.440   7.292  71.511  1.00  0.00    -0.408 C  
HETATM    7  C   UNL     1     -11.583   8.283  72.317  1.00  0.00    -0.383 C  
ENDROOT
BRANCH   7   8
HETATM    8  C   UNL     1     -11.277   9.582  71.544  1.00  0.00    -0.437 C  
BRANCH   8   9
HETATM    9  C   UNL     1     -12.467  10.247  70.821  1.00  0.00    -0.346 C  
BRANCH   9  10
HETATM   10  N   UNL     1     -12.151  11.518  70.111  1.00  0.00    -0.346 NA 
HETATM   11  C   UNL     1     -12.532  12.757  70.717  1.00  0.00    -0.271 A  
HETATM   12  C   UNL     1     -12.116  13.999  70.189  1.00  0.00    -0.351 A  
HETATM   13  S   UNL     1     -11.155  14.185  68.710  1.00  0.00    -0.273 SA 
HETATM   14  C   UNL     1     -12.451  15.220  70.820  1.00  0.00    -0.457 A  
HETATM   15  C   UNL     1     -13.212  15.250  71.979  1.00  0.00    -0.499 A  
HETATM   16  C   UNL     1     -10.921  12.510  68.189  1.00  0.00    -0.228 A  
HETATM   17  C   UNL     1     -13.669  14.053  72.499  1.00  0.00    -0.651 A  
HETATM   18  C   UNL     1     -11.420  11.391  68.882  1.00  0.00    -0.298 A  
HETATM   19  C   UNL     1     -11.135  10.135  68.296  1.00  0.00    -0.285 A  
HETATM   20  C   UNL     1     -13.349  12.841  71.869  1.00  0.00    -0.510 A  
HETATM   21  C   UNL     1     -10.301   9.978  67.178  1.00  0.00    -0.241 A  
HETATM   22  C   UNL     1     -10.159  12.359  67.011  1.00  0.00    -0.223 A  
HETATM   23  C   UNL     1      -9.829  11.101  66.520  1.00  0.00    -0.242 A  
BRANCH  21  24
HETATM   24  S   UNL     1      -9.807   8.331  66.614  1.00  0.00    -0.266 S  
HETATM   25  O   UNL     1     -10.991   7.440  66.855  1.00  0.00    -0.324 OA 
HETATM   26  C   UNL     1      -8.612   7.991  67.940  1.00  0.00    -0.129 C  
ENDBRANCH  21  24
ENDBRANCH   9  10
ENDBRANCH   8   9
ENDBRANCH   7   8
TORSDOF 4
ENDMDL
MODEL       11
REMARK 921   NORMALIZED FREE ENERGY PREDICTED BY IDOCK:   -6.94 KCAL/MOL
REMARK 922        TOTAL FREE ENERGY PREDICTED BY IDOCK:   -9.34 KCAL/MOL
REMARK 923 INTER-LIGAND FREE ENERGY PREDICTED BY IDOCK:   -8.82 KCAL/MOL
REMARK 924 INTRA-LIGAND FREE ENERGY PREDICTED BY IDOCK:   -0.53 KCAL/MOL
REMARK 927      BINDING AFFINITY PREDICTED BY RF-SCORE:    0.00 PKD
ROOT
HETATM    1  C   UNL     1     -11.392  16.149  70.260  1.00  0.00    -0.353 C  
HETATM    2  N   UNL     1     -11.536  14.980  71.129  1.00  0.00    -0.322 NA 
HETATM    3  C   UNL     1     -11.549  15.352  72.550  1.00  0.00    -0.425 C  
HETATM    4  C   UNL     1     -12.861  15.982  73.021  1.00  0.00    -0.587 C  
HETATM    5  C   UNL     1     -14.065  15.131  72.640  1.00  0.00    -0.435 C  
HETATM    6  C   UNL     1     -14.030  14.769  71.159  1.00  0.00    -0.355 C  
HETATM    7  C   UNL     1     -12.693  14.136  70.736  1.00  0.00    -0.344 C  
ENDROOT
BRANCH   7   8
HETATM    8  C   UNL     1     -12.487  12.720  71.312  1.00  0.00    -0.284 C  
BRANCH   8   9
HETATM    9  C   UNL     1     -13.030  11.550  70.467  1.00  0.00     0.119 C  
BRANCH   9  10
HETATM   10  N   UNL     1     -11.994  10.663  69.867  1.00  0.00    -0.305 NA 
HETATM   11  C   UNL     1     -11.595   9.490  70.582  1.00  0.00    -0.283 A  
HETATM   12  C   UNL     1     -10.751   8.519  70.002  1.00  0.00    -0.232 A  
HETATM   13  S   UNL     1     -10.037   8.654  68.384  1.00  0.00    -0.195 SA 
HETATM   14  C   UNL     1     -10.400   7.335  70.693  1.00  0.00    -0.213 A  
HETATM   15  C   UNL     1     -10.863   7.084  71.975  1.00  0.00    -0.253 A  
HETATM   16  C   UNL     1     -10.661  10.210  67.816  1.00  0.00    -0.256 A  
HETATM   17  C   UNL     1     -11.658   8.033  72.588  1.00  0.00    -0.448 A  
HETATM   18  C   UNL     1     -11.520  11.036  68.564  1.00  0.00    -0.309 A  
HETATM   19  C   UNL     1     -11.898  12.247  67.938  1.00  0.00    -0.358 A  
HETATM   20  C   UNL     1     -11.998   9.214  71.910  1.00  0.00    -0.443 A  
HETATM   21  C   UNL     1     -11.567  12.565  66.611  1.00  0.00    -0.380 A  
HETATM   22  C   UNL     1     -10.249  10.572  66.515  1.00  0.00    -0.288 A  
HETATM   23  C   UNL     1     -10.717  11.730  65.905  1.00  0.00    -0.328 A  
BRANCH  21  24
HETATM   24  S   UNL     1     -12.263  14.029  65.806  1.00  0.00    -0.468 S  
HETATM   25  O   UNL     1     -13.024  13.522  64.616  1.00  0.00    -0.660 OA 
HETATM   26  C   UNL     1     -10.696  14.706  65.182  1.00  0.00    -0.414 C  
ENDBRANCH  21  24
ENDBRANCH   9  10
ENDBRANCH   8   9
ENDBRANCH   7   8
TORSDOF 4
ENDMDL
MODEL       12
REMARK 921   NORMALIZED FREE ENERGY PREDICTED BY IDOCK:   -6.94 KCAL/MOL
REMARK 922        TOTAL FREE ENERGY PREDICTED BY IDOCK:   -9.33 KCAL/MOL
REMARK 923 INTER-LIGAND FREE ENERGY PREDICTED BY IDOCK:   -8.77 KCAL/MOL
REMARK 924 INTRA-LIGAND FREE ENERGY PREDICTED BY IDOCK:   -0.56 KCAL/MOL
REMARK 927      BINDING AFFINITY PREDICTED BY RF-SCORE:    0.00 PKD
ROOT
HETATM    1  C   UNL     1      -8.394   8.766  71.221  1.00  0.00    -0.176 C  
HETATM    2  N   UNL     1      -9.370   8.674  70.136  1.00  0.00    -0.160 NA 
HETATM    3  C   UNL     1     -10.125   7.414  70.182  1.00  0.00    -0.197 C  
HETATM    4  C   UNL     1     -11.193   7.364  71.276  1.00  0.00    -0.275 C  
HETATM    5  C   UNL     1     -12.110   8.578  71.225  1.00  0.00    -0.323 C  
HETATM    6  C   UNL     1     -11.301   9.870  71.187  1.00  0.00    -0.443 C  
HETATM    7  C   UNL     1     -10.243   9.874  70.070  1.00  0.00    -0.271 C  
ENDROOT
BRANCH   7   8
HETATM    8  C   UNL     1     -10.858   9.959  68.658  1.00  0.00    -0.244 C  
BRANCH   8   9
HETATM    9  C   UNL     1     -12.005  10.973  68.468  1.00  0.00    -0.135 C  
BRANCH   9  10
HETATM   10  N   UNL     1     -11.603  12.291  67.904  1.00  0.00    -0.335 NA 
HETATM   11  C   UNL     1     -11.204  12.359  66.532  1.00  0.00    -0.319 A  
HETATM   12  C   UNL     1     -10.976  13.593  65.885  1.00  0.00    -0.282 A  
HETATM   13  S   UNL     1     -11.082  15.173  66.683  1.00  0.00    -0.270 SA 
HETATM   14  C   UNL     1     -10.632  13.658  64.514  1.00  0.00    -0.428 A  
HETATM   15  C   UNL     1     -10.494  12.510  63.749  1.00  0.00    -0.451 A  
HETATM   16  C   UNL     1     -11.515  14.738  68.344  1.00  0.00    -0.314 A  
HETATM   17  C   UNL     1     -10.670  11.284  64.361  1.00  0.00    -0.407 A  
HETATM   18  C   UNL     1     -11.712  13.417  68.787  1.00  0.00    -0.340 A  
HETATM   19  C   UNL     1     -12.043  13.278  70.156  1.00  0.00    -0.403 A  
HETATM   20  C   UNL     1     -10.999  11.215  65.724  1.00  0.00    -0.160 A  
HETATM   21  C   UNL     1     -12.298  14.369  71.002  1.00  0.00    -0.357 A  
HETATM   22  C   UNL     1     -11.681  15.835  69.217  1.00  0.00    -0.384 A  
HETATM   23  C   UNL     1     -12.093  15.655  70.532  1.00  0.00    -0.430 A  
BRANCH  21  24
HETATM   24  S   UNL     1     -12.925  14.114  72.680  1.00  0.00    -0.384 S  
HETATM   25  O   UNL     1     -14.297  13.525  72.523  1.00  0.00    -0.713 OA 
HETATM   26  C   UNL     1     -13.148  15.867  73.103  1.00  0.00    -0.572 C  
ENDBRANCH  21  24
ENDBRANCH   9  10
ENDBRANCH   8   9
ENDBRANCH   7   8
TORSDOF 4
ENDMDL
MODEL       13
REMARK 921   NORMALIZED FREE ENERGY PREDICTED BY IDOCK:   -6.82 KCAL/MOL
REMARK 922        TOTAL FREE ENERGY PREDICTED BY IDOCK:   -9.20 KCAL/MOL
REMARK 923 INTER-LIGAND FREE ENERGY PREDICTED BY IDOCK:   -8.60 KCAL/MOL
REMARK 924 INTRA-LIGAND FREE ENERGY PREDICTED BY IDOCK:   -0.60 KCAL/MOL
REMARK 927      BINDING AFFINITY PREDICTED BY RF-SCORE:    0.00 PKD
ROOT
HETATM    1  C   UNL     1     -10.428   7.213  73.596  1.00  0.00    -0.370 C  
HETATM    2  N   UNL     1     -10.145   7.922  72.348  1.00  0.00    -0.225 NA 
HETATM    3  C   UNL     1      -9.561   7.035  71.333  1.00  0.00    -0.162 C  
HETATM    4  C   UNL     1     -10.564   6.086  70.678  1.00  0.00    -0.322 C  
HETATM    5  C   UNL     1     -11.785   6.830  70.153  1.00  0.00    -0.370 C  
HETATM    6  C   UNL     1     -12.376   7.735  71.228  1.00  0.00    -0.314 C  
HETATM    7  C   UNL     1     -11.329   8.672  71.855  1.00  0.00    -0.347 C  
ENDROOT
BRANCH   7   8
HETATM    8  C   UNL     1     -10.847   9.770  70.886  1.00  0.00    -0.399 C  
BRANCH   8   9
HETATM    9  C   UNL     1     -11.930  10.444  70.018  1.00  0.00    -0.247 C  
BRANCH   9  10
HETATM   10  N   UNL     1     -11.419  11.260  68.881  1.00  0.00    -0.267 NA 
HETATM   11  C   UNL     1     -10.844  10.589  67.756  1.00  0.00    -0.294 A  
HETATM   12  C   UNL     1     -10.498  11.282  66.576  1.00  0.00    -0.253 A  
HETATM   13  S   UNL     1     -10.660  13.035  66.363  1.00  0.00    -0.288 SA 
HETATM   14  C   UNL     1      -9.977  10.607  65.447  1.00  0.00    -0.343 A  
HETATM   15  C   UNL     1      -9.774   9.235  65.456  1.00  0.00    -0.247 A  
HETATM   16  C   UNL     1     -11.318  13.554  67.923  1.00  0.00    -0.289 A  
HETATM   17  C   UNL     1     -10.065   8.533  66.610  1.00  0.00    -0.364 A  
HETATM   18  C   UNL     1     -11.609  12.679  68.986  1.00  0.00    -0.317 A  
HETATM   19  C   UNL     1     -12.119  13.291  70.156  1.00  0.00    -0.403 A  
HETATM   20  C   UNL     1     -10.570   9.201  67.735  1.00  0.00    -0.289 A  
HETATM   21  C   UNL     1     -12.450  14.654  70.231  1.00  0.00    -0.346 A  
HETATM   22  C   UNL     1     -11.563  14.940  68.029  1.00  0.00    -0.363 A  
HETATM   23  C   UNL     1     -12.147  15.486  69.166  1.00  0.00    -0.266 A  
BRANCH  21  24
HETATM   24  S   UNL     1     -13.297  15.323  71.683  1.00  0.00    -0.501 S  
HETATM   25  O   UNL     1     -12.239  16.010  72.498  1.00  0.00    -0.437 OA 
HETATM   26  C   UNL     1     -13.638  13.733  72.494  1.00  0.00    -0.575 C  
ENDBRANCH  21  24
ENDBRANCH   9  10
ENDBRANCH   8   9
ENDBRANCH   7   8
TORSDOF 4
ENDMDL
MODEL       14
REMARK 921   NORMALIZED FREE ENERGY PREDICTED BY IDOCK:   -6.79 KCAL/MOL
REMARK 922        TOTAL FREE ENERGY PREDICTED BY IDOCK:   -9.15 KCAL/MOL
REMARK 923 INTER-LIGAND FREE ENERGY PREDICTED BY IDOCK:   -8.52 KCAL/MOL
REMARK 924 INTRA-LIGAND FREE ENERGY PREDICTED BY IDOCK:   -0.63 KCAL/MOL
REMARK 927      BINDING AFFINITY PREDICTED BY RF-SCORE:    0.00 PKD
ROOT
HETATM    1  C   UNL     1     -10.298  15.227  65.327  1.00  0.00    -0.401 C  
HETATM    2  N   UNL     1     -11.125  14.197  65.957  1.00  0.00    -0.310 NA 
HETATM    3  C   UNL     1     -12.428  14.059  65.294  1.00  0.00    -0.475 C  
HETATM    4  C   UNL     1     -12.375  13.329  63.951  1.00  0.00    -0.422 C  
HETATM    5  C   UNL     1     -11.645  11.997  64.062  1.00  0.00    -0.495 C  
HETATM    6  C   UNL     1     -10.292  12.172  64.744  1.00  0.00    -0.320 C  
HETATM    7  C   UNL     1     -10.399  12.908  66.091  1.00  0.00    -0.276 C  
ENDROOT
BRANCH   7   8
HETATM    8  C   UNL     1     -11.088  12.067  67.184  1.00  0.00    -0.344 C  
BRANCH   8   9
HETATM    9  C   UNL     1     -10.365  11.985  68.545  1.00  0.00    -0.217 C  
BRANCH   9  10
HETATM   10  N   UNL     1     -11.256  11.902  69.736  1.00  0.00    -0.128 NA 
HETATM   11  C   UNL     1     -11.892  13.096  70.203  1.00  0.00    -0.257 A  
HETATM   12  C   UNL     1     -12.878  13.064  71.212  1.00  0.00    -0.281 A  
HETATM   13  S   UNL     1     -13.393  11.595  72.061  1.00  0.00    -0.066 SA 
HETATM   14  C   UNL     1     -13.542  14.240  71.636  1.00  0.00    -0.461 A  
HETATM   15  C   UNL     1     -13.244  15.476  71.083  1.00  0.00    -0.576 A  
HETATM   16  C   UNL     1     -12.389  10.344  71.311  1.00  0.00    -0.401 A  
HETATM   17  C   UNL     1     -12.254  15.548  70.121  1.00  0.00    -0.404 A  
HETATM   18  C   UNL     1     -11.455  10.592  70.287  1.00  0.00    -0.337 A  
HETATM   19  C   UNL     1     -10.742   9.460  69.827  1.00  0.00    -0.250 A  
HETATM   20  C   UNL     1     -11.586  14.385  69.707  1.00  0.00    -0.352 A  
HETATM   21  C   UNL     1     -11.022   8.150  70.247  1.00  0.00    -0.240 A  
HETATM   22  C   UNL     1     -12.607   9.039  71.801  1.00  0.00    -0.434 A  
HETATM   23  C   UNL     1     -11.946   7.943  71.257  1.00  0.00    -0.321 A  
BRANCH  21  24
HETATM   24  S   UNL     1     -10.219   6.732  69.459  1.00  0.00    -0.191 S  
HETATM   25  O   UNL     1     -11.061   6.393  68.263  1.00  0.00    -0.308 OA 
HETATM   26  C   UNL     1     -10.614   5.510  70.746  1.00  0.00    -0.249 C  
ENDBRANCH  21  24
ENDBRANCH   9  10
ENDBRANCH   8   9
ENDBRANCH   7   8
TORSDOF 4
ENDMDL
MODEL       15
REMARK 921   NORMALIZED FREE ENERGY PREDICTED BY IDOCK:   -6.76 KCAL/MOL
REMARK 922        TOTAL FREE ENERGY PREDICTED BY IDOCK:   -9.11 KCAL/MOL
REMARK 923 INTER-LIGAND FREE ENERGY PREDICTED BY IDOCK:   -8.75 KCAL/MOL
REMARK 924 INTRA-LIGAND FREE ENERGY PREDICTED BY IDOCK:   -0.37 KCAL/MOL
REMARK 927      BINDING AFFINITY PREDICTED BY RF-SCORE:    0.00 PKD
ROOT
HETATM    1  C   UNL     1     -12.709  12.386  64.190  1.00  0.00    -0.347 C  
HETATM    2  N   UNL     1     -11.439  12.200  64.891  1.00  0.00    -0.331 NA 
HETATM    3  C   UNL     1     -10.417  13.153  64.437  1.00  0.00    -0.407 C  
HETATM    4  C   UNL     1     -10.609  14.576  64.963  1.00  0.00    -0.458 C  
HETATM    5  C   UNL     1     -10.781  14.599  66.476  1.00  0.00    -0.312 C  
HETATM    6  C   UNL     1     -11.854  13.609  66.918  1.00  0.00    -0.451 C  
HETATM    7  C   UNL     1     -11.615  12.193  66.366  1.00  0.00    -0.364 C  
ENDROOT
BRANCH   7   8
HETATM    8  C   UNL     1     -10.396  11.495  67.003  1.00  0.00    -0.254 C  
BRANCH   8   9
HETATM    9  C   UNL     1     -10.164  11.757  68.506  1.00  0.00    -0.210 C  
BRANCH   9  10
HETATM   10  N   UNL     1     -10.981  10.924  69.432  1.00  0.00    -0.237 NA 
HETATM   11  C   UNL     1     -10.779   9.508  69.443  1.00  0.00    -0.225 A  
HETATM   12  C   UNL     1     -11.390   8.679  70.408  1.00  0.00    -0.187 A  
HETATM   13  S   UNL     1     -12.511   9.256  71.656  1.00  0.00    -0.394 SA 
HETATM   14  C   UNL     1     -11.147   7.286  70.448  1.00  0.00    -0.291 A  
HETATM   15  C   UNL     1     -10.306   6.673  69.531  1.00  0.00    -0.232 A  
HETATM   16  C   UNL     1     -12.593  10.994  71.326  1.00  0.00    -0.412 A  
HETATM   17  C   UNL     1      -9.724   7.450  68.548  1.00  0.00    -0.152 A  
HETATM   18  C   UNL     1     -11.877  11.636  70.299  1.00  0.00    -0.326 A  
HETATM   19  C   UNL     1     -12.087  13.032  70.191  1.00  0.00    -0.377 A  
HETATM   20  C   UNL     1      -9.972   8.830  68.499  1.00  0.00    -0.200 A  
HETATM   21  C   UNL     1     -12.842  13.771  71.116  1.00  0.00    -0.335 A  
HETATM   22  C   UNL     1     -13.427  11.722  72.201  1.00  0.00    -0.273 A  
HETATM   23  C   UNL     1     -13.534  13.106  72.114  1.00  0.00    -0.653 A  
BRANCH  21  24
HETATM   24  S   UNL     1     -12.890  15.578  71.040  1.00  0.00    -0.466 S  
HETATM   25  O   UNL     1     -12.009  15.966  69.888  1.00  0.00    -0.334 OA 
HETATM   26  C   UNL     1     -11.941  15.889  72.559  1.00  0.00    -0.517 C  
ENDBRANCH  21  24
ENDBRANCH   9  10
ENDBRANCH   8   9
ENDBRANCH   7   8
TORSDOF 4
ENDMDL
MODEL       16
REMARK 921   NORMALIZED FREE ENERGY PREDICTED BY IDOCK:   -6.72 KCAL/MOL
REMARK 922        TOTAL FREE ENERGY PREDICTED BY IDOCK:   -9.07 KCAL/MOL
REMARK 923 INTER-LIGAND FREE ENERGY PREDICTED BY IDOCK:   -8.35 KCAL/MOL
REMARK 924 INTRA-LIGAND FREE ENERGY PREDICTED BY IDOCK:   -0.71 KCAL/MOL
REMARK 927      BINDING AFFINITY PREDICTED BY RF-SCORE:    0.00 PKD
ROOT
HETATM    1  C   UNL     1     -13.372  12.951  71.877  1.00  0.00    -0.435 C  
HETATM    2  N   UNL     1     -13.431  14.250  71.208  1.00  0.00    -0.339 NA 
HETATM    3  C   UNL     1     -14.220  15.225  71.972  1.00  0.00    -0.581 C  
HETATM    4  C   UNL     1     -13.506  15.784  73.203  1.00  0.00    -0.652 C  
HETATM    5  C   UNL     1     -12.120  16.314  72.859  1.00  0.00    -0.625 C  
HETATM    6  C   UNL     1     -11.320  15.279  72.076  1.00  0.00    -0.431 C  
HETATM    7  C   UNL     1     -12.079  14.750  70.847  1.00  0.00    -0.324 C  
ENDROOT
BRANCH   7   8
HETATM    8  C   UNL     1     -12.227  15.803  69.730  1.00  0.00    -0.236 C  
BRANCH   8   9
HETATM    9  C   UNL     1     -11.560  15.469  68.379  1.00  0.00    -0.357 C  
BRANCH   9  10
HETATM   10  N   UNL     1     -10.072  15.528  68.372  1.00  0.00    -0.212 NA 
HETATM   11  C   UNL     1      -9.433  16.804  68.463  1.00  0.00    -0.245 A  
HETATM   12  C   UNL     1      -8.037  16.925  68.634  1.00  0.00    -0.253 A  
HETATM   13  S   UNL     1      -6.914  15.553  68.686  1.00  0.00    -0.122 SA 
HETATM   14  C   UNL     1      -7.415  18.188  68.776  1.00  0.00    -0.285 A  
HETATM   15  C   UNL     1      -8.150  19.363  68.742  1.00  0.00    -0.388 A  
HETATM   16  C   UNL     1      -7.994  14.164  68.481  1.00  0.00    -0.145 A  
HETATM   17  C   UNL     1      -9.515  19.282  68.535  1.00  0.00    -0.447 A  
HETATM   18  C   UNL     1      -9.390  14.265  68.336  1.00  0.00    -0.208 A  
HETATM   19  C   UNL     1     -10.075  13.037  68.173  1.00  0.00    -0.237 A  
HETATM   20  C   UNL     1     -10.133  18.032  68.382  1.00  0.00    -0.392 A  
HETATM   21  C   UNL     1      -9.449  11.785  68.281  1.00  0.00    -0.193 A  
HETATM   22  C   UNL     1      -7.349  12.909  68.497  1.00  0.00    -0.115 A  
HETATM   23  C   UNL     1      -8.073  11.724  68.421  1.00  0.00    -0.150 A  
BRANCH  21  24
HETATM   24  S   UNL     1     -10.422  10.259  68.276  1.00  0.00    -0.214 S  
HETATM   25  O   UNL     1     -11.833  10.670  67.970  1.00  0.00    -0.494 OA 
HETATM   26  C   UNL     1     -10.340   9.938  70.063  1.00  0.00    -0.272 C  
ENDBRANCH  21  24
ENDBRANCH   9  10
ENDBRANCH   8   9
ENDBRANCH   7   8
TORSDOF 4
ENDMDL
MODEL       17
REMARK 921   NORMALIZED FREE ENERGY PREDICTED BY IDOCK:   -6.71 KCAL/MOL
REMARK 922        TOTAL FREE ENERGY PREDICTED BY IDOCK:   -9.05 KCAL/MOL
REMARK 923 INTER-LIGAND FREE ENERGY PREDICTED BY IDOCK:   -8.32 KCAL/MOL
REMARK 924 INTRA-LIGAND FREE ENERGY PREDICTED BY IDOCK:   -0.73 KCAL/MOL
REMARK 927      BINDING AFFINITY PREDICTED BY RF-SCORE:    0.00 PKD
ROOT
HETATM    1  C   UNL     1     -10.460   7.370  68.929  1.00  0.00    -0.203 C  
HETATM    2  N   UNL     1     -10.595   8.554  69.777  1.00  0.00    -0.225 NA 
HETATM    3  C   UNL     1      -9.652   8.534  70.903  1.00  0.00    -0.185 C  
HETATM    4  C   UNL     1      -8.208   8.858  70.517  1.00  0.00    -0.160 C  
HETATM    5  C   UNL     1      -8.114  10.149  69.715  1.00  0.00    -0.167 C  
HETATM    6  C   UNL     1      -9.096  10.138  68.548  1.00  0.00    -0.134 C  
HETATM    7  C   UNL     1     -10.534   9.811  68.988  1.00  0.00    -0.213 C  
ENDROOT
BRANCH   7   8
HETATM    8  C   UNL     1     -11.184  10.941  69.811  1.00  0.00    -0.351 C  
BRANCH   8   9
HETATM    9  C   UNL     1     -12.268  11.775  69.096  1.00  0.00    -0.108 C  
BRANCH   9  10
HETATM   10  N   UNL     1     -12.010  13.241  69.039  1.00  0.00    -0.311 NA 
HETATM   11  C   UNL     1     -12.201  14.019  70.223  1.00  0.00    -0.361 A  
HETATM   12  C   UNL     1     -11.813  15.375  70.290  1.00  0.00    -0.338 A  
HETATM   13  S   UNL     1     -11.125  16.286  68.933  1.00  0.00    -0.336 SA 
HETATM   14  C   UNL     1     -11.955  16.128  71.480  1.00  0.00    -0.490 A  
HETATM   15  C   UNL     1     -12.492  15.568  72.629  1.00  0.00    -0.502 A  
HETATM   16  C   UNL     1     -11.090  15.079  67.638  1.00  0.00    -0.316 A  
HETATM   17  C   UNL     1     -12.919  14.254  72.586  1.00  0.00    -0.526 A  
HETATM   18  C   UNL     1     -11.522  13.748  67.788  1.00  0.00    -0.322 A  
HETATM   19  C   UNL     1     -11.422  12.942  66.629  1.00  0.00    -0.393 A  
HETATM   20  C   UNL     1     -12.790  13.508  71.404  1.00  0.00    -0.440 A  
HETATM   21  C   UNL     1     -10.813  13.373  65.440  1.00  0.00    -0.294 A  
HETATM   22  C   UNL     1     -10.562  15.543  66.414  1.00  0.00    -0.312 A  
HETATM   23  C   UNL     1     -10.401  14.690  65.327  1.00  0.00    -0.425 A  
BRANCH  21  24
HETATM   24  S   UNL     1     -10.529  12.221  64.073  1.00  0.00    -0.432 S  
HETATM   25  O   UNL     1     -11.889  11.845  63.561  1.00  0.00    -0.473 OA 
HETATM   26  C   UNL     1      -9.938  10.827  65.078  1.00  0.00    -0.300 C  
ENDBRANCH  21  24
ENDBRANCH   9  10
ENDBRANCH   8   9
ENDBRANCH   7   8
TORSDOF 4
ENDMDL
MODEL       18
REMARK 921   NORMALIZED FREE ENERGY PREDICTED BY IDOCK:   -6.70 KCAL/MOL
REMARK 922        TOTAL FREE ENERGY PREDICTED BY IDOCK:   -9.04 KCAL/MOL
REMARK 923 INTER-LIGAND FREE ENERGY PREDICTED BY IDOCK:   -8.47 KCAL/MOL
REMARK 924 INTRA-LIGAND FREE ENERGY PREDICTED BY IDOCK:   -0.57 KCAL/MOL
REMARK 927      BINDING AFFINITY PREDICTED BY RF-SCORE:    0.00 PKD
ROOT
HETATM    1  C   UNL     1     -10.657  19.285  66.325  1.00  0.00    -0.454 C  
HETATM    2  N   UNL     1     -10.126  17.928  66.455  1.00  0.00    -0.355 NA 
HETATM    3  C   UNL     1      -8.674  17.884  66.240  1.00  0.00    -0.169 C  
HETATM    4  C   UNL     1      -7.850  18.421  67.412  1.00  0.00    -0.237 C  
HETATM    5  C   UNL     1      -8.254  17.772  68.729  1.00  0.00    -0.229 C  
HETATM    6  C   UNL     1      -9.764  17.841  68.930  1.00  0.00    -0.262 C  
HETATM    7  C   UNL     1     -10.547  17.287  67.727  1.00  0.00    -0.367 C  
ENDROOT
BRANCH   7   8
HETATM    8  C   UNL     1     -10.416  15.758  67.575  1.00  0.00    -0.288 C  
BRANCH   8   9
HETATM    9  C   UNL     1     -11.734  14.962  67.483  1.00  0.00    -0.308 C  
BRANCH   9  10
HETATM   10  N   UNL     1     -11.607  13.493  67.698  1.00  0.00    -0.318 NA 
HETATM   11  C   UNL     1     -11.049  12.691  66.654  1.00  0.00    -0.274 A  
HETATM   12  C   UNL     1     -10.741  11.327  66.850  1.00  0.00    -0.273 A  
HETATM   13  S   UNL     1     -11.061  10.436  68.350  1.00  0.00    -0.252 SA 
HETATM   14  C   UNL     1     -10.141  10.549  65.831  1.00  0.00    -0.323 A  
HETATM   15  C   UNL     1      -9.840  11.092  64.591  1.00  0.00    -0.330 A  
HETATM   16  C   UNL     1     -11.797  11.672  69.382  1.00  0.00    -0.342 A  
HETATM   17  C   UNL     1     -10.166  12.414  64.353  1.00  0.00    -0.342 A  
HETATM   18  C   UNL     1     -12.008  13.006  68.988  1.00  0.00    -0.267 A  
HETATM   19  C   UNL     1     -12.621  13.837  69.956  1.00  0.00    -0.207 A  
HETATM   20  C   UNL     1     -10.772  13.185  65.357  1.00  0.00    -0.308 A  
HETATM   21  C   UNL     1     -12.886  13.423  71.270  1.00  0.00    -0.323 A  
HETATM   22  C   UNL     1     -12.149  11.227  70.675  1.00  0.00    -0.480 A  
HETATM   23  C   UNL     1     -12.668  12.102  71.623  1.00  0.00    -0.314 A  
BRANCH  21  24
HETATM   24  S   UNL     1     -13.472  14.601  72.513  1.00  0.00    -0.496 S  
HETATM   25  O   UNL     1     -14.362  15.563  71.782  1.00  0.00    -0.498 OA 
HETATM   26  C   UNL     1     -11.886  15.447  72.781  1.00  0.00    -0.457 C  
ENDBRANCH  21  24
ENDBRANCH   9  10
ENDBRANCH   8   9
ENDBRANCH   7   8
TORSDOF 4
ENDMDL
MODEL       19
REMARK 921   NORMALIZED FREE ENERGY PREDICTED BY IDOCK:   -6.51 KCAL/MOL
REMARK 922        TOTAL FREE ENERGY PREDICTED BY IDOCK:   -8.81 KCAL/MOL
REMARK 923 INTER-LIGAND FREE ENERGY PREDICTED BY IDOCK:   -8.14 KCAL/MOL
REMARK 924 INTRA-LIGAND FREE ENERGY PREDICTED BY IDOCK:   -0.67 KCAL/MOL
REMARK 927      BINDING AFFINITY PREDICTED BY RF-SCORE:    0.00 PKD
ROOT
HETATM    1  C   UNL     1      -9.797  14.605  65.758  1.00  0.00    -0.328 C  
HETATM    2  N   UNL     1     -10.748  13.743  66.461  1.00  0.00    -0.283 NA 
HETATM    3  C   UNL     1     -12.137  14.178  66.257  1.00  0.00    -0.442 C  
HETATM    4  C   UNL     1     -12.703  13.840  64.878  1.00  0.00    -0.314 C  
HETATM    5  C   UNL     1     -12.507  12.369  64.532  1.00  0.00    -0.519 C  
HETATM    6  C   UNL     1     -11.057  11.949  64.744  1.00  0.00    -0.367 C  
HETATM    7  C   UNL     1     -10.535  12.308  66.145  1.00  0.00    -0.240 C  
ENDROOT
BRANCH   7   8
HETATM    8  C   UNL     1     -11.174  11.458  67.263  1.00  0.00    -0.370 C  
BRANCH   8   9
HETATM    9  C   UNL     1     -10.413  11.403  68.604  1.00  0.00    -0.201 C  
BRANCH   9  10
HETATM   10  N   UNL     1     -11.231  11.011  69.785  1.00  0.00    -0.271 NA 
HETATM   11  C   UNL     1     -11.999  12.016  70.454  1.00  0.00    -0.291 A  
HETATM   12  C   UNL     1     -12.926  11.689  71.467  1.00  0.00    -0.358 A  
HETATM   13  S   UNL     1     -13.203  10.046  72.077  1.00  0.00    -0.381 SA 
HETATM   14  C   UNL     1     -13.721  12.680  72.091  1.00  0.00    -0.406 A  
HETATM   15  C   UNL     1     -13.614  14.017  71.741  1.00  0.00    -0.476 A  
HETATM   16  C   UNL     1     -12.075   9.082  71.110  1.00  0.00    -0.287 A  
HETATM   17  C   UNL     1     -12.687  14.376  70.781  1.00  0.00    -0.427 A  
HETATM   18  C   UNL     1     -11.229   9.615  70.120  1.00  0.00    -0.256 A  
HETATM   19  C   UNL     1     -10.393   8.680  69.466  1.00  0.00    -0.214 A  
HETATM   20  C   UNL     1     -11.889  13.397  70.169  1.00  0.00    -0.342 A  
HETATM   21  C   UNL     1     -10.478   7.294  69.673  1.00  0.00    -0.231 A  
HETATM   22  C   UNL     1     -12.096   7.698  71.386  1.00  0.00    -0.342 A  
HETATM   23  C   UNL     1     -11.320   6.804  70.657  1.00  0.00    -0.384 A  
BRANCH  21  24
HETATM   24  S   UNL     1      -9.529   6.143  68.647  1.00  0.00    -0.125 S  
HETATM   25  O   UNL     1     -10.060   4.775  68.964  1.00  0.00    -0.175 OA 
HETATM   26  C   UNL     1      -7.948   6.313  69.527  1.00  0.00    -0.108 C  
ENDBRANCH  21  24
ENDBRANCH   9  10
ENDBRANCH   8   9
ENDBRANCH   7   8
TORSDOF 4
ENDMDL
MODEL       20
REMARK 921   NORMALIZED FREE ENERGY PREDICTED BY IDOCK:   -6.43 KCAL/MOL
REMARK 922        TOTAL FREE ENERGY PREDICTED BY IDOCK:   -8.71 KCAL/MOL
REMARK 923 INTER-LIGAND FREE ENERGY PREDICTED BY IDOCK:   -8.22 KCAL/MOL
REMARK 924 INTRA-LIGAND FREE ENERGY PREDICTED BY IDOCK:   -0.48 KCAL/MOL
REMARK 927      BINDING AFFINITY PREDICTED BY RF-SCORE:    0.00 PKD
ROOT
HETATM    1  C   UNL     1     -11.953  14.938  64.791  1.00  0.00    -0.361 C  
HETATM    2  N   UNL     1     -12.069  13.640  65.455  1.00  0.00    -0.378 NA 
HETATM    3  C   UNL     1     -12.984  12.738  64.741  1.00  0.00    -0.143 C  
HETATM    4  C   UNL     1     -12.401  12.139  63.461  1.00  0.00    -0.682 C  
HETATM    5  C   UNL     1     -11.042  11.497  63.706  1.00  0.00    -0.471 C  
HETATM    6  C   UNL     1     -10.111  12.457  64.439  1.00  0.00    -0.293 C  
HETATM    7  C   UNL     1     -10.741  13.030  65.720  1.00  0.00    -0.274 C  
ENDROOT
BRANCH   7   8
HETATM    8  C   UNL     1     -10.896  11.980  66.838  1.00  0.00    -0.302 C  
BRANCH   8   9
HETATM    9  C   UNL     1     -10.114  12.245  68.142  1.00  0.00    -0.211 C  
BRANCH   9  10
HETATM   10  N   UNL     1     -10.675  13.313  69.015  1.00  0.00    -0.176 NA 
HETATM   11  C   UNL     1     -10.326  14.674  68.747  1.00  0.00    -0.248 A  
HETATM   12  C   UNL     1     -10.950  15.746  69.419  1.00  0.00    -0.296 A  
HETATM   13  S   UNL     1     -12.164  15.553  70.699  1.00  0.00    -0.418 SA 
HETATM   14  C   UNL     1     -10.640  17.093  69.115  1.00  0.00    -0.259 A  
HETATM   15  C   UNL     1      -9.699  17.416  68.149  1.00  0.00    -0.291 A  
HETATM   16  C   UNL     1     -12.310  13.793  70.828  1.00  0.00    -0.379 A  
HETATM   17  C   UNL     1      -9.039  16.390  67.500  1.00  0.00    -0.196 A  
HETATM   18  C   UNL     1     -11.588  12.882  70.035  1.00  0.00    -0.116 A  
HETATM   19  C   UNL     1     -11.839  11.514  70.299  1.00  0.00    -0.431 A  
HETATM   20  C   UNL     1      -9.337  15.053  67.808  1.00  0.00    -0.186 A  
HETATM   21  C   UNL     1     -12.832  11.070  71.187  1.00  0.00    -0.392 A  
HETATM   22  C   UNL     1     -13.243  13.348  71.788  1.00  0.00    -0.495 A  
HETATM   23  C   UNL     1     -13.522  11.996  71.952  1.00  0.00    -0.305 A  
BRANCH  21  24
HETATM   24  S   UNL     1     -13.243   9.313  71.314  1.00  0.00    -0.207 S  
HETATM   25  O   UNL     1     -13.556   9.066  72.762  1.00  0.00    -0.433 OA 
HETATM   26  C   UNL     1     -11.568   8.671  71.019  1.00  0.00    -0.281 C  
ENDBRANCH  21  24
ENDBRANCH   9  10
ENDBRANCH   8   9
ENDBRANCH   7   8
TORSDOF 4
ENDMDL
MODEL       21
REMARK 921   NORMALIZED FREE ENERGY PREDICTED BY IDOCK:   -6.36 KCAL/MOL
REMARK 922        TOTAL FREE ENERGY PREDICTED BY IDOCK:   -8.62 KCAL/MOL
REMARK 923 INTER-LIGAND FREE ENERGY PREDICTED BY IDOCK:   -8.06 KCAL/MOL
REMARK 924 INTRA-LIGAND FREE ENERGY PREDICTED BY IDOCK:   -0.56 KCAL/MOL
REMARK 927      BINDING AFFINITY PREDICTED BY RF-SCORE:    0.00 PKD
ROOT
HETATM    1  C   UNL     1     -10.989   7.745  72.944  1.00  0.00    -0.407 C  
HETATM    2  N   UNL     1     -11.430   8.157  71.612  1.00  0.00    -0.262 NA 
HETATM    3  C   UNL     1     -12.289   7.146  70.981  1.00  0.00    -0.334 C  
HETATM    4  C   UNL     1     -13.711   7.095  71.540  1.00  0.00    -0.413 C  
HETATM    5  C   UNL     1     -14.362   8.472  71.552  1.00  0.00    -0.451 C  
HETATM    6  C   UNL     1     -13.454   9.498  72.221  1.00  0.00    -0.521 C  
HETATM    7  C   UNL     1     -12.036   9.513  71.622  1.00  0.00    -0.398 C  
ENDROOT
BRANCH   7   8
HETATM    8  C   UNL     1     -11.993  10.082  70.190  1.00  0.00    -0.204 C  
BRANCH   8   9
HETATM    9  C   UNL     1     -10.620  10.580  69.691  1.00  0.00    -0.242 C  
BRANCH   9  10
HETATM   10  N   UNL     1     -10.657  11.427  68.465  1.00  0.00    -0.189 NA 
HETATM   11  C   UNL     1     -10.242  10.856  67.222  1.00  0.00    -0.205 A  
HETATM   12  C   UNL     1     -10.411  11.539  65.998  1.00  0.00    -0.252 A  
HETATM   13  S   UNL     1     -11.076  13.176  65.851  1.00  0.00    -0.282 SA 
HETATM   14  C   UNL     1     -10.046  10.949  64.764  1.00  0.00    -0.383 A  
HETATM   15  C   UNL     1      -9.496   9.678  64.706  1.00  0.00    -0.256 A  
HETATM   16  C   UNL     1     -11.415  13.607  67.535  1.00  0.00    -0.329 A  
HETATM   17  C   UNL     1      -9.279   8.998  65.890  1.00  0.00    -0.290 A  
HETATM   18  C   UNL     1     -11.178  12.755  68.630  1.00  0.00    -0.282 A  
HETATM   19  C   UNL     1     -11.505  13.289  69.899  1.00  0.00    -0.170 A  
HETATM   20  C   UNL     1      -9.629   9.584  67.116  1.00  0.00    -0.206 A  
HETATM   21  C   UNL     1     -12.150  14.524  70.072  1.00  0.00    -0.339 A  
HETATM   22  C   UNL     1     -11.978  14.889  67.715  1.00  0.00    -0.192 A  
HETATM   23  C   UNL     1     -12.366  15.338  68.972  1.00  0.00    -0.049 A  
BRANCH  21  24
HETATM   24  S   UNL     1     -12.732  15.046  71.704  1.00  0.00    -0.373 S  
HETATM   25  O   UNL     1     -11.498  15.279  72.527  1.00  0.00    -0.450 OA 
HETATM   26  C   UNL     1     -13.414  13.442  72.219  1.00  0.00    -0.586 C  
ENDBRANCH  21  24
ENDBRANCH   9  10
ENDBRANCH   8   9
ENDBRANCH   7   8
TORSDOF 4
ENDMDL
MODEL       22
REMARK 921   NORMALIZED FREE ENERGY PREDICTED BY IDOCK:   -6.35 KCAL/MOL
REMARK 922        TOTAL FREE ENERGY PREDICTED BY IDOCK:   -8.61 KCAL/MOL
REMARK 923 INTER-LIGAND FREE ENERGY PREDICTED BY IDOCK:   -8.05 KCAL/MOL
REMARK 924 INTRA-LIGAND FREE ENERGY PREDICTED BY IDOCK:   -0.56 KCAL/MOL
REMARK 927      BINDING AFFINITY PREDICTED BY RF-SCORE:    0.00 PKD
ROOT
HETATM    1  C   UNL     1     -13.531  12.928  72.175  1.00  0.00    -0.522 C  
HETATM    2  N   UNL     1     -13.530  14.138  71.353  1.00  0.00    -0.338 NA 
HETATM    3  C   UNL     1     -14.228  15.249  72.011  1.00  0.00    -0.581 C  
HETATM    4  C   UNL     1     -13.437  15.903  73.145  1.00  0.00    -0.650 C  
HETATM    5  C   UNL     1     -12.033  16.292  72.701  1.00  0.00    -0.644 C  
HETATM    6  C   UNL     1     -11.328  15.118  72.030  1.00  0.00    -0.358 C  
HETATM    7  C   UNL     1     -12.162  14.497  70.896  1.00  0.00    -0.339 C  
ENDROOT
BRANCH   7   8
HETATM    8  C   UNL     1     -12.281  15.415  69.663  1.00  0.00    -0.312 C  
BRANCH   8   9
HETATM    9  C   UNL     1     -11.940  14.779  68.299  1.00  0.00    -0.223 C  
BRANCH   9  10
HETATM   10  N   UNL     1     -10.582  14.175  68.200  1.00  0.00    -0.241 NA 
HETATM   11  C   UNL     1     -10.459  12.750  68.224  1.00  0.00    -0.241 A  
HETATM   12  C   UNL     1      -9.230  12.106  67.964  1.00  0.00    -0.194 A  
HETATM   13  S   UNL     1      -7.704  12.955  67.651  1.00  0.00    -0.175 SA 
HETATM   14  C   UNL     1      -9.124  10.695  67.938  1.00  0.00    -0.145 A  
HETATM   15  C   UNL     1     -10.223   9.884  68.179  1.00  0.00    -0.210 A  
HETATM   16  C   UNL     1      -8.181  14.657  67.758  1.00  0.00    -0.162 A  
HETATM   17  C   UNL     1     -11.432  10.483  68.477  1.00  0.00    -0.284 A  
HETATM   18  C   UNL     1      -9.493  15.093  68.021  1.00  0.00    -0.199 A  
HETATM   19  C   UNL     1      -9.667  16.496  68.077  1.00  0.00    -0.236 A  
HETATM   20  C   UNL     1     -11.538  11.881  68.515  1.00  0.00    -0.375 A  
HETATM   21  C   UNL     1      -8.651  17.413  67.762  1.00  0.00    -0.227 A  
HETATM   22  C   UNL     1      -7.135  15.577  67.532  1.00  0.00    -0.220 A  
HETATM   23  C   UNL     1      -7.372  16.947  67.509  1.00  0.00    -0.177 A  
BRANCH  21  24
HETATM   24  S   UNL     1      -9.003  19.184  67.645  1.00  0.00    -0.304 S  
HETATM   25  O   UNL     1     -10.396  19.292  67.096  1.00  0.00    -0.373 OA 
HETATM   26  C   UNL     1      -7.866  19.546  66.275  1.00  0.00    -0.317 C  
ENDBRANCH  21  24
ENDBRANCH   9  10
ENDBRANCH   8   9
ENDBRANCH   7   8
TORSDOF 4
ENDMDL
MODEL       23
REMARK 921   NORMALIZED FREE ENERGY PREDICTED BY IDOCK:   -6.23 KCAL/MOL
REMARK 922        TOTAL FREE ENERGY PREDICTED BY IDOCK:   -8.46 KCAL/MOL
REMARK 923 INTER-LIGAND FREE ENERGY PREDICTED BY IDOCK:   -7.91 KCAL/MOL
REMARK 924 INTRA-LIGAND FREE ENERGY PREDICTED BY IDOCK:   -0.55 KCAL/MOL
REMARK 927      BINDING AFFINITY PREDICTED BY RF-SCORE:    0.00 PKD
ROOT
HETATM    1  C   UNL     1     -12.338  14.727  64.334  1.00  0.00    -0.368 C  
HETATM    2  N   UNL     1     -12.375  13.447  65.042  1.00  0.00    -0.431 NA 
HETATM    3  C   UNL     1     -13.126  12.429  64.295  1.00  0.00     0.001 C  
HETATM    4  C   UNL     1     -12.376  11.853  63.093  1.00  0.00    -0.354 C  
HETATM    5  C   UNL     1     -10.983  11.370  63.476  1.00  0.00    -0.406 C  
HETATM    6  C   UNL     1     -10.224  12.449  64.241  1.00  0.00    -0.358 C  
HETATM    7  C   UNL     1     -11.018  12.994  65.441  1.00  0.00    -0.275 C  
ENDROOT
BRANCH   7   8
HETATM    8  C   UNL     1     -11.158  11.971  66.586  1.00  0.00    -0.358 C  
BRANCH   8   9
HETATM    9  C   UNL     1     -10.339  12.255  67.863  1.00  0.00    -0.208 C  
BRANCH   9  10
HETATM   10  N   UNL     1     -11.054  13.022  68.921  1.00  0.00    -0.261 NA 
HETATM   11  C   UNL     1     -11.849  12.307  69.871  1.00  0.00    -0.311 A  
HETATM   12  C   UNL     1     -12.413  12.945  70.996  1.00  0.00    -0.283 A  
HETATM   13  S   UNL     1     -12.274  14.680  71.336  1.00  0.00    -0.361 SA 
HETATM   14  C   UNL     1     -13.156  12.224  71.962  1.00  0.00    -0.461 A  
HETATM   15  C   UNL     1     -13.371  10.860  71.836  1.00  0.00    -0.429 A  
HETATM   16  C   UNL     1     -11.314  15.264  69.967  1.00  0.00    -0.290 A  
HETATM   17  C   UNL     1     -12.867  10.212  70.724  1.00  0.00    -0.388 A  
HETATM   18  C   UNL     1     -10.829  14.440  68.935  1.00  0.00    -0.256 A  
HETATM   19  C   UNL     1     -10.090  15.100  67.925  1.00  0.00    -0.222 A  
HETATM   20  C   UNL     1     -12.140  10.926  69.759  1.00  0.00    -0.409 A  
HETATM   21  C   UNL     1      -9.733  16.456  67.993  1.00  0.00    -0.235 A  
HETATM   22  C   UNL     1     -11.035  16.648  69.990  1.00  0.00    -0.148 A  
HETATM   23  C   UNL     1     -10.230  17.238  69.022  1.00  0.00    -0.318 A  
BRANCH  21  24
HETATM   24  S   UNL     1      -8.607  17.181  66.776  1.00  0.00    -0.260 S  
HETATM   25  O   UNL     1      -7.444  17.718  67.559  1.00  0.00    -0.198 OA 
HETATM   26  C   UNL     1      -9.647  18.604  66.332  1.00  0.00    -0.325 C  
ENDBRANCH  21  24
ENDBRANCH   9  10
ENDBRANCH   8   9
ENDBRANCH   7   8
TORSDOF 4
ENDMDL
MODEL       24
REMARK 921   NORMALIZED FREE ENERGY PREDICTED BY IDOCK:   -6.21 KCAL/MOL
REMARK 922        TOTAL FREE ENERGY PREDICTED BY IDOCK:   -8.44 KCAL/MOL
REMARK 923 INTER-LIGAND FREE ENERGY PREDICTED BY IDOCK:   -7.84 KCAL/MOL
REMARK 924 INTRA-LIGAND FREE ENERGY PREDICTED BY IDOCK:   -0.61 KCAL/MOL
REMARK 927      BINDING AFFINITY PREDICTED BY RF-SCORE:    0.00 PKD
ROOT
HETATM    1  C   UNL     1      -9.801  14.418  66.331  1.00  0.00    -0.295 C  
HETATM    2  N   UNL     1     -10.686  13.361  66.819  1.00  0.00    -0.276 NA 
HETATM    3  C   UNL     1     -12.093  13.783  66.825  1.00  0.00    -0.418 C  
HETATM    4  C   UNL     1     -12.742  13.820  65.441  1.00  0.00    -0.513 C  
HETATM    5  C   UNL     1     -12.541  12.511  64.688  1.00  0.00    -0.507 C  
HETATM    6  C   UNL     1     -11.072  12.102  64.690  1.00  0.00    -0.366 C  
HETATM    7  C   UNL     1     -10.466  12.078  66.104  1.00  0.00    -0.236 C  
ENDROOT
BRANCH   7   8
HETATM    8  C   UNL     1     -11.014  10.929  66.975  1.00  0.00    -0.310 C  
BRANCH   8   9
HETATM    9  C   UNL     1     -10.103  10.441  68.120  1.00  0.00    -0.155 C  
BRANCH   9  10
HETATM   10  N   UNL     1     -10.808   9.812  69.272  1.00  0.00    -0.223 NA 
HETATM   11  C   UNL     1     -11.600  10.640  70.128  1.00  0.00    -0.330 A  
HETATM   12  C   UNL     1     -12.430  10.091  71.130  1.00  0.00    -0.379 A  
HETATM   13  S   UNL     1     -12.544   8.359  71.496  1.00  0.00    -0.293 SA 
HETATM   14  C   UNL     1     -13.251  10.909  71.942  1.00  0.00    -0.508 A  
HETATM   15  C   UNL     1     -13.267  12.288  71.794  1.00  0.00    -0.428 A  
HETATM   16  C   UNL     1     -11.417   7.645  70.332  1.00  0.00    -0.174 A  
HETATM   17  C   UNL     1     -12.436  12.861  70.850  1.00  0.00    -0.383 A  
HETATM   18  C   UNL     1     -10.681   8.387  69.389  1.00  0.00    -0.152 A  
HETATM   19  C   UNL     1      -9.825   7.631  68.554  1.00  0.00    -0.174 A  
HETATM   20  C   UNL     1     -11.612  12.053  70.052  1.00  0.00    -0.275 A  
HETATM   21  C   UNL     1      -9.793   6.227  68.551  1.00  0.00    -0.139 A  
HETATM   22  C   UNL     1     -11.317   6.239  70.394  1.00  0.00    -0.440 A  
HETATM   23  C   UNL     1     -10.529   5.530  69.494  1.00  0.00    -0.368 A  
BRANCH  21  24
HETATM   24  S   UNL     1      -8.835   5.324  67.310  1.00  0.00    -0.104 S  
HETATM   25  O   UNL     1      -8.106   6.366  66.512  1.00  0.00    -0.107 OA 
HETATM   26  C   UNL     1     -10.242   4.775  66.300  1.00  0.00    -0.282 C  
ENDBRANCH  21  24
ENDBRANCH   9  10
ENDBRANCH   8   9
ENDBRANCH   7   8
TORSDOF 4
ENDMDL
MODEL       25
REMARK 921   NORMALIZED FREE ENERGY PREDICTED BY IDOCK:   -6.21 KCAL/MOL
REMARK 922        TOTAL FREE ENERGY PREDICTED BY IDOCK:   -8.43 KCAL/MOL
REMARK 923 INTER-LIGAND FREE ENERGY PREDICTED BY IDOCK:   -8.17 KCAL/MOL
REMARK 924 INTRA-LIGAND FREE ENERGY PREDICTED BY IDOCK:   -0.27 KCAL/MOL
REMARK 927      BINDING AFFINITY PREDICTED BY RF-SCORE:    0.00 PKD
ROOT
HETATM    1  C   UNL     1     -12.178  16.489  73.427  1.00  0.00    -0.395 C  
HETATM    2  N   UNL     1     -11.658  15.422  72.573  1.00  0.00    -0.459 NA 
HETATM    3  C   UNL     1     -12.168  14.103  72.971  1.00  0.00     0.244 C  
HETATM    4  C   UNL     1     -13.621  13.845  72.572  1.00  0.00    -0.680 C  
HETATM    5  C   UNL     1     -13.859  14.128  71.095  1.00  0.00    -0.148 C  
HETATM    6  C   UNL     1     -13.330  15.505  70.711  1.00  0.00    -0.315 C  
HETATM    7  C   UNL     1     -11.865  15.714  71.131  1.00  0.00    -0.408 C  
ENDROOT
BRANCH   7   8
HETATM    8  C   UNL     1     -10.875  14.864  70.310  1.00  0.00    -0.137 C  
BRANCH   8   9
HETATM    9  C   UNL     1      -9.779  15.634  69.544  1.00  0.00    -0.287 C  
BRANCH   9  10
HETATM   10  N   UNL     1     -10.171  16.124  68.193  1.00  0.00    -0.241 NA 
HETATM   11  C   UNL     1     -10.114  17.529  67.928  1.00  0.00    -0.330 A  
HETATM   12  C   UNL     1     -10.304  18.047  66.629  1.00  0.00    -0.371 A  
HETATM   13  S   UNL     1     -10.696  17.062  65.208  1.00  0.00     0.065 SA 
HETATM   14  C   UNL     1     -10.197  19.432  66.362  1.00  0.00    -0.556 A  
HETATM   15  C   UNL     1      -9.910  20.342  67.368  1.00  0.00    -0.586 A  
HETATM   16  C   UNL     1     -10.758  15.424  65.879  1.00  0.00    -0.336 A  
HETATM   17  C   UNL     1      -9.759  19.872  68.659  1.00  0.00    -0.388 A  
HETATM   18  C   UNL     1     -10.520  15.117  67.232  1.00  0.00    -0.271 A  
HETATM   19  C   UNL     1     -10.627  13.748  67.573  1.00  0.00    -0.246 A  
HETATM   20  C   UNL     1      -9.877  18.500  68.930  1.00  0.00    -0.377 A  
HETATM   21  C   UNL     1     -10.822  12.730  66.625  1.00  0.00    -0.264 A  
HETATM   22  C   UNL     1     -11.046  14.412  64.939  1.00  0.00    -0.404 A  
HETATM   23  C   UNL     1     -11.055  13.070  65.303  1.00  0.00    -0.311 A  
BRANCH  21  24
HETATM   24  S   UNL     1     -10.735  10.988  67.104  1.00  0.00    -0.277 S  
HETATM   25  O   UNL     1     -11.841  10.777  68.097  1.00  0.00    -0.533 OA 
HETATM   26  C   UNL     1      -9.188  11.096  68.053  1.00  0.00    -0.159 C  
ENDBRANCH  21  24
ENDBRANCH   9  10
ENDBRANCH   8   9
ENDBRANCH   7   8
TORSDOF 4
ENDMDL
MODEL       26
REMARK 921   NORMALIZED FREE ENERGY PREDICTED BY IDOCK:   -6.13 KCAL/MOL
REMARK 922        TOTAL FREE ENERGY PREDICTED BY IDOCK:   -8.34 KCAL/MOL
REMARK 923 INTER-LIGAND FREE ENERGY PREDICTED BY IDOCK:   -7.78 KCAL/MOL
REMARK 924 INTRA-LIGAND FREE ENERGY PREDICTED BY IDOCK:   -0.55 KCAL/MOL
REMARK 927      BINDING AFFINITY PREDICTED BY RF-SCORE:    0.00 PKD
ROOT
HETATM    1  C   UNL     1     -10.984   7.513  73.008  1.00  0.00    -0.390 C  
HETATM    2  N   UNL     1     -11.464   7.994  71.712  1.00  0.00    -0.264 NA 
HETATM    3  C   UNL     1     -12.313   7.002  71.038  1.00  0.00    -0.356 C  
HETATM    4  C   UNL     1     -13.721   6.881  71.622  1.00  0.00    -0.273 C  
HETATM    5  C   UNL     1     -14.404   8.238  71.732  1.00  0.00    -0.574 C  
HETATM    6  C   UNL     1     -13.505   9.244  72.444  1.00  0.00    -0.526 C  
HETATM    7  C   UNL     1     -12.102   9.331  71.818  1.00  0.00    -0.387 C  
ENDROOT
BRANCH   7   8
HETATM    8  C   UNL     1     -12.104   9.987  70.422  1.00  0.00    -0.284 C  
BRANCH   8   9
HETATM    9  C   UNL     1     -10.789  10.662  69.980  1.00  0.00    -0.217 C  
BRANCH   9  10
HETATM   10  N   UNL     1     -10.856  11.401  68.688  1.00  0.00    -0.195 NA 
HETATM   11  C   UNL     1     -11.222  12.784  68.705  1.00  0.00    -0.283 A  
HETATM   12  C   UNL     1     -11.140  13.587  67.548  1.00  0.00    -0.274 A  
HETATM   13  S   UNL     1     -10.654  12.992  65.950  1.00  0.00    -0.279 SA 
HETATM   14  C   UNL     1     -11.454  14.967  67.581  1.00  0.00    -0.344 A  
HETATM   15  C   UNL     1     -11.866  15.586  68.751  1.00  0.00    -0.335 A  
HETATM   16  C   UNL     1     -10.345  11.275  66.256  1.00  0.00    -0.247 A  
HETATM   17  C   UNL     1     -11.996  14.819  69.893  1.00  0.00    -0.378 A  
HETATM   18  C   UNL     1     -10.478  10.663  67.516  1.00  0.00    -0.230 A  
HETATM   19  C   UNL     1     -10.195   9.277  67.552  1.00  0.00    -0.300 A  
HETATM   20  C   UNL     1     -11.697  13.448  69.861  1.00  0.00    -0.337 A  
HETATM   21  C   UNL     1      -9.683   8.566  66.455  1.00  0.00    -0.258 A  
HETATM   22  C   UNL     1      -9.919  10.542  65.128  1.00  0.00    -0.375 A  
HETATM   23  C   UNL     1      -9.567   9.200  65.229  1.00  0.00    -0.087 A  
BRANCH  21  24
HETATM   24  S   UNL     1      -9.142   6.848  66.633  1.00  0.00    -0.155 S  
HETATM   25  O   UNL     1      -8.699   6.412  65.267  1.00  0.00    -0.097 OA 
HETATM   26  C   UNL     1     -10.786   6.125  66.912  1.00  0.00    -0.340 C  
ENDBRANCH  21  24
ENDBRANCH   9  10
ENDBRANCH   8   9
ENDBRANCH   7   8
TORSDOF 4
ENDMDL
MODEL       27
REMARK 921   NORMALIZED FREE ENERGY PREDICTED BY IDOCK:   -6.06 KCAL/MOL
REMARK 922        TOTAL FREE ENERGY PREDICTED BY IDOCK:   -8.25 KCAL/MOL
REMARK 923 INTER-LIGAND FREE ENERGY PREDICTED BY IDOCK:   -7.60 KCAL/MOL
REMARK 924 INTRA-LIGAND FREE ENERGY PREDICTED BY IDOCK:   -0.65 KCAL/MOL
REMARK 927      BINDING AFFINITY PREDICTED BY RF-SCORE:    0.00 PKD
ROOT
HETATM    1  C   UNL     1     -11.205  16.216  70.782  1.00  0.00    -0.328 C  
HETATM    2  N   UNL     1     -11.545  14.990  71.506  1.00  0.00    -0.361 NA 
HETATM    3  C   UNL     1     -11.858  15.255  72.916  1.00  0.00    -0.403 C  
HETATM    4  C   UNL     1     -13.233  15.884  73.145  1.00  0.00    -0.692 C  
HETATM    5  C   UNL     1     -14.337  15.097  72.451  1.00  0.00    -0.453 C  
HETATM    6  C   UNL     1     -13.989  14.846  70.988  1.00  0.00    -0.297 C  
HETATM    7  C   UNL     1     -12.600  14.209  70.810  1.00  0.00    -0.362 C  
ENDROOT
BRANCH   7   8
HETATM    8  C   UNL     1     -12.538  12.750  71.304  1.00  0.00    -0.347 C  
BRANCH   8   9
HETATM    9  C   UNL     1     -12.618  11.655  70.220  1.00  0.00    -0.082 C  
BRANCH   9  10
HETATM   10  N   UNL     1     -11.414  10.786  70.101  1.00  0.00    -0.312 NA 
HETATM   11  C   UNL     1     -11.357   9.580  70.867  1.00  0.00    -0.341 A  
HETATM   12  C   UNL     1     -10.333   8.628  70.677  1.00  0.00    -0.202 A  
HETATM   13  S   UNL     1      -8.980   8.827  69.548  1.00  0.00    -0.147 SA 
HETATM   14  C   UNL     1     -10.308   7.412  71.401  1.00  0.00    -0.208 A  
HETATM   15  C   UNL     1     -11.286   7.108  72.336  1.00  0.00    -0.312 A  
HETATM   16  C   UNL     1      -9.307  10.413  68.831  1.00  0.00    -0.186 A  
HETATM   17  C   UNL     1     -12.282   8.037  72.575  1.00  0.00    -0.294 A  
HETATM   18  C   UNL     1     -10.418  11.213  69.159  1.00  0.00    -0.182 A  
HETATM   19  C   UNL     1     -10.495  12.453  68.483  1.00  0.00    -0.244 A  
HETATM   20  C   UNL     1     -12.302   9.249  71.868  1.00  0.00    -0.454 A  
HETATM   21  C   UNL     1      -9.617  12.826  67.453  1.00  0.00    -0.199 A  
HETATM   22  C   UNL     1      -8.369  10.827  67.862  1.00  0.00    -0.117 A  
HETATM   23  C   UNL     1      -8.533  12.016  67.158  1.00  0.00    -0.180 A  
BRANCH  21  24
HETATM   24  S   UNL     1      -9.904  14.329  66.488  1.00  0.00    -0.298 S  
HETATM   25  O   UNL     1      -9.301  15.452  67.282  1.00  0.00    -0.204 OA 
HETATM   26  C   UNL     1     -11.702  14.413  66.737  1.00  0.00    -0.397 C  
ENDBRANCH  21  24
ENDBRANCH   9  10
ENDBRANCH   8   9
ENDBRANCH   7   8
TORSDOF 4
ENDMDL
MODEL       28
REMARK 921   NORMALIZED FREE ENERGY PREDICTED BY IDOCK:   -6.06 KCAL/MOL
REMARK 922        TOTAL FREE ENERGY PREDICTED BY IDOCK:   -8.25 KCAL/MOL
REMARK 923 INTER-LIGAND FREE ENERGY PREDICTED BY IDOCK:   -7.65 KCAL/MOL
REMARK 924 INTRA-LIGAND FREE ENERGY PREDICTED BY IDOCK:   -0.61 KCAL/MOL
REMARK 927      BINDING AFFINITY PREDICTED BY RF-SCORE:    0.00 PKD
ROOT
HETATM    1  C   UNL     1     -11.027   7.494  73.025  1.00  0.00    -0.390 C  
HETATM    2  N   UNL     1     -11.419   7.920  71.682  1.00  0.00    -0.255 NA 
HETATM    3  C   UNL     1     -12.394   7.003  71.078  1.00  0.00    -0.356 C  
HETATM    4  C   UNL     1     -13.811   7.137  71.638  1.00  0.00    -0.418 C  
HETATM    5  C   UNL     1     -14.293   8.582  71.613  1.00  0.00    -0.497 C  
HETATM    6  C   UNL     1     -13.266   9.509  72.254  1.00  0.00    -0.507 C  
HETATM    7  C   UNL     1     -11.859   9.339  71.655  1.00  0.00    -0.383 C  
ENDROOT
BRANCH   7   8
HETATM    8  C   UNL     1     -11.752   9.860  70.208  1.00  0.00    -0.286 C  
BRANCH   8   9
HETATM    9  C   UNL     1     -10.375  10.405  69.775  1.00  0.00    -0.208 C  
BRANCH   9  10
HETATM   10  N   UNL     1      -9.760   9.721  68.603  1.00  0.00    -0.152 NA 
HETATM   11  C   UNL     1      -9.010   8.523  68.822  1.00  0.00    -0.139 A  
HETATM   12  C   UNL     1      -8.546   7.731  67.749  1.00  0.00    -0.121 A  
HETATM   13  S   UNL     1      -8.764   8.142  66.037  1.00  0.00    -0.161 SA 
HETATM   14  C   UNL     1      -7.849   6.520  67.970  1.00  0.00    -0.105 A  
HETATM   15  C   UNL     1      -7.582   6.063  69.252  1.00  0.00    -0.094 A  
HETATM   16  C   UNL     1      -9.645   9.675  66.118  1.00  0.00    -0.233 A  
HETATM   17  C   UNL     1      -7.987   6.835  70.324  1.00  0.00    -0.115 A  
HETATM   18  C   UNL     1     -10.031  10.301  67.318  1.00  0.00    -0.190 A  
HETATM   19  C   UNL     1     -10.719  11.529  67.171  1.00  0.00    -0.294 A  
HETATM   20  C   UNL     1      -8.668   8.043  70.109  1.00  0.00    -0.135 A  
HETATM   21  C   UNL     1     -11.123  12.041  65.928  1.00  0.00    -0.324 A  
HETATM   22  C   UNL     1      -9.969  10.236  64.864  1.00  0.00    -0.393 A  
HETATM   23  C   UNL     1     -10.724  11.400  64.767  1.00  0.00    -0.362 A  
BRANCH  21  24
HETATM   24  S   UNL     1     -12.185  13.503  65.828  1.00  0.00    -0.473 S  
HETATM   25  O   UNL     1     -13.201  13.203  64.765  1.00  0.00    -0.670 OA 
HETATM   26  C   UNL     1     -10.958  14.619  65.086  1.00  0.00    -0.386 C  
ENDBRANCH  21  24
ENDBRANCH   9  10
ENDBRANCH   8   9
ENDBRANCH   7   8
TORSDOF 4
ENDMDL
MODEL       29
REMARK 921   NORMALIZED FREE ENERGY PREDICTED BY IDOCK:   -6.01 KCAL/MOL
REMARK 922        TOTAL FREE ENERGY PREDICTED BY IDOCK:   -8.19 KCAL/MOL
REMARK 923 INTER-LIGAND FREE ENERGY PREDICTED BY IDOCK:   -7.73 KCAL/MOL
REMARK 924 INTRA-LIGAND FREE ENERGY PREDICTED BY IDOCK:   -0.46 KCAL/MOL
REMARK 927      BINDING AFFINITY PREDICTED BY RF-SCORE:    0.00 PKD
ROOT
HETATM    1  C   UNL     1     -11.171  16.281  70.638  1.00  0.00    -0.288 C  
HETATM    2  N   UNL     1     -11.464  15.044  71.361  1.00  0.00    -0.341 NA 
HETATM    3  C   UNL     1     -11.705  15.287  72.789  1.00  0.00    -0.397 C  
HETATM    4  C   UNL     1     -13.070  15.903  73.099  1.00  0.00    -0.673 C  
HETATM    5  C   UNL     1     -14.203  15.117  72.453  1.00  0.00    -0.540 C  
HETATM    6  C   UNL     1     -13.931  14.888  70.970  1.00  0.00    -0.297 C  
HETATM    7  C   UNL     1     -12.549  14.265  70.711  1.00  0.00    -0.356 C  
ENDROOT
BRANCH   7   8
HETATM    8  C   UNL     1     -12.451  12.799  71.180  1.00  0.00    -0.335 C  
BRANCH   8   9
HETATM    9  C   UNL     1     -12.634  11.717  70.095  1.00  0.00     0.005 C  
BRANCH   9  10
HETATM   10  N   UNL     1     -11.397  11.342  69.355  1.00  0.00    -0.274 NA 
HETATM   11  C   UNL     1     -10.987  12.149  68.247  1.00  0.00    -0.234 A  
HETATM   12  C   UNL     1      -9.743  11.957  67.610  1.00  0.00    -0.185 A  
HETATM   13  S   UNL     1      -8.586  10.683  68.039  1.00  0.00    -0.125 SA 
HETATM   14  C   UNL     1      -9.318  12.790  66.548  1.00  0.00    -0.221 A  
HETATM   15  C   UNL     1     -10.113  13.826  66.080  1.00  0.00    -0.314 A  
HETATM   16  C   UNL     1      -9.410   9.845  69.364  1.00  0.00    -0.214 A  
HETATM   17  C   UNL     1     -11.356  14.015  66.655  1.00  0.00    -0.345 A  
HETATM   18  C   UNL     1     -10.672  10.214  69.866  1.00  0.00    -0.295 A  
HETATM   19  C   UNL     1     -11.165   9.410  70.922  1.00  0.00    -0.393 A  
HETATM   20  C   UNL     1     -11.784  13.183  67.701  1.00  0.00    -0.414 A  
HETATM   21  C   UNL     1     -10.412   8.397  71.535  1.00  0.00    -0.239 A  
HETATM   22  C   UNL     1      -8.690   8.765  69.918  1.00  0.00    -0.135 A  
HETATM   23  C   UNL     1      -9.175   8.059  71.012  1.00  0.00    -0.169 A  
BRANCH  21  24
HETATM   24  S   UNL     1     -11.023   7.555  73.016  1.00  0.00    -0.358 S  
HETATM   25  O   UNL     1      -9.840   7.422  73.931  1.00  0.00    -0.294 OA 
HETATM   26  C   UNL     1     -11.287   5.927  72.254  1.00  0.00    -0.298 C  
ENDBRANCH  21  24
ENDBRANCH   9  10
ENDBRANCH   8   9
ENDBRANCH   7   8
TORSDOF 4
ENDMDL
MODEL       30
REMARK 921   NORMALIZED FREE ENERGY PREDICTED BY IDOCK:   -5.99 KCAL/MOL
REMARK 922        TOTAL FREE ENERGY PREDICTED BY IDOCK:   -8.16 KCAL/MOL
REMARK 923 INTER-LIGAND FREE ENERGY PREDICTED BY IDOCK:   -7.57 KCAL/MOL
REMARK 924 INTRA-LIGAND FREE ENERGY PREDICTED BY IDOCK:   -0.60 KCAL/MOL
REMARK 927      BINDING AFFINITY PREDICTED BY RF-SCORE:    0.00 PKD
ROOT
HETATM    1  C   UNL     1      -7.357   7.988  66.536  1.00  0.00    -0.084 C  
HETATM    2  N   UNL     1      -7.693   9.382  66.827  1.00  0.00    -0.097 NA 
HETATM    3  C   UNL     1      -6.982  10.314  65.943  1.00  0.00    -0.126 C  
HETATM    4  C   UNL     1      -7.539  10.376  64.520  1.00  0.00    -0.034 C  
HETATM    5  C   UNL     1      -9.043  10.616  64.513  1.00  0.00    -0.243 C  
HETATM    6  C   UNL     1      -9.756   9.629  65.431  1.00  0.00    -0.365 C  
HETATM    7  C   UNL     1      -9.161   9.606  66.850  1.00  0.00    -0.143 C  
ENDROOT
BRANCH   7   8
HETATM    8  C   UNL     1      -9.450  10.894  67.647  1.00  0.00    -0.170 C  
BRANCH   8   9
HETATM    9  C   UNL     1     -10.885  11.453  67.551  1.00  0.00    -0.244 C  
BRANCH   9  10
HETATM   10  N   UNL     1     -11.157  12.656  68.386  1.00  0.00    -0.249 NA 
HETATM   11  C   UNL     1     -10.804  13.944  67.872  1.00  0.00    -0.244 A  
HETATM   12  C   UNL     1     -11.185  15.134  68.528  1.00  0.00    -0.293 A  
HETATM   13  S   UNL     1     -12.065  15.190  70.067  1.00  0.00    -0.351 SA 
HETATM   14  C   UNL     1     -10.878  16.407  67.990  1.00  0.00    -0.342 A  
HETATM   15  C   UNL     1     -10.180  16.538  66.800  1.00  0.00    -0.295 A  
HETATM   16  C   UNL     1     -12.279  13.474  70.450  1.00  0.00    -0.356 A  
HETATM   17  C   UNL     1      -9.756  15.392  66.153  1.00  0.00    -0.347 A  
HETATM   18  C   UNL     1     -11.822  12.421  69.636  1.00  0.00    -0.311 A  
HETATM   19  C   UNL     1     -12.082  11.118  70.124  1.00  0.00    -0.443 A  
HETATM   20  C   UNL     1     -10.048  14.129  66.690  1.00  0.00    -0.275 A  
HETATM   21  C   UNL     1     -12.857  10.863  71.266  1.00  0.00    -0.433 A  
HETATM   22  C   UNL     1     -12.979  13.221  71.649  1.00  0.00    -0.441 A  
HETATM   23  C   UNL     1     -13.288  11.924  72.045  1.00  0.00    -0.425 A  
BRANCH  21  24
HETATM   24  S   UNL     1     -13.327   9.173  71.709  1.00  0.00    -0.431 S  
HETATM   25  O   UNL     1     -14.208   9.293  72.919  1.00  0.00    -0.465 OA 
HETATM   26  C   UNL     1     -11.694   8.634  72.295  1.00  0.00    -0.358 C  
ENDBRANCH  21  24
ENDBRANCH   9  10
ENDBRANCH   8   9
ENDBRANCH   7   8
TORSDOF 4
ENDMDL
MODEL       31
REMARK 921   NORMALIZED FREE ENERGY PREDICTED BY IDOCK:   -5.92 KCAL/MOL
REMARK 922        TOTAL FREE ENERGY PREDICTED BY IDOCK:   -8.08 KCAL/MOL
REMARK 923 INTER-LIGAND FREE ENERGY PREDICTED BY IDOCK:   -7.57 KCAL/MOL
REMARK 924 INTRA-LIGAND FREE ENERGY PREDICTED BY IDOCK:   -0.51 KCAL/MOL
REMARK 927      BINDING AFFINITY PREDICTED BY RF-SCORE:    0.00 PKD
ROOT
HETATM    1  C   UNL     1     -10.599  11.839  63.608  1.00  0.00    -0.439 C  
HETATM    2  N   UNL     1     -10.666  11.060  64.845  1.00  0.00    -0.255 NA 
HETATM    3  C   UNL     1      -9.640  10.010  64.889  1.00  0.00    -0.310 C  
HETATM    4  C   UNL     1      -8.229  10.523  65.176  1.00  0.00    -0.134 C  
HETATM    5  C   UNL     1      -8.193  11.411  66.413  1.00  0.00    -0.124 C  
HETATM    6  C   UNL     1      -9.260  12.497  66.336  1.00  0.00    -0.177 C  
HETATM    7  C   UNL     1     -10.661  11.930  66.049  1.00  0.00    -0.285 C  
ENDROOT
BRANCH   7   8
HETATM    8  C   UNL     1     -11.244  11.134  67.234  1.00  0.00    -0.347 C  
BRANCH   8   9
HETATM    9  C   UNL     1     -10.519  11.287  68.587  1.00  0.00    -0.203 C  
BRANCH   9  10
HETATM   10  N   UNL     1     -11.396  11.613  69.746  1.00  0.00    -0.237 NA 
HETATM   11  C   UNL     1     -11.787  12.973  69.952  1.00  0.00    -0.307 A  
HETATM   12  C   UNL     1     -12.749  13.330  70.921  1.00  0.00    -0.254 A  
HETATM   13  S   UNL     1     -13.526  12.183  72.028  1.00  0.00    -0.076 SA 
HETATM   14  C   UNL     1     -13.172  14.671  71.086  1.00  0.00    -0.431 A  
HETATM   15  C   UNL     1     -12.650  15.693  70.309  1.00  0.00    -0.319 A  
HETATM   16  C   UNL     1     -12.787  10.641  71.566  1.00  0.00    -0.462 A  
HETATM   17  C   UNL     1     -11.676  15.384  69.378  1.00  0.00    -0.369 A  
HETATM   18  C   UNL     1     -11.835  10.500  70.540  1.00  0.00    -0.347 A  
HETATM   19  C   UNL     1     -11.356   9.184  70.331  1.00  0.00    -0.260 A  
HETATM   20  C   UNL     1     -11.246  14.057  69.220  1.00  0.00    -0.304 A  
HETATM   21  C   UNL     1     -11.876   8.061  70.993  1.00  0.00    -0.263 A  
HETATM   22  C   UNL     1     -13.245   9.525  72.298  1.00  0.00    -0.507 A  
HETATM   23  C   UNL     1     -12.811   8.238  71.999  1.00  0.00    -0.369 A  
BRANCH  21  24
HETATM   24  S   UNL     1     -11.367   6.389  70.522  1.00  0.00    -0.373 S  
HETATM   25  O   UNL     1     -11.063   5.674  71.806  1.00  0.00    -0.256 OA 
HETATM   26  C   UNL     1      -9.772   6.844  69.780  1.00  0.00    -0.164 C  
ENDBRANCH  21  24
ENDBRANCH   9  10
ENDBRANCH   8   9
ENDBRANCH   7   8
TORSDOF 4
ENDMDL
MODEL       32
REMARK 921   NORMALIZED FREE ENERGY PREDICTED BY IDOCK:   -5.88 KCAL/MOL
REMARK 922        TOTAL FREE ENERGY PREDICTED BY IDOCK:   -8.04 KCAL/MOL
REMARK 923 INTER-LIGAND FREE ENERGY PREDICTED BY IDOCK:   -7.50 KCAL/MOL
REMARK 924 INTRA-LIGAND FREE ENERGY PREDICTED BY IDOCK:   -0.54 KCAL/MOL
REMARK 927      BINDING AFFINITY PREDICTED BY RF-SCORE:    0.00 PKD
ROOT
HETATM    1  C   UNL     1     -11.644  16.218  68.334  1.00  0.00    -0.154 C  
HETATM    2  N   UNL     1     -11.126  15.052  69.048  1.00  0.00    -0.248 NA 
HETATM    3  C   UNL     1     -10.426  15.431  70.282  1.00  0.00    -0.241 C  
HETATM    4  C   UNL     1     -11.351  15.841  71.428  1.00  0.00    -0.438 C  
HETATM    5  C   UNL     1     -12.432  14.799  71.681  1.00  0.00    -0.398 C  
HETATM    6  C   UNL     1     -13.149  14.432  70.387  1.00  0.00    -0.106 C  
HETATM    7  C   UNL     1     -12.176  14.023  69.267  1.00  0.00    -0.278 C  
ENDROOT
BRANCH   7   8
HETATM    8  C   UNL     1     -11.489  12.668  69.529  1.00  0.00    -0.294 C  
BRANCH   8   9
HETATM    9  C   UNL     1     -12.116  11.437  68.841  1.00  0.00    -0.219 C  
BRANCH   9  10
HETATM   10  N   UNL     1     -11.204  10.272  68.667  1.00  0.00    -0.234 NA 
HETATM   11  C   UNL     1     -11.064   9.341  69.744  1.00  0.00    -0.150 A  
HETATM   12  C   UNL     1     -10.356   8.129  69.590  1.00  0.00    -0.221 A  
HETATM   13  S   UNL     1      -9.511   7.647  68.107  1.00  0.00    -0.146 SA 
HETATM   14  C   UNL     1     -10.264   7.186  70.641  1.00  0.00    -0.205 A  
HETATM   15  C   UNL     1     -10.857   7.419  71.873  1.00  0.00    -0.262 A  
HETATM   16  C   UNL     1      -9.817   9.016  67.027  1.00  0.00    -0.209 A  
HETATM   17  C   UNL     1     -11.523   8.613  72.070  1.00  0.00    -0.437 A  
HETATM   18  C   UNL     1     -10.577  10.146  67.382  1.00  0.00    -0.272 A  
HETATM   19  C   UNL     1     -10.696  11.139  66.380  1.00  0.00    -0.303 A  
HETATM   20  C   UNL     1     -11.606   9.555  71.033  1.00  0.00    -0.419 A  
HETATM   21  C   UNL     1     -10.217  10.974  65.071  1.00  0.00    -0.299 A  
HETATM   22  C   UNL     1      -9.255   8.889  65.738  1.00  0.00    -0.283 A  
HETATM   23  C   UNL     1      -9.472   9.849  64.757  1.00  0.00    -0.356 A  
BRANCH  21  24
HETATM   24  S   UNL     1     -10.593  12.190  63.785  1.00  0.00    -0.476 S  
HETATM   25  O   UNL     1     -10.209  13.525  64.355  1.00  0.00    -0.399 OA 
HETATM   26  C   UNL     1     -12.404  12.072  63.890  1.00  0.00    -0.450 C  
ENDBRANCH  21  24
ENDBRANCH   9  10
ENDBRANCH   8   9
ENDBRANCH   7   8
TORSDOF 4
ENDMDL
MODEL       33
REMARK 921   NORMALIZED FREE ENERGY PREDICTED BY IDOCK:   -5.87 KCAL/MOL
REMARK 922        TOTAL FREE ENERGY PREDICTED BY IDOCK:   -8.02 KCAL/MOL
REMARK 923 INTER-LIGAND FREE ENERGY PREDICTED BY IDOCK:   -7.81 KCAL/MOL
REMARK 924 INTRA-LIGAND FREE ENERGY PREDICTED BY IDOCK:   -0.21 KCAL/MOL
REMARK 927      BINDING AFFINITY PREDICTED BY RF-SCORE:    0.00 PKD
ROOT
HETATM    1  C   UNL     1     -12.396  14.345  64.909  1.00  0.00    -0.405 C  
HETATM    2  N   UNL     1     -12.286  12.961  65.369  1.00  0.00    -0.457 NA 
HETATM    3  C   UNL     1     -12.556  12.001  64.291  1.00  0.00    -0.255 C  
HETATM    4  C   UNL     1     -11.417  11.857  63.280  1.00  0.00    -0.376 C  
HETATM    5  C   UNL     1     -10.085  11.586  63.967  1.00  0.00    -0.366 C  
HETATM    6  C   UNL     1      -9.826  12.602  65.074  1.00  0.00    -0.090 C  
HETATM    7  C   UNL     1     -10.998  12.708  66.065  1.00  0.00    -0.282 C  
ENDROOT
BRANCH   7   8
HETATM    8  C   UNL     1     -11.154  11.455  66.950  1.00  0.00    -0.356 C  
BRANCH   8   9
HETATM    9  C   UNL     1     -10.519  11.523  68.355  1.00  0.00    -0.207 C  
BRANCH   9  10
HETATM   10  N   UNL     1     -11.454  11.871  69.461  1.00  0.00    -0.291 NA 
HETATM   11  C   UNL     1     -11.907  10.831  70.332  1.00  0.00    -0.358 A  
HETATM   12  C   UNL     1     -12.652  11.112  71.497  1.00  0.00    -0.325 A  
HETATM   13  S   UNL     1     -13.171  12.736  71.985  1.00  0.00    -0.359 SA 
HETATM   14  C   UNL     1     -13.054  10.085  72.385  1.00  0.00    -0.243 A  
HETATM   15  C   UNL     1     -12.741   8.757  72.140  1.00  0.00    -0.461 A  
HETATM   16  C   UNL     1     -12.522  13.753  70.689  1.00  0.00    -0.359 A  
HETATM   17  C   UNL     1     -12.048   8.443  70.986  1.00  0.00    -0.218 A  
HETATM   18  C   UNL     1     -11.779  13.263  69.599  1.00  0.00    -0.303 A  
HETATM   19  C   UNL     1     -11.358  14.236  68.662  1.00  0.00    -0.302 A  
HETATM   20  C   UNL     1     -11.658   9.458  70.099  1.00  0.00    -0.117 A  
HETATM   21  C   UNL     1     -11.537  15.616  68.851  1.00  0.00    -0.383 A  
HETATM   22  C   UNL     1     -12.784  15.132  70.834  1.00  0.00    -0.464 A  
HETATM   23  C   UNL     1     -12.275  16.063  69.934  1.00  0.00    -0.053 A  
BRANCH  21  24
HETATM   24  S   UNL     1     -10.785  16.812  67.720  1.00  0.00    -0.284 S  
HETATM   25  O   UNL     1      -9.588  16.126  67.130  1.00  0.00    -0.225 OA 
HETATM   26  C   UNL     1     -10.165  17.957  68.989  1.00  0.00    -0.273 C  
ENDBRANCH  21  24
ENDBRANCH   9  10
ENDBRANCH   8   9
ENDBRANCH   7   8
TORSDOF 4
ENDMDL
MODEL       34
REMARK 921   NORMALIZED FREE ENERGY PREDICTED BY IDOCK:   -5.85 KCAL/MOL
REMARK 922        TOTAL FREE ENERGY PREDICTED BY IDOCK:   -7.99 KCAL/MOL
REMARK 923 INTER-LIGAND FREE ENERGY PREDICTED BY IDOCK:   -7.39 KCAL/MOL
REMARK 924 INTRA-LIGAND FREE ENERGY PREDICTED BY IDOCK:   -0.60 KCAL/MOL
REMARK 927      BINDING AFFINITY PREDICTED BY RF-SCORE:    0.00 PKD
ROOT
HETATM    1  C   UNL     1     -10.037  11.522  63.693  1.00  0.00    -0.388 C  
HETATM    2  N   UNL     1     -10.144  10.697  64.896  1.00  0.00    -0.318 NA 
HETATM    3  C   UNL     1      -9.215   9.559  64.866  1.00  0.00    -0.223 C  
HETATM    4  C   UNL     1      -7.757   9.933  65.136  1.00  0.00    -0.131 C  
HETATM    5  C   UNL     1      -7.612  10.756  66.409  1.00  0.00    -0.141 C  
HETATM    6  C   UNL     1      -8.579  11.934  66.409  1.00  0.00    -0.077 C  
HETATM    7  C   UNL     1     -10.032  11.507  66.136  1.00  0.00    -0.224 C  
ENDROOT
BRANCH   7   8
HETATM    8  C   UNL     1     -10.655  10.712  67.301  1.00  0.00    -0.313 C  
BRANCH   8   9
HETATM    9  C   UNL     1     -10.179  11.086  68.720  1.00  0.00    -0.198 C  
BRANCH   9  10
HETATM   10  N   UNL     1     -11.251  11.526  69.657  1.00  0.00    -0.236 NA 
HETATM   11  C   UNL     1     -11.861  10.554  70.509  1.00  0.00    -0.347 A  
HETATM   12  C   UNL     1     -12.756  10.924  71.536  1.00  0.00    -0.428 A  
HETATM   13  S   UNL     1     -13.282  12.589  71.851  1.00  0.00    -0.283 SA 
HETATM   14  C   UNL     1     -13.319   9.964  72.410  1.00  0.00    -0.321 A  
HETATM   15  C   UNL     1     -13.022   8.615  72.289  1.00  0.00    -0.430 A  
HETATM   16  C   UNL     1     -12.417  13.507  70.608  1.00  0.00    -0.333 A  
HETATM   17  C   UNL     1     -12.181   8.214  71.268  1.00  0.00    -0.302 A  
HETATM   18  C   UNL     1     -11.542  12.932  69.668  1.00  0.00    -0.248 A  
HETATM   19  C   UNL     1     -10.957  13.835  68.750  1.00  0.00    -0.289 A  
HETATM   20  C   UNL     1     -11.631   9.162  70.392  1.00  0.00    -0.181 A  
HETATM   21  C   UNL     1     -11.111  15.228  68.833  1.00  0.00    -0.266 A  
HETATM   22  C   UNL     1     -12.648  14.899  70.636  1.00  0.00    -0.420 A  
HETATM   23  C   UNL     1     -11.982  15.760  69.770  1.00  0.00    -0.337 A  
BRANCH  21  24
HETATM   24  S   UNL     1     -10.162  16.333  67.760  1.00  0.00    -0.278 S  
HETATM   25  O   UNL     1     -10.817  17.679  67.871  1.00  0.00    -0.374 OA 
HETATM   26  C   UNL     1     -10.695  15.616  66.177  1.00  0.00    -0.303 C  
ENDBRANCH  21  24
ENDBRANCH   9  10
ENDBRANCH   8   9
ENDBRANCH   7   8
TORSDOF 4
ENDMDL
MODEL       35
REMARK 921   NORMALIZED FREE ENERGY PREDICTED BY IDOCK:   -5.83 KCAL/MOL
REMARK 922        TOTAL FREE ENERGY PREDICTED BY IDOCK:   -7.96 KCAL/MOL
REMARK 923 INTER-LIGAND FREE ENERGY PREDICTED BY IDOCK:   -7.32 KCAL/MOL
REMARK 924 INTRA-LIGAND FREE ENERGY PREDICTED BY IDOCK:   -0.65 KCAL/MOL
REMARK 927      BINDING AFFINITY PREDICTED BY RF-SCORE:    0.00 PKD
ROOT
HETATM    1  C   UNL     1     -11.471  15.307  70.991  1.00  0.00    -0.356 C  
HETATM    2  N   UNL     1     -11.511  15.320  69.528  1.00  0.00    -0.282 NA 
HETATM    3  C   UNL     1     -11.375  16.679  68.988  1.00  0.00    -0.090 C  
HETATM    4  C   UNL     1      -9.953  17.239  69.049  1.00  0.00    -0.272 C  
HETATM    5  C   UNL     1      -8.942  16.277  68.440  1.00  0.00    -0.203 C  
HETATM    6  C   UNL     1      -9.099  14.878  69.026  1.00  0.00    -0.175 C  
HETATM    7  C   UNL     1     -10.545  14.359  68.938  1.00  0.00    -0.247 C  
ENDROOT
BRANCH   7   8
HETATM    8  C   UNL     1     -10.985  14.043  67.494  1.00  0.00    -0.288 C  
BRANCH   8   9
HETATM    9  C   UNL     1     -11.955  12.855  67.317  1.00  0.00    -0.309 C  
BRANCH   9  10
HETATM   10  N   UNL     1     -11.316  11.563  66.942  1.00  0.00    -0.420 NA 
HETATM   11  C   UNL     1     -10.743  11.432  65.638  1.00  0.00    -0.242 A  
HETATM   12  C   UNL     1      -9.975  10.304  65.276  1.00  0.00    -0.317 A  
HETATM   13  S   UNL     1      -9.686   8.909  66.332  1.00  0.00    -0.274 SA 
HETATM   14  C   UNL     1      -9.366  10.202  64.002  1.00  0.00    -0.339 A  
HETATM   15  C   UNL     1      -9.507  11.201  63.052  1.00  0.00    -0.386 A  
HETATM   16  C   UNL     1     -10.568   9.352  67.803  1.00  0.00    -0.258 A  
HETATM   17  C   UNL     1     -10.286  12.300  63.360  1.00  0.00    -0.395 A  
HETATM   18  C   UNL     1     -11.275  10.557  67.966  1.00  0.00    -0.294 A  
HETATM   19  C   UNL     1     -11.924  10.719  69.213  1.00  0.00    -0.334 A  
HETATM   20  C   UNL     1     -10.901  12.399  64.618  1.00  0.00    -0.346 A  
HETATM   21  C   UNL     1     -11.777   9.818  70.281  1.00  0.00    -0.190 A  
HETATM   22  C   UNL     1     -10.495   8.400  68.843  1.00  0.00    -0.208 A  
HETATM   23  C   UNL     1     -11.075   8.640  70.084  1.00  0.00    -0.199 A  
BRANCH  21  24
HETATM   24  S   UNL     1     -12.459  10.196  71.914  1.00  0.00    -0.175 S  
HETATM   25  O   UNL     1     -13.762   9.456  71.997  1.00  0.00    -0.405 OA 
HETATM   26  C   UNL     1     -12.861  11.938  71.588  1.00  0.00    -0.312 C  
ENDBRANCH  21  24
ENDBRANCH   9  10
ENDBRANCH   8   9
ENDBRANCH   7   8
TORSDOF 4
ENDMDL
MODEL       36
REMARK 921   NORMALIZED FREE ENERGY PREDICTED BY IDOCK:   -5.78 KCAL/MOL
REMARK 922        TOTAL FREE ENERGY PREDICTED BY IDOCK:   -7.90 KCAL/MOL
REMARK 923 INTER-LIGAND FREE ENERGY PREDICTED BY IDOCK:   -7.14 KCAL/MOL
REMARK 924 INTRA-LIGAND FREE ENERGY PREDICTED BY IDOCK:   -0.76 KCAL/MOL
REMARK 927      BINDING AFFINITY PREDICTED BY RF-SCORE:    0.00 PKD
ROOT
HETATM    1  C   UNL     1      -8.668   9.721  62.877  1.00  0.00    -0.229 C  
HETATM    2  N   UNL     1      -8.669   9.103  64.202  1.00  0.00    -0.179 NA 
HETATM    3  C   UNL     1      -7.951   7.821  64.211  1.00  0.00    -0.120 C  
HETATM    4  C   UNL     1      -6.428   7.956  64.170  1.00  0.00    -0.061 C  
HETATM    5  C   UNL     1      -5.916   8.906  65.244  1.00  0.00    -0.052 C  
HETATM    6  C   UNL     1      -6.672  10.229  65.206  1.00  0.00    -0.126 C  
HETATM    7  C   UNL     1      -8.198  10.041  65.253  1.00  0.00    -0.148 C  
ENDROOT
BRANCH   7   8
HETATM    8  C   UNL     1      -8.702   9.541  66.622  1.00  0.00    -0.146 C  
BRANCH   8   9
HETATM    9  C   UNL     1     -10.225   9.332  66.757  1.00  0.00    -0.255 C  
BRANCH   9  10
HETATM   10  N   UNL     1     -10.870  10.060  67.885  1.00  0.00    -0.270 NA 
HETATM   11  C   UNL     1     -10.957   9.416  69.160  1.00  0.00    -0.090 A  
HETATM   12  C   UNL     1     -11.396  10.106  70.310  1.00  0.00    -0.315 A  
HETATM   13  S   UNL     1     -11.950  11.791  70.316  1.00  0.00    -0.291 SA 
HETATM   14  C   UNL     1     -11.432   9.481  71.580  1.00  0.00    -0.466 A  
HETATM   15  C   UNL     1     -11.047   8.159  71.744  1.00  0.00    -0.329 A  
HETATM   16  C   UNL     1     -11.784  12.256  68.615  1.00  0.00    -0.328 A  
HETATM   17  C   UNL     1     -10.650   7.443  70.631  1.00  0.00    -0.234 A  
HETATM   18  C   UNL     1     -11.303  11.400  67.607  1.00  0.00    -0.290 A  
HETATM   19  C   UNL     1     -11.256  11.958  66.307  1.00  0.00    -0.392 A  
HETATM   20  C   UNL     1     -10.624   8.057  69.369  1.00  0.00    -0.210 A  
HETATM   21  C   UNL     1     -11.534  13.307  66.037  1.00  0.00    -0.330 A  
HETATM   22  C   UNL     1     -12.153  13.588  68.330  1.00  0.00    -0.295 A  
HETATM   23  C   UNL     1     -12.007  14.120  67.053  1.00  0.00    -0.471 A  
BRANCH  21  24
HETATM   24  S   UNL     1     -11.246  14.001  64.391  1.00  0.00    -0.240 S  
HETATM   25  O   UNL     1     -12.554  14.601  63.962  1.00  0.00    -0.819 OA 
HETATM   26  C   UNL     1     -11.076  12.421  63.510  1.00  0.00    -0.458 C  
ENDBRANCH  21  24
ENDBRANCH   9  10
ENDBRANCH   8   9
ENDBRANCH   7   8
TORSDOF 4
ENDMDL
MODEL       37
REMARK 921   NORMALIZED FREE ENERGY PREDICTED BY IDOCK:   -5.77 KCAL/MOL
REMARK 922        TOTAL FREE ENERGY PREDICTED BY IDOCK:   -7.90 KCAL/MOL
REMARK 923 INTER-LIGAND FREE ENERGY PREDICTED BY IDOCK:   -7.26 KCAL/MOL
REMARK 924 INTRA-LIGAND FREE ENERGY PREDICTED BY IDOCK:   -0.64 KCAL/MOL
REMARK 927      BINDING AFFINITY PREDICTED BY RF-SCORE:    0.00 PKD
ROOT
HETATM    1  C   UNL     1      -6.826  12.199  69.035  1.00  0.00    -0.098 C  
HETATM    2  N   UNL     1      -7.517  11.268  68.143  1.00  0.00    -0.086 NA 
HETATM    3  C   UNL     1      -6.651  10.153  67.737  1.00  0.00    -0.067 C  
HETATM    4  C   UNL     1      -6.434   9.100  68.824  1.00  0.00    -0.049 C  
HETATM    5  C   UNL     1      -7.753   8.616  69.412  1.00  0.00    -0.091 C  
HETATM    6  C   UNL     1      -8.626   9.793  69.833  1.00  0.00    -0.236 C  
HETATM    7  C   UNL     1      -8.817  10.822  68.705  1.00  0.00    -0.163 C  
ENDROOT
BRANCH   7   8
HETATM    8  C   UNL     1      -9.697  10.297  67.553  1.00  0.00    -0.196 C  
BRANCH   8   9
HETATM    9  C   UNL     1     -11.067  10.984  67.368  1.00  0.00    -0.305 C  
BRANCH   9  10
HETATM   10  N   UNL     1     -11.278  12.214  68.183  1.00  0.00    -0.246 NA 
HETATM   11  C   UNL     1     -10.916  13.479  67.623  1.00  0.00    -0.263 A  
HETATM   12  C   UNL     1     -11.244  14.694  68.264  1.00  0.00    -0.285 A  
HETATM   13  S   UNL     1     -12.061  14.807  69.834  1.00  0.00    -0.332 SA 
HETATM   14  C   UNL     1     -10.931  15.946  67.683  1.00  0.00    -0.298 A  
HETATM   15  C   UNL     1     -10.277  16.032  66.462  1.00  0.00    -0.301 A  
HETATM   16  C   UNL     1     -12.298  13.107  70.269  1.00  0.00    -0.249 A  
HETATM   17  C   UNL     1      -9.906  14.861  65.829  1.00  0.00    -0.380 A  
HETATM   18  C   UNL     1     -11.898  12.024  69.463  1.00  0.00    -0.326 A  
HETATM   19  C   UNL     1     -12.167  10.740  69.993  1.00  0.00    -0.409 A  
HETATM   20  C   UNL     1     -10.205  13.619  66.408  1.00  0.00    -0.292 A  
HETATM   21  C   UNL     1     -12.901  10.531  71.171  1.00  0.00    -0.416 A  
HETATM   22  C   UNL     1     -12.955  12.899  71.500  1.00  0.00    -0.388 A  
HETATM   23  C   UNL     1     -13.277  11.620  71.940  1.00  0.00    -0.475 A  
BRANCH  21  24
HETATM   24  S   UNL     1     -13.392   8.863  71.675  1.00  0.00    -0.360 S  
HETATM   25  O   UNL     1     -14.392   9.043  72.779  1.00  0.00    -0.596 OA 
HETATM   26  C   UNL     1     -11.819   8.396  72.457  1.00  0.00    -0.358 C  
ENDBRANCH  21  24
ENDBRANCH   9  10
ENDBRANCH   8   9
ENDBRANCH   7   8
TORSDOF 4
ENDMDL
MODEL       38
REMARK 921   NORMALIZED FREE ENERGY PREDICTED BY IDOCK:   -5.76 KCAL/MOL
REMARK 922        TOTAL FREE ENERGY PREDICTED BY IDOCK:   -7.89 KCAL/MOL
REMARK 923 INTER-LIGAND FREE ENERGY PREDICTED BY IDOCK:   -7.13 KCAL/MOL
REMARK 924 INTRA-LIGAND FREE ENERGY PREDICTED BY IDOCK:   -0.76 KCAL/MOL
REMARK 927      BINDING AFFINITY PREDICTED BY RF-SCORE:    0.00 PKD
ROOT
HETATM    1  C   UNL     1     -11.847  14.715  64.726  1.00  0.00    -0.440 C  
HETATM    2  N   UNL     1     -12.146  13.440  65.378  1.00  0.00    -0.394 NA 
HETATM    3  C   UNL     1     -12.757  12.480  64.450  1.00  0.00    -0.358 C  
HETATM    4  C   UNL     1     -11.774  11.852  63.461  1.00  0.00    -0.550 C  
HETATM    5  C   UNL     1     -10.557  11.271  64.167  1.00  0.00    -0.437 C  
HETATM    6  C   UNL     1      -9.938  12.292  65.115  1.00  0.00    -0.236 C  
HETATM    7  C   UNL     1     -10.965  12.891  66.091  1.00  0.00    -0.281 C  
ENDROOT
BRANCH   7   8
HETATM    8  C   UNL     1     -11.454  11.880  67.148  1.00  0.00    -0.386 C  
BRANCH   8   9
HETATM    9  C   UNL     1     -10.594  11.748  68.422  1.00  0.00    -0.216 C  
BRANCH   9  10
HETATM   10  N   UNL     1     -10.556  10.387  69.027  1.00  0.00    -0.207 NA 
HETATM   11  C   UNL     1     -11.449  10.088  70.103  1.00  0.00    -0.277 A  
HETATM   12  C   UNL     1     -11.589   8.777  70.608  1.00  0.00    -0.205 A  
HETATM   13  S   UNL     1     -10.653   7.382  70.040  1.00  0.00    -0.235 SA 
HETATM   14  C   UNL     1     -12.511   8.475  71.638  1.00  0.00    -0.370 A  
HETATM   15  C   UNL     1     -13.309   9.458  72.204  1.00  0.00    -0.545 A  
HETATM   16  C   UNL     1      -9.622   8.094  68.789  1.00  0.00    -0.149 A  
HETATM   17  C   UNL     1     -13.168  10.759  71.761  1.00  0.00    -0.523 A  
HETATM   18  C   UNL     1      -9.649   9.452  68.423  1.00  0.00    -0.146 A  
HETATM   19  C   UNL     1      -8.739   9.827  67.407  1.00  0.00    -0.133 A  
HETATM   20  C   UNL     1     -12.246  11.064  70.747  1.00  0.00    -0.480 A  
HETATM   21  C   UNL     1      -7.949   8.906  66.701  1.00  0.00    -0.103 A  
HETATM   22  C   UNL     1      -8.761   7.180  68.144  1.00  0.00    -0.127 A  
HETATM   23  C   UNL     1      -7.945   7.577  67.090  1.00  0.00    -0.117 A  
BRANCH  21  24
HETATM   24  S   UNL     1      -6.969   9.428  65.272  1.00  0.00    -0.095 S  
HETATM   25  O   UNL     1      -6.668   8.176  64.499  1.00  0.00    -0.066 OA 
HETATM   26  C   UNL     1      -5.458   9.859  66.185  1.00  0.00    -0.051 C  
ENDBRANCH  21  24
ENDBRANCH   9  10
ENDBRANCH   8   9
ENDBRANCH   7   8
TORSDOF 4
ENDMDL
MODEL       39
REMARK 921   NORMALIZED FREE ENERGY PREDICTED BY IDOCK:   -5.69 KCAL/MOL
REMARK 922        TOTAL FREE ENERGY PREDICTED BY IDOCK:   -7.80 KCAL/MOL
REMARK 923 INTER-LIGAND FREE ENERGY PREDICTED BY IDOCK:   -7.11 KCAL/MOL
REMARK 924 INTRA-LIGAND FREE ENERGY PREDICTED BY IDOCK:   -0.69 KCAL/MOL
REMARK 927      BINDING AFFINITY PREDICTED BY RF-SCORE:    0.00 PKD
ROOT
HETATM    1  C   UNL     1     -10.939   7.698  72.910  1.00  0.00    -0.400 C  
HETATM    2  N   UNL     1     -11.423   8.140  71.603  1.00  0.00    -0.262 NA 
HETATM    3  C   UNL     1     -12.337   7.162  70.997  1.00  0.00    -0.334 C  
HETATM    4  C   UNL     1     -13.735   7.143  71.615  1.00  0.00    -0.406 C  
HETATM    5  C   UNL     1     -14.346   8.537  71.673  1.00  0.00    -0.497 C  
HETATM    6  C   UNL     1     -13.381   9.528  72.315  1.00  0.00    -0.526 C  
HETATM    7  C   UNL     1     -11.991   9.512  71.657  1.00  0.00    -0.401 C  
ENDROOT
BRANCH   7   8
HETATM    8  C   UNL     1     -11.992  10.100  70.231  1.00  0.00    -0.315 C  
BRANCH   8   9
HETATM    9  C   UNL     1     -10.632  10.586  69.688  1.00  0.00    -0.242 C  
BRANCH   9  10
HETATM   10  N   UNL     1     -10.448  10.450  68.216  1.00  0.00    -0.179 NA 
HETATM   11  C   UNL     1     -10.843  11.533  67.370  1.00  0.00    -0.246 A  
HETATM   12  C   UNL     1     -10.543  11.545  65.991  1.00  0.00    -0.261 A  
HETATM   13  S   UNL     1      -9.723  10.226  65.135  1.00  0.00    -0.320 SA 
HETATM   14  C   UNL     1     -10.890  12.642  65.167  1.00  0.00    -0.321 A  
HETATM   15  C   UNL     1     -11.550  13.749  65.679  1.00  0.00    -0.339 A  
HETATM   16  C   UNL     1      -9.442   9.046  66.425  1.00  0.00    -0.226 A  
HETATM   17  C   UNL     1     -11.895  13.751  67.017  1.00  0.00    -0.445 A  
HETATM   18  C   UNL     1      -9.818   9.240  67.767  1.00  0.00    -0.171 A  
HETATM   19  C   UNL     1      -9.515   8.172  68.645  1.00  0.00    -0.147 A  
HETATM   20  C   UNL     1     -11.563  12.660  67.834  1.00  0.00    -0.401 A  
HETATM   21  C   UNL     1      -8.771   7.046  68.260  1.00  0.00    -0.127 A  
HETATM   22  C   UNL     1      -8.775   7.872  66.015  1.00  0.00    -0.182 A  
HETATM   23  C   UNL     1      -8.419   6.886  66.930  1.00  0.00    -0.115 A  
BRANCH  21  24
HETATM   24  S   UNL     1      -8.237   5.824  69.484  1.00  0.00    -0.109 S  
HETATM   25  O   UNL     1      -6.974   6.368  70.085  1.00  0.00    -0.059 OA 
HETATM   26  C   UNL     1      -7.746   4.530  68.306  1.00  0.00    -0.080 C  
ENDBRANCH  21  24
ENDBRANCH   9  10
ENDBRANCH   8   9
ENDBRANCH   7   8
TORSDOF 4
ENDMDL
MODEL       40
REMARK 921   NORMALIZED FREE ENERGY PREDICTED BY IDOCK:   -5.69 KCAL/MOL
REMARK 922        TOTAL FREE ENERGY PREDICTED BY IDOCK:   -7.79 KCAL/MOL
REMARK 923 INTER-LIGAND FREE ENERGY PREDICTED BY IDOCK:   -7.09 KCAL/MOL
REMARK 924 INTRA-LIGAND FREE ENERGY PREDICTED BY IDOCK:   -0.71 KCAL/MOL
REMARK 927      BINDING AFFINITY PREDICTED BY RF-SCORE:    0.00 PKD
ROOT
HETATM    1  C   UNL     1     -10.945  14.673  65.700  1.00  0.00    -0.335 C  
HETATM    2  N   UNL     1     -11.419  13.317  65.977  1.00  0.00    -0.319 NA 
HETATM    3  C   UNL     1     -12.576  12.960  65.145  1.00  0.00    -0.471 C  
HETATM    4  C   UNL     1     -12.228  12.643  63.690  1.00  0.00    -0.624 C  
HETATM    5  C   UNL     1     -11.110  11.613  63.589  1.00  0.00    -0.506 C  
HETATM    6  C   UNL     1      -9.920  12.014  64.454  1.00  0.00    -0.254 C  
HETATM    7  C   UNL     1     -10.321  12.319  65.907  1.00  0.00    -0.252 C  
ENDROOT
BRANCH   7   8
HETATM    8  C   UNL     1     -10.748  11.062  66.692  1.00  0.00    -0.305 C  
BRANCH   8   9
HETATM    9  C   UNL     1      -9.621  10.273  67.390  1.00  0.00    -0.158 C  
BRANCH   9  10
HETATM   10  N   UNL     1      -9.772   8.791  67.364  1.00  0.00    -0.164 NA 
HETATM   11  C   UNL     1      -9.143   8.053  66.312  1.00  0.00    -0.186 A  
HETATM   12  C   UNL     1      -9.098   6.643  66.319  1.00  0.00    -0.145 A  
HETATM   13  S   UNL     1      -9.854   5.625  67.560  1.00  0.00    -0.151 SA 
HETATM   14  C   UNL     1      -8.431   5.918  65.304  1.00  0.00    -0.144 A  
HETATM   15  C   UNL     1      -7.801   6.564  64.251  1.00  0.00    -0.113 A  
HETATM   16  C   UNL     1     -10.584   6.818  68.645  1.00  0.00    -0.227 A  
HETATM   17  C   UNL     1      -7.861   7.943  64.192  1.00  0.00    -0.136 A  
HETATM   18  C   UNL     1     -10.499   8.210  68.458  1.00  0.00    -0.162 A  
HETATM   19  C   UNL     1     -11.160   8.997  69.431  1.00  0.00    -0.000 A  
HETATM   20  C   UNL     1      -8.532   8.664  65.191  1.00  0.00    -0.197 A  
HETATM   21  C   UNL     1     -11.750   8.459  70.585  1.00  0.00    -0.147 A  
HETATM   22  C   UNL     1     -11.258   6.270  69.757  1.00  0.00    -0.499 A  
HETATM   23  C   UNL     1     -11.818   7.084  70.736  1.00  0.00    -0.401 A  
BRANCH  21  24
HETATM   24  S   UNL     1     -12.388   9.538  71.891  1.00  0.00    -0.349 S  
HETATM   25  O   UNL     1     -13.812   9.121  72.112  1.00  0.00    -0.430 OA 
HETATM   26  C   UNL     1     -12.432  11.068  70.911  1.00  0.00    -0.410 C  
ENDBRANCH  21  24
ENDBRANCH   9  10
ENDBRANCH   8   9
ENDBRANCH   7   8
TORSDOF 4
ENDMDL
MODEL       41
REMARK 921   NORMALIZED FREE ENERGY PREDICTED BY IDOCK:   -5.65 KCAL/MOL
REMARK 922        TOTAL FREE ENERGY PREDICTED BY IDOCK:   -7.75 KCAL/MOL
REMARK 923 INTER-LIGAND FREE ENERGY PREDICTED BY IDOCK:   -7.15 KCAL/MOL
REMARK 924 INTRA-LIGAND FREE ENERGY PREDICTED BY IDOCK:   -0.60 KCAL/MOL
REMARK 927      BINDING AFFINITY PREDICTED BY RF-SCORE:    0.00 PKD
ROOT
HETATM    1  C   UNL     1     -12.277  14.663  64.719  1.00  0.00    -0.394 C  
HETATM    2  N   UNL     1     -11.394  13.902  65.603  1.00  0.00    -0.305 NA 
HETATM    3  C   UNL     1      -9.983  14.264  65.413  1.00  0.00    -0.303 C  
HETATM    4  C   UNL     1      -9.593  15.610  66.025  1.00  0.00    -0.386 C  
HETATM    5  C   UNL     1     -10.018  15.711  67.484  1.00  0.00    -0.231 C  
HETATM    6  C   UNL     1     -11.488  15.340  67.650  1.00  0.00    -0.287 C  
HETATM    7  C   UNL     1     -11.828  13.977  67.022  1.00  0.00    -0.428 C  
ENDROOT
BRANCH   7   8
HETATM    8  C   UNL     1     -11.214  12.789  67.788  1.00  0.00    -0.317 C  
BRANCH   8   9
HETATM    9  C   UNL     1     -11.756  11.389  67.432  1.00  0.00    -0.089 C  
BRANCH   9  10
HETATM   10  N   UNL     1     -10.972  10.245  67.977  1.00  0.00    -0.283 NA 
HETATM   11  C   UNL     1     -11.195   9.841  69.331  1.00  0.00    -0.114 A  
HETATM   12  C   UNL     1     -10.619   8.666  69.859  1.00  0.00    -0.224 A  
HETATM   13  S   UNL     1      -9.518   7.603  68.963  1.00  0.00    -0.150 SA 
HETATM   14  C   UNL     1     -10.883   8.242  71.184  1.00  0.00    -0.276 A  
HETATM   15  C   UNL     1     -11.712   8.971  72.023  1.00  0.00    -0.417 A  
HETATM   16  C   UNL     1      -9.403   8.405  67.389  1.00  0.00    -0.148 A  
HETATM   17  C   UNL     1     -12.260  10.149  71.550  1.00  0.00    -0.473 A  
HETATM   18  C   UNL     1     -10.086   9.591  67.057  1.00  0.00    -0.234 A  
HETATM   19  C   UNL     1      -9.853  10.080  65.750  1.00  0.00    -0.345 A  
HETATM   20  C   UNL     1     -11.990  10.577  70.241  1.00  0.00    -0.411 A  
HETATM   21  C   UNL     1      -9.109   9.382  64.786  1.00  0.00    -0.193 A  
HETATM   22  C   UNL     1      -8.579   7.749  66.451  1.00  0.00    -0.153 A  
HETATM   23  C   UNL     1      -8.449   8.219  65.149  1.00  0.00    -0.164 A  
BRANCH  21  24
HETATM   24  S   UNL     1      -9.033   9.962  63.073  1.00  0.00    -0.269 S  
HETATM   25  O   UNL     1      -7.614  10.398  62.848  1.00  0.00    -0.144 OA 
HETATM   26  C   UNL     1     -10.018  11.471  63.306  1.00  0.00    -0.409 C  
ENDBRANCH  21  24
ENDBRANCH   9  10
ENDBRANCH   8   9
ENDBRANCH   7   8
TORSDOF 4
ENDMDL
MODEL       42
REMARK 921   NORMALIZED FREE ENERGY PREDICTED BY IDOCK:   -5.63 KCAL/MOL
REMARK 922        TOTAL FREE ENERGY PREDICTED BY IDOCK:   -7.73 KCAL/MOL
REMARK 923 INTER-LIGAND FREE ENERGY PREDICTED BY IDOCK:   -7.03 KCAL/MOL
REMARK 924 INTRA-LIGAND FREE ENERGY PREDICTED BY IDOCK:   -0.70 KCAL/MOL
REMARK 927      BINDING AFFINITY PREDICTED BY RF-SCORE:    0.00 PKD
ROOT
HETATM    1  C   UNL     1      -8.949   6.222  70.796  1.00  0.00    -0.144 C  
HETATM    2  N   UNL     1     -10.192   6.788  71.319  1.00  0.00    -0.202 NA 
HETATM    3  C   UNL     1     -11.021   5.773  71.982  1.00  0.00    -0.260 C  
HETATM    4  C   UNL     1     -10.517   5.356  73.364  1.00  0.00    -0.269 C  
HETATM    5  C   UNL     1     -10.265   6.562  74.259  1.00  0.00    -0.373 C  
HETATM    6  C   UNL     1      -9.394   7.594  73.551  1.00  0.00    -0.339 C  
HETATM    7  C   UNL     1      -9.945   7.982  72.167  1.00  0.00    -0.225 C  
ENDROOT
BRANCH   7   8
HETATM    8  C   UNL     1     -11.244   8.808  72.245  1.00  0.00    -0.343 C  
BRANCH   8   9
HETATM    9  C   UNL     1     -12.038   8.964  70.932  1.00  0.00    -0.177 C  
BRANCH   9  10
HETATM   10  N   UNL     1     -11.706  10.173  70.126  1.00  0.00    -0.265 NA 
HETATM   11  C   UNL     1     -12.148  11.451  70.591  1.00  0.00    -0.372 A  
HETATM   12  C   UNL     1     -11.726  12.650  69.976  1.00  0.00    -0.215 A  
HETATM   13  S   UNL     1     -10.681  12.726  68.545  1.00  0.00    -0.251 SA 
HETATM   14  C   UNL     1     -12.124  13.915  70.469  1.00  0.00    -0.426 A  
HETATM   15  C   UNL     1     -12.955  14.030  71.574  1.00  0.00    -0.427 A  
HETATM   16  C   UNL     1     -10.382  11.016  68.196  1.00  0.00    -0.182 A  
HETATM   17  C   UNL     1     -13.419  12.875  72.174  1.00  0.00    -0.619 A  
HETATM   18  C   UNL     1     -10.899   9.953  68.960  1.00  0.00    -0.215 A  
HETATM   19  C   UNL     1     -10.553   8.656  68.511  1.00  0.00    -0.162 A  
HETATM   20  C   UNL     1     -13.036  11.619  71.680  1.00  0.00    -0.483 A  
HETATM   21  C   UNL     1      -9.648   8.419  67.464  1.00  0.00    -0.154 A  
HETATM   22  C   UNL     1      -9.545  10.778  67.084  1.00  0.00    -0.185 A  
HETATM   23  C   UNL     1      -9.160   9.489  66.732  1.00  0.00    -0.173 A  
BRANCH  21  24
HETATM   24  S   UNL     1      -9.087   6.741  67.085  1.00  0.00    -0.129 S  
HETATM   25  O   UNL     1      -8.752   6.738  65.621  1.00  0.00    -0.144 OA 
HETATM   26  C   UNL     1     -10.701   5.923  67.258  1.00  0.00    -0.297 C  
ENDBRANCH  21  24
ENDBRANCH   9  10
ENDBRANCH   8   9
ENDBRANCH   7   8
TORSDOF 4
ENDMDL
MODEL       43
REMARK 921   NORMALIZED FREE ENERGY PREDICTED BY IDOCK:   -5.63 KCAL/MOL
REMARK 922        TOTAL FREE ENERGY PREDICTED BY IDOCK:   -7.72 KCAL/MOL
REMARK 923 INTER-LIGAND FREE ENERGY PREDICTED BY IDOCK:   -7.08 KCAL/MOL
REMARK 924 INTRA-LIGAND FREE ENERGY PREDICTED BY IDOCK:   -0.64 KCAL/MOL
REMARK 927      BINDING AFFINITY PREDICTED BY RF-SCORE:    0.00 PKD
ROOT
HETATM    1  C   UNL     1     -12.275  10.941  69.947  1.00  0.00    -0.336 C  
HETATM    2  N   UNL     1     -10.837  10.805  69.721  1.00  0.00    -0.250 NA 
HETATM    3  C   UNL     1     -10.393   9.409  69.828  1.00  0.00    -0.223 C  
HETATM    4  C   UNL     1     -10.761   8.540  68.624  1.00  0.00    -0.082 C  
HETATM    5  C   UNL     1     -10.325   9.180  67.313  1.00  0.00    -0.338 C  
HETATM    6  C   UNL     1     -10.806  10.624  67.224  1.00  0.00    -0.345 C  
HETATM    7  C   UNL     1     -10.410  11.456  68.456  1.00  0.00    -0.205 C  
ENDROOT
BRANCH   7   8
HETATM    8  C   UNL     1      -8.895  11.735  68.533  1.00  0.00    -0.122 C  
BRANCH   8   9
HETATM    9  C   UNL     1      -8.282  12.527  67.359  1.00  0.00    -0.183 C  
BRANCH   9  10
HETATM   10  N   UNL     1      -8.454  14.005  67.429  1.00  0.00    -0.189 NA 
HETATM   11  C   UNL     1      -7.618  14.753  68.315  1.00  0.00    -0.115 A  
HETATM   12  C   UNL     1      -7.606  16.165  68.309  1.00  0.00    -0.146 A  
HETATM   13  S   UNL     1      -8.646  17.169  67.281  1.00  0.00    -0.205 SA 
HETATM   14  C   UNL     1      -6.740  16.902  69.152  1.00  0.00    -0.232 A  
HETATM   15  C   UNL     1      -5.873  16.267  70.028  1.00  0.00    -0.185 A  
HETATM   16  C   UNL     1      -9.579  15.962  66.382  1.00  0.00    -0.287 A  
HETATM   17  C   UNL     1      -5.889  14.887  70.088  1.00  0.00    -0.141 A  
HETATM   18  C   UNL     1      -9.424  14.572  66.534  1.00  0.00    -0.289 A  
HETATM   19  C   UNL     1     -10.273  13.773  65.731  1.00  0.00    -0.322 A  
HETATM   20  C   UNL     1      -6.755  14.153  69.263  1.00  0.00    -0.122 A  
HETATM   21  C   UNL     1     -11.122  14.301  64.746  1.00  0.00    -0.391 A  
HETATM   22  C   UNL     1     -10.501  16.498  65.457  1.00  0.00    -0.320 A  
HETATM   23  C   UNL     1     -11.252  15.674  64.626  1.00  0.00    -0.380 A  
BRANCH  21  24
HETATM   24  S   UNL     1     -12.017  13.211  63.612  1.00  0.00    -0.479 S  
HETATM   25  O   UNL     1     -13.153  12.634  64.406  1.00  0.00    -0.752 OA 
HETATM   26  C   UNL     1     -10.744  11.919  63.496  1.00  0.00    -0.442 C  
ENDBRANCH  21  24
ENDBRANCH   9  10
ENDBRANCH   8   9
ENDBRANCH   7   8
TORSDOF 4
ENDMDL
MODEL       44
REMARK 921   NORMALIZED FREE ENERGY PREDICTED BY IDOCK:   -5.63 KCAL/MOL
REMARK 922        TOTAL FREE ENERGY PREDICTED BY IDOCK:   -7.72 KCAL/MOL
REMARK 923 INTER-LIGAND FREE ENERGY PREDICTED BY IDOCK:   -7.00 KCAL/MOL
REMARK 924 INTRA-LIGAND FREE ENERGY PREDICTED BY IDOCK:   -0.72 KCAL/MOL
REMARK 927      BINDING AFFINITY PREDICTED BY RF-SCORE:    0.00 PKD
ROOT
HETATM    1  C   UNL     1     -10.368  16.542  69.365  1.00  0.00    -0.298 C  
HETATM    2  N   UNL     1     -10.331  15.816  68.095  1.00  0.00    -0.237 NA 
HETATM    3  C   UNL     1     -10.216  16.725  66.947  1.00  0.00    -0.290 C  
HETATM    4  C   UNL     1      -8.820  17.321  66.757  1.00  0.00    -0.269 C  
HETATM    5  C   UNL     1      -7.744  16.244  66.745  1.00  0.00    -0.295 C  
HETATM    6  C   UNL     1      -7.882  15.322  67.951  1.00  0.00    -0.149 C  
HETATM    7  C   UNL     1      -9.301  14.746  68.097  1.00  0.00    -0.197 C  
ENDROOT
BRANCH   7   8
HETATM    8  C   UNL     1      -9.652  13.723  66.998  1.00  0.00    -0.251 C  
BRANCH   8   9
HETATM    9  C   UNL     1     -11.068  13.111  67.057  1.00  0.00    -0.279 C  
BRANCH   9  10
HETATM   10  N   UNL     1     -11.183  11.847  67.837  1.00  0.00    -0.243 NA 
HETATM   11  C   UNL     1     -10.622  10.650  67.292  1.00  0.00    -0.263 A  
HETATM   12  C   UNL     1     -10.541   9.459  68.045  1.00  0.00    -0.226 A  
HETATM   13  S   UNL     1     -11.171   9.274  69.693  1.00  0.00     0.046 SA 
HETATM   14  C   UNL     1      -9.939   8.290  67.521  1.00  0.00    -0.252 A  
HETATM   15  C   UNL     1      -9.411   8.263  66.239  1.00  0.00    -0.271 A  
HETATM   16  C   UNL     1     -11.842  10.877  70.031  1.00  0.00    -0.347 A  
HETATM   17  C   UNL     1      -9.510   9.400  65.460  1.00  0.00    -0.328 A  
HETATM   18  C   UNL     1     -11.806  11.954  69.126  1.00  0.00    -0.311 A  
HETATM   19  C   UNL     1     -12.407  13.151  69.581  1.00  0.00    -0.129 A  
HETATM   20  C   UNL     1     -10.117  10.557  65.973  1.00  0.00    -0.317 A  
HETATM   21  C   UNL     1     -12.891  13.323  70.887  1.00  0.00    -0.181 A  
HETATM   22  C   UNL     1     -12.412  11.019  71.314  1.00  0.00    -0.475 A  
HETATM   23  C   UNL     1     -12.912  12.241  71.751  1.00  0.00    -0.431 A  
BRANCH  21  24
HETATM   24  S   UNL     1     -13.449  14.945  71.464  1.00  0.00    -0.447 S  
HETATM   25  O   UNL     1     -13.380  15.853  70.271  1.00  0.00    -0.136 OA 
HETATM   26  C   UNL     1     -12.003  15.322  72.499  1.00  0.00    -0.424 C  
ENDBRANCH  21  24
ENDBRANCH   9  10
ENDBRANCH   8   9
ENDBRANCH   7   8
TORSDOF 4
ENDMDL
MODEL       45
REMARK 921   NORMALIZED FREE ENERGY PREDICTED BY IDOCK:   -5.61 KCAL/MOL
REMARK 922        TOTAL FREE ENERGY PREDICTED BY IDOCK:   -7.70 KCAL/MOL
REMARK 923 INTER-LIGAND FREE ENERGY PREDICTED BY IDOCK:   -7.23 KCAL/MOL
REMARK 924 INTRA-LIGAND FREE ENERGY PREDICTED BY IDOCK:   -0.47 KCAL/MOL
REMARK 927      BINDING AFFINITY PREDICTED BY RF-SCORE:    0.00 PKD
ROOT
HETATM    1  C   UNL     1     -10.559   5.539  70.365  1.00  0.00    -0.280 C  
HETATM    2  N   UNL     1     -11.144   6.810  69.940  1.00  0.00    -0.301 NA 
HETATM    3  C   UNL     1     -12.101   7.330  70.925  1.00  0.00    -0.288 C  
HETATM    4  C   UNL     1     -11.453   7.935  72.171  1.00  0.00    -0.377 C  
HETATM    5  C   UNL     1     -10.388   8.963  71.811  1.00  0.00    -0.426 C  
HETATM    6  C   UNL     1      -9.404   8.394  70.795  1.00  0.00    -0.191 C  
HETATM    7  C   UNL     1     -10.104   7.801  69.560  1.00  0.00    -0.194 C  
ENDROOT
BRANCH   7   8
HETATM    8  C   UNL     1     -10.751   8.873  68.661  1.00  0.00    -0.118 C  
BRANCH   8   9
HETATM    9  C   UNL     1      -9.789   9.868  67.978  1.00  0.00    -0.147 C  
BRANCH   9  10
HETATM   10  N   UNL     1     -10.438  11.051  67.347  1.00  0.00    -0.206 NA 
HETATM   11  C   UNL     1     -11.107  11.997  68.186  1.00  0.00    -0.245 A  
HETATM   12  C   UNL     1     -11.593  13.222  67.680  1.00  0.00    -0.346 A  
HETATM   13  S   UNL     1     -11.506  13.706  65.976  1.00  0.00    -0.335 SA 
HETATM   14  C   UNL     1     -12.208  14.179  68.523  1.00  0.00    -0.204 A  
HETATM   15  C   UNL     1     -12.368  13.948  69.881  1.00  0.00    -0.358 A  
HETATM   16  C   UNL     1     -10.706  12.318  65.223  1.00  0.00    -0.292 A  
HETATM   17  C   UNL     1     -11.939  12.741  70.400  1.00  0.00    -0.331 A  
HETATM   18  C   UNL     1     -10.280  11.175  65.926  1.00  0.00    -0.251 A  
HETATM   19  C   UNL     1      -9.671  10.169  65.139  1.00  0.00    -0.370 A  
HETATM   20  C   UNL     1     -11.340  11.786  69.565  1.00  0.00    -0.317 A  
HETATM   21  C   UNL     1      -9.374  10.329  63.777  1.00  0.00    -0.295 A  
HETATM   22  C   UNL     1     -10.492  12.443  63.833  1.00  0.00    -0.469 A  
HETATM   23  C   UNL     1      -9.809  11.466  63.116  1.00  0.00    -0.413 A  
BRANCH  21  24
HETATM   24  S   UNL     1      -8.402   9.090  62.887  1.00  0.00    -0.197 S  
HETATM   25  O   UNL     1      -8.115   8.000  63.879  1.00  0.00    -0.149 OA 
HETATM   26  C   UNL     1      -6.881  10.073  62.727  1.00  0.00    -0.127 C  
ENDBRANCH  21  24
ENDBRANCH   9  10
ENDBRANCH   8   9
ENDBRANCH   7   8
TORSDOF 4
ENDMDL
MODEL       46
REMARK 921   NORMALIZED FREE ENERGY PREDICTED BY IDOCK:   -5.59 KCAL/MOL
REMARK 922        TOTAL FREE ENERGY PREDICTED BY IDOCK:   -7.67 KCAL/MOL
REMARK 923 INTER-LIGAND FREE ENERGY PREDICTED BY IDOCK:   -7.12 KCAL/MOL
REMARK 924 INTRA-LIGAND FREE ENERGY PREDICTED BY IDOCK:   -0.55 KCAL/MOL
REMARK 927      BINDING AFFINITY PREDICTED BY RF-SCORE:    0.00 PKD
ROOT
HETATM    1  C   UNL     1      -8.620   8.007  66.171  1.00  0.00    -0.148 C  
HETATM    2  N   UNL     1      -8.846   9.367  66.663  1.00  0.00    -0.133 NA 
HETATM    3  C   UNL     1      -7.854  10.313  66.134  1.00  0.00    -0.129 C  
HETATM    4  C   UNL     1      -8.076  10.702  64.672  1.00  0.00     0.015 C  
HETATM    5  C   UNL     1      -9.503  11.171  64.424  1.00  0.00    -0.251 C  
HETATM    6  C   UNL     1     -10.510  10.167  64.973  1.00  0.00     0.094 C  
HETATM    7  C   UNL     1     -10.247   9.810  66.446  1.00  0.00    -0.217 C  
ENDROOT
BRANCH   7   8
HETATM    8  C   UNL     1     -10.550  10.974  67.412  1.00  0.00    -0.276 C  
BRANCH   8   9
HETATM    9  C   UNL     1     -10.096  10.787  68.875  1.00  0.00    -0.205 C  
BRANCH   9  10
HETATM   10  N   UNL     1     -11.152  10.314  69.813  1.00  0.00    -0.268 NA 
HETATM   11  C   UNL     1     -11.252   8.914  70.087  1.00  0.00    -0.160 A  
HETATM   12  C   UNL     1     -12.109   8.413  71.090  1.00  0.00    -0.249 A  
HETATM   13  S   UNL     1     -13.198   9.417  72.067  1.00  0.00    -0.474 SA 
HETATM   14  C   UNL     1     -12.167   7.032  71.394  1.00  0.00    -0.407 A  
HETATM   15  C   UNL     1     -11.390   6.110  70.710  1.00  0.00    -0.364 A  
HETATM   16  C   UNL     1     -12.884  11.044  71.443  1.00  0.00    -0.443 A  
HETATM   17  C   UNL     1     -10.569   6.562  69.694  1.00  0.00    -0.291 A  
HETATM   18  C   UNL     1     -11.958  11.333  70.424  1.00  0.00    -0.380 A  
HETATM   19  C   UNL     1     -11.861  12.697  70.058  1.00  0.00    -0.358 A  
HETATM   20  C   UNL     1     -10.519   7.929  69.383  1.00  0.00    -0.222 A  
HETATM   21  C   UNL     1     -12.529  13.727  70.740  1.00  0.00    -0.370 A  
HETATM   22  C   UNL     1     -13.627  12.068  72.068  1.00  0.00    -0.230 A  
HETATM   23  C   UNL     1     -13.435  13.405  71.737  1.00  0.00    -0.452 A  
BRANCH  21  24
HETATM   24  S   UNL     1     -12.192  15.463  70.356  1.00  0.00    -0.411 S  
HETATM   25  O   UNL     1     -10.783  15.506  69.841  1.00  0.00    -0.266 OA 
HETATM   26  C   UNL     1     -12.146  16.064  72.071  1.00  0.00    -0.525 C  
ENDBRANCH  21  24
ENDBRANCH   9  10
ENDBRANCH   8   9
ENDBRANCH   7   8
TORSDOF 4
ENDMDL
MODEL       47
REMARK 921   NORMALIZED FREE ENERGY PREDICTED BY IDOCK:   -5.59 KCAL/MOL
REMARK 922        TOTAL FREE ENERGY PREDICTED BY IDOCK:   -7.67 KCAL/MOL
REMARK 923 INTER-LIGAND FREE ENERGY PREDICTED BY IDOCK:   -7.29 KCAL/MOL
REMARK 924 INTRA-LIGAND FREE ENERGY PREDICTED BY IDOCK:   -0.38 KCAL/MOL
REMARK 927      BINDING AFFINITY PREDICTED BY RF-SCORE:    0.00 PKD
ROOT
HETATM    1  C   UNL     1      -9.832  10.637  65.245  1.00  0.00    -0.275 C  
HETATM    2  N   UNL     1      -9.901  12.056  64.896  1.00  0.00    -0.218 NA 
HETATM    3  C   UNL     1     -10.550  12.272  63.597  1.00  0.00    -0.462 C  
HETATM    4  C   UNL     1     -12.071  12.106  63.621  1.00  0.00    -0.648 C  
HETATM    5  C   UNL     1     -12.711  12.937  64.725  1.00  0.00    -0.442 C  
HETATM    6  C   UNL     1     -12.024  12.686  66.063  1.00  0.00    -0.478 C  
HETATM    7  C   UNL     1     -10.498  12.868  65.988  1.00  0.00    -0.276 C  
ENDROOT
BRANCH   7   8
HETATM    8  C   UNL     1     -10.074  14.338  65.796  1.00  0.00    -0.356 C  
BRANCH   8   9
HETATM    9  C   UNL     1     -10.043  15.215  67.065  1.00  0.00    -0.244 C  
BRANCH   9  10
HETATM   10  N   UNL     1      -8.872  16.128  67.179  1.00  0.00    -0.191 NA 
HETATM   11  C   UNL     1      -9.086  17.538  67.070  1.00  0.00    -0.248 A  
HETATM   12  C   UNL     1      -8.059  18.468  67.338  1.00  0.00    -0.240 A  
HETATM   13  S   UNL     1      -6.395  18.024  67.763  1.00  0.00    -0.180 SA 
HETATM   14  C   UNL     1      -8.288  19.863  67.279  1.00  0.00    -0.366 A  
HETATM   15  C   UNL     1      -9.532  20.377  66.945  1.00  0.00    -0.508 A  
HETATM   16  C   UNL     1      -6.452  16.254  67.745  1.00  0.00    -0.141 A  
HETATM   17  C   UNL     1     -10.550  19.493  66.637  1.00  0.00    -0.583 A  
HETATM   18  C   UNL     1      -7.609  15.506  67.458  1.00  0.00    -0.175 A  
HETATM   19  C   UNL     1      -7.445  14.100  67.483  1.00  0.00    -0.192 A  
HETATM   20  C   UNL     1     -10.322  18.110  66.683  1.00  0.00    -0.387 A  
HETATM   21  C   UNL     1      -6.261  13.469  67.895  1.00  0.00    -0.153 A  
HETATM   22  C   UNL     1      -5.233  15.621  68.069  1.00  0.00    -0.132 A  
HETATM   23  C   UNL     1      -5.142  14.237  68.168  1.00  0.00    -0.116 A  
BRANCH  21  24
HETATM   24  S   UNL     1      -6.193  11.673  68.109  1.00  0.00    -0.047 S  
HETATM   25  O   UNL     1      -7.592  11.178  67.884  1.00  0.00    -0.094 OA 
HETATM   26  C   UNL     1      -5.915  11.674  69.905  1.00  0.00    -0.137 C  
ENDBRANCH  21  24
ENDBRANCH   9  10
ENDBRANCH   8   9
ENDBRANCH   7   8
TORSDOF 4
ENDMDL
MODEL       48
REMARK 921   NORMALIZED FREE ENERGY PREDICTED BY IDOCK:   -5.55 KCAL/MOL
REMARK 922        TOTAL FREE ENERGY PREDICTED BY IDOCK:   -7.62 KCAL/MOL
REMARK 923 INTER-LIGAND FREE ENERGY PREDICTED BY IDOCK:   -7.23 KCAL/MOL
REMARK 924 INTRA-LIGAND FREE ENERGY PREDICTED BY IDOCK:   -0.40 KCAL/MOL
REMARK 927      BINDING AFFINITY PREDICTED BY RF-SCORE:    0.00 PKD
ROOT
HETATM    1  C   UNL     1      -9.044   9.228  64.563  1.00  0.00    -0.089 C  
HETATM    2  N   UNL     1      -9.475   9.592  65.913  1.00  0.00    -0.224 NA 
HETATM    3  C   UNL     1     -10.019   8.439  66.644  1.00  0.00    -0.284 C  
HETATM    4  C   UNL     1      -8.959   7.457  67.144  1.00  0.00    -0.134 C  
HETATM    5  C   UNL     1      -7.859   8.163  67.925  1.00  0.00    -0.122 C  
HETATM    6  C   UNL     1      -7.307   9.348  67.139  1.00  0.00    -0.087 C  
HETATM    7  C   UNL     1      -8.411  10.307  66.662  1.00  0.00    -0.125 C  
ENDROOT
BRANCH   7   8
HETATM    8  C   UNL     1      -9.065  11.095  67.814  1.00  0.00    -0.149 C  
BRANCH   8   9
HETATM    9  C   UNL     1     -10.509  11.584  67.578  1.00  0.00    -0.199 C  
BRANCH   9  10
HETATM   10  N   UNL     1     -10.920  12.770  68.382  1.00  0.00    -0.242 NA 
HETATM   11  C   UNL     1     -10.609  14.076  67.889  1.00  0.00    -0.244 A  
HETATM   12  C   UNL     1     -11.114  15.241  68.505  1.00  0.00    -0.282 A  
HETATM   13  S   UNL     1     -12.113  15.244  69.971  1.00  0.00    -0.356 SA 
HETATM   14  C   UNL     1     -10.847  16.530  67.984  1.00  0.00    -0.337 A  
HETATM   15  C   UNL     1     -10.068  16.703  66.850  1.00  0.00    -0.280 A  
HETATM   16  C   UNL     1     -12.247  13.519  70.348  1.00  0.00    -0.356 A  
HETATM   17  C   UNL     1      -9.525  15.585  66.246  1.00  0.00    -0.356 A  
HETATM   18  C   UNL     1     -11.664  12.495  69.578  1.00  0.00    -0.309 A  
HETATM   19  C   UNL     1     -11.878  11.179  70.053  1.00  0.00    -0.441 A  
HETATM   20  C   UNL     1      -9.778  14.307  66.767  1.00  0.00    -0.282 A  
HETATM   21  C   UNL     1     -12.722  10.878  71.134  1.00  0.00    -0.429 A  
HETATM   22  C   UNL     1     -13.021  13.224  71.491  1.00  0.00    -0.426 A  
HETATM   23  C   UNL     1     -13.278  11.911  71.870  1.00  0.00    -0.467 A  
BRANCH  21  24
HETATM   24  S   UNL     1     -13.119   9.162  71.550  1.00  0.00    -0.339 S  
HETATM   25  O   UNL     1     -13.730   9.201  72.920  1.00  0.00    -0.361 OA 
HETATM   26  C   UNL     1     -11.408   8.581  71.751  1.00  0.00    -0.307 C  
ENDBRANCH  21  24
ENDBRANCH   9  10
ENDBRANCH   8   9
ENDBRANCH   7   8
TORSDOF 4
ENDMDL
MODEL       49
REMARK 921   NORMALIZED FREE ENERGY PREDICTED BY IDOCK:   -5.53 KCAL/MOL
REMARK 922        TOTAL FREE ENERGY PREDICTED BY IDOCK:   -7.60 KCAL/MOL
REMARK 923 INTER-LIGAND FREE ENERGY PREDICTED BY IDOCK:   -6.81 KCAL/MOL
REMARK 924 INTRA-LIGAND FREE ENERGY PREDICTED BY IDOCK:   -0.80 KCAL/MOL
REMARK 927      BINDING AFFINITY PREDICTED BY RF-SCORE:    0.00 PKD
ROOT
HETATM    1  C   UNL     1     -11.033   5.886  71.617  1.00  0.00    -0.268 C  
HETATM    2  N   UNL     1     -11.407   6.876  70.607  1.00  0.00    -0.301 NA 
HETATM    3  C   UNL     1     -12.797   7.325  70.767  1.00  0.00     0.003 C  
HETATM    4  C   UNL     1     -13.013   8.291  71.933  1.00  0.00    -0.371 C  
HETATM    5  C   UNL     1     -12.037   9.459  71.887  1.00  0.00    -0.427 C  
HETATM    6  C   UNL     1     -10.603   8.964  71.730  1.00  0.00    -0.432 C  
HETATM    7  C   UNL     1     -10.436   7.999  70.544  1.00  0.00    -0.214 C  
ENDROOT
BRANCH   7   8
HETATM    8  C   UNL     1     -10.578   8.695  69.175  1.00  0.00    -0.193 C  
BRANCH   8   9
HETATM    9  C   UNL     1      -9.570   9.823  68.871  1.00  0.00    -0.167 C  
BRANCH   9  10
HETATM   10  N   UNL     1      -9.880  10.647  67.669  1.00  0.00    -0.165 NA 
HETATM   11  C   UNL     1      -9.478  10.166  66.383  1.00  0.00    -0.176 A  
HETATM   12  C   UNL     1      -9.886  10.804  65.192  1.00  0.00    -0.277 A  
HETATM   13  S   UNL     1     -10.862  12.283  65.134  1.00  0.00    -0.312 SA 
HETATM   14  C   UNL     1      -9.529  10.295  63.920  1.00  0.00    -0.356 A  
HETATM   15  C   UNL     1      -8.754   9.153  63.791  1.00  0.00    -0.150 A  
HETATM   16  C   UNL     1     -11.121  12.641  66.849  1.00  0.00    -0.273 A  
HETATM   17  C   UNL     1      -8.305   8.527  64.938  1.00  0.00    -0.171 A  
HETATM   18  C   UNL     1     -10.627  11.850  67.903  1.00  0.00    -0.201 A  
HETATM   19  C   UNL     1     -10.933  12.312  69.205  1.00  0.00    -0.217 A  
HETATM   20  C   UNL     1      -8.646   9.035  66.200  1.00  0.00    -0.149 A  
HETATM   21  C   UNL     1     -11.783  13.400  69.457  1.00  0.00    -0.324 A  
HETATM   22  C   UNL     1     -11.900  13.791  67.100  1.00  0.00    -0.441 A  
HETATM   23  C   UNL     1     -12.250  14.157  68.395  1.00  0.00    -0.200 A  
BRANCH  21  24
HETATM   24  S   UNL     1     -12.302  13.801  71.143  1.00  0.00    -0.288 S  
HETATM   25  O   UNL     1     -13.173  12.662  71.588  1.00  0.00    -0.396 OA 
HETATM   26  C   UNL     1     -13.409  15.177  70.714  1.00  0.00    -0.341 C  
ENDBRANCH  21  24
ENDBRANCH   9  10
ENDBRANCH   8   9
ENDBRANCH   7   8
TORSDOF 4
ENDMDL
MODEL       50
REMARK 921   NORMALIZED FREE ENERGY PREDICTED BY IDOCK:   -5.52 KCAL/MOL
REMARK 922        TOTAL FREE ENERGY PREDICTED BY IDOCK:   -7.58 KCAL/MOL
REMARK 923 INTER-LIGAND FREE ENERGY PREDICTED BY IDOCK:   -6.85 KCAL/MOL
REMARK 924 INTRA-LIGAND FREE ENERGY PREDICTED BY IDOCK:   -0.73 KCAL/MOL
REMARK 927      BINDING AFFINITY PREDICTED BY RF-SCORE:    0.00 PKD
ROOT
HETATM    1  C   UNL     1     -10.080  17.003  66.828  1.00  0.00    -0.300 C  
HETATM    2  N   UNL     1      -9.797  15.711  67.453  1.00  0.00    -0.224 NA 
HETATM    3  C   UNL     1      -9.474  15.849  68.879  1.00  0.00    -0.234 C  
HETATM    4  C   UNL     1     -10.685  16.123  69.772  1.00  0.00    -0.336 C  
HETATM    5  C   UNL     1     -11.802  15.116  69.533  1.00  0.00    -0.358 C  
HETATM    6  C   UNL     1     -12.122  15.000  68.047  1.00  0.00    -0.045 C  
HETATM    7  C   UNL     1     -10.874  14.721  67.192  1.00  0.00    -0.311 C  
ENDROOT
BRANCH   7   8
HETATM    8  C   UNL     1     -10.302  13.305  67.404  1.00  0.00    -0.243 C  
BRANCH   8   9
HETATM    9  C   UNL     1     -11.287  12.132  67.215  1.00  0.00    -0.334 C  
BRANCH   9  10
HETATM   10  N   UNL     1     -10.875  10.847  67.847  1.00  0.00    -0.226 NA 
HETATM   11  C   UNL     1     -11.367  10.534  69.154  1.00  0.00    -0.257 A  
HETATM   12  C   UNL     1     -11.160   9.267  69.740  1.00  0.00    -0.150 A  
HETATM   13  S   UNL     1     -10.231   7.957  68.989  1.00  0.00    -0.210 SA 
HETATM   14  C   UNL     1     -11.692   8.944  71.012  1.00  0.00    -0.340 A  
HETATM   15  C   UNL     1     -12.431   9.864  71.740  1.00  0.00    -0.487 A  
HETATM   16  C   UNL     1      -9.720   8.679  67.455  1.00  0.00    -0.175 A  
HETATM   17  C   UNL     1     -12.618  11.128  71.212  1.00  0.00    -0.503 A  
HETATM   18  C   UNL     1     -10.052   9.984  67.048  1.00  0.00    -0.219 A  
HETATM   19  C   UNL     1      -9.537  10.379  65.790  1.00  0.00    -0.269 A  
HETATM   20  C   UNL     1     -12.081  11.455  69.957  1.00  0.00    -0.417 A  
HETATM   21  C   UNL     1      -8.856   9.506  64.928  1.00  0.00    -0.203 A  
HETATM   22  C   UNL     1      -8.954   7.828  66.629  1.00  0.00    -0.175 A  
HETATM   23  C   UNL     1      -8.544   8.229  65.362  1.00  0.00    -0.176 A  
BRANCH  21  24
HETATM   24  S   UNL     1      -8.416  10.017  63.248  1.00  0.00    -0.202 S  
HETATM   25  O   UNL     1      -9.626  10.714  62.698  1.00  0.00    -0.292 OA 
HETATM   26  C   UNL     1      -8.382   8.356  62.512  1.00  0.00    -0.165 C  
ENDBRANCH  21  24
ENDBRANCH   9  10
ENDBRANCH   8   9
ENDBRANCH   7   8
TORSDOF 4
ENDMDL
MODEL       51
REMARK 921   NORMALIZED FREE ENERGY PREDICTED BY IDOCK:   -5.52 KCAL/MOL
REMARK 922        TOTAL FREE ENERGY PREDICTED BY IDOCK:   -7.58 KCAL/MOL
REMARK 923 INTER-LIGAND FREE ENERGY PREDICTED BY IDOCK:   -6.90 KCAL/MOL
REMARK 924 INTRA-LIGAND FREE ENERGY PREDICTED BY IDOCK:   -0.68 KCAL/MOL
REMARK 927      BINDING AFFINITY PREDICTED BY RF-SCORE:    0.00 PKD
ROOT
HETATM    1  C   UNL     1      -7.220   7.101  68.886  1.00  0.00    -0.090 C  
HETATM    2  N   UNL     1      -7.756   7.950  67.821  1.00  0.00    -0.119 NA 
HETATM    3  C   UNL     1      -7.627   7.321  66.500  1.00  0.00    -0.092 C  
HETATM    4  C   UNL     1      -8.631   6.197  66.240  1.00  0.00    -0.136 C  
HETATM    5  C   UNL     1     -10.060   6.640  66.526  1.00  0.00    -0.140 C  
HETATM    6  C   UNL     1     -10.166   7.279  67.906  1.00  0.00    -0.237 C  
HETATM    7  C   UNL     1      -9.139   8.405  68.117  1.00  0.00    -0.138 C  
ENDROOT
BRANCH   7   8
HETATM    8  C   UNL     1      -9.436   9.659  67.271  1.00  0.00    -0.175 C  
BRANCH   8   9
HETATM    9  C   UNL     1     -10.910  10.112  67.208  1.00  0.00    -0.230 C  
BRANCH   9  10
HETATM   10  N   UNL     1     -11.184  11.468  67.761  1.00  0.00    -0.257 NA 
HETATM   11  C   UNL     1     -11.026  12.604  66.906  1.00  0.00    -0.262 A  
HETATM   12  C   UNL     1     -11.430  13.895  67.306  1.00  0.00    -0.344 A  
HETATM   13  S   UNL     1     -12.102  14.282  68.902  1.00  0.00    -0.222 SA 
HETATM   14  C   UNL     1     -11.321  15.008  66.439  1.00  0.00    -0.275 A  
HETATM   15  C   UNL     1     -10.801  14.878  65.160  1.00  0.00    -0.428 A  
HETATM   16  C   UNL     1     -12.098  12.709  69.714  1.00  0.00    -0.233 A  
HETATM   17  C   UNL     1     -10.357  13.634  64.751  1.00  0.00    -0.414 A  
HETATM   18  C   UNL     1     -11.653  11.515  69.116  1.00  0.00    -0.316 A  
HETATM   19  C   UNL     1     -11.720  10.363  69.936  1.00  0.00    -0.341 A  
HETATM   20  C   UNL     1     -10.454  12.532  65.613  1.00  0.00    -0.299 A  
HETATM   21  C   UNL     1     -12.310  10.357  71.210  1.00  0.00    -0.401 A  
HETATM   22  C   UNL     1     -12.606  12.723  71.030  1.00  0.00    -0.362 A  
HETATM   23  C   UNL     1     -12.735  11.551  71.767  1.00  0.00    -0.340 A  
BRANCH  21  24
HETATM   24  S   UNL     1     -12.554   8.806  72.111  1.00  0.00    -0.406 S  
HETATM   25  O   UNL     1     -11.686   7.790  71.427  1.00  0.00    -0.269 OA 
HETATM   26  C   UNL     1     -14.260   8.498  71.565  1.00  0.00    -0.374 C  
ENDBRANCH  21  24
ENDBRANCH   9  10
ENDBRANCH   8   9
ENDBRANCH   7   8
TORSDOF 4
ENDMDL
MODEL       52
REMARK 921   NORMALIZED FREE ENERGY PREDICTED BY IDOCK:   -5.52 KCAL/MOL
REMARK 922        TOTAL FREE ENERGY PREDICTED BY IDOCK:   -7.58 KCAL/MOL
REMARK 923 INTER-LIGAND FREE ENERGY PREDICTED BY IDOCK:   -6.87 KCAL/MOL
REMARK 924 INTRA-LIGAND FREE ENERGY PREDICTED BY IDOCK:   -0.71 KCAL/MOL
REMARK 927      BINDING AFFINITY PREDICTED BY RF-SCORE:    0.00 PKD
ROOT
HETATM    1  C   UNL     1     -10.002   9.237  66.023  1.00  0.00    -0.255 C  
HETATM    2  N   UNL     1      -9.489  10.579  65.745  1.00  0.00    -0.190 NA 
HETATM    3  C   UNL     1      -8.246  10.540  64.962  1.00  0.00    -0.120 C  
HETATM    4  C   UNL     1      -8.447  10.206  63.483  1.00  0.00    -0.186 C  
HETATM    5  C   UNL     1      -9.499  11.099  62.841  1.00  0.00    -0.382 C  
HETATM    6  C   UNL     1     -10.780  11.113  63.668  1.00  0.00    -0.381 C  
HETATM    7  C   UNL     1     -10.527  11.457  65.146  1.00  0.00    -0.295 C  
ENDROOT
BRANCH   7   8
HETATM    8  C   UNL     1     -10.111  12.926  65.361  1.00  0.00    -0.265 C  
BRANCH   8   9
HETATM    9  C   UNL     1      -9.343  13.239  66.662  1.00  0.00    -0.242 C  
BRANCH   9  10
HETATM   10  N   UNL     1     -10.070  14.095  67.640  1.00  0.00    -0.235 NA 
HETATM   11  C   UNL     1     -10.054  15.514  67.458  1.00  0.00    -0.241 A  
HETATM   12  C   UNL     1     -10.857  16.371  68.241  1.00  0.00    -0.347 A  
HETATM   13  S   UNL     1     -11.909  15.827  69.562  1.00  0.00    -0.301 SA 
HETATM   14  C   UNL     1     -10.878  17.770  68.024  1.00  0.00    -0.217 A  
HETATM   15  C   UNL     1     -10.101  18.358  67.038  1.00  0.00    -0.382 A  
HETATM   16  C   UNL     1     -11.647  14.075  69.565  1.00  0.00    -0.295 A  
HETATM   17  C   UNL     1      -9.272  17.552  66.281  1.00  0.00    -0.228 A  
HETATM   18  C   UNL     1     -10.793  13.404  68.670  1.00  0.00    -0.263 A  
HETATM   19  C   UNL     1     -10.712  12.002  68.843  1.00  0.00    -0.222 A  
HETATM   20  C   UNL     1      -9.240  16.167  66.502  1.00  0.00    -0.303 A  
HETATM   21  C   UNL     1     -11.519  11.288  69.743  1.00  0.00    -0.310 A  
HETATM   22  C   UNL     1     -12.390  13.370  70.535  1.00  0.00    -0.401 A  
HETATM   23  C   UNL     1     -12.346  11.982  70.610  1.00  0.00    -0.394 A  
BRANCH  21  24
HETATM   24  S   UNL     1     -11.515   9.479  69.758  1.00  0.00     0.081 S  
HETATM   25  O   UNL     1     -12.109   9.076  71.077  1.00  0.00    -0.293 OA 
HETATM   26  C   UNL     1      -9.717   9.261  69.900  1.00  0.00    -0.201 C  
ENDBRANCH  21  24
ENDBRANCH   9  10
ENDBRANCH   8   9
ENDBRANCH   7   8
TORSDOF 4
ENDMDL
MODEL       53
REMARK 921   NORMALIZED FREE ENERGY PREDICTED BY IDOCK:   -5.51 KCAL/MOL
REMARK 922        TOTAL FREE ENERGY PREDICTED BY IDOCK:   -7.58 KCAL/MOL
REMARK 923 INTER-LIGAND FREE ENERGY PREDICTED BY IDOCK:   -7.02 KCAL/MOL
REMARK 924 INTRA-LIGAND FREE ENERGY PREDICTED BY IDOCK:   -0.56 KCAL/MOL
REMARK 927      BINDING AFFINITY PREDICTED BY RF-SCORE:    0.00 PKD
ROOT
HETATM    1  C   UNL     1      -9.475   3.858  65.301  1.00  0.00    -0.170 C  
HETATM    2  N   UNL     1     -10.006   4.791  66.295  1.00  0.00    -0.217 NA 
HETATM    3  C   UNL     1      -9.940   4.239  67.655  1.00  0.00    -0.025 C  
HETATM    4  C   UNL     1      -8.538   4.240  68.265  1.00  0.00    -0.108 C  
HETATM    5  C   UNL     1      -7.882   5.611  68.171  1.00  0.00    -0.096 C  
HETATM    6  C   UNL     1      -7.956   6.154  66.748  1.00  0.00    -0.105 C  
HETATM    7  C   UNL     1      -9.386   6.136  66.182  1.00  0.00    -0.102 C  
ENDROOT
BRANCH   7   8
HETATM    8  C   UNL     1     -10.316   7.164  66.857  1.00  0.00    -0.349 C  
BRANCH   8   9
HETATM    9  C   UNL     1      -9.661   8.485  67.315  1.00  0.00    -0.183 C  
BRANCH   9  10
HETATM   10  N   UNL     1     -10.508   9.346  68.187  1.00  0.00    -0.214 NA 
HETATM   11  C   UNL     1     -10.753   8.932  69.534  1.00  0.00    -0.199 A  
HETATM   12  C   UNL     1     -11.398   9.775  70.464  1.00  0.00    -0.314 A  
HETATM   13  S   UNL     1     -12.034  11.385  70.080  1.00  0.00    -0.371 SA 
HETATM   14  C   UNL     1     -11.592   9.382  71.810  1.00  0.00    -0.433 A  
HETATM   15  C   UNL     1     -11.167   8.144  72.269  1.00  0.00    -0.425 A  
HETATM   16  C   UNL     1     -11.637  11.556  68.363  1.00  0.00    -0.308 A  
HETATM   17  C   UNL     1     -10.568   7.278  71.374  1.00  0.00    -0.229 A  
HETATM   18  C   UNL     1     -10.963  10.578  67.608  1.00  0.00    -0.314 A  
HETATM   19  C   UNL     1     -10.750  10.900  66.246  1.00  0.00    -0.241 A  
HETATM   20  C   UNL     1     -10.384   7.661  70.036  1.00  0.00    -0.223 A  
HETATM   21  C   UNL     1     -11.055  12.154  65.694  1.00  0.00    -0.316 A  
HETATM   22  C   UNL     1     -12.029  12.783  67.786  1.00  0.00    -0.316 A  
HETATM   23  C   UNL     1     -11.719  13.093  66.466  1.00  0.00    -0.433 A  
BRANCH  21  24
HETATM   24  S   UNL     1     -10.558  12.570  64.004  1.00  0.00    -0.436 S  
HETATM   25  O   UNL     1     -11.830  12.837  63.254  1.00  0.00    -0.525 OA 
HETATM   26  C   UNL     1     -10.000  10.908  63.523  1.00  0.00    -0.363 C  
ENDBRANCH  21  24
ENDBRANCH   9  10
ENDBRANCH   8   9
ENDBRANCH   7   8
TORSDOF 4
ENDMDL
MODEL       54
REMARK 921   NORMALIZED FREE ENERGY PREDICTED BY IDOCK:   -5.50 KCAL/MOL
REMARK 922        TOTAL FREE ENERGY PREDICTED BY IDOCK:   -7.56 KCAL/MOL
REMARK 923 INTER-LIGAND FREE ENERGY PREDICTED BY IDOCK:   -6.76 KCAL/MOL
REMARK 924 INTRA-LIGAND FREE ENERGY PREDICTED BY IDOCK:   -0.79 KCAL/MOL
REMARK 927      BINDING AFFINITY PREDICTED BY RF-SCORE:    0.00 PKD
ROOT
HETATM    1  C   UNL     1      -7.357  12.690  67.674  1.00  0.00    -0.139 C  
HETATM    2  N   UNL     1      -7.540  11.440  66.936  1.00  0.00    -0.146 NA 
HETATM    3  C   UNL     1      -6.409  11.162  66.040  1.00  0.00    -0.004 C  
HETATM    4  C   UNL     1      -5.151  10.668  66.754  1.00  0.00    -0.047 C  
HETATM    5  C   UNL     1      -5.450   9.495  67.678  1.00  0.00    -0.037 C  
HETATM    6  C   UNL     1      -6.620   9.815  68.602  1.00  0.00    -0.051 C  
HETATM    7  C   UNL     1      -7.862  10.305  67.838  1.00  0.00    -0.101 C  
ENDROOT
BRANCH   7   8
HETATM    8  C   UNL     1      -8.536   9.194  67.008  1.00  0.00    -0.123 C  
BRANCH   8   9
HETATM    9  C   UNL     1     -10.074   9.258  66.896  1.00  0.00    -0.256 C  
BRANCH   9  10
HETATM   10  N   UNL     1     -10.760  10.014  67.980  1.00  0.00    -0.240 NA 
HETATM   11  C   UNL     1     -10.868   9.416  69.274  1.00  0.00    -0.172 A  
HETATM   12  C   UNL     1     -11.349  10.137  70.388  1.00  0.00    -0.326 A  
HETATM   13  S   UNL     1     -11.933  11.811  70.318  1.00  0.00    -0.291 SA 
HETATM   14  C   UNL     1     -11.405   9.558  71.678  1.00  0.00    -0.411 A  
HETATM   15  C   UNL     1     -11.000   8.251  71.900  1.00  0.00    -0.354 A  
HETATM   16  C   UNL     1     -11.732  12.217  68.606  1.00  0.00    -0.328 A  
HETATM   17  C   UNL     1     -10.562   7.503  70.824  1.00  0.00    -0.227 A  
HETATM   18  C   UNL     1     -11.210  11.335  67.642  1.00  0.00    -0.292 A  
HETATM   19  C   UNL     1     -11.140  11.846  66.324  1.00  0.00    -0.364 A  
HETATM   20  C   UNL     1     -10.516   8.071  69.541  1.00  0.00    -0.226 A  
HETATM   21  C   UNL     1     -11.436  13.179  65.998  1.00  0.00    -0.335 A  
HETATM   22  C   UNL     1     -12.118  13.531  68.263  1.00  0.00    -0.295 A  
HETATM   23  C   UNL     1     -11.949  14.019  66.972  1.00  0.00    -0.472 A  
BRANCH  21  24
HETATM   24  S   UNL     1     -11.119  13.819  64.335  1.00  0.00    -0.288 S  
HETATM   25  O   UNL     1     -12.462  14.178  63.768  1.00  0.00    -0.791 OA 
HETATM   26  C   UNL     1     -10.632  12.239  63.578  1.00  0.00    -0.448 C  
ENDBRANCH  21  24
ENDBRANCH   9  10
ENDBRANCH   8   9
ENDBRANCH   7   8
TORSDOF 4
ENDMDL
MODEL       55
REMARK 921   NORMALIZED FREE ENERGY PREDICTED BY IDOCK:   -5.45 KCAL/MOL
REMARK 922        TOTAL FREE ENERGY PREDICTED BY IDOCK:   -7.50 KCAL/MOL
REMARK 923 INTER-LIGAND FREE ENERGY PREDICTED BY IDOCK:   -7.44 KCAL/MOL
REMARK 924 INTRA-LIGAND FREE ENERGY PREDICTED BY IDOCK:   -0.06 KCAL/MOL
REMARK 927      BINDING AFFINITY PREDICTED BY RF-SCORE:    0.00 PKD
ROOT
HETATM    1  C   UNL     1     -10.500  11.844  63.332  1.00  0.00    -0.441 C  
HETATM    2  N   UNL     1     -10.126  12.500  64.585  1.00  0.00    -0.265 NA 
HETATM    3  C   UNL     1     -10.512  13.918  64.599  1.00  0.00    -0.396 C  
HETATM    4  C   UNL     1     -12.007  14.159  64.807  1.00  0.00    -0.441 C  
HETATM    5  C   UNL     1     -12.535  13.411  66.024  1.00  0.00    -0.431 C  
HETATM    6  C   UNL     1     -12.129  11.942  65.979  1.00  0.00     0.232 C  
HETATM    7  C   UNL     1     -10.616  11.752  65.771  1.00  0.00    -0.268 C  
ENDROOT
BRANCH   7   8
HETATM    8  C   UNL     1      -9.782  12.172  66.997  1.00  0.00    -0.208 C  
BRANCH   8   9
HETATM    9  C   UNL     1     -10.013  11.367  68.293  1.00  0.00    -0.198 C  
BRANCH   9  10
HETATM   10  N   UNL     1     -10.871  12.034  69.313  1.00  0.00    -0.138 NA 
HETATM   11  C   UNL     1     -10.981  13.460  69.292  1.00  0.00    -0.109 A  
HETATM   12  C   UNL     1     -11.904  14.144  70.111  1.00  0.00    -0.313 A  
HETATM   13  S   UNL     1     -12.968  13.357  71.292  1.00  0.00    -0.237 SA 
HETATM   14  C   UNL     1     -12.047  15.551  70.051  1.00  0.00    -0.391 A  
HETATM   15  C   UNL     1     -11.278  16.319  69.190  1.00  0.00    -0.309 A  
HETATM   16  C   UNL     1     -12.540  11.648  71.117  1.00  0.00    -0.335 A  
HETATM   17  C   UNL     1     -10.336  15.684  68.403  1.00  0.00    -0.231 A  
HETATM   18  C   UNL     1     -11.578  11.165  70.210  1.00  0.00    -0.296 A  
HETATM   19  C   UNL     1     -11.372   9.765  70.229  1.00  0.00    -0.333 A  
HETATM   20  C   UNL     1     -10.184  14.290  68.469  1.00  0.00    -0.245 A  
HETATM   21  C   UNL     1     -12.154   8.882  70.990  1.00  0.00    -0.233 A  
HETATM   22  C   UNL     1     -13.263  10.770  71.952  1.00  0.00    -0.524 A  
HETATM   23  C   UNL     1     -13.090   9.392  71.874  1.00  0.00    -0.505 A  
BRANCH  21  24
HETATM   24  S   UNL     1     -11.978   7.090  70.803  1.00  0.00    -0.314 S  
HETATM   25  O   UNL     1     -11.846   6.541  72.194  1.00  0.00    -0.305 OA 
HETATM   26  C   UNL     1     -10.310   7.106  70.081  1.00  0.00    -0.206 C  
ENDBRANCH  21  24
ENDBRANCH   9  10
ENDBRANCH   8   9
ENDBRANCH   7   8
TORSDOF 4
ENDMDL
MODEL       56
REMARK 921   NORMALIZED FREE ENERGY PREDICTED BY IDOCK:   -5.41 KCAL/MOL
REMARK 922        TOTAL FREE ENERGY PREDICTED BY IDOCK:   -7.45 KCAL/MOL
REMARK 923 INTER-LIGAND FREE ENERGY PREDICTED BY IDOCK:   -6.94 KCAL/MOL
REMARK 924 INTRA-LIGAND FREE ENERGY PREDICTED BY IDOCK:   -0.51 KCAL/MOL
REMARK 927      BINDING AFFINITY PREDICTED BY RF-SCORE:    0.00 PKD
ROOT
HETATM    1  C   UNL     1      -9.490   8.159  66.270  1.00  0.00    -0.190 C  
HETATM    2  N   UNL     1      -9.059   9.557  66.282  1.00  0.00    -0.155 NA 
HETATM    3  C   UNL     1      -7.720   9.723  65.701  1.00  0.00    -0.115 C  
HETATM    4  C   UNL     1      -7.682   9.625  64.175  1.00  0.00    -0.129 C  
HETATM    5  C   UNL     1      -8.706  10.545  63.525  1.00  0.00    -0.187 C  
HETATM    6  C   UNL     1     -10.087  10.344  64.140  1.00  0.00    -0.262 C  
HETATM    7  C   UNL     1     -10.073  10.456  65.674  1.00  0.00    -0.269 C  
ENDROOT
BRANCH   7   8
HETATM    8  C   UNL     1      -9.819  11.893  66.172  1.00  0.00    -0.254 C  
BRANCH   8   9
HETATM    9  C   UNL     1      -9.405  12.044  67.651  1.00  0.00    -0.185 C  
BRANCH   9  10
HETATM   10  N   UNL     1     -10.506  12.406  68.587  1.00  0.00    -0.225 NA 
HETATM   11  C   UNL     1     -11.056  11.388  69.428  1.00  0.00    -0.241 A  
HETATM   12  C   UNL     1     -11.977  11.691  70.454  1.00  0.00    -0.358 A  
HETATM   13  S   UNL     1     -12.609  13.315  70.782  1.00  0.00    -0.228 SA 
HETATM   14  C   UNL     1     -12.480  10.689  71.318  1.00  0.00    -0.515 A  
HETATM   15  C   UNL     1     -12.096   9.363  71.185  1.00  0.00    -0.406 A  
HETATM   16  C   UNL     1     -11.801  14.299  69.551  1.00  0.00    -0.329 A  
HETATM   17  C   UNL     1     -11.227   9.026  70.165  1.00  0.00    -0.191 A  
HETATM   18  C   UNL     1     -10.887  13.789  68.609  1.00  0.00    -0.263 A  
HETATM   19  C   UNL     1     -10.357  14.737  67.702  1.00  0.00    -0.237 A  
HETATM   20  C   UNL     1     -10.737  10.015  69.299  1.00  0.00    -0.249 A  
HETATM   21  C   UNL     1     -10.601  16.116  67.797  1.00  0.00    -0.309 A  
HETATM   22  C   UNL     1     -12.120  15.673  69.591  1.00  0.00    -0.329 A  
HETATM   23  C   UNL     1     -11.508  16.582  68.735  1.00  0.00    -0.143 A  
BRANCH  21  24
HETATM   24  S   UNL     1      -9.721  17.289  66.738  1.00  0.00    -0.293 S  
HETATM   25  O   UNL     1     -10.561  17.441  65.503  1.00  0.00    -0.595 OA 
HETATM   26  C   UNL     1      -8.334  16.198  66.302  1.00  0.00    -0.287 C  
ENDBRANCH  21  24
ENDBRANCH   9  10
ENDBRANCH   8   9
ENDBRANCH   7   8
TORSDOF 4
ENDMDL
MODEL       57
REMARK 921   NORMALIZED FREE ENERGY PREDICTED BY IDOCK:   -5.41 KCAL/MOL
REMARK 922        TOTAL FREE ENERGY PREDICTED BY IDOCK:   -7.45 KCAL/MOL
REMARK 923 INTER-LIGAND FREE ENERGY PREDICTED BY IDOCK:   -6.72 KCAL/MOL
REMARK 924 INTRA-LIGAND FREE ENERGY PREDICTED BY IDOCK:   -0.73 KCAL/MOL
REMARK 927      BINDING AFFINITY PREDICTED BY RF-SCORE:    0.00 PKD
ROOT
HETATM    1  C   UNL     1      -8.948  10.590  63.062  1.00  0.00    -0.246 C  
HETATM    2  N   UNL     1      -8.909   9.527  64.066  1.00  0.00    -0.223 NA 
HETATM    3  C   UNL     1      -8.183   8.344  63.584  1.00  0.00    -0.104 C  
HETATM    4  C   UNL     1      -6.663   8.508  63.560  1.00  0.00    -0.085 C  
HETATM    5  C   UNL     1      -6.127   9.003  64.897  1.00  0.00    -0.065 C  
HETATM    6  C   UNL     1      -6.891  10.235  65.368  1.00  0.00    -0.140 C  
HETATM    7  C   UNL     1      -8.415  10.020  65.377  1.00  0.00    -0.151 C  
ENDROOT
BRANCH   7   8
HETATM    8  C   UNL     1      -8.878   9.042  66.476  1.00  0.00    -0.158 C  
BRANCH   8   9
HETATM    9  C   UNL     1     -10.400   8.943  66.709  1.00  0.00    -0.247 C  
BRANCH   9  10
HETATM   10  N   UNL     1     -10.840   9.100  68.123  1.00  0.00    -0.125 NA 
HETATM   11  C   UNL     1     -10.754   7.974  69.000  1.00  0.00    -0.088 A  
HETATM   12  C   UNL     1     -10.989   8.094  70.387  1.00  0.00    -0.247 A  
HETATM   13  S   UNL     1     -11.477   9.597  71.192  1.00  0.00    -0.406 SA 
HETATM   14  C   UNL     1     -10.852   6.988  71.259  1.00  0.00    -0.260 A  
HETATM   15  C   UNL     1     -10.491   5.735  70.786  1.00  0.00    -0.324 A  
HETATM   16  C   UNL     1     -11.556  10.746  69.847  1.00  0.00    -0.331 A  
HETATM   17  C   UNL     1     -10.294   5.574  69.427  1.00  0.00    -0.348 A  
HETATM   18  C   UNL     1     -11.264  10.416  68.510  1.00  0.00    -0.251 A  
HETATM   19  C   UNL     1     -11.397  11.474  67.580  1.00  0.00    -0.366 A  
HETATM   20  C   UNL     1     -10.440   6.666  68.558  1.00  0.00    -0.246 A  
HETATM   21  C   UNL     1     -11.667  12.800  67.954  1.00  0.00    -0.357 A  
HETATM   22  C   UNL     1     -11.919  12.059  70.214  1.00  0.00    -0.398 A  
HETATM   23  C   UNL     1     -11.951  13.088  69.279  1.00  0.00    -0.331 A  
BRANCH  21  24
HETATM   24  S   UNL     1     -11.610  14.138  66.736  1.00  0.00    -0.410 S  
HETATM   25  O   UNL     1     -12.751  13.886  65.794  1.00  0.00    -0.504 OA 
HETATM   26  C   UNL     1     -10.096  13.600  65.887  1.00  0.00    -0.310 C  
ENDBRANCH  21  24
ENDBRANCH   9  10
ENDBRANCH   8   9
ENDBRANCH   7   8
TORSDOF 4
ENDMDL
MODEL       58
REMARK 921   NORMALIZED FREE ENERGY PREDICTED BY IDOCK:   -5.41 KCAL/MOL
REMARK 922        TOTAL FREE ENERGY PREDICTED BY IDOCK:   -7.45 KCAL/MOL
REMARK 923 INTER-LIGAND FREE ENERGY PREDICTED BY IDOCK:   -6.86 KCAL/MOL
REMARK 924 INTRA-LIGAND FREE ENERGY PREDICTED BY IDOCK:   -0.58 KCAL/MOL
REMARK 927      BINDING AFFINITY PREDICTED BY RF-SCORE:    0.00 PKD
ROOT
HETATM    1  C   UNL     1      -9.724  14.586  66.234  1.00  0.00    -0.309 C  
HETATM    2  N   UNL     1     -10.502  13.429  66.677  1.00  0.00    -0.277 NA 
HETATM    3  C   UNL     1     -11.929  13.749  66.817  1.00  0.00    -0.426 C  
HETATM    4  C   UNL     1     -12.678  13.865  65.489  1.00  0.00    -0.536 C  
HETATM    5  C   UNL     1     -12.449  12.648  64.603  1.00  0.00    -0.538 C  
HETATM    6  C   UNL     1     -10.960  12.345  64.468  1.00  0.00    -0.355 C  
HETATM    7  C   UNL     1     -10.253  12.235  65.829  1.00  0.00    -0.255 C  
ENDROOT
BRANCH   7   8
HETATM    8  C   UNL     1     -10.661  10.976  66.621  1.00  0.00    -0.315 C  
BRANCH   8   9
HETATM    9  C   UNL     1      -9.519  10.197  67.308  1.00  0.00    -0.154 C  
BRANCH   9  10
HETATM   10  N   UNL     1      -9.580   8.716  67.160  1.00  0.00    -0.161 NA 
HETATM   11  C   UNL     1      -9.016   8.118  65.990  1.00  0.00    -0.171 A  
HETATM   12  C   UNL     1      -8.883   6.718  65.863  1.00  0.00    -0.110 A  
HETATM   13  S   UNL     1      -9.447   5.547  67.070  1.00  0.00    -0.139 SA 
HETATM   14  C   UNL     1      -8.278   6.132  64.726  1.00  0.00    -0.112 A  
HETATM   15  C   UNL     1      -7.797   6.908  63.683  1.00  0.00    -0.107 A  
HETATM   16  C   UNL     1     -10.138   6.589  68.324  1.00  0.00    -0.159 A  
HETATM   17  C   UNL     1      -7.947   8.280  63.758  1.00  0.00    -0.149 A  
HETATM   18  C   UNL     1     -10.157   7.995  68.259  1.00  0.00    -0.196 A  
HETATM   19  C   UNL     1     -10.765   8.646  69.358  1.00  0.00    -0.169 A  
HETATM   20  C   UNL     1      -8.558   8.864  64.878  1.00  0.00    -0.198 A  
HETATM   21  C   UNL     1     -11.203   7.971  70.508  1.00  0.00    -0.250 A  
HETATM   22  C   UNL     1     -10.663   5.901  69.439  1.00  0.00    -0.406 A  
HETATM   23  C   UNL     1     -11.171   6.587  70.537  1.00  0.00    -0.401 A  
BRANCH  21  24
HETATM   24  S   UNL     1     -11.772   8.887  71.962  1.00  0.00    -0.347 S  
HETATM   25  O   UNL     1     -11.650   7.940  73.120  1.00  0.00    -0.292 OA 
HETATM   26  C   UNL     1     -13.532   8.947  71.511  1.00  0.00    -0.332 C  
ENDBRANCH  21  24
ENDBRANCH   9  10
ENDBRANCH   8   9
ENDBRANCH   7   8
TORSDOF 4
ENDMDL
MODEL       59
REMARK 921   NORMALIZED FREE ENERGY PREDICTED BY IDOCK:   -5.38 KCAL/MOL
REMARK 922        TOTAL FREE ENERGY PREDICTED BY IDOCK:   -7.41 KCAL/MOL
REMARK 923 INTER-LIGAND FREE ENERGY PREDICTED BY IDOCK:   -6.81 KCAL/MOL
REMARK 924 INTRA-LIGAND FREE ENERGY PREDICTED BY IDOCK:   -0.60 KCAL/MOL
REMARK 927      BINDING AFFINITY PREDICTED BY RF-SCORE:    0.00 PKD
ROOT
HETATM    1  C   UNL     1      -9.165   4.729  65.135  1.00  0.00    -0.145 C  
HETATM    2  N   UNL     1      -9.242   5.642  66.275  1.00  0.00    -0.154 NA 
HETATM    3  C   UNL     1      -9.098   4.935  67.555  1.00  0.00    -0.118 C  
HETATM    4  C   UNL     1      -7.666   4.503  67.875  1.00  0.00    -0.081 C  
HETATM    5  C   UNL     1      -6.685   5.661  67.748  1.00  0.00    -0.058 C  
HETATM    6  C   UNL     1      -6.850   6.370  66.408  1.00  0.00    -0.061 C  
HETATM    7  C   UNL     1      -8.306   6.787  66.134  1.00  0.00    -0.130 C  
ENDROOT
BRANCH   7   8
HETATM    8  C   UNL     1      -8.787   7.932  67.048  1.00  0.00    -0.140 C  
BRANCH   8   9
HETATM    9  C   UNL     1     -10.263   8.357  66.895  1.00  0.00    -0.313 C  
BRANCH   9  10
HETATM   10  N   UNL     1     -10.515   9.823  66.983  1.00  0.00    -0.239 NA 
HETATM   11  C   UNL     1     -10.343  10.622  65.809  1.00  0.00    -0.219 A  
HETATM   12  C   UNL     1     -10.727  11.980  65.773  1.00  0.00    -0.279 A  
HETATM   13  S   UNL     1     -11.389  12.868  67.158  1.00  0.00    -0.324 SA 
HETATM   14  C   UNL     1     -10.603  12.753  64.595  1.00  0.00    -0.371 A  
HETATM   15  C   UNL     1     -10.088  12.212  63.427  1.00  0.00    -0.383 A  
HETATM   16  C   UNL     1     -11.406  11.639  68.432  1.00  0.00    -0.279 A  
HETATM   17  C   UNL     1      -9.664  10.896  63.440  1.00  0.00    -0.392 A  
HETATM   18  C   UNL     1     -10.980  10.309  68.251  1.00  0.00    -0.264 A  
HETATM   19  C   UNL     1     -11.062   9.483  69.397  1.00  0.00    -0.136 A  
HETATM   20  C   UNL     1      -9.775  10.130  64.610  1.00  0.00    -0.377 A  
HETATM   21  C   UNL     1     -11.649   9.894  70.604  1.00  0.00    -0.335 A  
HETATM   22  C   UNL     1     -11.911  12.082  69.673  1.00  0.00    -0.401 A  
HETATM   23  C   UNL     1     -12.055  11.211  70.747  1.00  0.00    -0.458 A  
BRANCH  21  24
HETATM   24  S   UNL     1     -11.914   8.720  71.954  1.00  0.00    -0.387 S  
HETATM   25  O   UNL     1     -11.843   7.355  71.334  1.00  0.00    -0.277 OA 
HETATM   26  C   UNL     1     -13.673   9.085  72.225  1.00  0.00    -0.492 C  
ENDBRANCH  21  24
ENDBRANCH   9  10
ENDBRANCH   8   9
ENDBRANCH   7   8
TORSDOF 4
ENDMDL
MODEL       60
REMARK 921   NORMALIZED FREE ENERGY PREDICTED BY IDOCK:   -5.36 KCAL/MOL
REMARK 922        TOTAL FREE ENERGY PREDICTED BY IDOCK:   -7.39 KCAL/MOL
REMARK 923 INTER-LIGAND FREE ENERGY PREDICTED BY IDOCK:   -6.78 KCAL/MOL
REMARK 924 INTRA-LIGAND FREE ENERGY PREDICTED BY IDOCK:   -0.61 KCAL/MOL
REMARK 927      BINDING AFFINITY PREDICTED BY RF-SCORE:    0.00 PKD
ROOT
HETATM    1  C   UNL     1     -11.336  16.827  71.416  1.00  0.00     0.388 C  
HETATM    2  N   UNL     1     -11.485  15.372  71.432  1.00  0.00    -0.376 NA 
HETATM    3  C   UNL     1     -11.775  14.864  72.780  1.00  0.00    -0.148 C  
HETATM    4  C   UNL     1     -13.210  15.112  73.248  1.00  0.00    -0.567 C  
HETATM    5  C   UNL     1     -14.229  14.630  72.224  1.00  0.00    -0.555 C  
HETATM    6  C   UNL     1     -13.909  15.179  70.837  1.00  0.00    -0.312 C  
HETATM    7  C   UNL     1     -12.457  14.902  70.411  1.00  0.00    -0.350 C  
ENDROOT
BRANCH   7   8
HETATM    8  C   UNL     1     -12.186  13.411  70.124  1.00  0.00    -0.385 C  
BRANCH   8   9
HETATM    9  C   UNL     1     -10.795  13.064  69.554  1.00  0.00     0.197 C  
BRANCH   9  10
HETATM   10  N   UNL     1     -10.800  12.439  68.201  1.00  0.00    -0.212 NA 
HETATM   11  C   UNL     1     -10.784  13.289  67.051  1.00  0.00    -0.260 A  
HETATM   12  C   UNL     1     -10.615  12.772  65.749  1.00  0.00    -0.273 A  
HETATM   13  S   UNL     1     -10.474  11.045  65.369  1.00  0.00    -0.209 SA 
HETATM   14  C   UNL     1     -10.548  13.620  64.618  1.00  0.00    -0.446 A  
HETATM   15  C   UNL     1     -10.657  14.997  64.741  1.00  0.00    -0.319 A  
HETATM   16  C   UNL     1     -10.598  10.289  66.966  1.00  0.00    -0.239 A  
HETATM   17  C   UNL     1     -10.864  15.533  65.997  1.00  0.00    -0.301 A  
HETATM   18  C   UNL     1     -10.755  11.004  68.167  1.00  0.00    -0.205 A  
HETATM   19  C   UNL     1     -10.846  10.215  69.338  1.00  0.00    -0.274 A  
HETATM   20  C   UNL     1     -10.943  14.694  67.119  1.00  0.00    -0.316 A  
HETATM   21  C   UNL     1     -10.659   8.824  69.347  1.00  0.00    -0.209 A  
HETATM   22  C   UNL     1     -10.503   8.881  66.961  1.00  0.00    -0.326 A  
HETATM   23  C   UNL     1     -10.509   8.152  68.145  1.00  0.00    -0.225 A  
BRANCH  21  24
HETATM   24  S   UNL     1     -10.575   7.909  70.905  1.00  0.00    -0.216 S  
HETATM   25  O   UNL     1     -11.284   6.609  70.659  1.00  0.00    -0.273 OA 
HETATM   26  C   UNL     1     -11.718   8.964  71.844  1.00  0.00    -0.369 C  
ENDBRANCH  21  24
ENDBRANCH   9  10
ENDBRANCH   8   9
ENDBRANCH   7   8
TORSDOF 4
ENDMDL
MODEL       61
REMARK 921   NORMALIZED FREE ENERGY PREDICTED BY IDOCK:   -5.33 KCAL/MOL
REMARK 922        TOTAL FREE ENERGY PREDICTED BY IDOCK:   -7.36 KCAL/MOL
REMARK 923 INTER-LIGAND FREE ENERGY PREDICTED BY IDOCK:   -6.66 KCAL/MOL
REMARK 924 INTRA-LIGAND FREE ENERGY PREDICTED BY IDOCK:   -0.69 KCAL/MOL
REMARK 927      BINDING AFFINITY PREDICTED BY RF-SCORE:    0.00 PKD
ROOT
HETATM    1  C   UNL     1     -11.543  16.823  71.472  1.00  0.00     0.327 C  
HETATM    2  N   UNL     1     -11.514  15.363  71.387  1.00  0.00    -0.376 NA 
HETATM    3  C   UNL     1     -11.554  14.735  72.715  1.00  0.00     0.101 C  
HETATM    4  C   UNL     1     -12.930  14.764  73.381  1.00  0.00    -0.550 C  
HETATM    5  C   UNL     1     -14.014  14.222  72.459  1.00  0.00    -0.519 C  
HETATM    6  C   UNL     1     -13.955  14.897  71.093  1.00  0.00    -0.403 C  
HETATM    7  C   UNL     1     -12.553  14.839  70.464  1.00  0.00    -0.359 C  
ENDROOT
BRANCH   7   8
HETATM    8  C   UNL     1     -12.148  13.418  70.023  1.00  0.00    -0.404 C  
BRANCH   8   9
HETATM    9  C   UNL     1     -10.689  13.234  69.555  1.00  0.00     0.263 C  
BRANCH   9  10
HETATM   10  N   UNL     1     -10.526  12.700  68.174  1.00  0.00    -0.224 NA 
HETATM   11  C   UNL     1     -10.492  11.282  67.984  1.00  0.00    -0.188 A  
HETATM   12  C   UNL     1     -10.513  10.706  66.696  1.00  0.00    -0.237 A  
HETATM   13  S   UNL     1     -10.512  11.635  65.185  1.00  0.00    -0.291 SA 
HETATM   14  C   UNL     1     -10.531   9.303  66.512  1.00  0.00    -0.204 A  
HETATM   15  C   UNL     1     -10.519   8.433  67.593  1.00  0.00    -0.307 A  
HETATM   16  C   UNL     1     -10.484  13.309  65.762  1.00  0.00    -0.284 A  
HETATM   17  C   UNL     1     -10.457   8.965  68.867  1.00  0.00    -0.225 A  
HETATM   18  C   UNL     1     -10.479  13.674  67.121  1.00  0.00    -0.264 A  
HETATM   19  C   UNL     1     -10.444  15.066  67.377  1.00  0.00    -0.257 A  
HETATM   20  C   UNL     1     -10.427  10.356  69.052  1.00  0.00    -0.240 A  
HETATM   21  C   UNL     1     -10.545  16.037  66.368  1.00  0.00    -0.284 A  
HETATM   22  C   UNL     1     -10.492  14.284  64.742  1.00  0.00    -0.421 A  
HETATM   23  C   UNL     1     -10.546  15.641  65.041  1.00  0.00    -0.422 A  
BRANCH  21  24
HETATM   24  S   UNL     1     -10.710  17.791  66.784  1.00  0.00    -0.038 S  
HETATM   25  O   UNL     1      -9.754  18.520  65.885  1.00  0.00    -0.499 OA 
HETATM   26  C   UNL     1      -9.932  17.705  68.424  1.00  0.00    -0.356 C  
ENDBRANCH  21  24
ENDBRANCH   9  10
ENDBRANCH   8   9
ENDBRANCH   7   8
TORSDOF 4
ENDMDL
MODEL       62
REMARK 921   NORMALIZED FREE ENERGY PREDICTED BY IDOCK:   -5.29 KCAL/MOL
REMARK 922        TOTAL FREE ENERGY PREDICTED BY IDOCK:   -7.30 KCAL/MOL
REMARK 923 INTER-LIGAND FREE ENERGY PREDICTED BY IDOCK:   -6.95 KCAL/MOL
REMARK 924 INTRA-LIGAND FREE ENERGY PREDICTED BY IDOCK:   -0.35 KCAL/MOL
REMARK 927      BINDING AFFINITY PREDICTED BY RF-SCORE:    0.00 PKD
ROOT
HETATM    1  C   UNL     1     -12.638  12.250  64.102  1.00  0.00    -0.394 C  
HETATM    2  N   UNL     1     -11.336  12.168  64.765  1.00  0.00    -0.319 NA 
HETATM    3  C   UNL     1     -10.443  13.260  64.359  1.00  0.00    -0.404 C  
HETATM    4  C   UNL     1     -10.783  14.614  64.984  1.00  0.00    -0.448 C  
HETATM    5  C   UNL     1     -10.918  14.518  66.498  1.00  0.00    -0.321 C  
HETATM    6  C   UNL     1     -11.857  13.384  66.890  1.00  0.00    -0.453 C  
HETATM    7  C   UNL     1     -11.472  12.044  66.240  1.00  0.00    -0.345 C  
ENDROOT
BRANCH   7   8
HETATM    8  C   UNL     1     -10.165  11.452  66.806  1.00  0.00    -0.258 C  
BRANCH   8   9
HETATM    9  C   UNL     1      -9.939  11.615  68.323  1.00  0.00    -0.201 C  
BRANCH   9  10
HETATM   10  N   UNL     1     -10.120  10.376  69.131  1.00  0.00    -0.211 NA 
HETATM   11  C   UNL     1     -11.177  10.331  70.094  1.00  0.00    -0.318 A  
HETATM   12  C   UNL     1     -11.515   9.139  70.769  1.00  0.00    -0.282 A  
HETATM   13  S   UNL     1     -10.655   7.600  70.571  1.00  0.00    -0.230 SA 
HETATM   14  C   UNL     1     -12.594   9.086  71.683  1.00  0.00    -0.414 A  
HETATM   15  C   UNL     1     -13.359  10.208  71.962  1.00  0.00    -0.492 A  
HETATM   16  C   UNL     1      -9.397   8.010  69.394  1.00  0.00    -0.155 A  
HETATM   17  C   UNL     1     -13.029  11.401  71.349  1.00  0.00    -0.468 A  
HETATM   18  C   UNL     1      -9.238   9.286  68.822  1.00  0.00    -0.136 A  
HETATM   19  C   UNL     1      -8.165   9.414  67.909  1.00  0.00    -0.115 A  
HETATM   20  C   UNL     1     -11.952  11.460  70.451  1.00  0.00    -0.465 A  
HETATM   21  C   UNL     1      -7.383   8.330  67.482  1.00  0.00    -0.093 A  
HETATM   22  C   UNL     1      -8.552   6.938  69.036  1.00  0.00    -0.128 A  
HETATM   23  C   UNL     1      -7.565   7.088  68.068  1.00  0.00    -0.111 A  
BRANCH  21  24
HETATM   24  S   UNL     1      -6.170   8.527  66.154  1.00  0.00    -0.053 S  
HETATM   25  O   UNL     1      -5.600   9.906  66.317  1.00  0.00    -0.049 OA 
HETATM   26  C   UNL     1      -7.356   8.605  64.779  1.00  0.00    -0.091 C  
ENDBRANCH  21  24
ENDBRANCH   9  10
ENDBRANCH   8   9
ENDBRANCH   7   8
TORSDOF 4
ENDMDL
MODEL       63
REMARK 921   NORMALIZED FREE ENERGY PREDICTED BY IDOCK:   -5.24 KCAL/MOL
REMARK 922        TOTAL FREE ENERGY PREDICTED BY IDOCK:   -7.24 KCAL/MOL
REMARK 923 INTER-LIGAND FREE ENERGY PREDICTED BY IDOCK:   -6.43 KCAL/MOL
REMARK 924 INTRA-LIGAND FREE ENERGY PREDICTED BY IDOCK:   -0.81 KCAL/MOL
REMARK 927      BINDING AFFINITY PREDICTED BY RF-SCORE:    0.00 PKD
ROOT
HETATM    1  C   UNL     1     -12.221  10.343  70.546  1.00  0.00    -0.323 C  
HETATM    2  N   UNL     1     -10.767  10.183  70.544  1.00  0.00    -0.282 NA 
HETATM    3  C   UNL     1     -10.333   9.092  71.426  1.00  0.00    -0.326 C  
HETATM    4  C   UNL     1     -10.583   7.693  70.862  1.00  0.00    -0.219 C  
HETATM    5  C   UNL     1     -10.026   7.544  69.453  1.00  0.00    -0.178 C  
HETATM    6  C   UNL     1     -10.500   8.684  68.557  1.00  0.00    -0.209 C  
HETATM    7  C   UNL     1     -10.223  10.069  69.166  1.00  0.00    -0.210 C  
ENDROOT
BRANCH   7   8
HETATM    8  C   UNL     1      -8.723  10.425  69.198  1.00  0.00    -0.173 C  
BRANCH   8   9
HETATM    9  C   UNL     1      -8.262  11.543  68.239  1.00  0.00    -0.152 C  
BRANCH   9  10
HETATM   10  N   UNL     1      -8.958  11.580  66.922  1.00  0.00    -0.173 NA 
HETATM   11  C   UNL     1      -8.562  10.652  65.909  1.00  0.00    -0.172 A  
HETATM   12  C   UNL     1      -9.287  10.514  64.706  1.00  0.00    -0.238 A  
HETATM   13  S   UNL     1     -10.701  11.492  64.272  1.00  0.00    -0.369 SA 
HETATM   14  C   UNL     1      -8.922   9.558  63.727  1.00  0.00    -0.211 A  
HETATM   15  C   UNL     1      -7.829   8.723  63.905  1.00  0.00    -0.141 A  
HETATM   16  C   UNL     1     -10.876  12.559  65.675  1.00  0.00    -0.277 A  
HETATM   17  C   UNL     1      -7.074   8.861  65.055  1.00  0.00    -0.083 A  
HETATM   18  C   UNL     1     -10.034  12.523  66.802  1.00  0.00    -0.228 A  
HETATM   19  C   UNL     1     -10.332  13.466  67.815  1.00  0.00    -0.241 A  
HETATM   20  C   UNL     1      -7.426   9.815  66.021  1.00  0.00    -0.102 A  
HETATM   21  C   UNL     1     -11.464  14.296  67.785  1.00  0.00    -0.329 A  
HETATM   22  C   UNL     1     -11.961  13.458  65.601  1.00  0.00    -0.439 A  
HETATM   23  C   UNL     1     -12.270  14.306  66.658  1.00  0.00    -0.411 A  
BRANCH  21  24
HETATM   24  S   UNL     1     -11.900  15.322  69.211  1.00  0.00    -0.315 S  
HETATM   25  O   UNL     1     -10.603  15.855  69.747  1.00  0.00    -0.274 OA 
HETATM   26  C   UNL     1     -12.409  13.967  70.311  1.00  0.00    -0.358 C  
ENDBRANCH  21  24
ENDBRANCH   9  10
ENDBRANCH   8   9
ENDBRANCH   7   8
TORSDOF 4
ENDMDL
MODEL       64
REMARK 921   NORMALIZED FREE ENERGY PREDICTED BY IDOCK:   -5.23 KCAL/MOL
REMARK 922        TOTAL FREE ENERGY PREDICTED BY IDOCK:   -7.22 KCAL/MOL
REMARK 923 INTER-LIGAND FREE ENERGY PREDICTED BY IDOCK:   -6.52 KCAL/MOL
REMARK 924 INTRA-LIGAND FREE ENERGY PREDICTED BY IDOCK:   -0.70 KCAL/MOL
REMARK 927      BINDING AFFINITY PREDICTED BY RF-SCORE:    0.00 PKD
ROOT
HETATM    1  C   UNL     1     -11.655  15.294  67.685  1.00  0.00    -0.239 C  
HETATM    2  N   UNL     1     -11.817  13.897  67.282  1.00  0.00    -0.386 NA 
HETATM    3  C   UNL     1     -12.579  13.772  66.032  1.00  0.00    -0.408 C  
HETATM    4  C   UNL     1     -11.788  14.142  64.776  1.00  0.00    -0.425 C  
HETATM    5  C   UNL     1     -10.456  13.406  64.711  1.00  0.00    -0.419 C  
HETATM    6  C   UNL     1      -9.684  13.561  66.017  1.00  0.00    -0.233 C  
HETATM    7  C   UNL     1     -10.520  13.174  67.249  1.00  0.00    -0.243 C  
ENDROOT
BRANCH   7   8
HETATM    8  C   UNL     1     -10.799  11.660  67.337  1.00  0.00    -0.298 C  
BRANCH   8   9
HETATM    9  C   UNL     1      -9.674  10.789  67.934  1.00  0.00    -0.167 C  
BRANCH   9  10
HETATM   10  N   UNL     1      -9.599   9.397  67.408  1.00  0.00    -0.141 NA 
HETATM   11  C   UNL     1      -8.918   9.164  66.172  1.00  0.00    -0.173 A  
HETATM   12  C   UNL     1      -8.660   7.859  65.702  1.00  0.00    -0.138 A  
HETATM   13  S   UNL     1      -9.191   6.378  66.521  1.00  0.00    -0.153 SA 
HETATM   14  C   UNL     1      -7.941   7.631  64.504  1.00  0.00    -0.130 A  
HETATM   15  C   UNL     1      -7.468   8.684  63.735  1.00  0.00    -0.116 A  
HETATM   16  C   UNL     1     -10.040   7.007  67.942  1.00  0.00    -0.169 A  
HETATM   17  C   UNL     1      -7.740   9.975  64.146  1.00  0.00    -0.144 A  
HETATM   18  C   UNL     1     -10.176   8.376  68.237  1.00  0.00    -0.205 A  
HETATM   19  C   UNL     1     -10.900   8.676  69.416  1.00  0.00    -0.108 A  
HETATM   20  C   UNL     1      -8.462  10.204  65.327  1.00  0.00    -0.165 A  
HETATM   21  C   UNL     1     -11.345   7.696  70.317  1.00  0.00    -0.181 A  
HETATM   22  C   UNL     1     -10.568   6.018  68.799  1.00  0.00    -0.345 A  
HETATM   23  C   UNL     1     -11.197   6.358  69.993  1.00  0.00    -0.475 A  
BRANCH  21  24
HETATM   24  S   UNL     1     -12.074   8.160  71.907  1.00  0.00    -0.343 S  
HETATM   25  O   UNL     1     -11.985   9.657  71.980  1.00  0.00    -0.332 OA 
HETATM   26  C   UNL     1     -10.747   7.501  72.960  1.00  0.00    -0.384 C  
ENDBRANCH  21  24
ENDBRANCH   9  10
ENDBRANCH   8   9
ENDBRANCH   7   8
TORSDOF 4
ENDMDL
MODEL       65
REMARK 921   NORMALIZED FREE ENERGY PREDICTED BY IDOCK:   -5.20 KCAL/MOL
REMARK 922        TOTAL FREE ENERGY PREDICTED BY IDOCK:   -7.19 KCAL/MOL
REMARK 923 INTER-LIGAND FREE ENERGY PREDICTED BY IDOCK:   -6.46 KCAL/MOL
REMARK 924 INTRA-LIGAND FREE ENERGY PREDICTED BY IDOCK:   -0.73 KCAL/MOL
REMARK 927      BINDING AFFINITY PREDICTED BY RF-SCORE:    0.00 PKD
ROOT
HETATM    1  C   UNL     1      -6.946  18.051  65.717  1.00  0.00    -0.231 C  
HETATM    2  N   UNL     1      -7.017  17.004  66.736  1.00  0.00    -0.209 NA 
HETATM    3  C   UNL     1      -6.724  17.524  68.078  1.00  0.00    -0.181 C  
HETATM    4  C   UNL     1      -7.862  18.337  68.697  1.00  0.00    -0.313 C  
HETATM    5  C   UNL     1      -9.184  17.583  68.652  1.00  0.00    -0.267 C  
HETATM    6  C   UNL     1      -9.467  17.064  67.247  1.00  0.00    -0.240 C  
HETATM    7  C   UNL     1      -8.296  16.250  66.669  1.00  0.00    -0.280 C  
ENDROOT
BRANCH   7   8
HETATM    8  C   UNL     1      -8.103  14.891  67.371  1.00  0.00    -0.218 C  
BRANCH   8   9
HETATM    9  C   UNL     1      -9.384  14.083  67.667  1.00  0.00    -0.203 C  
BRANCH   9  10
HETATM   10  N   UNL     1      -9.624  12.918  66.771  1.00  0.00    -0.240 NA 
HETATM   11  C   UNL     1     -10.513  13.076  65.661  1.00  0.00    -0.279 A  
HETATM   12  C   UNL     1     -10.656  12.076  64.676  1.00  0.00    -0.307 A  
HETATM   13  S   UNL     1      -9.830  10.506  64.719  1.00  0.00    -0.343 SA 
HETATM   14  C   UNL     1     -11.497  12.256  63.553  1.00  0.00    -0.558 A  
HETATM   15  C   UNL     1     -12.226  13.423  63.377  1.00  0.00    -0.419 A  
HETATM   16  C   UNL     1      -8.889  10.607  66.215  1.00  0.00    -0.161 A  
HETATM   17  C   UNL     1     -12.141  14.406  64.344  1.00  0.00    -0.491 A  
HETATM   18  C   UNL     1      -8.878  11.728  67.067  1.00  0.00    -0.182 A  
HETATM   19  C   UNL     1      -8.069  11.608  68.221  1.00  0.00    -0.150 A  
HETATM   20  C   UNL     1     -11.317  14.225  65.465  1.00  0.00    -0.325 A  
HETATM   21  C   UNL     1      -7.219  10.516  68.456  1.00  0.00    -0.085 A  
HETATM   22  C   UNL     1      -8.105   9.468  66.498  1.00  0.00    -0.112 A  
HETATM   23  C   UNL     1      -7.256   9.429  67.598  1.00  0.00    -0.083 A  
BRANCH  21  24
HETATM   24  S   UNL     1      -6.054  10.528  69.841  1.00  0.00    -0.094 S  
HETATM   25  O   UNL     1      -6.819  10.018  71.028  1.00  0.00    -0.340 OA 
HETATM   26  C   UNL     1      -5.942  12.333  70.021  1.00  0.00    -0.153 C  
ENDBRANCH  21  24
ENDBRANCH   9  10
ENDBRANCH   8   9
ENDBRANCH   7   8
TORSDOF 4
ENDMDL
MODEL       66
REMARK 921   NORMALIZED FREE ENERGY PREDICTED BY IDOCK:   -5.20 KCAL/MOL
REMARK 922        TOTAL FREE ENERGY PREDICTED BY IDOCK:   -7.19 KCAL/MOL
REMARK 923 INTER-LIGAND FREE ENERGY PREDICTED BY IDOCK:   -6.43 KCAL/MOL
REMARK 924 INTRA-LIGAND FREE ENERGY PREDICTED BY IDOCK:   -0.76 KCAL/MOL
REMARK 927      BINDING AFFINITY PREDICTED BY RF-SCORE:    0.00 PKD
ROOT
HETATM    1  C   UNL     1      -7.324  13.262  67.545  1.00  0.00    -0.152 C  
HETATM    2  N   UNL     1      -8.102  12.093  67.135  1.00  0.00    -0.174 NA 
HETATM    3  C   UNL     1      -7.304  11.157  66.331  1.00  0.00    -0.099 C  
HETATM    4  C   UNL     1      -6.306  10.328  67.140  1.00  0.00    -0.067 C  
HETATM    5  C   UNL     1      -6.972   9.640  68.324  1.00  0.00    -0.073 C  
HETATM    6  C   UNL     1      -7.784  10.635  69.146  1.00  0.00    -0.138 C  
HETATM    7  C   UNL     1      -8.775  11.442  68.289  1.00  0.00    -0.160 C  
ENDROOT
BRANCH   7   8
HETATM    8  C   UNL     1      -9.945  10.589  67.758  1.00  0.00    -0.198 C  
BRANCH   8   9
HETATM    9  C   UNL     1     -11.271  11.333  67.493  1.00  0.00    -0.291 C  
BRANCH   9  10
HETATM   10  N   UNL     1     -11.787  12.141  68.633  1.00  0.00    -0.318 NA 
HETATM   11  C   UNL     1     -12.289  11.461  69.787  1.00  0.00    -0.184 A  
HETATM   12  C   UNL     1     -12.632  12.156  70.967  1.00  0.00    -0.263 A  
HETATM   13  S   UNL     1     -12.555  13.918  71.147  1.00  0.00    -0.376 SA 
HETATM   14  C   UNL     1     -13.080  11.474  72.124  1.00  0.00    -0.286 A  
HETATM   15  C   UNL     1     -13.211  10.094  72.143  1.00  0.00    -0.463 A  
HETATM   16  C   UNL     1     -11.977  14.443  69.558  1.00  0.00    -0.330 A  
HETATM   17  C   UNL     1     -12.922   9.387  70.991  1.00  0.00    -0.227 A  
HETATM   18  C   UNL     1     -11.675  13.566  68.500  1.00  0.00    -0.357 A  
HETATM   19  C   UNL     1     -11.236  14.184  67.304  1.00  0.00    -0.330 A  
HETATM   20  C   UNL     1     -12.489  10.061  69.839  1.00  0.00     0.174 A  
HETATM   21  C   UNL     1     -10.980  15.560  67.197  1.00  0.00    -0.295 A  
HETATM   22  C   UNL     1     -11.808  15.838  69.423  1.00  0.00    -0.361 A  
HETATM   23  C   UNL     1     -11.290  16.394  68.258  1.00  0.00    -0.241 A  
BRANCH  21  24
HETATM   24  S   UNL     1     -10.217  16.248  65.707  1.00  0.00    -0.351 S  
HETATM   25  O   UNL     1     -10.493  17.723  65.746  1.00  0.00    -0.556 OA 
HETATM   26  C   UNL     1     -11.377  15.524  64.510  1.00  0.00    -0.314 C  
ENDBRANCH  21  24
ENDBRANCH   9  10
ENDBRANCH   8   9
ENDBRANCH   7   8
TORSDOF 4
ENDMDL
MODEL       67
REMARK 921   NORMALIZED FREE ENERGY PREDICTED BY IDOCK:   -5.19 KCAL/MOL
REMARK 922        TOTAL FREE ENERGY PREDICTED BY IDOCK:   -7.18 KCAL/MOL
REMARK 923 INTER-LIGAND FREE ENERGY PREDICTED BY IDOCK:   -6.47 KCAL/MOL
REMARK 924 INTRA-LIGAND FREE ENERGY PREDICTED BY IDOCK:   -0.71 KCAL/MOL
REMARK 927      BINDING AFFINITY PREDICTED BY RF-SCORE:    0.00 PKD
ROOT
HETATM    1  C   UNL     1      -6.883  12.101  67.354  1.00  0.00    -0.147 C  
HETATM    2  N   UNL     1      -7.380  10.981  66.554  1.00  0.00    -0.144 NA 
HETATM    3  C   UNL     1      -6.333  10.415  65.692  1.00  0.00    -0.126 C  
HETATM    4  C   UNL     1      -5.309   9.555  66.433  1.00  0.00    -0.044 C  
HETATM    5  C   UNL     1      -5.980   8.491  67.291  1.00  0.00    -0.051 C  
HETATM    6  C   UNL     1      -7.054   9.108  68.181  1.00  0.00    -0.078 C  
HETATM    7  C   UNL     1      -8.061   9.960  67.390  1.00  0.00    -0.113 C  
ENDROOT
BRANCH   7   8
HETATM    8  C   UNL     1      -8.983   9.119  66.485  1.00  0.00    -0.178 C  
BRANCH   8   9
HETATM    9  C   UNL     1     -10.500   9.362  66.635  1.00  0.00    -0.168 C  
BRANCH   9  10
HETATM   10  N   UNL     1     -10.879  10.680  67.216  1.00  0.00    -0.286 NA 
HETATM   11  C   UNL     1     -10.911  11.825  66.360  1.00  0.00    -0.282 A  
HETATM   12  C   UNL     1     -11.424  13.065  66.799  1.00  0.00    -0.345 A  
HETATM   13  S   UNL     1     -12.014  13.377  68.442  1.00  0.00    -0.259 SA 
HETATM   14  C   UNL     1     -11.501  14.183  65.934  1.00  0.00    -0.338 A  
HETATM   15  C   UNL     1     -11.066  14.109  64.620  1.00  0.00    -0.378 A  
HETATM   16  C   UNL     1     -11.777  11.815  69.240  1.00  0.00    -0.335 A  
HETATM   17  C   UNL     1     -10.521  12.922  64.170  1.00  0.00    -0.429 A  
HETATM   18  C   UNL     1     -11.250  10.676  68.603  1.00  0.00    -0.278 A  
HETATM   19  C   UNL     1     -11.129   9.524  69.417  1.00  0.00    -0.136 A  
HETATM   20  C   UNL     1     -10.431  11.816  65.029  1.00  0.00    -0.332 A  
HETATM   21  C   UNL     1     -11.619   9.454  70.731  1.00  0.00    -0.298 A  
HETATM   22  C   UNL     1     -12.186  11.774  70.590  1.00  0.00    -0.443 A  
HETATM   23  C   UNL     1     -12.130  10.595  71.327  1.00  0.00    -0.401 A  
BRANCH  21  24
HETATM   24  S   UNL     1     -11.624   7.888  71.636  1.00  0.00    -0.285 S  
HETATM   25  O   UNL     1     -10.492   7.975  72.618  1.00  0.00    -0.289 OA 
HETATM   26  C   UNL     1     -11.055   6.838  70.266  1.00  0.00    -0.310 C  
ENDBRANCH  21  24
ENDBRANCH   9  10
ENDBRANCH   8   9
ENDBRANCH   7   8
TORSDOF 4
ENDMDL
MODEL       68
REMARK 921   NORMALIZED FREE ENERGY PREDICTED BY IDOCK:   -5.18 KCAL/MOL
REMARK 922        TOTAL FREE ENERGY PREDICTED BY IDOCK:   -7.17 KCAL/MOL
REMARK 923 INTER-LIGAND FREE ENERGY PREDICTED BY IDOCK:   -6.62 KCAL/MOL
REMARK 924 INTRA-LIGAND FREE ENERGY PREDICTED BY IDOCK:   -0.55 KCAL/MOL
REMARK 927      BINDING AFFINITY PREDICTED BY RF-SCORE:    0.00 PKD
ROOT
HETATM    1  C   UNL     1     -10.147   5.641  70.433  1.00  0.00    -0.219 C  
HETATM    2  N   UNL     1     -10.708   6.870  69.872  1.00  0.00    -0.234 NA 
HETATM    3  C   UNL     1     -11.907   7.307  70.598  1.00  0.00    -0.252 C  
HETATM    4  C   UNL     1     -11.620   7.945  71.958  1.00  0.00    -0.357 C  
HETATM    5  C   UNL     1     -10.580   9.053  71.852  1.00  0.00    -0.388 C  
HETATM    6  C   UNL     1      -9.343   8.569  71.104  1.00  0.00    -0.249 C  
HETATM    7  C   UNL     1      -9.684   7.939  69.742  1.00  0.00    -0.176 C  
ENDROOT
BRANCH   7   8
HETATM    8  C   UNL     1     -10.177   8.969  68.707  1.00  0.00    -0.226 C  
BRANCH   8   9
HETATM    9  C   UNL     1     -10.659   8.406  67.354  1.00  0.00    -0.243 C  
BRANCH   9  10
HETATM   10  N   UNL     1      -9.697   8.549  66.225  1.00  0.00    -0.246 NA 
HETATM   11  C   UNL     1      -8.761   7.496  65.982  1.00  0.00    -0.158 A  
HETATM   12  C   UNL     1      -7.940   7.484  64.834  1.00  0.00    -0.132 A  
HETATM   13  S   UNL     1      -7.909   8.771  63.613  1.00  0.00    -0.152 SA 
HETATM   14  C   UNL     1      -7.051   6.415  64.570  1.00  0.00    -0.057 A  
HETATM   15  C   UNL     1      -6.942   5.337  65.435  1.00  0.00    -0.065 A  
HETATM   16  C   UNL     1      -9.102   9.921  64.237  1.00  0.00    -0.253 A  
HETATM   17  C   UNL     1      -7.703   5.337  66.589  1.00  0.00    -0.096 A  
HETATM   18  C   UNL     1      -9.837   9.731  65.422  1.00  0.00    -0.295 A  
HETATM   19  C   UNL     1     -10.734  10.773  65.756  1.00  0.00    -0.141 A  
HETATM   20  C   UNL     1      -8.576   6.401  66.859  1.00  0.00    -0.110 A  
HETATM   21  C   UNL     1     -10.994  11.865  64.913  1.00  0.00    -0.313 A  
HETATM   22  C   UNL     1      -9.294  11.066  63.433  1.00  0.00    -0.296 A  
HETATM   23  C   UNL     1     -10.251  12.022  63.755  1.00  0.00    -0.447 A  
BRANCH  21  24
HETATM   24  S   UNL     1     -12.309  13.045  65.304  1.00  0.00    -0.491 S  
HETATM   25  O   UNL     1     -12.547  13.830  64.046  1.00  0.00    -0.685 OA 
HETATM   26  C   UNL     1     -11.334  14.106  66.411  1.00  0.00    -0.338 C  
ENDBRANCH  21  24
ENDBRANCH   9  10
ENDBRANCH   8   9
ENDBRANCH   7   8
TORSDOF 4
ENDMDL
MODEL       69
REMARK 921   NORMALIZED FREE ENERGY PREDICTED BY IDOCK:   -5.18 KCAL/MOL
REMARK 922        TOTAL FREE ENERGY PREDICTED BY IDOCK:   -7.16 KCAL/MOL
REMARK 923 INTER-LIGAND FREE ENERGY PREDICTED BY IDOCK:   -6.51 KCAL/MOL
REMARK 924 INTRA-LIGAND FREE ENERGY PREDICTED BY IDOCK:   -0.66 KCAL/MOL
REMARK 927      BINDING AFFINITY PREDICTED BY RF-SCORE:    0.00 PKD
ROOT
HETATM    1  C   UNL     1     -10.032   4.918  66.808  1.00  0.00    -0.224 C  
HETATM    2  N   UNL     1      -9.930   6.243  67.420  1.00  0.00    -0.128 NA 
HETATM    3  C   UNL     1      -9.815   6.164  68.883  1.00  0.00    -0.140 C  
HETATM    4  C   UNL     1      -8.438   5.722  69.380  1.00  0.00    -0.112 C  
HETATM    5  C   UNL     1      -7.322   6.554  68.763  1.00  0.00    -0.087 C  
HETATM    6  C   UNL     1      -7.460   6.611  67.246  1.00  0.00    -0.092 C  
HETATM    7  C   UNL     1      -8.860   7.063  66.796  1.00  0.00    -0.126 C  
ENDROOT
BRANCH   7   8
HETATM    8  C   UNL     1      -9.141   8.549  67.097  1.00  0.00    -0.164 C  
BRANCH   8   9
HETATM    9  C   UNL     1     -10.575   9.047  66.821  1.00  0.00    -0.131 C  
BRANCH   9  10
HETATM   10  N   UNL     1     -10.862  10.440  67.264  1.00  0.00    -0.279 NA 
HETATM   11  C   UNL     1     -10.768  11.499  66.308  1.00  0.00    -0.272 A  
HETATM   12  C   UNL     1     -11.190  12.811  66.610  1.00  0.00    -0.301 A  
HETATM   13  S   UNL     1     -11.808  13.323  68.192  1.00  0.00    -0.326 SA 
HETATM   14  C   UNL     1     -11.143  13.845  65.645  1.00  0.00    -0.298 A  
HETATM   15  C   UNL     1     -10.671  13.614  64.362  1.00  0.00    -0.369 A  
HETATM   16  C   UNL     1     -11.730  11.828  69.138  1.00  0.00    -0.325 A  
HETATM   17  C   UNL     1     -10.212  12.350  64.045  1.00  0.00    -0.401 A  
HETATM   18  C   UNL     1     -11.279  10.596  68.629  1.00  0.00    -0.278 A  
HETATM   19  C   UNL     1     -11.283   9.520  69.549  1.00  0.00    -0.105 A  
HETATM   20  C   UNL     1     -10.246  11.325  65.004  1.00  0.00    -0.339 A  
HETATM   21  C   UNL     1     -11.822   9.613  70.841  1.00  0.00    -0.323 A  
HETATM   22  C   UNL     1     -12.187  11.947  70.468  1.00  0.00    -0.426 A  
HETATM   23  C   UNL     1     -12.256  10.842  71.310  1.00  0.00    -0.395 A  
BRANCH  21  24
HETATM   24  S   UNL     1     -11.990   8.144  71.884  1.00  0.00    -0.343 S  
HETATM   25  O   UNL     1     -12.929   8.528  72.991  1.00  0.00    -0.194 OA 
HETATM   26  C   UNL     1     -10.312   8.174  72.582  1.00  0.00    -0.328 C  
ENDBRANCH  21  24
ENDBRANCH   9  10
ENDBRANCH   8   9
ENDBRANCH   7   8
TORSDOF 4
ENDMDL
MODEL       70
REMARK 921   NORMALIZED FREE ENERGY PREDICTED BY IDOCK:   -5.16 KCAL/MOL
REMARK 922        TOTAL FREE ENERGY PREDICTED BY IDOCK:   -7.15 KCAL/MOL
REMARK 923 INTER-LIGAND FREE ENERGY PREDICTED BY IDOCK:   -6.44 KCAL/MOL
REMARK 924 INTRA-LIGAND FREE ENERGY PREDICTED BY IDOCK:   -0.70 KCAL/MOL
REMARK 927      BINDING AFFINITY PREDICTED BY RF-SCORE:    0.00 PKD
ROOT
HETATM    1  C   UNL     1     -12.220  15.029  64.345  1.00  0.00    -0.337 C  
HETATM    2  N   UNL     1     -12.212  13.818  65.165  1.00  0.00    -0.406 NA 
HETATM    3  C   UNL     1     -13.022  12.747  64.570  1.00  0.00    -0.123 C  
HETATM    4  C   UNL     1     -12.367  12.056  63.373  1.00  0.00    -0.635 C  
HETATM    5  C   UNL     1     -10.952  11.592  63.695  1.00  0.00    -0.482 C  
HETATM    6  C   UNL     1     -10.132  12.725  64.302  1.00  0.00    -0.277 C  
HETATM    7  C   UNL     1     -10.832  13.385  65.503  1.00  0.00    -0.289 C  
ENDROOT
BRANCH   7   8
HETATM    8  C   UNL     1     -10.893  12.470  66.743  1.00  0.00    -0.281 C  
BRANCH   8   9
HETATM    9  C   UNL     1     -10.468  13.104  68.084  1.00  0.00    -0.248 C  
BRANCH   9  10
HETATM   10  N   UNL     1      -9.022  13.441  68.200  1.00  0.00    -0.185 NA 
HETATM   11  C   UNL     1      -8.086  12.384  68.426  1.00  0.00    -0.143 A  
HETATM   12  C   UNL     1      -6.692  12.603  68.376  1.00  0.00    -0.082 A  
HETATM   13  S   UNL     1      -5.939  14.186  68.104  1.00  0.00    -0.145 SA 
HETATM   14  C   UNL     1      -5.769  11.545  68.549  1.00  0.00    -0.042 A  
HETATM   15  C   UNL     1      -6.195  10.247  68.786  1.00  0.00    -0.047 A  
HETATM   16  C   UNL     1      -7.340  15.255  67.936  1.00  0.00    -0.141 A  
HETATM   17  C   UNL     1      -7.552  10.005  68.882  1.00  0.00    -0.086 A  
HETATM   18  C   UNL     1      -8.677  14.821  68.009  1.00  0.00    -0.168 A  
HETATM   19  C   UNL     1      -9.655  15.833  67.860  1.00  0.00    -0.214 A  
HETATM   20  C   UNL     1      -8.470  11.054  68.723  1.00  0.00    -0.144 A  
HETATM   21  C   UNL     1      -9.345  17.161  67.527  1.00  0.00    -0.238 A  
HETATM   22  C   UNL     1      -7.024  16.609  67.693  1.00  0.00    -0.160 A  
HETATM   23  C   UNL     1      -8.018  17.554  67.465  1.00  0.00    -0.210 A  
BRANCH  21  24
HETATM   24  S   UNL     1     -10.653  18.351  67.142  1.00  0.00    -0.341 S  
HETATM   25  O   UNL     1     -10.643  18.506  65.648  1.00  0.00    -0.616 OA 
HETATM   26  C   UNL     1      -9.830  19.817  67.831  1.00  0.00    -0.404 C  
ENDBRANCH  21  24
ENDBRANCH   9  10
ENDBRANCH   8   9
ENDBRANCH   7   8
TORSDOF 4
ENDMDL
MODEL       71
REMARK 921   NORMALIZED FREE ENERGY PREDICTED BY IDOCK:   -5.14 KCAL/MOL
REMARK 922        TOTAL FREE ENERGY PREDICTED BY IDOCK:   -7.11 KCAL/MOL
REMARK 923 INTER-LIGAND FREE ENERGY PREDICTED BY IDOCK:   -6.38 KCAL/MOL
REMARK 924 INTRA-LIGAND FREE ENERGY PREDICTED BY IDOCK:   -0.73 KCAL/MOL
REMARK 927      BINDING AFFINITY PREDICTED BY RF-SCORE:    0.00 PKD
ROOT
HETATM    1  C   UNL     1     -12.370  14.197  66.148  1.00  0.00    -0.436 C  
HETATM    2  N   UNL     1     -11.297  13.320  66.617  1.00  0.00    -0.310 NA 
HETATM    3  C   UNL     1      -9.975  13.789  66.180  1.00  0.00    -0.308 C  
HETATM    4  C   UNL     1      -9.452  15.001  66.953  1.00  0.00    -0.252 C  
HETATM    5  C   UNL     1      -9.511  14.778  68.458  1.00  0.00    -0.214 C  
HETATM    6  C   UNL     1     -10.896  14.302  68.885  1.00  0.00    -0.272 C  
HETATM    7  C   UNL     1     -11.375  13.081  68.081  1.00  0.00    -0.294 C  
ENDROOT
BRANCH   7   8
HETATM    8  C   UNL     1     -10.590  11.796  68.413  1.00  0.00    -0.239 C  
BRANCH   8   9
HETATM    9  C   UNL     1     -11.241  10.464  67.985  1.00  0.00    -0.272 C  
BRANCH   9  10
HETATM   10  N   UNL     1     -10.290   9.379  67.614  1.00  0.00    -0.231 NA 
HETATM   11  C   UNL     1      -9.748   9.362  66.291  1.00  0.00    -0.264 A  
HETATM   12  C   UNL     1      -8.716   8.472  65.923  1.00  0.00    -0.174 A  
HETATM   13  S   UNL     1      -8.023   7.245  67.001  1.00  0.00    -0.110 SA 
HETATM   14  C   UNL     1      -8.147   8.492  64.628  1.00  0.00    -0.153 A  
HETATM   15  C   UNL     1      -8.587   9.382  63.660  1.00  0.00    -0.220 A  
HETATM   16  C   UNL     1      -8.940   7.485  68.497  1.00  0.00    -0.128 A  
HETATM   17  C   UNL     1      -9.624  10.239  63.974  1.00  0.00    -0.365 A  
HETATM   18  C   UNL     1      -9.941   8.460  68.660  1.00  0.00    -0.184 A  
HETATM   19  C   UNL     1     -10.565   8.484  69.930  1.00  0.00    -0.228 A  
HETATM   20  C   UNL     1     -10.199  10.213  65.254  1.00  0.00    -0.261 A  
HETATM   21  C   UNL     1     -10.142   7.696  71.012  1.00  0.00    -0.189 A  
HETATM   22  C   UNL     1      -8.575   6.626  69.556  1.00  0.00    -0.132 A  
HETATM   23  C   UNL     1      -9.155   6.745  70.814  1.00  0.00    -0.151 A  
BRANCH  21  24
HETATM   24  S   UNL     1     -10.844   7.933  72.663  1.00  0.00    -0.386 S  
HETATM   25  O   UNL     1     -11.057   6.556  73.222  1.00  0.00    -0.226 OA 
HETATM   26  C   UNL     1     -12.470   8.543  72.127  1.00  0.00    -0.379 C  
ENDBRANCH  21  24
ENDBRANCH   9  10
ENDBRANCH   8   9
ENDBRANCH   7   8
TORSDOF 4
ENDMDL
MODEL       72
REMARK 921   NORMALIZED FREE ENERGY PREDICTED BY IDOCK:   -5.13 KCAL/MOL
REMARK 922        TOTAL FREE ENERGY PREDICTED BY IDOCK:   -7.11 KCAL/MOL
REMARK 923 INTER-LIGAND FREE ENERGY PREDICTED BY IDOCK:   -6.45 KCAL/MOL
REMARK 924 INTRA-LIGAND FREE ENERGY PREDICTED BY IDOCK:   -0.66 KCAL/MOL
REMARK 927      BINDING AFFINITY PREDICTED BY RF-SCORE:    0.00 PKD
ROOT
HETATM    1  C   UNL     1     -10.916   6.091  69.630  1.00  0.00    -0.400 C  
HETATM    2  N   UNL     1     -11.234   7.519  69.590  1.00  0.00    -0.083 NA 
HETATM    3  C   UNL     1     -11.590   8.039  70.917  1.00  0.00    -0.269 C  
HETATM    4  C   UNL     1     -10.398   8.233  71.855  1.00  0.00    -0.324 C  
HETATM    5  C   UNL     1      -9.291   9.048  71.199  1.00  0.00    -0.336 C  
HETATM    6  C   UNL     1      -8.935   8.480  69.829  1.00  0.00    -0.145 C  
HETATM    7  C   UNL     1     -10.166   8.307  68.923  1.00  0.00    -0.210 C  
ENDROOT
BRANCH   7   8
HETATM    8  C   UNL     1     -10.764   9.649  68.455  1.00  0.00    -0.239 C  
BRANCH   8   9
HETATM    9  C   UNL     1      -9.797  10.622  67.749  1.00  0.00    -0.165 C  
BRANCH   9  10
HETATM   10  N   UNL     1     -10.111  10.907  66.320  1.00  0.00    -0.226 NA 
HETATM   11  C   UNL     1     -10.931  12.036  66.008  1.00  0.00    -0.304 A  
HETATM   12  C   UNL     1     -11.127  12.465  64.678  1.00  0.00    -0.307 A  
HETATM   13  S   UNL     1     -10.461  11.644  63.254  1.00  0.00    -0.348 SA 
HETATM   14  C   UNL     1     -11.897  13.614  64.376  1.00  0.00    -0.460 A  
HETATM   15  C   UNL     1     -12.502  14.361  65.376  1.00  0.00    -0.357 A  
HETATM   16  C   UNL     1      -9.580  10.286  63.971  1.00  0.00    -0.304 A  
HETATM   17  C   UNL     1     -12.363  13.944  66.686  1.00  0.00    -0.411 A  
HETATM   18  C   UNL     1      -9.498  10.040  65.354  1.00  0.00    -0.250 A  
HETATM   19  C   UNL     1      -8.754   8.895  65.726  1.00  0.00    -0.205 A  
HETATM   20  C   UNL     1     -11.610  12.799  66.988  1.00  0.00    -0.422 A  
HETATM   21  C   UNL     1      -8.026   8.119  64.811  1.00  0.00    -0.147 A  
HETATM   22  C   UNL     1      -8.924   9.451  63.040  1.00  0.00    -0.175 A  
HETATM   23  C   UNL     1      -8.131   8.387  63.457  1.00  0.00    -0.143 A  
BRANCH  21  24
HETATM   24  S   UNL     1      -6.926   6.800  65.383  1.00  0.00    -0.061 S  
HETATM   25  O   UNL     1      -7.163   5.638  64.463  1.00  0.00    -0.055 OA 
HETATM   26  C   UNL     1      -7.805   6.435  66.932  1.00  0.00    -0.104 C  
ENDBRANCH  21  24
ENDBRANCH   9  10
ENDBRANCH   8   9
ENDBRANCH   7   8
TORSDOF 4
ENDMDL
MODEL       73
REMARK 921   NORMALIZED FREE ENERGY PREDICTED BY IDOCK:   -5.13 KCAL/MOL
REMARK 922        TOTAL FREE ENERGY PREDICTED BY IDOCK:   -7.11 KCAL/MOL
REMARK 923 INTER-LIGAND FREE ENERGY PREDICTED BY IDOCK:   -6.49 KCAL/MOL
REMARK 924 INTRA-LIGAND FREE ENERGY PREDICTED BY IDOCK:   -0.62 KCAL/MOL
REMARK 927      BINDING AFFINITY PREDICTED BY RF-SCORE:    0.00 PKD
ROOT
HETATM    1  C   UNL     1     -12.925   8.678  71.615  1.00  0.00    -0.344 C  
HETATM    2  N   UNL     1     -11.743   8.160  70.926  1.00  0.00    -0.273 NA 
HETATM    3  C   UNL     1     -10.500   8.728  71.465  1.00  0.00    -0.303 C  
HETATM    4  C   UNL     1     -10.083   8.150  72.818  1.00  0.00    -0.367 C  
HETATM    5  C   UNL     1     -10.054   6.628  72.797  1.00  0.00    -0.195 C  
HETATM    6  C   UNL     1     -11.359   6.066  72.243  1.00  0.00    -0.353 C  
HETATM    7  C   UNL     1     -11.734   6.675  70.881  1.00  0.00    -0.375 C  
ENDROOT
BRANCH   7   8
HETATM    8  C   UNL     1     -10.799   6.224  69.740  1.00  0.00    -0.399 C  
BRANCH   8   9
HETATM    9  C   UNL     1     -11.276   6.520  68.303  1.00  0.00    -0.162 C  
BRANCH   9  10
HETATM   10  N   UNL     1     -10.193   6.710  67.298  1.00  0.00    -0.173 NA 
HETATM   11  C   UNL     1      -9.539   5.554  66.766  1.00  0.00    -0.146 A  
HETATM   12  C   UNL     1      -8.629   5.647  65.691  1.00  0.00    -0.150 A  
HETATM   13  S   UNL     1      -8.135   7.169  64.927  1.00  0.00    -0.072 SA 
HETATM   14  C   UNL     1      -8.023   4.496  65.132  1.00  0.00    -0.098 A  
HETATM   15  C   UNL     1      -8.291   3.228  65.625  1.00  0.00    -0.099 A  
HETATM   16  C   UNL     1      -9.051   8.375  65.845  1.00  0.00    -0.171 A  
HETATM   17  C   UNL     1      -9.147   3.106  66.704  1.00  0.00    -0.177 A  
HETATM   18  C   UNL     1      -9.934   8.063  66.895  1.00  0.00    -0.268 A  
HETATM   19  C   UNL     1     -10.563   9.171  67.511  1.00  0.00    -0.317 A  
HETATM   20  C   UNL     1      -9.740   4.246  67.267  1.00  0.00    -0.216 A  
HETATM   21  C   UNL     1     -10.439  10.488  67.040  1.00  0.00    -0.249 A  
HETATM   22  C   UNL     1      -8.852   9.709  65.429  1.00  0.00    -0.204 A  
HETATM   23  C   UNL     1      -9.559  10.759  66.005  1.00  0.00    -0.244 A  
BRANCH  21  24
HETATM   24  S   UNL     1     -11.439  11.822  67.742  1.00  0.00    -0.303 S  
HETATM   25  O   UNL     1     -12.158  12.452  66.584  1.00  0.00    -0.592 OA 
HETATM   26  C   UNL     1     -10.063  12.928  68.173  1.00  0.00    -0.240 C  
ENDBRANCH  21  24
ENDBRANCH   9  10
ENDBRANCH   8   9
ENDBRANCH   7   8
TORSDOF 4
ENDMDL
MODEL       74
REMARK 921   NORMALIZED FREE ENERGY PREDICTED BY IDOCK:   -5.11 KCAL/MOL
REMARK 922        TOTAL FREE ENERGY PREDICTED BY IDOCK:   -7.08 KCAL/MOL
REMARK 923 INTER-LIGAND FREE ENERGY PREDICTED BY IDOCK:   -6.44 KCAL/MOL
REMARK 924 INTRA-LIGAND FREE ENERGY PREDICTED BY IDOCK:   -0.64 KCAL/MOL
REMARK 927      BINDING AFFINITY PREDICTED BY RF-SCORE:    0.00 PKD
ROOT
HETATM    1  C   UNL     1      -6.465  13.303  67.489  1.00  0.00    -0.134 C  
HETATM    2  N   UNL     1      -7.589  13.909  68.202  1.00  0.00    -0.119 NA 
HETATM    3  C   UNL     1      -7.141  14.841  69.245  1.00  0.00    -0.154 C  
HETATM    4  C   UNL     1      -6.633  16.181  68.712  1.00  0.00    -0.129 C  
HETATM    5  C   UNL     1      -7.633  16.825  67.761  1.00  0.00    -0.180 C  
HETATM    6  C   UNL     1      -8.074  15.839  66.684  1.00  0.00    -0.282 C  
HETATM    7  C   UNL     1      -8.578  14.509  67.270  1.00  0.00    -0.215 C  
ENDROOT
BRANCH   7   8
HETATM    8  C   UNL     1      -9.927  14.647  68.006  1.00  0.00    -0.220 C  
BRANCH   8   9
HETATM    9  C   UNL     1     -11.061  13.711  67.540  1.00  0.00    -0.277 C  
BRANCH   9  10
HETATM   10  N   UNL     1     -11.165  12.421  68.277  1.00  0.00    -0.242 NA 
HETATM   11  C   UNL     1     -11.793  12.411  69.562  1.00  0.00    -0.303 A  
HETATM   12  C   UNL     1     -12.079  11.206  70.239  1.00  0.00    -0.377 A  
HETATM   13  S   UNL     1     -11.648   9.594  69.636  1.00  0.00     0.181 SA 
HETATM   14  C   UNL     1     -12.747  11.197  71.487  1.00  0.00    -0.499 A  
HETATM   15  C   UNL     1     -13.139  12.376  72.103  1.00  0.00    -0.419 A  
HETATM   16  C   UNL     1     -10.845   9.960  68.101  1.00  0.00    -0.234 A  
HETATM   17  C   UNL     1     -12.838  13.576  71.487  1.00  0.00    -0.440 A  
HETATM   18  C   UNL     1     -10.671  11.260  67.592  1.00  0.00    -0.226 A  
HETATM   19  C   UNL     1      -9.994  11.342  66.352  1.00  0.00    -0.247 A  
HETATM   20  C   UNL     1     -12.165  13.587  70.255  1.00  0.00    -0.417 A  
HETATM   21  C   UNL     1      -9.633  10.217  65.595  1.00  0.00    -0.243 A  
HETATM   22  C   UNL     1     -10.400   8.828  67.384  1.00  0.00    -0.349 A  
HETATM   23  C   UNL     1      -9.818   8.952  66.128  1.00  0.00    -0.326 A  
BRANCH  21  24
HETATM   24  S   UNL     1      -8.965  10.399  63.923  1.00  0.00    -0.246 S  
HETATM   25  O   UNL     1     -10.154  10.554  63.019  1.00  0.00    -0.230 OA 
HETATM   26  C   UNL     1      -8.376   8.691  63.731  1.00  0.00    -0.112 C  
ENDBRANCH  21  24
ENDBRANCH   9  10
ENDBRANCH   8   9
ENDBRANCH   7   8
TORSDOF 4
ENDMDL
MODEL       75
REMARK 921   NORMALIZED FREE ENERGY PREDICTED BY IDOCK:   -5.11 KCAL/MOL
REMARK 922        TOTAL FREE ENERGY PREDICTED BY IDOCK:   -7.07 KCAL/MOL
REMARK 923 INTER-LIGAND FREE ENERGY PREDICTED BY IDOCK:   -6.44 KCAL/MOL
REMARK 924 INTRA-LIGAND FREE ENERGY PREDICTED BY IDOCK:   -0.63 KCAL/MOL
REMARK 927      BINDING AFFINITY PREDICTED BY RF-SCORE:    0.00 PKD
ROOT
HETATM    1  C   UNL     1     -12.513  14.122  64.985  1.00  0.00    -0.419 C  
HETATM    2  N   UNL     1     -11.313  13.741  65.729  1.00  0.00    -0.301 NA 
HETATM    3  C   UNL     1     -10.194  14.659  65.473  1.00  0.00    -0.370 C  
HETATM    4  C   UNL     1     -10.319  16.010  66.179  1.00  0.00    -0.340 C  
HETATM    5  C   UNL     1     -10.596  15.845  67.667  1.00  0.00    -0.307 C  
HETATM    6  C   UNL     1     -11.766  14.897  67.902  1.00  0.00    -0.344 C  
HETATM    7  C   UNL     1     -11.593  13.552  67.175  1.00  0.00    -0.357 C  
ENDROOT
BRANCH   7   8
HETATM    8  C   UNL     1     -10.477  12.678  67.782  1.00  0.00    -0.228 C  
BRANCH   8   9
HETATM    9  C   UNL     1     -10.618  11.153  67.590  1.00  0.00    -0.211 C  
BRANCH   9  10
HETATM   10  N   UNL     1      -9.566  10.328  68.246  1.00  0.00    -0.140 NA 
HETATM   11  C   UNL     1      -8.298  10.188  67.598  1.00  0.00    -0.114 A  
HETATM   12  C   UNL     1      -7.203   9.569  68.237  1.00  0.00    -0.076 A  
HETATM   13  S   UNL     1      -7.270   8.840  69.853  1.00  0.00    -0.054 SA 
HETATM   14  C   UNL     1      -5.936   9.478  67.614  1.00  0.00    -0.052 A  
HETATM   15  C   UNL     1      -5.719   9.985  66.341  1.00  0.00    -0.058 A  
HETATM   16  C   UNL     1      -8.952   9.118  70.331  1.00  0.00    -0.229 A  
HETATM   17  C   UNL     1      -6.782  10.562  65.671  1.00  0.00    -0.110 A  
HETATM   18  C   UNL     1      -9.900   9.783  69.531  1.00  0.00    -0.214 A  
HETATM   19  C   UNL     1     -11.195   9.895  70.089  1.00  0.00    -0.347 A  
HETATM   20  C   UNL     1      -8.042  10.643  66.283  1.00  0.00    -0.151 A  
HETATM   21  C   UNL     1     -11.507   9.502  71.400  1.00  0.00    -0.392 A  
HETATM   22  C   UNL     1      -9.287   8.638  71.615  1.00  0.00    -0.333 A  
HETATM   23  C   UNL     1     -10.550   8.848  72.158  1.00  0.00    -0.323 A  
BRANCH  21  24
HETATM   24  S   UNL     1     -13.126   9.871  72.119  1.00  0.00    -0.341 S  
HETATM   25  O   UNL     1     -14.137   9.241  71.205  1.00  0.00    -0.249 OA 
HETATM   26  C   UNL     1     -13.127  11.652  71.761  1.00  0.00    -0.382 C  
ENDBRANCH  21  24
ENDBRANCH   9  10
ENDBRANCH   8   9
ENDBRANCH   7   8
TORSDOF 4
ENDMDL
MODEL       76
REMARK 921   NORMALIZED FREE ENERGY PREDICTED BY IDOCK:   -5.09 KCAL/MOL
REMARK 922        TOTAL FREE ENERGY PREDICTED BY IDOCK:   -7.06 KCAL/MOL
REMARK 923 INTER-LIGAND FREE ENERGY PREDICTED BY IDOCK:   -6.45 KCAL/MOL
REMARK 924 INTRA-LIGAND FREE ENERGY PREDICTED BY IDOCK:   -0.61 KCAL/MOL
REMARK 927      BINDING AFFINITY PREDICTED BY RF-SCORE:    0.00 PKD
ROOT
HETATM    1  C   UNL     1     -10.089  11.943  63.857  1.00  0.00    -0.370 C  
HETATM    2  N   UNL     1      -9.923  12.803  65.029  1.00  0.00    -0.202 NA 
HETATM    3  C   UNL     1     -10.286  14.198  64.742  1.00  0.00    -0.279 C  
HETATM    4  C   UNL     1     -11.792  14.448  64.652  1.00  0.00    -0.460 C  
HETATM    5  C   UNL     1     -12.527  13.905  65.870  1.00  0.00    -0.519 C  
HETATM    6  C   UNL     1     -12.140  12.454  66.138  1.00  0.00    -0.295 C  
HETATM    7  C   UNL     1     -10.617  12.255  66.222  1.00  0.00    -0.251 C  
ENDROOT
BRANCH   7   8
HETATM    8  C   UNL     1      -9.995  12.885  67.485  1.00  0.00    -0.215 C  
BRANCH   8   9
HETATM    9  C   UNL     1      -9.174  11.942  68.389  1.00  0.00    -0.173 C  
BRANCH   9  10
HETATM   10  N   UNL     1      -9.827  10.643  68.715  1.00  0.00    -0.183 NA 
HETATM   11  C   UNL     1      -9.303   9.445  68.133  1.00  0.00    -0.133 A  
HETATM   12  C   UNL     1      -9.759   8.169  68.528  1.00  0.00    -0.162 A  
HETATM   13  S   UNL     1     -11.051   7.890  69.710  1.00  0.00     0.009 SA 
HETATM   14  C   UNL     1      -9.203   6.985  67.988  1.00  0.00    -0.129 A  
HETATM   15  C   UNL     1      -8.193   7.029  67.039  1.00  0.00    -0.117 A  
HETATM   16  C   UNL     1     -11.514   9.536  70.170  1.00  0.00    -0.162 A  
HETATM   17  C   UNL     1      -7.752   8.264  66.601  1.00  0.00    -0.093 A  
HETATM   18  C   UNL     1     -10.910  10.698  69.655  1.00  0.00    -0.268 A  
HETATM   19  C   UNL     1     -11.431  11.921  70.141  1.00  0.00    -0.136 A  
HETATM   20  C   UNL     1      -8.310   9.439  67.125  1.00  0.00    -0.124 A  
HETATM   21  C   UNL     1     -12.387  11.999  71.166  1.00  0.00    -0.177 A  
HETATM   22  C   UNL     1     -12.542   9.612  71.134  1.00  0.00    -0.411 A  
HETATM   23  C   UNL     1     -12.961  10.834  71.648  1.00  0.00    -0.581 A  
BRANCH  21  24
HETATM   24  S   UNL     1     -12.847  13.594  71.886  1.00  0.00    -0.253 S  
HETATM   25  O   UNL     1     -14.321  13.512  72.159  1.00  0.00    -0.417 OA 
HETATM   26  C   UNL     1     -12.644  14.585  70.377  1.00  0.00    -0.346 C  
ENDBRANCH  21  24
ENDBRANCH   9  10
ENDBRANCH   8   9
ENDBRANCH   7   8
TORSDOF 4
ENDMDL
MODEL       77
REMARK 921   NORMALIZED FREE ENERGY PREDICTED BY IDOCK:   -5.08 KCAL/MOL
REMARK 922        TOTAL FREE ENERGY PREDICTED BY IDOCK:   -7.05 KCAL/MOL
REMARK 923 INTER-LIGAND FREE ENERGY PREDICTED BY IDOCK:   -6.43 KCAL/MOL
REMARK 924 INTRA-LIGAND FREE ENERGY PREDICTED BY IDOCK:   -0.62 KCAL/MOL
REMARK 927      BINDING AFFINITY PREDICTED BY RF-SCORE:    0.00 PKD
ROOT
HETATM    1  C   UNL     1      -9.767  18.206  66.281  1.00  0.00    -0.276 C  
HETATM    2  N   UNL     1      -9.168  16.899  66.551  1.00  0.00    -0.256 NA 
HETATM    3  C   UNL     1      -7.716  16.992  66.753  1.00  0.00    -0.239 C  
HETATM    4  C   UNL     1      -7.308  17.566  68.111  1.00  0.00    -0.218 C  
HETATM    5  C   UNL     1      -8.001  16.845  69.259  1.00  0.00     0.009 C  
HETATM    6  C   UNL     1      -9.506  16.771  69.028  1.00  0.00    -0.217 C  
HETATM    7  C   UNL     1      -9.865  16.185  67.651  1.00  0.00    -0.236 C  
ENDROOT
BRANCH   7   8
HETATM    8  C   UNL     1      -9.552  14.679  67.537  1.00  0.00    -0.206 C  
BRANCH   8   9
HETATM    9  C   UNL     1     -10.732  13.760  67.157  1.00  0.00    -0.281 C  
BRANCH   9  10
HETATM   10  N   UNL     1     -10.897  12.550  68.009  1.00  0.00    -0.217 NA 
HETATM   11  C   UNL     1     -11.628  12.665  69.233  1.00  0.00    -0.318 A  
HETATM   12  C   UNL     1     -11.970  11.531  70.002  1.00  0.00    -0.357 A  
HETATM   13  S   UNL     1     -11.491   9.871  69.603  1.00  0.00    -0.042 SA 
HETATM   14  C   UNL     1     -12.738  11.644  71.185  1.00  0.00    -0.426 A  
HETATM   15  C   UNL     1     -13.179  12.875  71.645  1.00  0.00    -0.416 A  
HETATM   16  C   UNL     1     -10.565  10.086  68.109  1.00  0.00    -0.227 A  
HETATM   17  C   UNL     1     -12.827  14.009  70.938  1.00  0.00    -0.389 A  
HETATM   18  C   UNL     1     -10.348  11.330  67.487  1.00  0.00    -0.194 A  
HETATM   19  C   UNL     1      -9.572  11.292  66.305  1.00  0.00    -0.235 A  
HETATM   20  C   UNL     1     -12.056  13.902  69.771  1.00  0.00    -0.404 A  
HETATM   21  C   UNL     1      -9.150  10.099  65.698  1.00  0.00    -0.179 A  
HETATM   22  C   UNL     1     -10.062   8.892  67.550  1.00  0.00    -0.285 A  
HETATM   23  C   UNL     1      -9.379   8.893  66.339  1.00  0.00    -0.262 A  
BRANCH  21  24
HETATM   24  S   UNL     1      -8.347  10.117  64.076  1.00  0.00    -0.176 S  
HETATM   25  O   UNL     1      -9.449   9.964  63.068  1.00  0.00    -0.276 OA 
HETATM   26  C   UNL     1      -7.529   8.500  64.215  1.00  0.00    -0.111 C  
ENDBRANCH  21  24
ENDBRANCH   9  10
ENDBRANCH   8   9
ENDBRANCH   7   8
TORSDOF 4
ENDMDL
MODEL       78
REMARK 921   NORMALIZED FREE ENERGY PREDICTED BY IDOCK:   -5.06 KCAL/MOL
REMARK 922        TOTAL FREE ENERGY PREDICTED BY IDOCK:   -7.02 KCAL/MOL
REMARK 923 INTER-LIGAND FREE ENERGY PREDICTED BY IDOCK:   -6.27 KCAL/MOL
REMARK 924 INTRA-LIGAND FREE ENERGY PREDICTED BY IDOCK:   -0.75 KCAL/MOL
REMARK 927      BINDING AFFINITY PREDICTED BY RF-SCORE:    0.00 PKD
ROOT
HETATM    1  C   UNL     1      -8.135   6.372  64.985  1.00  0.00    -0.135 C  
HETATM    2  N   UNL     1      -8.282   7.194  66.186  1.00  0.00    -0.121 NA 
HETATM    3  C   UNL     1      -7.307   6.829  67.223  1.00  0.00    -0.091 C  
HETATM    4  C   UNL     1      -5.885   7.318  66.946  1.00  0.00    -0.030 C  
HETATM    5  C   UNL     1      -5.852   8.807  66.629  1.00  0.00    -0.052 C  
HETATM    6  C   UNL     1      -6.865   9.155  65.544  1.00  0.00    -0.073 C  
HETATM    7  C   UNL     1      -8.279   8.645  65.869  1.00  0.00    -0.123 C  
ENDROOT
BRANCH   7   8
HETATM    8  C   UNL     1      -8.940   9.405  67.037  1.00  0.00    -0.146 C  
BRANCH   8   9
HETATM    9  C   UNL     1     -10.474   9.288  67.151  1.00  0.00    -0.249 C  
BRANCH   9  10
HETATM   10  N   UNL     1     -11.019   9.378  68.535  1.00  0.00    -0.096 NA 
HETATM   11  C   UNL     1     -11.031   8.201  69.347  1.00  0.00    -0.002 A  
HETATM   12  C   UNL     1     -11.370   8.248  70.716  1.00  0.00    -0.266 A  
HETATM   13  S   UNL     1     -11.879   9.717  71.570  1.00  0.00    -0.396 SA 
HETATM   14  C   UNL     1     -11.331   7.090  71.529  1.00  0.00    -0.290 A  
HETATM   15  C   UNL     1     -10.968   5.856  71.011  1.00  0.00    -0.335 A  
HETATM   16  C   UNL     1     -11.823  10.943  70.294  1.00  0.00    -0.361 A  
HETATM   17  C   UNL     1     -10.670   5.768  69.664  1.00  0.00    -0.416 A  
HETATM   18  C   UNL     1     -11.436  10.682  68.966  1.00  0.00    -0.274 A  
HETATM   19  C   UNL     1     -11.468  11.796  68.094  1.00  0.00    -0.382 A  
HETATM   20  C   UNL     1     -10.719   6.912  68.853  1.00  0.00    -0.254 A  
HETATM   21  C   UNL     1     -11.730  13.106  68.525  1.00  0.00    -0.352 A  
HETATM   22  C   UNL     1     -12.178  12.244  70.710  1.00  0.00    -0.354 A  
HETATM   23  C   UNL     1     -12.110  13.325  69.839  1.00  0.00    -0.377 A  
BRANCH  21  24
HETATM   24  S   UNL     1     -11.543  14.509  67.397  1.00  0.00    -0.395 S  
HETATM   25  O   UNL     1     -12.312  14.148  66.159  1.00  0.00    -0.450 OA 
HETATM   26  C   UNL     1      -9.784  14.255  67.019  1.00  0.00    -0.253 C  
ENDBRANCH  21  24
ENDBRANCH   9  10
ENDBRANCH   8   9
ENDBRANCH   7   8
TORSDOF 4
ENDMDL
MODEL       79
REMARK 921   NORMALIZED FREE ENERGY PREDICTED BY IDOCK:   -5.05 KCAL/MOL
REMARK 922        TOTAL FREE ENERGY PREDICTED BY IDOCK:   -7.00 KCAL/MOL
REMARK 923 INTER-LIGAND FREE ENERGY PREDICTED BY IDOCK:   -6.20 KCAL/MOL
REMARK 924 INTRA-LIGAND FREE ENERGY PREDICTED BY IDOCK:   -0.80 KCAL/MOL
REMARK 927      BINDING AFFINITY PREDICTED BY RF-SCORE:    0.00 PKD
ROOT
HETATM    1  C   UNL     1     -11.150  11.283  67.990  1.00  0.00    -0.266 C  
HETATM    2  N   UNL     1     -10.682  10.256  67.060  1.00  0.00    -0.242 NA 
HETATM    3  C   UNL     1      -9.783  10.810  66.038  1.00  0.00    -0.217 C  
HETATM    4  C   UNL     1      -8.376  11.126  66.547  1.00  0.00    -0.166 C  
HETATM    5  C   UNL     1      -7.757   9.937  67.270  1.00  0.00    -0.095 C  
HETATM    6  C   UNL     1      -8.707   9.390  68.330  1.00  0.00    -0.124 C  
HETATM    7  C   UNL     1     -10.107   9.085  67.769  1.00  0.00    -0.208 C  
ENDROOT
BRANCH   7   8
HETATM    8  C   UNL     1     -10.123   7.874  66.814  1.00  0.00    -0.352 C  
BRANCH   8   9
HETATM    9  C   UNL     1     -11.134   6.755  67.142  1.00  0.00    -0.333 C  
BRANCH   9  10
HETATM   10  N   UNL     1     -10.589   5.617  67.933  1.00  0.00    -0.217 NA 
HETATM   11  C   UNL     1      -9.898   4.570  67.246  1.00  0.00    -0.175 A  
HETATM   12  C   UNL     1      -9.210   3.553  67.942  1.00  0.00    -0.183 A  
HETATM   13  S   UNL     1      -9.172   3.402  69.709  1.00  0.00    -0.161 SA 
HETATM   14  C   UNL     1      -8.485   2.548  67.260  1.00  0.00    -0.108 A  
HETATM   15  C   UNL     1      -8.428   2.514  65.874  1.00  0.00    -0.099 A  
HETATM   16  C   UNL     1     -10.155   4.778  70.235  1.00  0.00    -0.234 A  
HETATM   17  C   UNL     1      -9.124   3.472  65.161  1.00  0.00    -0.142 A  
HETATM   18  C   UNL     1     -10.754   5.701  69.357  1.00  0.00    -0.295 A  
HETATM   19  C   UNL     1     -11.510   6.725  69.974  1.00  0.00    -0.390 A  
HETATM   20  C   UNL     1      -9.854   4.462  65.835  1.00  0.00    -0.237 A  
HETATM   21  C   UNL     1     -11.564   6.912  71.364  1.00  0.00    -0.299 A  
HETATM   22  C   UNL     1     -10.284   4.910  71.634  1.00  0.00    -0.267 A  
HETATM   23  C   UNL     1     -10.964   5.984  72.198  1.00  0.00    -0.314 A  
BRANCH  21  24
HETATM   24  S   UNL     1     -12.373   8.368  72.073  1.00  0.00    -0.384 S  
HETATM   25  O   UNL     1     -13.699   8.481  71.379  1.00  0.00    -0.321 OA 
HETATM   26  C   UNL     1     -11.279   9.614  71.329  1.00  0.00    -0.376 C  
ENDBRANCH  21  24
ENDBRANCH   9  10
ENDBRANCH   8   9
ENDBRANCH   7   8
TORSDOF 4
ENDMDL
MODEL       80
REMARK 921   NORMALIZED FREE ENERGY PREDICTED BY IDOCK:   -5.02 KCAL/MOL
REMARK 922        TOTAL FREE ENERGY PREDICTED BY IDOCK:   -6.96 KCAL/MOL
REMARK 923 INTER-LIGAND FREE ENERGY PREDICTED BY IDOCK:   -6.31 KCAL/MOL
REMARK 924 INTRA-LIGAND FREE ENERGY PREDICTED BY IDOCK:   -0.65 KCAL/MOL
REMARK 927      BINDING AFFINITY PREDICTED BY RF-SCORE:    0.00 PKD
ROOT
HETATM    1  C   UNL     1      -9.492  14.475  67.100  1.00  0.00    -0.231 C  
HETATM    2  N   UNL     1     -10.254  13.238  67.271  1.00  0.00    -0.239 NA 
HETATM    3  C   UNL     1     -11.690  13.497  67.434  1.00  0.00    -0.380 C  
HETATM    4  C   UNL     1     -12.411  13.874  66.139  1.00  0.00    -0.504 C  
HETATM    5  C   UNL     1     -12.133  12.872  65.027  1.00  0.00    -0.480 C  
HETATM    6  C   UNL     1     -10.635  12.631  64.873  1.00  0.00    -0.332 C  
HETATM    7  C   UNL     1      -9.958  12.251  66.201  1.00  0.00    -0.243 C  
ENDROOT
BRANCH   7   8
HETATM    8  C   UNL     1     -10.356  10.848  66.702  1.00  0.00    -0.289 C  
BRANCH   8   9
HETATM    9  C   UNL     1      -9.342  10.134  67.619  1.00  0.00    -0.148 C  
BRANCH   9  10
HETATM   10  N   UNL     1      -9.840   8.891  68.273  1.00  0.00    -0.162 NA 
HETATM   11  C   UNL     1     -10.648   9.009  69.448  1.00  0.00    -0.221 A  
HETATM   12  C   UNL     1     -11.294   7.892  70.019  1.00  0.00    -0.027 A  
HETATM   13  S   UNL     1     -11.137   6.231  69.416  1.00  0.00    -0.407 SA 
HETATM   14  C   UNL     1     -12.134   8.020  71.150  1.00  0.00    -0.284 A  
HETATM   15  C   UNL     1     -12.350   9.250  71.753  1.00  0.00    -0.454 A  
HETATM   16  C   UNL     1     -10.044   6.423  68.037  1.00  0.00    -0.148 A  
HETATM   17  C   UNL     1     -11.700  10.358  71.243  1.00  0.00    -0.320 A  
HETATM   18  C   UNL     1      -9.511   7.657  67.619  1.00  0.00    -0.142 A  
HETATM   19  C   UNL     1      -8.646   7.598  66.500  1.00  0.00    -0.142 A  
HETATM   20  C   UNL     1     -10.857  10.232  70.129  1.00  0.00    -0.362 A  
HETATM   21  C   UNL     1      -8.427   6.428  65.756  1.00  0.00    -0.148 A  
HETATM   22  C   UNL     1      -9.750   5.228  67.346  1.00  0.00    -0.162 A  
HETATM   23  C   UNL     1      -8.966   5.231  66.198  1.00  0.00    -0.139 A  
BRANCH  21  24
HETATM   24  S   UNL     1      -7.482   6.474  64.214  1.00  0.00    -0.099 S  
HETATM   25  O   UNL     1      -8.006   7.651  63.444  1.00  0.00    -0.134 OA 
HETATM   26  C   UNL     1      -8.209   4.986  63.464  1.00  0.00    -0.117 C  
ENDBRANCH  21  24
ENDBRANCH   9  10
ENDBRANCH   8   9
ENDBRANCH   7   8
TORSDOF 4
ENDMDL
MODEL       81
REMARK 921   NORMALIZED FREE ENERGY PREDICTED BY IDOCK:   -5.01 KCAL/MOL
REMARK 922        TOTAL FREE ENERGY PREDICTED BY IDOCK:   -6.96 KCAL/MOL
REMARK 923 INTER-LIGAND FREE ENERGY PREDICTED BY IDOCK:   -6.37 KCAL/MOL
REMARK 924 INTRA-LIGAND FREE ENERGY PREDICTED BY IDOCK:   -0.60 KCAL/MOL
REMARK 927      BINDING AFFINITY PREDICTED BY RF-SCORE:    0.00 PKD
ROOT
HETATM    1  C   UNL     1     -10.636   5.617  71.774  1.00  0.00    -0.238 C  
HETATM    2  N   UNL     1     -11.021   6.567  70.730  1.00  0.00    -0.259 NA 
HETATM    3  C   UNL     1     -12.292   7.236  71.039  1.00  0.00    -0.297 C  
HETATM    4  C   UNL     1     -12.186   8.316  72.117  1.00  0.00    -0.418 C  
HETATM    5  C   UNL     1     -11.075   9.312  71.810  1.00  0.00    -0.398 C  
HETATM    6  C   UNL     1      -9.767   8.591  71.503  1.00  0.00    -0.303 C  
HETATM    7  C   UNL     1      -9.925   7.517  70.412  1.00  0.00    -0.184 C  
ENDROOT
BRANCH   7   8
HETATM    8  C   UNL     1     -10.180   8.113  69.013  1.00  0.00    -0.228 C  
BRANCH   8   9
HETATM    9  C   UNL     1      -9.300   9.314  68.607  1.00  0.00    -0.139 C  
BRANCH   9  10
HETATM   10  N   UNL     1      -9.884  10.209  67.569  1.00  0.00    -0.172 NA 
HETATM   11  C   UNL     1     -10.679  11.322  67.988  1.00  0.00    -0.203 A  
HETATM   12  C   UNL     1     -11.119  12.305  67.076  1.00  0.00    -0.287 A  
HETATM   13  S   UNL     1     -10.813  12.256  65.330  1.00  0.00    -0.304 SA 
HETATM   14  C   UNL     1     -11.862  13.431  67.502  1.00  0.00    -0.408 A  
HETATM   15  C   UNL     1     -12.199  13.612  68.835  1.00  0.00    -0.221 A  
HETATM   16  C   UNL     1      -9.890  10.757  65.142  1.00  0.00    -0.277 A  
HETATM   17  C   UNL     1     -11.819  12.647  69.748  1.00  0.00    -0.379 A  
HETATM   18  C   UNL     1      -9.539   9.908  66.209  1.00  0.00    -0.209 A  
HETATM   19  C   UNL     1      -8.807   8.751  65.850  1.00  0.00    -0.222 A  
HETATM   20  C   UNL     1     -11.092  11.522  69.327  1.00  0.00    -0.305 A  
HETATM   21  C   UNL     1      -8.333   8.510  64.551  1.00  0.00    -0.128 A  
HETATM   22  C   UNL     1      -9.493  10.469  63.818  1.00  0.00    -0.342 A  
HETATM   23  C   UNL     1      -8.700   9.366  63.525  1.00  0.00    -0.221 A  
BRANCH  21  24
HETATM   24  S   UNL     1      -7.224   7.122  64.210  1.00  0.00    -0.078 S  
HETATM   25  O   UNL     1      -5.874   7.726  63.952  1.00  0.00    -0.051 OA 
HETATM   26  C   UNL     1      -7.920   6.673  62.593  1.00  0.00    -0.095 C  
ENDBRANCH  21  24
ENDBRANCH   9  10
ENDBRANCH   8   9
ENDBRANCH   7   8
TORSDOF 4
ENDMDL
MODEL       82
REMARK 921   NORMALIZED FREE ENERGY PREDICTED BY IDOCK:   -5.00 KCAL/MOL
REMARK 922        TOTAL FREE ENERGY PREDICTED BY IDOCK:   -6.94 KCAL/MOL
REMARK 923 INTER-LIGAND FREE ENERGY PREDICTED BY IDOCK:   -6.24 KCAL/MOL
REMARK 924 INTRA-LIGAND FREE ENERGY PREDICTED BY IDOCK:   -0.70 KCAL/MOL
REMARK 927      BINDING AFFINITY PREDICTED BY RF-SCORE:    0.00 PKD
ROOT
HETATM    1  C   UNL     1     -10.478  15.525  66.472  1.00  0.00    -0.300 C  
HETATM    2  N   UNL     1      -9.971  14.454  67.330  1.00  0.00    -0.245 NA 
HETATM    3  C   UNL     1      -9.433  14.972  68.594  1.00  0.00    -0.212 C  
HETATM    4  C   UNL     1     -10.502  15.403  69.600  1.00  0.00    -0.286 C  
HETATM    5  C   UNL     1     -11.538  14.311  69.825  1.00  0.00    -0.350 C  
HETATM    6  C   UNL     1     -12.086  13.799  68.497  1.00  0.00    -0.327 C  
HETATM    7  C   UNL     1     -10.974  13.375  67.522  1.00  0.00    -0.267 C  
ENDROOT
BRANCH   7   8
HETATM    8  C   UNL     1     -10.240  12.094  67.965  1.00  0.00    -0.203 C  
BRANCH   8   9
HETATM    9  C   UNL     1     -10.943  10.756  67.651  1.00  0.00    -0.306 C  
BRANCH   9  10
HETATM   10  N   UNL     1     -10.662   9.649  68.608  1.00  0.00    -0.218 NA 
HETATM   11  C   UNL     1     -11.392   9.600  69.836  1.00  0.00    -0.159 A  
HETATM   12  C   UNL     1     -11.304   8.494  70.708  1.00  0.00    -0.266 A  
HETATM   13  S   UNL     1     -10.254   7.090  70.439  1.00  0.00    -0.198 SA 
HETATM   14  C   UNL     1     -12.068   8.425  71.898  1.00  0.00    -0.398 A  
HETATM   15  C   UNL     1     -12.928   9.450  72.263  1.00  0.00    -0.479 A  
HETATM   16  C   UNL     1      -9.460   7.492  68.908  1.00  0.00    -0.145 A  
HETATM   17  C   UNL     1     -13.008  10.566  71.452  1.00  0.00    -0.542 A  
HETATM   18  C   UNL     1      -9.705   8.669  68.177  1.00  0.00    -0.158 A  
HETATM   19  C   UNL     1      -8.961   8.810  66.982  1.00  0.00    -0.151 A  
HETATM   20  C   UNL     1     -12.243  10.642  70.278  1.00  0.00    -0.417 A  
HETATM   21  C   UNL     1      -8.131   7.801  66.467  1.00  0.00    -0.111 A  
HETATM   22  C   UNL     1      -8.555   6.516  68.439  1.00  0.00    -0.119 A  
HETATM   23  C   UNL     1      -7.911   6.656  67.214  1.00  0.00    -0.112 A  
BRANCH  21  24
HETATM   24  S   UNL     1      -7.380   7.964  64.829  1.00  0.00    -0.088 S  
HETATM   25  O   UNL     1      -8.075   9.120  64.169  1.00  0.00    -0.132 OA 
HETATM   26  C   UNL     1      -8.080   6.448  64.112  1.00  0.00    -0.052 C  
ENDBRANCH  21  24
ENDBRANCH   9  10
ENDBRANCH   8   9
ENDBRANCH   7   8
TORSDOF 4
ENDMDL
MODEL       83
REMARK 921   NORMALIZED FREE ENERGY PREDICTED BY IDOCK:   -5.00 KCAL/MOL
REMARK 922        TOTAL FREE ENERGY PREDICTED BY IDOCK:   -6.94 KCAL/MOL
REMARK 923 INTER-LIGAND FREE ENERGY PREDICTED BY IDOCK:   -6.62 KCAL/MOL
REMARK 924 INTRA-LIGAND FREE ENERGY PREDICTED BY IDOCK:   -0.32 KCAL/MOL
REMARK 927      BINDING AFFINITY PREDICTED BY RF-SCORE:    0.00 PKD
ROOT
HETATM    1  C   UNL     1     -11.883  11.764  63.232  1.00  0.00    -0.240 C  
HETATM    2  N   UNL     1     -11.120  12.748  64.001  1.00  0.00    -0.387 NA 
HETATM    3  C   UNL     1     -11.807  14.045  64.066  1.00  0.00    -0.308 C  
HETATM    4  C   UNL     1     -12.997  14.077  65.025  1.00  0.00    -0.172 C  
HETATM    5  C   UNL     1     -12.622  13.558  66.407  1.00  0.00    -0.244 C  
HETATM    6  C   UNL     1     -11.920  12.208  66.310  1.00  0.00    -0.213 C  
HETATM    7  C   UNL     1     -10.730  12.228  65.336  1.00  0.00    -0.284 C  
ENDROOT
BRANCH   7   8
HETATM    8  C   UNL     1      -9.538  13.056  65.857  1.00  0.00    -0.126 C  
BRANCH   8   9
HETATM    9  C   UNL     1      -9.252  12.970  67.371  1.00  0.00    -0.208 C  
BRANCH   9  10
HETATM   10  N   UNL     1      -9.666  14.160  68.167  1.00  0.00    -0.218 NA 
HETATM   11  C   UNL     1      -9.127  15.439  67.821  1.00  0.00    -0.178 A  
HETATM   12  C   UNL     1      -9.601  16.628  68.415  1.00  0.00    -0.233 A  
HETATM   13  S   UNL     1     -10.841  16.688  69.682  1.00  0.00    -0.178 SA 
HETATM   14  C   UNL     1      -9.102  17.897  68.033  1.00  0.00    -0.267 A  
HETATM   15  C   UNL     1      -8.117  18.024  67.066  1.00  0.00    -0.241 A  
HETATM   16  C   UNL     1     -11.234  14.977  69.917  1.00  0.00    -0.276 A  
HETATM   17  C   UNL     1      -7.602  16.876  66.494  1.00  0.00    -0.328 A  
HETATM   18  C   UNL     1     -10.639  13.925  69.195  1.00  0.00    -0.100 A  
HETATM   19  C   UNL     1     -11.081  12.626  69.539  1.00  0.00    -0.054 A  
HETATM   20  C   UNL     1      -8.086  15.616  66.878  1.00  0.00    -0.290 A  
HETATM   21  C   UNL     1     -12.135  12.381  70.434  1.00  0.00    -0.297 A  
HETATM   22  C   UNL     1     -12.229  14.728  70.886  1.00  0.00    -0.384 A  
HETATM   23  C   UNL     1     -12.695  13.441  71.128  1.00  0.00    -0.411 A  
BRANCH  21  24
HETATM   24  S   UNL     1     -12.789  10.710  70.663  1.00  0.00    -0.258 S  
HETATM   25  O   UNL     1     -12.975  10.538  72.142  1.00  0.00    -0.435 OA 
HETATM   26  C   UNL     1     -11.273   9.815  70.214  1.00  0.00    -0.288 C  
ENDBRANCH  21  24
ENDBRANCH   9  10
ENDBRANCH   8   9
ENDBRANCH   7   8
TORSDOF 4
ENDMDL
MODEL       84
REMARK 921   NORMALIZED FREE ENERGY PREDICTED BY IDOCK:   -4.99 KCAL/MOL
REMARK 922        TOTAL FREE ENERGY PREDICTED BY IDOCK:   -6.93 KCAL/MOL
REMARK 923 INTER-LIGAND FREE ENERGY PREDICTED BY IDOCK:   -6.25 KCAL/MOL
REMARK 924 INTRA-LIGAND FREE ENERGY PREDICTED BY IDOCK:   -0.68 KCAL/MOL
REMARK 927      BINDING AFFINITY PREDICTED BY RF-SCORE:    0.00 PKD
ROOT
HETATM    1  C   UNL     1     -10.712   6.419  67.745  1.00  0.00    -0.303 C  
HETATM    2  N   UNL     1      -9.349   6.939  67.865  1.00  0.00    -0.120 NA 
HETATM    3  C   UNL     1      -8.381   6.113  67.132  1.00  0.00    -0.105 C  
HETATM    4  C   UNL     1      -8.421   6.297  65.614  1.00  0.00    -0.148 C  
HETATM    5  C   UNL     1      -8.332   7.766  65.222  1.00  0.00    -0.128 C  
HETATM    6  C   UNL     1      -9.354   8.597  65.990  1.00  0.00    -0.284 C  
HETATM    7  C   UNL     1      -9.272   8.379  67.510  1.00  0.00    -0.140 C  
ENDROOT
BRANCH   7   8
HETATM    8  C   UNL     1      -7.993   8.972  68.136  1.00  0.00    -0.101 C  
BRANCH   8   9
HETATM    9  C   UNL     1      -8.197  10.025  69.246  1.00  0.00    -0.147 C  
BRANCH   9  10
HETATM   10  N   UNL     1      -9.608  10.234  69.675  1.00  0.00    -0.198 NA 
HETATM   11  C   UNL     1     -10.147   9.392  70.697  1.00  0.00    -0.291 A  
HETATM   12  C   UNL     1     -11.412   9.640  71.272  1.00  0.00    -0.392 A  
HETATM   13  S   UNL     1     -12.499  10.949  70.769  1.00  0.00    -0.408 SA 
HETATM   14  C   UNL     1     -11.921   8.836  72.319  1.00  0.00    -0.415 A  
HETATM   15  C   UNL     1     -11.201   7.761  72.818  1.00  0.00    -0.456 A  
HETATM   16  C   UNL     1     -11.581  11.736  69.476  1.00  0.00    -0.332 A  
HETATM   17  C   UNL     1      -9.977   7.465  72.250  1.00  0.00    -0.206 A  
HETATM   18  C   UNL     1     -10.302  11.328  69.056  1.00  0.00    -0.166 A  
HETATM   19  C   UNL     1      -9.739  12.081  67.998  1.00  0.00    -0.198 A  
HETATM   20  C   UNL     1      -9.475   8.254  71.203  1.00  0.00    -0.206 A  
HETATM   21  C   UNL     1     -10.334  13.241  67.477  1.00  0.00    -0.229 A  
HETATM   22  C   UNL     1     -12.223  12.848  68.890  1.00  0.00    -0.044 A  
HETATM   23  C   UNL     1     -11.595  13.612  67.913  1.00  0.00    -0.376 A  
BRANCH  21  24
HETATM   24  S   UNL     1      -9.457  14.273  66.276  1.00  0.00    -0.209 S  
HETATM   25  O   UNL     1      -9.537  15.677  66.803  1.00  0.00    -0.224 OA 
HETATM   26  C   UNL     1     -10.679  14.141  64.937  1.00  0.00    -0.428 C  
ENDBRANCH  21  24
ENDBRANCH   9  10
ENDBRANCH   8   9
ENDBRANCH   7   8
TORSDOF 4
ENDMDL
MODEL       85
REMARK 921   NORMALIZED FREE ENERGY PREDICTED BY IDOCK:   -4.98 KCAL/MOL
REMARK 922        TOTAL FREE ENERGY PREDICTED BY IDOCK:   -6.92 KCAL/MOL
REMARK 923 INTER-LIGAND FREE ENERGY PREDICTED BY IDOCK:   -6.42 KCAL/MOL
REMARK 924 INTRA-LIGAND FREE ENERGY PREDICTED BY IDOCK:   -0.50 KCAL/MOL
REMARK 927      BINDING AFFINITY PREDICTED BY RF-SCORE:    0.00 PKD
ROOT
HETATM    1  C   UNL     1      -7.846  10.817  62.631  1.00  0.00    -0.072 C  
HETATM    2  N   UNL     1      -8.178   9.755  63.581  1.00  0.00    -0.145 NA 
HETATM    3  C   UNL     1      -7.437   8.518  63.303  1.00  0.00    -0.109 C  
HETATM    4  C   UNL     1      -5.966   8.562  63.719  1.00  0.00    -0.072 C  
HETATM    5  C   UNL     1      -5.802   9.015  65.164  1.00  0.00    -0.058 C  
HETATM    6  C   UNL     1      -6.572  10.305  65.421  1.00  0.00    -0.122 C  
HETATM    7  C   UNL     1      -8.046  10.210  64.989  1.00  0.00    -0.149 C  
ENDROOT
BRANCH   7   8
HETATM    8  C   UNL     1      -8.879   9.274  65.888  1.00  0.00    -0.199 C  
BRANCH   8   9
HETATM    9  C   UNL     1     -10.394   9.556  65.955  1.00  0.00    -0.060 C  
BRANCH   9  10
HETATM   10  N   UNL     1     -10.791  10.707  66.815  1.00  0.00    -0.211 NA 
HETATM   11  C   UNL     1     -11.045  11.971  66.196  1.00  0.00    -0.322 A  
HETATM   12  C   UNL     1     -11.587  13.055  66.920  1.00  0.00    -0.366 A  
HETATM   13  S   UNL     1     -11.950  13.017  68.656  1.00  0.00    -0.183 SA 
HETATM   14  C   UNL     1     -11.885  14.289  66.294  1.00  0.00    -0.420 A  
HETATM   15  C   UNL     1     -11.646  14.489  64.942  1.00  0.00    -0.401 A  
HETATM   16  C   UNL     1     -11.468  11.375  69.113  1.00  0.00    -0.299 A  
HETATM   17  C   UNL     1     -11.077  13.461  64.214  1.00  0.00    -0.396 A  
HETATM   18  C   UNL     1     -10.949  10.426  68.214  1.00  0.00    -0.270 A  
HETATM   19  C   UNL     1     -10.613   9.173  68.778  1.00  0.00    -0.208 A  
HETATM   20  C   UNL     1     -10.770  12.241  64.835  1.00  0.00    -0.335 A  
HETATM   21  C   UNL     1     -10.894   8.827  70.109  1.00  0.00    -0.227 A  
HETATM   22  C   UNL     1     -11.666  11.061  70.475  1.00  0.00    -0.416 A  
HETATM   23  C   UNL     1     -11.403   9.787  70.967  1.00  0.00    -0.460 A  
BRANCH  21  24
HETATM   24  S   UNL     1     -10.634   7.137  70.703  1.00  0.00    -0.230 S  
HETATM   25  O   UNL     1     -11.305   6.241  69.703  1.00  0.00    -0.405 OA 
HETATM   26  C   UNL     1     -11.735   7.237  72.146  1.00  0.00    -0.285 C  
ENDBRANCH  21  24
ENDBRANCH   9  10
ENDBRANCH   8   9
ENDBRANCH   7   8
TORSDOF 4
ENDMDL
MODEL       86
REMARK 921   NORMALIZED FREE ENERGY PREDICTED BY IDOCK:   -4.85 KCAL/MOL
REMARK 922        TOTAL FREE ENERGY PREDICTED BY IDOCK:   -6.76 KCAL/MOL
REMARK 923 INTER-LIGAND FREE ENERGY PREDICTED BY IDOCK:   -6.12 KCAL/MOL
REMARK 924 INTRA-LIGAND FREE ENERGY PREDICTED BY IDOCK:   -0.64 KCAL/MOL
REMARK 927      BINDING AFFINITY PREDICTED BY RF-SCORE:    0.00 PKD
ROOT
HETATM    1  C   UNL     1     -12.503  14.979  64.149  1.00  0.00    -0.026 C  
HETATM    2  N   UNL     1     -12.514  13.849  65.078  1.00  0.00    -0.556 NA 
HETATM    3  C   UNL     1     -13.011  12.621  64.443  1.00  0.00    -0.141 C  
HETATM    4  C   UNL     1     -12.012  11.956  63.496  1.00  0.00    -0.567 C  
HETATM    5  C   UNL     1     -10.658  11.748  64.160  1.00  0.00    -0.403 C  
HETATM    6  C   UNL     1     -10.162  13.039  64.802  1.00  0.00    -0.312 C  
HETATM    7  C   UNL     1     -11.200  13.667  65.747  1.00  0.00    -0.295 C  
ENDROOT
BRANCH   7   8
HETATM    8  C   UNL     1     -11.414  12.849  67.037  1.00  0.00    -0.390 C  
BRANCH   8   9
HETATM    9  C   UNL     1     -10.961  13.514  68.354  1.00  0.00    -0.266 C  
BRANCH   9  10
HETATM   10  N   UNL     1      -9.617  14.155  68.315  1.00  0.00    -0.221 NA 
HETATM   11  C   UNL     1      -9.536  15.582  68.255  1.00  0.00    -0.201 A  
HETATM   12  C   UNL     1      -8.307  16.261  68.388  1.00  0.00    -0.190 A  
HETATM   13  S   UNL     1      -6.735  15.459  68.570  1.00  0.00    -0.118 SA 
HETATM   14  C   UNL     1      -8.237  17.675  68.380  1.00  0.00    -0.289 A  
HETATM   15  C   UNL     1      -9.375  18.453  68.231  1.00  0.00    -0.342 A  
HETATM   16  C   UNL     1      -7.173  13.743  68.536  1.00  0.00    -0.108 A  
HETATM   17  C   UNL     1     -10.590  17.818  68.058  1.00  0.00    -0.372 A  
HETATM   18  C   UNL     1      -8.491  13.268  68.405  1.00  0.00    -0.128 A  
HETATM   19  C   UNL     1      -8.632  11.860  68.388  1.00  0.00    -0.152 A  
HETATM   20  C   UNL     1     -10.661  16.416  68.053  1.00  0.00    -0.334 A  
HETATM   21  C   UNL     1      -7.566  10.976  68.622  1.00  0.00    -0.124 A  
HETATM   22  C   UNL     1      -6.086  12.854  68.678  1.00  0.00    -0.068 A  
HETATM   23  C   UNL     1      -6.281  11.479  68.745  1.00  0.00    -0.051 A  
BRANCH  21  24
HETATM   24  S   UNL     1      -7.857   9.199  68.800  1.00  0.00    -0.096 S  
HETATM   25  O   UNL     1      -8.995   8.873  67.877  1.00  0.00    -0.138 OA 
HETATM   26  C   UNL     1      -8.541   9.254  70.483  1.00  0.00    -0.233 C  
ENDBRANCH  21  24
ENDBRANCH   9  10
ENDBRANCH   8   9
ENDBRANCH   7   8
TORSDOF 4
ENDMDL
MODEL       87
REMARK 921   NORMALIZED FREE ENERGY PREDICTED BY IDOCK:   -4.83 KCAL/MOL
REMARK 922        TOTAL FREE ENERGY PREDICTED BY IDOCK:   -6.74 KCAL/MOL
REMARK 923 INTER-LIGAND FREE ENERGY PREDICTED BY IDOCK:   -6.07 KCAL/MOL
REMARK 924 INTRA-LIGAND FREE ENERGY PREDICTED BY IDOCK:   -0.67 KCAL/MOL
REMARK 927      BINDING AFFINITY PREDICTED BY RF-SCORE:    0.00 PKD
ROOT
HETATM    1  C   UNL     1     -11.262  16.683  68.805  1.00  0.00    -0.217 C  
HETATM    2  N   UNL     1     -10.945  15.357  69.334  1.00  0.00    -0.257 NA 
HETATM    3  C   UNL     1     -10.599  15.404  70.761  1.00  0.00    -0.053 C  
HETATM    4  C   UNL     1     -11.799  15.593  71.691  1.00  0.00    -0.504 C  
HETATM    5  C   UNL     1     -12.901  14.582  71.402  1.00  0.00    -0.406 C  
HETATM    6  C   UNL     1     -13.246  14.562  69.917  1.00  0.00     0.580 C  
HETATM    7  C   UNL     1     -12.008  14.366  69.024  1.00  0.00    -0.307 C  
ENDROOT
BRANCH   7   8
HETATM    8  C   UNL     1     -11.406  12.950  69.129  1.00  0.00    -0.329 C  
BRANCH   8   9
HETATM    9  C   UNL     1     -12.160  11.828  68.386  1.00  0.00    -0.029 C  
BRANCH   9  10
HETATM   10  N   UNL     1     -11.381  11.132  67.324  1.00  0.00    -0.457 NA 
HETATM   11  C   UNL     1     -11.361  11.692  66.008  1.00  0.00    -0.196 A  
HETATM   12  C   UNL     1     -10.511  11.187  65.000  1.00  0.00    -0.293 A  
HETATM   13  S   UNL     1      -9.439   9.789  65.204  1.00  0.00    -0.262 SA 
HETATM   14  C   UNL     1     -10.456  11.775  63.714  1.00  0.00    -0.466 A  
HETATM   15  C   UNL     1     -11.244  12.868  63.386  1.00  0.00    -0.237 A  
HETATM   16  C   UNL     1      -9.751   9.306  66.879  1.00  0.00    -0.190 A  
HETATM   17  C   UNL     1     -12.117  13.362  64.337  1.00  0.00    -0.468 A  
HETATM   18  C   UNL     1     -10.649   9.968  67.737  1.00  0.00    -0.261 A  
HETATM   19  C   UNL     1     -10.766   9.420  69.036  1.00  0.00    -0.209 A  
HETATM   20  C   UNL     1     -12.182  12.773  65.609  1.00  0.00    -0.503 A  
HETATM   21  C   UNL     1      -9.955   8.375  69.508  1.00  0.00    -0.190 A  
HETATM   22  C   UNL     1      -9.001   8.195  67.322  1.00  0.00    -0.149 A  
HETATM   23  C   UNL     1      -9.083   7.746  68.635  1.00  0.00    -0.136 A  
BRANCH  21  24
HETATM   24  S   UNL     1     -10.010   7.870  71.245  1.00  0.00    -0.177 S  
HETATM   25  O   UNL     1      -8.580   7.729  71.679  1.00  0.00    -0.112 OA 
HETATM   26  C   UNL     1     -10.646   6.191  70.967  1.00  0.00    -0.246 C  
ENDBRANCH  21  24
ENDBRANCH   9  10
ENDBRANCH   8   9
ENDBRANCH   7   8
TORSDOF 4
ENDMDL
MODEL       88
REMARK 921   NORMALIZED FREE ENERGY PREDICTED BY IDOCK:   -4.80 KCAL/MOL
REMARK 922        TOTAL FREE ENERGY PREDICTED BY IDOCK:   -6.70 KCAL/MOL
REMARK 923 INTER-LIGAND FREE ENERGY PREDICTED BY IDOCK:   -5.91 KCAL/MOL
REMARK 924 INTRA-LIGAND FREE ENERGY PREDICTED BY IDOCK:   -0.80 KCAL/MOL
REMARK 927      BINDING AFFINITY PREDICTED BY RF-SCORE:    0.00 PKD
ROOT
HETATM    1  C   UNL     1     -10.559  15.207  65.178  1.00  0.00    -0.424 C  
HETATM    2  N   UNL     1     -11.304  14.032  65.629  1.00  0.00    -0.309 NA 
HETATM    3  C   UNL     1     -12.591  13.897  64.933  1.00  0.00    -0.347 C  
HETATM    4  C   UNL     1     -12.476  13.391  63.495  1.00  0.00    -0.287 C  
HETATM    5  C   UNL     1     -11.644  12.118  63.410  1.00  0.00    -0.508 C  
HETATM    6  C   UNL     1     -10.312  12.290  64.131  1.00  0.00    -0.396 C  
HETATM    7  C   UNL     1     -10.480  12.797  65.573  1.00  0.00    -0.287 C  
ENDROOT
BRANCH   7   8
HETATM    8  C   UNL     1     -11.105  11.746  66.513  1.00  0.00    -0.364 C  
BRANCH   8   9
HETATM    9  C   UNL     1     -10.389  11.520  67.862  1.00  0.00    -0.183 C  
BRANCH   9  10
HETATM   10  N   UNL     1      -8.933  11.833  67.870  1.00  0.00    -0.172 NA 
HETATM   11  C   UNL     1      -8.012  10.832  67.429  1.00  0.00    -0.112 A  
HETATM   12  C   UNL     1      -6.641  11.114  67.248  1.00  0.00    -0.083 A  
HETATM   13  S   UNL     1      -5.887  12.680  67.600  1.00  0.00    -0.140 SA 
HETATM   14  C   UNL     1      -5.741  10.135  66.761  1.00  0.00    -0.050 A  
HETATM   15  C   UNL     1      -6.168   8.852  66.452  1.00  0.00    -0.064 A  
HETATM   16  C   UNL     1      -7.255  13.644  68.177  1.00  0.00    -0.117 A  
HETATM   17  C   UNL     1      -7.497   8.532  66.657  1.00  0.00    -0.082 A  
HETATM   18  C   UNL     1      -8.575  13.164  68.271  1.00  0.00    -0.166 A  
HETATM   19  C   UNL     1      -9.525  14.088  68.767  1.00  0.00    -0.076 A  
HETATM   20  C   UNL     1      -8.389   9.496  67.150  1.00  0.00    -0.131 A  
HETATM   21  C   UNL     1      -9.227  15.436  69.025  1.00  0.00    -0.235 A  
HETATM   22  C   UNL     1      -6.935  14.974  68.525  1.00  0.00    -0.106 A  
HETATM   23  C   UNL     1      -7.917  15.873  68.924  1.00  0.00    -0.204 A  
BRANCH  21  24
HETATM   24  S   UNL     1     -10.537  16.610  69.450  1.00  0.00    -0.300 S  
HETATM   25  O   UNL     1     -11.832  15.886  69.218  1.00  0.00    -0.371 OA 
HETATM   26  C   UNL     1     -10.298  17.730  68.039  1.00  0.00    -0.393 C  
ENDBRANCH  21  24
ENDBRANCH   9  10
ENDBRANCH   8   9
ENDBRANCH   7   8
TORSDOF 4
ENDMDL
MODEL       89
REMARK 921   NORMALIZED FREE ENERGY PREDICTED BY IDOCK:   -4.80 KCAL/MOL
REMARK 922        TOTAL FREE ENERGY PREDICTED BY IDOCK:   -6.70 KCAL/MOL
REMARK 923 INTER-LIGAND FREE ENERGY PREDICTED BY IDOCK:   -6.41 KCAL/MOL
REMARK 924 INTRA-LIGAND FREE ENERGY PREDICTED BY IDOCK:   -0.28 KCAL/MOL
REMARK 927      BINDING AFFINITY PREDICTED BY RF-SCORE:    0.00 PKD
ROOT
HETATM    1  C   UNL     1     -12.794   9.158  72.540  1.00  0.00    -0.317 C  
HETATM    2  N   UNL     1     -11.570   8.884  71.788  1.00  0.00    -0.328 NA 
HETATM    3  C   UNL     1     -10.564   8.198  72.609  1.00  0.00    -0.344 C  
HETATM    4  C   UNL     1     -10.858   6.718  72.855  1.00  0.00    -0.304 C  
HETATM    5  C   UNL     1     -11.139   5.974  71.556  1.00  0.00    -0.336 C  
HETATM    6  C   UNL     1     -12.193   6.703  70.729  1.00  0.00    -0.302 C  
HETATM    7  C   UNL     1     -11.851   8.186  70.507  1.00  0.00    -0.005 C  
ENDROOT
BRANCH   7   8
HETATM    8  C   UNL     1     -10.650   8.392  69.561  1.00  0.00    -0.217 C  
BRANCH   8   9
HETATM    9  C   UNL     1     -10.006   9.794  69.565  1.00  0.00    -0.214 C  
BRANCH   9  10
HETATM   10  N   UNL     1     -10.449  10.702  68.471  1.00  0.00    -0.180 NA 
HETATM   11  C   UNL     1     -11.153  11.899  68.813  1.00  0.00    -0.245 A  
HETATM   12  C   UNL     1     -11.451  12.885  67.848  1.00  0.00    -0.318 A  
HETATM   13  S   UNL     1     -11.067  12.744  66.122  1.00  0.00    -0.301 SA 
HETATM   14  C   UNL     1     -12.102  14.092  68.199  1.00  0.00    -0.307 A  
HETATM   15  C   UNL     1     -12.484  14.352  69.507  1.00  0.00    -0.164 A  
HETATM   16  C   UNL     1     -10.284  11.159  66.031  1.00  0.00    -0.250 A  
HETATM   17  C   UNL     1     -12.244  13.389  70.468  1.00  0.00    -0.425 A  
HETATM   18  C   UNL     1     -10.069  10.320  67.140  1.00  0.00    -0.210 A  
HETATM   19  C   UNL     1      -9.436   9.086  66.857  1.00  0.00    -0.219 A  
HETATM   20  C   UNL     1     -11.609  12.186  70.121  1.00  0.00    -0.202 A  
HETATM   21  C   UNL     1      -8.925   8.755  65.592  1.00  0.00    -0.200 A  
HETATM   22  C   UNL     1      -9.854  10.787  64.739  1.00  0.00    -0.358 A  
HETATM   23  C   UNL     1      -9.156   9.604  64.522  1.00  0.00    -0.287 A  
BRANCH  21  24
HETATM   24  S   UNL     1      -7.939   7.257  65.353  1.00  0.00    -0.130 S  
HETATM   25  O   UNL     1      -8.073   6.901  63.901  1.00  0.00    -0.095 OA 
HETATM   26  C   UNL     1      -9.024   6.128  66.276  1.00  0.00    -0.154 C  
ENDBRANCH  21  24
ENDBRANCH   9  10
ENDBRANCH   8   9
ENDBRANCH   7   8
TORSDOF 4
ENDMDL
MODEL       90
REMARK 921   NORMALIZED FREE ENERGY PREDICTED BY IDOCK:   -4.78 KCAL/MOL
REMARK 922        TOTAL FREE ENERGY PREDICTED BY IDOCK:   -6.67 KCAL/MOL
REMARK 923 INTER-LIGAND FREE ENERGY PREDICTED BY IDOCK:   -5.78 KCAL/MOL
REMARK 924 INTRA-LIGAND FREE ENERGY PREDICTED BY IDOCK:   -0.89 KCAL/MOL
REMARK 927      BINDING AFFINITY PREDICTED BY RF-SCORE:    0.00 PKD
ROOT
HETATM    1  C   UNL     1     -11.131   9.379  70.274  1.00  0.00    -0.257 C  
HETATM    2  N   UNL     1      -9.894   8.988  69.599  1.00  0.00    -0.173 NA 
HETATM    3  C   UNL     1      -9.686   7.534  69.634  1.00  0.00    -0.167 C  
HETATM    4  C   UNL     1     -10.574   6.750  68.667  1.00  0.00    -0.263 C  
HETATM    5  C   UNL     1     -10.495   7.305  67.251  1.00  0.00    -0.380 C  
HETATM    6  C   UNL     1     -10.723   8.813  67.244  1.00  0.00    -0.217 C  
HETATM    7  C   UNL     1      -9.805   9.556  68.229  1.00  0.00    -0.155 C  
ENDROOT
BRANCH   7   8
HETATM    8  C   UNL     1      -8.326   9.557  67.791  1.00  0.00    -0.118 C  
BRANCH   8   9
HETATM    9  C   UNL     1      -7.848  10.787  66.992  1.00  0.00    -0.121 C  
BRANCH   9  10
HETATM   10  N   UNL     1      -8.235  10.801  65.553  1.00  0.00    -0.141 NA 
HETATM   11  C   UNL     1      -7.519   9.964  64.640  1.00  0.00    -0.140 A  
HETATM   12  C   UNL     1      -7.938   9.797  63.303  1.00  0.00    -0.145 A  
HETATM   13  S   UNL     1      -9.325  10.631  62.578  1.00  0.00    -0.267 SA 
HETATM   14  C   UNL     1      -7.257   8.928  62.417  1.00  0.00    -0.099 A  
HETATM   15  C   UNL     1      -6.142   8.212  62.823  1.00  0.00    -0.082 A  
HETATM   16  C   UNL     1      -9.929  11.613  63.922  1.00  0.00    -0.327 A  
HETATM   17  C   UNL     1      -5.681   8.384  64.114  1.00  0.00    -0.064 A  
HETATM   18  C   UNL     1      -9.359  11.625  65.209  1.00  0.00    -0.096 A  
HETATM   19  C   UNL     1      -9.982  12.486  66.143  1.00  0.00    -0.267 A  
HETATM   20  C   UNL     1      -6.346   9.254  64.992  1.00  0.00    -0.067 A  
HETATM   21  C   UNL     1     -11.167  13.188  65.873  1.00  0.00    -0.289 A  
HETATM   22  C   UNL     1     -11.067  12.391  63.620  1.00  0.00    -0.535 A  
HETATM   23  C   UNL     1     -11.699  13.156  64.594  1.00  0.00    -0.404 A  
BRANCH  21  24
HETATM   24  S   UNL     1     -12.024  14.100  67.180  1.00  0.00    -0.395 S  
HETATM   25  O   UNL     1     -11.321  15.422  67.289  1.00  0.00    -0.309 OA 
HETATM   26  C   UNL     1     -11.451  13.082  68.572  1.00  0.00    -0.304 C  
ENDBRANCH  21  24
ENDBRANCH   9  10
ENDBRANCH   8   9
ENDBRANCH   7   8
TORSDOF 4
ENDMDL
MODEL       91
REMARK 921   NORMALIZED FREE ENERGY PREDICTED BY IDOCK:   -4.77 KCAL/MOL
REMARK 922        TOTAL FREE ENERGY PREDICTED BY IDOCK:   -6.66 KCAL/MOL
REMARK 923 INTER-LIGAND FREE ENERGY PREDICTED BY IDOCK:   -6.17 KCAL/MOL
REMARK 924 INTRA-LIGAND FREE ENERGY PREDICTED BY IDOCK:   -0.49 KCAL/MOL
REMARK 927      BINDING AFFINITY PREDICTED BY RF-SCORE:    0.00 PKD
ROOT
HETATM    1  C   UNL     1      -9.680   5.997  71.141  1.00  0.00    -0.177 C  
HETATM    2  N   UNL     1     -10.374   6.924  70.246  1.00  0.00    -0.196 NA 
HETATM    3  C   UNL     1     -11.794   7.063  70.594  1.00  0.00    -0.330 C  
HETATM    4  C   UNL     1     -12.055   7.916  71.836  1.00  0.00    -0.352 C  
HETATM    5  C   UNL     1     -11.353   9.264  71.752  1.00  0.00    -0.437 C  
HETATM    6  C   UNL     1      -9.879   9.090  71.399  1.00  0.00    -0.381 C  
HETATM    7  C   UNL     1      -9.669   8.228  70.143  1.00  0.00    -0.176 C  
ENDROOT
BRANCH   7   8
HETATM    8  C   UNL     1     -10.123   8.930  68.847  1.00  0.00    -0.209 C  
BRANCH   8   9
HETATM    9  C   UNL     1      -9.211  10.061  68.324  1.00  0.00    -0.129 C  
BRANCH   9  10
HETATM   10  N   UNL     1      -9.154  10.199  66.842  1.00  0.00    -0.142 NA 
HETATM   11  C   UNL     1      -8.570   9.143  66.075  1.00  0.00    -0.146 A  
HETATM   12  C   UNL     1      -8.635   9.126  64.665  1.00  0.00    -0.182 A  
HETATM   13  S   UNL     1      -9.367  10.409  63.683  1.00  0.00    -0.310 SA 
HETATM   14  C   UNL     1      -8.101   8.053  63.912  1.00  0.00    -0.097 A  
HETATM   15  C   UNL     1      -7.480   6.977  64.527  1.00  0.00    -0.099 A  
HETATM   16  C   UNL     1      -9.918  11.564  64.907  1.00  0.00    -0.259 A  
HETATM   17  C   UNL     1      -7.363   6.982  65.905  1.00  0.00    -0.075 A  
HETATM   18  C   UNL     1      -9.761  11.379  66.293  1.00  0.00    -0.212 A  
HETATM   19  C   UNL     1     -10.259  12.424  67.107  1.00  0.00    -0.226 A  
HETATM   20  C   UNL     1      -7.881   8.050  66.654  1.00  0.00    -0.098 A  
HETATM   21  C   UNL     1     -10.985  13.514  66.602  1.00  0.00    -0.288 A  
HETATM   22  C   UNL     1     -10.566  12.706  64.391  1.00  0.00    -0.388 A  
HETATM   23  C   UNL     1     -11.118  13.666  65.232  1.00  0.00    -0.307 A  
BRANCH  21  24
HETATM   24  S   UNL     1     -11.776  14.698  67.719  1.00  0.00    -0.334 S  
HETATM   25  O   UNL     1     -10.848  15.875  67.797  1.00  0.00    -0.311 OA 
HETATM   26  C   UNL     1     -11.551  13.745  69.250  1.00  0.00    -0.312 C  
ENDBRANCH  21  24
ENDBRANCH   9  10
ENDBRANCH   8   9
ENDBRANCH   7   8
TORSDOF 4
ENDMDL
MODEL       92
REMARK 921   NORMALIZED FREE ENERGY PREDICTED BY IDOCK:   -4.75 KCAL/MOL
REMARK 922        TOTAL FREE ENERGY PREDICTED BY IDOCK:   -6.63 KCAL/MOL
REMARK 923 INTER-LIGAND FREE ENERGY PREDICTED BY IDOCK:   -6.11 KCAL/MOL
REMARK 924 INTRA-LIGAND FREE ENERGY PREDICTED BY IDOCK:   -0.52 KCAL/MOL
REMARK 927      BINDING AFFINITY PREDICTED BY RF-SCORE:    0.00 PKD
ROOT
HETATM    1  C   UNL     1      -9.281   4.911  65.316  1.00  0.00    -0.139 C  
HETATM    2  N   UNL     1      -9.329   5.849  66.438  1.00  0.00    -0.155 NA 
HETATM    3  C   UNL     1      -9.268   5.158  67.733  1.00  0.00    -0.115 C  
HETATM    4  C   UNL     1      -7.877   4.640  68.102  1.00  0.00    -0.081 C  
HETATM    5  C   UNL     1      -6.819   5.729  67.984  1.00  0.00    -0.064 C  
HETATM    6  C   UNL     1      -6.900   6.422  66.628  1.00  0.00    -0.066 C  
HETATM    7  C   UNL     1      -8.316   6.927  66.305  1.00  0.00    -0.126 C  
ENDROOT
BRANCH   7   8
HETATM    8  C   UNL     1      -8.747   8.118  67.185  1.00  0.00    -0.130 C  
BRANCH   8   9
HETATM    9  C   UNL     1     -10.220   8.562  67.065  1.00  0.00    -0.301 C  
BRANCH   9  10
HETATM   10  N   UNL     1     -10.670   9.555  68.081  1.00  0.00    -0.220 NA 
HETATM   11  C   UNL     1     -10.969  10.887  67.654  1.00  0.00    -0.293 A  
HETATM   12  C   UNL     1     -11.561  11.829  68.523  1.00  0.00    -0.321 A  
HETATM   13  S   UNL     1     -11.938  11.517  70.228  1.00  0.00    -0.347 SA 
HETATM   14  C   UNL     1     -11.902  13.130  68.084  1.00  0.00    -0.386 A  
HETATM   15  C   UNL     1     -11.659  13.539  66.781  1.00  0.00    -0.397 A  
HETATM   16  C   UNL     1     -11.394   9.846  70.443  1.00  0.00    -0.307 A  
HETATM   17  C   UNL     1     -11.043  12.655  65.916  1.00  0.00    -0.323 A  
HETATM   18  C   UNL     1     -10.829   9.062  69.420  1.00  0.00    -0.138 A  
HETATM   19  C   UNL     1     -10.449   7.752  69.796  1.00  0.00    -0.233 A  
HETATM   20  C   UNL     1     -10.693  11.368  66.352  1.00  0.00    -0.325 A  
HETATM   21  C   UNL     1     -10.728   7.200  71.056  1.00  0.00    -0.232 A  
HETATM   22  C   UNL     1     -11.592   9.323  71.739  1.00  0.00    -0.458 A  
HETATM   23  C   UNL     1     -11.283   8.001  72.040  1.00  0.00    -0.356 A  
BRANCH  21  24
HETATM   24  S   UNL     1     -10.406   5.452  71.395  1.00  0.00    -0.223 S  
HETATM   25  O   UNL     1     -11.000   5.178  72.747  1.00  0.00    -0.239 OA 
HETATM   26  C   UNL     1      -8.610   5.598  71.627  1.00  0.00    -0.132 C  
ENDBRANCH  21  24
ENDBRANCH   9  10
ENDBRANCH   8   9
ENDBRANCH   7   8
TORSDOF 4
ENDMDL
MODEL       93
REMARK 921   NORMALIZED FREE ENERGY PREDICTED BY IDOCK:   -4.74 KCAL/MOL
REMARK 922        TOTAL FREE ENERGY PREDICTED BY IDOCK:   -6.62 KCAL/MOL
REMARK 923 INTER-LIGAND FREE ENERGY PREDICTED BY IDOCK:   -6.08 KCAL/MOL
REMARK 924 INTRA-LIGAND FREE ENERGY PREDICTED BY IDOCK:   -0.54 KCAL/MOL
REMARK 927      BINDING AFFINITY PREDICTED BY RF-SCORE:    0.00 PKD
ROOT
HETATM    1  C   UNL     1      -8.320   6.714  66.029  1.00  0.00    -0.134 C  
HETATM    2  N   UNL     1      -8.845   7.489  67.153  1.00  0.00    -0.123 NA 
HETATM    3  C   UNL     1      -9.199   6.632  68.292  1.00  0.00    -0.121 C  
HETATM    4  C   UNL     1      -7.998   6.115  69.085  1.00  0.00    -0.108 C  
HETATM    5  C   UNL     1      -7.060   7.245  69.489  1.00  0.00    -0.074 C  
HETATM    6  C   UNL     1      -6.701   8.111  68.287  1.00  0.00    -0.064 C  
HETATM    7  C   UNL     1      -7.942   8.609  67.525  1.00  0.00    -0.106 C  
ENDROOT
BRANCH   7   8
HETATM    8  C   UNL     1      -8.755   9.655  68.314  1.00  0.00    -0.120 C  
BRANCH   8   9
HETATM    9  C   UNL     1     -10.188   9.931  67.813  1.00  0.00    -0.197 C  
BRANCH   9  10
HETATM   10  N   UNL     1     -11.064  10.669  68.765  1.00  0.00    -0.246 NA 
HETATM   11  C   UNL     1     -11.559   9.982  69.917  1.00  0.00    -0.175 A  
HETATM   12  C   UNL     1     -12.249  10.660  70.946  1.00  0.00    -0.395 A  
HETATM   13  S   UNL     1     -12.644  12.389  70.913  1.00  0.00    -0.148 SA 
HETATM   14  C   UNL     1     -12.692   9.987  72.109  1.00  0.00    -0.354 A  
HETATM   15  C   UNL     1     -12.476   8.628  72.283  1.00  0.00    -0.460 A  
HETATM   16  C   UNL     1     -11.967  12.909  69.362  1.00  0.00    -0.269 A  
HETATM   17  C   UNL     1     -11.840   7.927  71.277  1.00  0.00    -0.321 A  
HETATM   18  C   UNL     1     -11.291  12.056  68.470  1.00  0.00    -0.272 A  
HETATM   19  C   UNL     1     -10.835  12.662  67.276  1.00  0.00    -0.277 A  
HETATM   20  C   UNL     1     -11.410   8.589  70.117  1.00  0.00    -0.072 A  
HETATM   21  C   UNL     1     -10.915  14.042  67.032  1.00  0.00    -0.297 A  
HETATM   22  C   UNL     1     -12.132  14.282  69.077  1.00  0.00    -0.320 A  
HETATM   23  C   UNL     1     -11.590  14.852  67.931  1.00  0.00    -0.364 A  
BRANCH  21  24
HETATM   24  S   UNL     1     -10.119  14.776  65.582  1.00  0.00    -0.381 S  
HETATM   25  O   UNL     1      -9.819  16.200  65.953  1.00  0.00    -0.320 OA 
HETATM   26  C   UNL     1     -11.589  14.808  64.514  1.00  0.00    -0.361 C  
ENDBRANCH  21  24
ENDBRANCH   9  10
ENDBRANCH   8   9
ENDBRANCH   7   8
TORSDOF 4
ENDMDL
MODEL       94
REMARK 921   NORMALIZED FREE ENERGY PREDICTED BY IDOCK:   -4.71 KCAL/MOL
REMARK 922        TOTAL FREE ENERGY PREDICTED BY IDOCK:   -6.58 KCAL/MOL
REMARK 923 INTER-LIGAND FREE ENERGY PREDICTED BY IDOCK:   -6.13 KCAL/MOL
REMARK 924 INTRA-LIGAND FREE ENERGY PREDICTED BY IDOCK:   -0.46 KCAL/MOL
REMARK 927      BINDING AFFINITY PREDICTED BY RF-SCORE:    0.00 PKD
ROOT
HETATM    1  C   UNL     1      -6.983  10.686  66.051  1.00  0.00    -0.128 C  
HETATM    2  N   UNL     1      -8.112  10.442  66.949  1.00  0.00    -0.116 NA 
HETATM    3  C   UNL     1      -8.741  11.693  67.392  1.00  0.00    -0.155 C  
HETATM    4  C   UNL     1      -9.609  12.369  66.330  1.00  0.00    -0.249 C  
HETATM    5  C   UNL     1     -10.620  11.402  65.729  1.00  0.00    -0.315 C  
HETATM    6  C   UNL     1      -9.939  10.118  65.269  1.00  0.00    -0.381 C  
HETATM    7  C   UNL     1      -9.081   9.475  66.372  1.00  0.00    -0.159 C  
ENDROOT
BRANCH   7   8
HETATM    8  C   UNL     1      -9.922   8.878  67.519  1.00  0.00    -0.258 C  
BRANCH   8   9
HETATM    9  C   UNL     1      -9.272   8.879  68.918  1.00  0.00    -0.140 C  
BRANCH   9  10
HETATM   10  N   UNL     1     -10.089   8.260  70.000  1.00  0.00    -0.193 NA 
HETATM   11  C   UNL     1     -11.129   9.034  70.604  1.00  0.00    -0.265 A  
HETATM   12  C   UNL     1     -12.049   8.461  71.508  1.00  0.00    -0.301 A  
HETATM   13  S   UNL     1     -11.998   6.774  72.053  1.00  0.00    -0.296 SA 
HETATM   14  C   UNL     1     -13.108   9.218  72.065  1.00  0.00    -0.512 A  
HETATM   15  C   UNL     1     -13.280  10.558  71.753  1.00  0.00    -0.522 A  
HETATM   16  C   UNL     1     -10.590   6.134  71.192  1.00  0.00    -0.246 A  
HETATM   17  C   UNL     1     -12.372  11.159  70.903  1.00  0.00    -0.500 A  
HETATM   18  C   UNL     1      -9.797   6.888  70.306  1.00  0.00    -0.178 A  
HETATM   19  C   UNL     1      -8.708   6.196  69.725  1.00  0.00    -0.135 A  
HETATM   20  C   UNL     1     -11.314  10.415  70.359  1.00  0.00    -0.417 A  
HETATM   21  C   UNL     1      -8.490   4.820  69.895  1.00  0.00    -0.074 A  
HETATM   22  C   UNL     1     -10.317   4.771  71.437  1.00  0.00    -0.192 A  
HETATM   23  C   UNL     1      -9.289   4.110  70.776  1.00  0.00    -0.223 A  
BRANCH  21  24
HETATM   24  S   UNL     1      -7.207   3.961  68.952  1.00  0.00    -0.054 S  
HETATM   25  O   UNL     1      -7.283   4.510  67.557  1.00  0.00    -0.067 OA 
HETATM   26  C   UNL     1      -8.008   2.330  68.922  1.00  0.00    -0.051 C  
ENDBRANCH  21  24
ENDBRANCH   9  10
ENDBRANCH   8   9
ENDBRANCH   7   8
TORSDOF 4
ENDMDL
MODEL       95
REMARK 921   NORMALIZED FREE ENERGY PREDICTED BY IDOCK:   -4.66 KCAL/MOL
REMARK 922        TOTAL FREE ENERGY PREDICTED BY IDOCK:   -6.53 KCAL/MOL
REMARK 923 INTER-LIGAND FREE ENERGY PREDICTED BY IDOCK:   -5.83 KCAL/MOL
REMARK 924 INTRA-LIGAND FREE ENERGY PREDICTED BY IDOCK:   -0.70 KCAL/MOL
REMARK 927      BINDING AFFINITY PREDICTED BY RF-SCORE:    0.00 PKD
ROOT
HETATM    1  C   UNL     1     -11.903  14.661  64.299  1.00  0.00    -0.337 C  
HETATM    2  N   UNL     1     -12.193  13.476  65.106  1.00  0.00    -0.403 NA 
HETATM    3  C   UNL     1     -12.677  12.358  64.285  1.00  0.00    -0.342 C  
HETATM    4  C   UNL     1     -11.586  11.657  63.475  1.00  0.00    -0.408 C  
HETATM    5  C   UNL     1     -10.405  11.255  64.349  1.00  0.00    -0.388 C  
HETATM    6  C   UNL     1      -9.918  12.436  65.181  1.00  0.00    -0.219 C  
HETATM    7  C   UNL     1     -11.050  13.105  65.979  1.00  0.00    -0.280 C  
ENDROOT
BRANCH   7   8
HETATM    8  C   UNL     1     -11.576  12.227  67.132  1.00  0.00    -0.423 C  
BRANCH   8   9
HETATM    9  C   UNL     1     -10.855  12.369  68.488  1.00  0.00    -0.242 C  
BRANCH   9  10
HETATM   10  N   UNL     1      -9.495  11.764  68.553  1.00  0.00    -0.190 NA 
HETATM   11  C   UNL     1      -9.379  10.353  68.756  1.00  0.00    -0.175 A  
HETATM   12  C   UNL     1      -8.138   9.689  68.657  1.00  0.00    -0.100 A  
HETATM   13  S   UNL     1      -6.592  10.500  68.346  1.00  0.00    -0.056 SA 
HETATM   14  C   UNL     1      -8.035   8.285  68.808  1.00  0.00    -0.114 A  
HETATM   15  C   UNL     1      -9.149   7.504  69.072  1.00  0.00    -0.140 A  
HETATM   16  C   UNL     1      -7.069  12.200  68.216  1.00  0.00    -0.084 A  
HETATM   17  C   UNL     1     -10.374   8.128  69.215  1.00  0.00    -0.222 A  
HETATM   18  C   UNL     1      -8.394  12.659  68.337  1.00  0.00    -0.125 A  
HETATM   19  C   UNL     1      -8.567  14.058  68.213  1.00  0.00    -0.180 A  
HETATM   20  C   UNL     1     -10.478   9.521  69.078  1.00  0.00    -0.229 A  
HETATM   21  C   UNL     1      -7.529  14.935  67.857  1.00  0.00    -0.141 A  
HETATM   22  C   UNL     1      -6.007  13.092  67.950  1.00  0.00    -0.134 A  
HETATM   23  C   UNL     1      -6.237  14.449  67.747  1.00  0.00    -0.151 A  
BRANCH  21  24
HETATM   24  S   UNL     1      -7.867  16.677  67.505  1.00  0.00    -0.178 S  
HETATM   25  O   UNL     1      -8.188  16.748  66.041  1.00  0.00    -0.423 OA 
HETATM   26  C   UNL     1      -6.163  17.278  67.701  1.00  0.00    -0.150 C  
ENDBRANCH  21  24
ENDBRANCH   9  10
ENDBRANCH   8   9
ENDBRANCH   7   8
TORSDOF 4
ENDMDL
MODEL       96
REMARK 921   NORMALIZED FREE ENERGY PREDICTED BY IDOCK:   -4.65 KCAL/MOL
REMARK 922        TOTAL FREE ENERGY PREDICTED BY IDOCK:   -6.52 KCAL/MOL
REMARK 923 INTER-LIGAND FREE ENERGY PREDICTED BY IDOCK:   -5.79 KCAL/MOL
REMARK 924 INTRA-LIGAND FREE ENERGY PREDICTED BY IDOCK:   -0.73 KCAL/MOL
REMARK 927      BINDING AFFINITY PREDICTED BY RF-SCORE:    0.00 PKD
ROOT
HETATM    1  C   UNL     1      -8.654   6.793  65.983  1.00  0.00    -0.145 C  
HETATM    2  N   UNL     1      -7.999   8.101  65.999  1.00  0.00    -0.096 NA 
HETATM    3  C   UNL     1      -7.541   8.502  64.663  1.00  0.00    -0.102 C  
HETATM    4  C   UNL     1      -8.659   8.968  63.730  1.00  0.00    -0.147 C  
HETATM    5  C   UNL     1      -9.529  10.035  64.381  1.00  0.00    -0.349 C  
HETATM    6  C   UNL     1      -9.998   9.589  65.761  1.00  0.00    -0.316 C  
HETATM    7  C   UNL     1      -8.837   9.133  66.662  1.00  0.00    -0.128 C  
ENDROOT
BRANCH   7   8
HETATM    8  C   UNL     1      -7.926  10.296  67.106  1.00  0.00    -0.114 C  
BRANCH   8   9
HETATM    9  C   UNL     1      -8.104  10.792  68.556  1.00  0.00    -0.133 C  
BRANCH   9  10
HETATM   10  N   UNL     1      -9.295  11.657  68.791  1.00  0.00    -0.108 NA 
HETATM   11  C   UNL     1      -9.339  12.948  68.179  1.00  0.00    -0.214 A  
HETATM   12  C   UNL     1     -10.502  13.748  68.216  1.00  0.00    -0.248 A  
HETATM   13  S   UNL     1     -11.995  13.301  69.062  1.00  0.00    -0.244 SA 
HETATM   14  C   UNL     1     -10.559  15.003  67.565  1.00  0.00    -0.265 A  
HETATM   15  C   UNL     1      -9.469  15.506  66.871  1.00  0.00    -0.244 A  
HETATM   16  C   UNL     1     -11.589  11.721  69.751  1.00  0.00    -0.299 A  
HETATM   17  C   UNL     1      -8.301  14.767  66.849  1.00  0.00    -0.184 A  
HETATM   18  C   UNL     1     -10.347  11.081  69.580  1.00  0.00    -0.040 A  
HETATM   19  C   UNL     1     -10.216   9.826  70.220  1.00  0.00    -0.346 A  
HETATM   20  C   UNL     1      -8.238  13.527  67.504  1.00  0.00    -0.186 A  
HETATM   21  C   UNL     1     -11.277   9.178  70.871  1.00  0.00    -0.295 A  
HETATM   22  C   UNL     1     -12.630  11.113  70.485  1.00  0.00    -0.360 A  
HETATM   23  C   UNL     1     -12.485   9.839  71.023  1.00  0.00    -0.414 A  
BRANCH  21  24
HETATM   24  S   UNL     1     -11.097   7.484  71.479  1.00  0.00    -0.239 S  
HETATM   25  O   UNL     1     -10.469   6.708  70.358  1.00  0.00    -0.201 OA 
HETATM   26  C   UNL     1     -12.864   7.062  71.489  1.00  0.00    -0.372 C  
ENDBRANCH  21  24
ENDBRANCH   9  10
ENDBRANCH   8   9
ENDBRANCH   7   8
TORSDOF 4
ENDMDL
MODEL       97
REMARK 921   NORMALIZED FREE ENERGY PREDICTED BY IDOCK:   -4.63 KCAL/MOL
REMARK 922        TOTAL FREE ENERGY PREDICTED BY IDOCK:   -6.49 KCAL/MOL
REMARK 923 INTER-LIGAND FREE ENERGY PREDICTED BY IDOCK:   -5.68 KCAL/MOL
REMARK 924 INTRA-LIGAND FREE ENERGY PREDICTED BY IDOCK:   -0.82 KCAL/MOL
REMARK 927      BINDING AFFINITY PREDICTED BY RF-SCORE:    0.00 PKD
ROOT
HETATM    1  C   UNL     1     -11.876  10.198  70.295  1.00  0.00    -0.261 C  
HETATM    2  N   UNL     1     -11.925   9.576  71.618  1.00  0.00    -0.384 NA 
HETATM    3  C   UNL     1     -13.286   9.571  72.172  1.00  0.00    -0.461 C  
HETATM    4  C   UNL     1     -14.214   8.531  71.543  1.00  0.00    -0.448 C  
HETATM    5  C   UNL     1     -13.590   7.142  71.546  1.00  0.00    -0.408 C  
HETATM    6  C   UNL     1     -12.184   7.175  70.958  1.00  0.00    -0.384 C  
HETATM    7  C   UNL     1     -11.288   8.234  71.625  1.00  0.00    -0.272 C  
ENDROOT
BRANCH   7   8
HETATM    8  C   UNL     1     -10.911   7.877  73.077  1.00  0.00    -0.408 C  
BRANCH   8   9
HETATM    9  C   UNL     1      -9.450   7.443  73.319  1.00  0.00    -0.214 C  
BRANCH   9  10
HETATM   10  N   UNL     1      -8.969   6.321  72.465  1.00  0.00    -0.138 NA 
HETATM   11  C   UNL     1      -9.503   5.012  72.684  1.00  0.00    -0.140 A  
HETATM   12  C   UNL     1      -9.225   3.941  71.808  1.00  0.00    -0.125 A  
HETATM   13  S   UNL     1      -8.152   4.054  70.400  1.00  0.00    -0.054 SA 
HETATM   14  C   UNL     1      -9.796   2.660  71.999  1.00  0.00    -0.233 A  
HETATM   15  C   UNL     1     -10.646   2.401  73.063  1.00  0.00    -0.247 A  
HETATM   16  C   UNL     1      -7.620   5.742  70.456  1.00  0.00    -0.090 A  
HETATM   17  C   UNL     1     -10.907   3.417  73.963  1.00  0.00    -0.270 A  
HETATM   18  C   UNL     1      -8.036   6.668  71.430  1.00  0.00    -0.111 A  
HETATM   19  C   UNL     1      -7.488   7.967  71.309  1.00  0.00    -0.072 A  
HETATM   20  C   UNL     1     -10.332   4.684  73.783  1.00  0.00    -0.261 A  
HETATM   21  C   UNL     1      -6.692   8.369  70.224  1.00  0.00    -0.036 A  
HETATM   22  C   UNL     1      -6.744   6.119  69.416  1.00  0.00    -0.060 A  
HETATM   23  C   UNL     1      -6.300   7.430  69.285  1.00  0.00    -0.036 A  
BRANCH  21  24
HETATM   24  S   UNL     1      -6.205  10.100  70.023  1.00  0.00    -0.090 S  
HETATM   25  O   UNL     1      -6.142  10.675  71.408  1.00  0.00    -0.332 OA 
HETATM   26  C   UNL     1      -7.759  10.683  69.280  1.00  0.00    -0.142 C  
ENDBRANCH  21  24
ENDBRANCH   9  10
ENDBRANCH   8   9
ENDBRANCH   7   8
TORSDOF 4
ENDMDL
MODEL       98
REMARK 921   NORMALIZED FREE ENERGY PREDICTED BY IDOCK:   -4.61 KCAL/MOL
REMARK 922        TOTAL FREE ENERGY PREDICTED BY IDOCK:   -6.46 KCAL/MOL
REMARK 923 INTER-LIGAND FREE ENERGY PREDICTED BY IDOCK:   -5.77 KCAL/MOL
REMARK 924 INTRA-LIGAND FREE ENERGY PREDICTED BY IDOCK:   -0.69 KCAL/MOL
REMARK 927      BINDING AFFINITY PREDICTED BY RF-SCORE:    0.00 PKD
ROOT
HETATM    1  C   UNL     1     -13.124   9.329  71.504  1.00  0.00    -0.363 C  
HETATM    2  N   UNL     1     -11.688   9.102  71.669  1.00  0.00    -0.353 NA 
HETATM    3  C   UNL     1     -11.410   8.021  72.623  1.00  0.00    -0.405 C  
HETATM    4  C   UNL     1     -11.665   6.617  72.072  1.00  0.00    -0.354 C  
HETATM    5  C   UNL     1     -10.963   6.399  70.739  1.00  0.00    -0.346 C  
HETATM    6  C   UNL     1     -11.277   7.530  69.766  1.00  0.00    -0.072 C  
HETATM    7  C   UNL     1     -11.001   8.920  70.365  1.00  0.00    -0.244 C  
ENDROOT
BRANCH   7   8
HETATM    8  C   UNL     1      -9.498   9.206  70.556  1.00  0.00    -0.291 C  
BRANCH   8   9
HETATM    9  C   UNL     1      -8.880  10.275  69.630  1.00  0.00    -0.103 C  
BRANCH   9  10
HETATM   10  N   UNL     1      -9.346  10.238  68.215  1.00  0.00    -0.136 NA 
HETATM   11  C   UNL     1     -10.259  11.243  67.766  1.00  0.00    -0.180 A  
HETATM   12  C   UNL     1     -10.607  11.372  66.404  1.00  0.00    -0.263 A  
HETATM   13  S   UNL     1     -10.031  10.295  65.118  1.00  0.00    -0.294 SA 
HETATM   14  C   UNL     1     -11.470  12.400  65.955  1.00  0.00    -0.422 A  
HETATM   15  C   UNL     1     -12.020  13.318  66.837  1.00  0.00    -0.430 A  
HETATM   16  C   UNL     1      -9.006   9.154  66.002  1.00  0.00    -0.181 A  
HETATM   17  C   UNL     1     -11.732  13.194  68.183  1.00  0.00    -0.391 A  
HETATM   18  C   UNL     1      -8.777   9.211  67.389  1.00  0.00    -0.115 A  
HETATM   19  C   UNL     1      -7.933   8.200  67.909  1.00  0.00    -0.127 A  
HETATM   20  C   UNL     1     -10.885  12.169  68.633  1.00  0.00    -0.268 A  
HETATM   21  C   UNL     1      -7.250   7.277  67.102  1.00  0.00    -0.092 A  
HETATM   22  C   UNL     1      -8.393   8.168  65.200  1.00  0.00    -0.152 A  
HETATM   23  C   UNL     1      -7.501   7.248  65.740  1.00  0.00    -0.084 A  
BRANCH  21  24
HETATM   24  S   UNL     1      -6.023   6.153  67.814  1.00  0.00    -0.017 S  
HETATM   25  O   UNL     1      -6.085   4.899  66.990  1.00  0.00    -0.029 OA 
HETATM   26  C   UNL     1      -6.909   5.810  69.363  1.00  0.00    -0.062 C  
ENDBRANCH  21  24
ENDBRANCH   9  10
ENDBRANCH   8   9
ENDBRANCH   7   8
TORSDOF 4
ENDMDL
MODEL       99
REMARK 921   NORMALIZED FREE ENERGY PREDICTED BY IDOCK:   -4.61 KCAL/MOL
REMARK 922        TOTAL FREE ENERGY PREDICTED BY IDOCK:   -6.46 KCAL/MOL
REMARK 923 INTER-LIGAND FREE ENERGY PREDICTED BY IDOCK:   -5.96 KCAL/MOL
REMARK 924 INTRA-LIGAND FREE ENERGY PREDICTED BY IDOCK:   -0.50 KCAL/MOL
REMARK 927      BINDING AFFINITY PREDICTED BY RF-SCORE:    0.00 PKD
ROOT
HETATM    1  C   UNL     1      -8.823   5.523  70.550  1.00  0.00    -0.136 C  
HETATM    2  N   UNL     1      -9.847   6.553  70.719  1.00  0.00    -0.183 NA 
HETATM    3  C   UNL     1     -10.983   6.073  71.516  1.00  0.00    -0.277 C  
HETATM    4  C   UNL     1     -10.699   5.974  73.016  1.00  0.00    -0.279 C  
HETATM    5  C   UNL     1     -10.122   7.271  73.567  1.00  0.00    -0.387 C  
HETATM    6  C   UNL     1      -8.940   7.741  72.726  1.00  0.00    -0.236 C  
HETATM    7  C   UNL     1      -9.276   7.827  71.227  1.00  0.00    -0.141 C  
ENDROOT
BRANCH   7   8
HETATM    8  C   UNL     1     -10.252   8.973  70.892  1.00  0.00    -0.324 C  
BRANCH   8   9
HETATM    9  C   UNL     1     -11.033   8.844  69.568  1.00  0.00    -0.084 C  
BRANCH   9  10
HETATM   10  N   UNL     1     -10.717   9.874  68.539  1.00  0.00    -0.223 NA 
HETATM   11  C   UNL     1     -11.052  11.238  68.806  1.00  0.00    -0.233 A  
HETATM   12  C   UNL     1     -10.631  12.285  67.959  1.00  0.00    -0.216 A  
HETATM   13  S   UNL     1      -9.717  12.049  66.457  1.00  0.00    -0.221 SA 
HETATM   14  C   UNL     1     -10.921  13.639  68.254  1.00  0.00    -0.275 A  
HETATM   15  C   UNL     1     -11.642  13.993  69.384  1.00  0.00    -0.349 A  
HETATM   16  C   UNL     1      -9.533  10.289  66.391  1.00  0.00    -0.174 A  
HETATM   17  C   UNL     1     -12.104  12.989  70.213  1.00  0.00    -0.388 A  
HETATM   18  C   UNL     1     -10.030   9.407  67.368  1.00  0.00    -0.199 A  
HETATM   19  C   UNL     1      -9.789   8.034  67.127  1.00  0.00    -0.274 A  
HETATM   20  C   UNL     1     -11.829  11.645  69.917  1.00  0.00    -0.434 A  
HETATM   21  C   UNL     1      -8.996   7.565  66.068  1.00  0.00    -0.127 A  
HETATM   22  C   UNL     1      -8.813   9.813  65.274  1.00  0.00    -0.206 A  
HETATM   23  C   UNL     1      -8.524   8.461  65.124  1.00  0.00    -0.179 A  
BRANCH  21  24
HETATM   24  S   UNL     1      -8.553   5.814  65.945  1.00  0.00    -0.149 S  
HETATM   25  O   UNL     1      -8.867   5.408  64.535  1.00  0.00    -0.090 OA 
HETATM   26  C   UNL     1      -9.894   5.173  66.991  1.00  0.00    -0.177 C  
ENDBRANCH  21  24
ENDBRANCH   9  10
ENDBRANCH   8   9
ENDBRANCH   7   8
TORSDOF 4
ENDMDL
MODEL      100
REMARK 921   NORMALIZED FREE ENERGY PREDICTED BY IDOCK:   -4.60 KCAL/MOL
REMARK 922        TOTAL FREE ENERGY PREDICTED BY IDOCK:   -6.45 KCAL/MOL
REMARK 923 INTER-LIGAND FREE ENERGY PREDICTED BY IDOCK:   -5.77 KCAL/MOL
REMARK 924 INTRA-LIGAND FREE ENERGY PREDICTED BY IDOCK:   -0.67 KCAL/MOL
REMARK 927      BINDING AFFINITY PREDICTED BY RF-SCORE:    0.00 PKD
ROOT
HETATM    1  C   UNL     1      -8.452  12.598  66.449  1.00  0.00     0.244 C  
HETATM    2  N   UNL     1      -9.320  11.510  66.901  1.00  0.00    -0.177 NA 
HETATM    3  C   UNL     1     -10.465  11.312  66.002  1.00  0.00    -0.257 C  
HETATM    4  C   UNL     1     -10.116  10.615  64.687  1.00  0.00    -0.417 C  
HETATM    5  C   UNL     1      -9.342   9.324  64.920  1.00  0.00    -0.142 C  
HETATM    6  C   UNL     1      -8.155   9.561  65.847  1.00  0.00    -0.115 C  
HETATM    7  C   UNL     1      -8.557  10.261  67.157  1.00  0.00    -0.126 C  
ENDROOT
BRANCH   7   8
HETATM    8  C   UNL     1      -9.389   9.360  68.092  1.00  0.00    -0.142 C  
BRANCH   8   9
HETATM    9  C   UNL     1      -9.181   9.565  69.607  1.00  0.00    -0.200 C  
BRANCH   9  10
HETATM   10  N   UNL     1     -10.343   9.200  70.464  1.00  0.00    -0.217 NA 
HETATM   11  C   UNL     1     -10.403   7.882  71.016  1.00  0.00    -0.201 A  
HETATM   12  C   UNL     1     -11.379   7.522  71.971  1.00  0.00    -0.273 A  
HETATM   13  S   UNL     1     -12.664   8.602  72.543  1.00  0.00    -0.196 SA 
HETATM   14  C   UNL     1     -11.404   6.232  72.553  1.00  0.00    -0.313 A  
HETATM   15  C   UNL     1     -10.477   5.263  72.202  1.00  0.00    -0.278 A  
HETATM   16  C   UNL     1     -12.350  10.089  71.635  1.00  0.00    -0.394 A  
HETATM   17  C   UNL     1      -9.533   5.571  71.240  1.00  0.00    -0.185 A  
HETATM   18  C   UNL     1     -11.292  10.246  70.720  1.00  0.00    -0.337 A  
HETATM   19  C   UNL     1     -11.218  11.510  70.087  1.00  0.00    -0.006 A  
HETATM   20  C   UNL     1      -9.513   6.845  70.652  1.00  0.00    -0.165 A  
HETATM   21  C   UNL     1     -12.043  12.593  70.429  1.00  0.00    -0.300 A  
HETATM   22  C   UNL     1     -13.241  11.148  71.912  1.00  0.00    -0.488 A  
HETATM   23  C   UNL     1     -13.076  12.401  71.332  1.00  0.00    -0.299 A  
BRANCH  21  24
HETATM   24  S   UNL     1     -11.751  14.237  69.733  1.00  0.00    -0.325 S  
HETATM   25  O   UNL     1     -12.839  15.116  70.279  1.00  0.00    -0.322 OA 
HETATM   26  C   UNL     1     -12.205  13.837  68.020  1.00  0.00    -0.144 C  
ENDBRANCH  21  24
ENDBRANCH   9  10
ENDBRANCH   8   9
ENDBRANCH   7   8
TORSDOF 4
ENDMDL
MODEL      101
REMARK 921   NORMALIZED FREE ENERGY PREDICTED BY IDOCK:   -4.59 KCAL/MOL
REMARK 922        TOTAL FREE ENERGY PREDICTED BY IDOCK:   -6.44 KCAL/MOL
REMARK 923 INTER-LIGAND FREE ENERGY PREDICTED BY IDOCK:   -5.89 KCAL/MOL
REMARK 924 INTRA-LIGAND FREE ENERGY PREDICTED BY IDOCK:   -0.55 KCAL/MOL
REMARK 927      BINDING AFFINITY PREDICTED BY RF-SCORE:    0.00 PKD
ROOT
HETATM    1  C   UNL     1      -6.307  12.731  67.566  1.00  0.00    -0.162 C  
HETATM    2  N   UNL     1      -7.569  13.366  67.945  1.00  0.00    -0.133 NA 
HETATM    3  C   UNL     1      -7.547  13.848  69.332  1.00  0.00     0.245 C  
HETATM    4  C   UNL     1      -6.732  15.126  69.539  1.00  0.00    -0.171 C  
HETATM    5  C   UNL     1      -7.139  16.219  68.560  1.00  0.00    -0.146 C  
HETATM    6  C   UNL     1      -7.144  15.694  67.128  1.00  0.00    -0.203 C  
HETATM    7  C   UNL     1      -7.979  14.412  66.971  1.00  0.00    -0.014 C  
ENDROOT
BRANCH   7   8
HETATM    8  C   UNL     1      -9.494  14.656  67.121  1.00  0.00    -0.234 C  
BRANCH   8   9
HETATM    9  C   UNL     1     -10.424  13.685  66.363  1.00  0.00    -0.288 C  
BRANCH   9  10
HETATM   10  N   UNL     1     -10.638  12.366  67.020  1.00  0.00    -0.223 NA 
HETATM   11  C   UNL     1     -10.123  11.191  66.387  1.00  0.00    -0.226 A  
HETATM   12  C   UNL     1     -10.138   9.935  67.031  1.00  0.00    -0.218 A  
HETATM   13  S   UNL     1     -10.840   9.641  68.634  1.00  0.00    -0.120 SA 
HETATM   14  C   UNL     1      -9.581   8.784  66.424  1.00  0.00    -0.316 A  
HETATM   15  C   UNL     1      -9.006   8.841  65.163  1.00  0.00    -0.152 A  
HETATM   16  C   UNL     1     -11.435  11.244  69.093  1.00  0.00    -0.297 A  
HETATM   17  C   UNL     1      -9.012  10.047  64.488  1.00  0.00    -0.261 A  
HETATM   18  C   UNL     1     -11.304  12.394  68.291  1.00  0.00    -0.284 A  
HETATM   19  C   UNL     1     -11.856  13.579  68.833  1.00  0.00    -0.384 A  
HETATM   20  C   UNL     1      -9.574  11.186  65.083  1.00  0.00    -0.273 A  
HETATM   21  C   UNL     1     -12.379  13.662  70.133  1.00  0.00    -0.304 A  
HETATM   22  C   UNL     1     -12.045  11.305  70.364  1.00  0.00    -0.474 A  
HETATM   23  C   UNL     1     -12.494  12.510  70.893  1.00  0.00    -0.361 A  
BRANCH  21  24
HETATM   24  S   UNL     1     -12.869  15.256  70.835  1.00  0.00    -0.461 S  
HETATM   25  O   UNL     1     -12.100  16.296  70.074  1.00  0.00    -0.085 OA 
HETATM   26  C   UNL     1     -12.040  15.055  72.440  1.00  0.00    -0.347 C  
ENDBRANCH  21  24
ENDBRANCH   9  10
ENDBRANCH   8   9
ENDBRANCH   7   8
TORSDOF 4
ENDMDL
MODEL      102
REMARK 921   NORMALIZED FREE ENERGY PREDICTED BY IDOCK:   -4.58 KCAL/MOL
REMARK 922        TOTAL FREE ENERGY PREDICTED BY IDOCK:   -6.43 KCAL/MOL
REMARK 923 INTER-LIGAND FREE ENERGY PREDICTED BY IDOCK:   -5.95 KCAL/MOL
REMARK 924 INTRA-LIGAND FREE ENERGY PREDICTED BY IDOCK:   -0.48 KCAL/MOL
REMARK 927      BINDING AFFINITY PREDICTED BY RF-SCORE:    0.00 PKD
ROOT
HETATM    1  C   UNL     1      -7.390  12.396  67.008  1.00  0.00    -0.012 C  
HETATM    2  N   UNL     1      -7.764  10.989  67.151  1.00  0.00    -0.124 NA 
HETATM    3  C   UNL     1      -6.661  10.088  66.788  1.00  0.00    -0.076 C  
HETATM    4  C   UNL     1      -5.553  10.000  67.838  1.00  0.00    -0.038 C  
HETATM    5  C   UNL     1      -6.109   9.693  69.222  1.00  0.00    -0.037 C  
HETATM    6  C   UNL     1      -7.244  10.648  69.576  1.00  0.00    -0.140 C  
HETATM    7  C   UNL     1      -8.334  10.700  68.492  1.00  0.00    -0.130 C  
ENDROOT
BRANCH   7   8
HETATM    8  C   UNL     1      -9.161   9.400  68.405  1.00  0.00    -0.128 C  
BRANCH   8   9
HETATM    9  C   UNL     1     -10.554   9.515  67.753  1.00  0.00    -0.261 C  
BRANCH   9  10
HETATM   10  N   UNL     1     -11.020  10.905  67.487  1.00  0.00    -0.274 NA 
HETATM   11  C   UNL     1     -11.570  11.664  68.568  1.00  0.00    -0.317 A  
HETATM   12  C   UNL     1     -11.872  13.036  68.432  1.00  0.00    -0.334 A  
HETATM   13  S   UNL     1     -11.681  13.958  66.929  1.00  0.00    -0.422 SA 
HETATM   14  C   UNL     1     -12.368  13.796  69.518  1.00  0.00    -0.258 A  
HETATM   15  C   UNL     1     -12.588  13.221  70.761  1.00  0.00    -0.357 A  
HETATM   16  C   UNL     1     -11.064  12.737  65.805  1.00  0.00    -0.285 A  
HETATM   17  C   UNL     1     -12.342  11.870  70.916  1.00  0.00    -0.400 A  
HETATM   18  C   UNL     1     -10.816  11.397  66.154  1.00  0.00    -0.255 A  
HETATM   19  C   UNL     1     -10.333  10.575  65.108  1.00  0.00    -0.310 A  
HETATM   20  C   UNL     1     -11.861  11.112  69.838  1.00  0.00    -0.439 A  
HETATM   21  C   UNL     1      -9.987  11.065  63.839  1.00  0.00    -0.341 A  
HETATM   22  C   UNL     1     -10.804  13.213  64.502  1.00  0.00    -0.400 A  
HETATM   23  C   UNL     1     -10.247  12.390  63.529  1.00  0.00    -0.339 A  
BRANCH  21  24
HETATM   24  S   UNL     1      -9.175  10.000  62.623  1.00  0.00    -0.273 S  
HETATM   25  O   UNL     1      -8.874   8.714  63.336  1.00  0.00     0.009 OA 
HETATM   26  C   UNL     1      -7.615  10.926  62.523  1.00  0.00    -0.010 C  
ENDBRANCH  21  24
ENDBRANCH   9  10
ENDBRANCH   8   9
ENDBRANCH   7   8
TORSDOF 4
ENDMDL
MODEL      103
REMARK 921   NORMALIZED FREE ENERGY PREDICTED BY IDOCK:   -4.57 KCAL/MOL
REMARK 922        TOTAL FREE ENERGY PREDICTED BY IDOCK:   -6.42 KCAL/MOL
REMARK 923 INTER-LIGAND FREE ENERGY PREDICTED BY IDOCK:   -5.78 KCAL/MOL
REMARK 924 INTRA-LIGAND FREE ENERGY PREDICTED BY IDOCK:   -0.64 KCAL/MOL
REMARK 927      BINDING AFFINITY PREDICTED BY RF-SCORE:    0.00 PKD
ROOT
HETATM    1  C   UNL     1     -10.384  14.182  66.081  1.00  0.00    -0.300 C  
HETATM    2  N   UNL     1     -10.935  12.833  66.206  1.00  0.00    -0.274 NA 
HETATM    3  C   UNL     1     -12.333  12.767  65.760  1.00  0.00    -0.323 C  
HETATM    4  C   UNL     1     -12.508  12.801  64.241  1.00  0.00    -0.461 C  
HETATM    5  C   UNL     1     -11.638  11.761  63.549  1.00  0.00    -0.487 C  
HETATM    6  C   UNL     1     -10.192  11.858  64.023  1.00  0.00    -0.394 C  
HETATM    7  C   UNL     1     -10.068  11.817  65.556  1.00  0.00    -0.249 C  
ENDROOT
BRANCH   7   8
HETATM    8  C   UNL     1     -10.400  10.434  66.151  1.00  0.00    -0.269 C  
BRANCH   8   9
HETATM    9  C   UNL     1      -9.225   9.656  66.780  1.00  0.00    -0.149 C  
BRANCH   9  10
HETATM   10  N   UNL     1      -9.083   8.243  66.330  1.00  0.00    -0.177 NA 
HETATM   11  C   UNL     1      -8.394   7.977  65.105  1.00  0.00    -0.130 A  
HETATM   12  C   UNL     1      -8.073   6.661  64.706  1.00  0.00    -0.099 A  
HETATM   13  S   UNL     1      -8.530   5.203  65.606  1.00  0.00    -0.140 SA 
HETATM   14  C   UNL     1      -7.346   6.405  63.519  1.00  0.00    -0.066 A  
HETATM   15  C   UNL     1      -6.927   7.436  62.692  1.00  0.00    -0.071 A  
HETATM   16  C   UNL     1      -9.406   5.867  66.994  1.00  0.00    -0.120 A  
HETATM   17  C   UNL     1      -7.260   8.733  63.033  1.00  0.00    -0.093 A  
HETATM   18  C   UNL     1      -9.608   7.242  67.216  1.00  0.00    -0.152 A  
HETATM   19  C   UNL     1     -10.344   7.570  68.379  1.00  0.00    -0.226 A  
HETATM   20  C   UNL     1      -7.991   8.990  64.203  1.00  0.00    -0.144 A  
HETATM   21  C   UNL     1     -10.739   6.620  69.334  1.00  0.00    -0.259 A  
HETATM   22  C   UNL     1      -9.884   4.902  67.906  1.00  0.00    -0.196 A  
HETATM   23  C   UNL     1     -10.526   5.274  69.082  1.00  0.00    -0.227 A  
BRANCH  21  24
HETATM   24  S   UNL     1     -11.487   7.134  70.899  1.00  0.00    -0.310 S  
HETATM   25  O   UNL     1     -10.883   8.469  71.226  1.00  0.00    -0.229 OA 
HETATM   26  C   UNL     1     -10.659   5.907  71.954  1.00  0.00    -0.231 C  
ENDBRANCH  21  24
ENDBRANCH   9  10
ENDBRANCH   8   9
ENDBRANCH   7   8
TORSDOF 4
ENDMDL
MODEL      104
REMARK 921   NORMALIZED FREE ENERGY PREDICTED BY IDOCK:   -4.50 KCAL/MOL
REMARK 922        TOTAL FREE ENERGY PREDICTED BY IDOCK:   -6.33 KCAL/MOL
REMARK 923 INTER-LIGAND FREE ENERGY PREDICTED BY IDOCK:   -5.63 KCAL/MOL
REMARK 924 INTRA-LIGAND FREE ENERGY PREDICTED BY IDOCK:   -0.70 KCAL/MOL
REMARK 927      BINDING AFFINITY PREDICTED BY RF-SCORE:    0.00 PKD
ROOT
HETATM    1  C   UNL     1      -9.583   5.777  67.464  1.00  0.00    -0.114 C  
HETATM    2  N   UNL     1      -8.569   6.829  67.524  1.00  0.00    -0.121 NA 
HETATM    3  C   UNL     1      -7.742   6.865  66.310  1.00  0.00    -0.094 C  
HETATM    4  C   UNL     1      -8.441   7.474  65.094  1.00  0.00    -0.043 C  
HETATM    5  C   UNL     1      -9.046   8.835  65.414  1.00  0.00    -0.194 C  
HETATM    6  C   UNL     1      -9.905   8.766  66.671  1.00  0.00    -0.335 C  
HETATM    7  C   UNL     1      -9.158   8.149  67.866  1.00  0.00    -0.132 C  
ENDROOT
BRANCH   7   8
HETATM    8  C   UNL     1      -8.041   9.060  68.414  1.00  0.00    -0.108 C  
BRANCH   8   9
HETATM    9  C   UNL     1      -8.195   9.534  69.874  1.00  0.00    -0.161 C  
BRANCH   9  10
HETATM   10  N   UNL     1      -9.326   8.921  70.626  1.00  0.00    -0.193 NA 
HETATM   11  C   UNL     1      -9.111   7.677  71.299  1.00  0.00    -0.137 A  
HETATM   12  C   UNL     1     -10.078   7.127  72.167  1.00  0.00    -0.180 A  
HETATM   13  S   UNL     1     -11.669   7.846  72.476  1.00  0.00    -0.339 SA 
HETATM   14  C   UNL     1      -9.841   5.922  72.871  1.00  0.00    -0.179 A  
HETATM   15  C   UNL     1      -8.650   5.225  72.728  1.00  0.00    -0.120 A  
HETATM   16  C   UNL     1     -11.638   9.298  71.463  1.00  0.00    -0.382 A  
HETATM   17  C   UNL     1      -7.699   5.716  71.854  1.00  0.00    -0.105 A  
HETATM   18  C   UNL     1     -10.544   9.679  70.664  1.00  0.00    -0.319 A  
HETATM   19  C   UNL     1     -10.721  10.869  69.919  1.00  0.00    -0.135 A  
HETATM   20  C   UNL     1      -7.936   6.903  71.146  1.00  0.00    -0.101 A  
HETATM   21  C   UNL     1     -11.842  11.703  70.052  1.00  0.00    -0.355 A  
HETATM   22  C   UNL     1     -12.807  10.087  71.528  1.00  0.00    -0.537 A  
HETATM   23  C   UNL     1     -12.901  11.295  70.846  1.00  0.00    -0.343 A  
BRANCH  21  24
HETATM   24  S   UNL     1     -11.903  13.314  69.231  1.00  0.00    -0.319 S  
HETATM   25  O   UNL     1     -10.476  13.687  68.949  1.00  0.00    -0.226 OA 
HETATM   26  C   UNL     1     -12.426  14.282  70.678  1.00  0.00    -0.358 C  
ENDBRANCH  21  24
ENDBRANCH   9  10
ENDBRANCH   8   9
ENDBRANCH   7   8
TORSDOF 4
ENDMDL
MODEL      105
REMARK 921   NORMALIZED FREE ENERGY PREDICTED BY IDOCK:   -4.50 KCAL/MOL
REMARK 922        TOTAL FREE ENERGY PREDICTED BY IDOCK:   -6.33 KCAL/MOL
REMARK 923 INTER-LIGAND FREE ENERGY PREDICTED BY IDOCK:   -5.64 KCAL/MOL
REMARK 924 INTRA-LIGAND FREE ENERGY PREDICTED BY IDOCK:   -0.69 KCAL/MOL
REMARK 927      BINDING AFFINITY PREDICTED BY RF-SCORE:    0.00 PKD
ROOT
HETATM    1  C   UNL     1     -10.089   7.234  69.514  1.00  0.00    -0.182 C  
HETATM    2  N   UNL     1     -11.237   8.099  69.784  1.00  0.00    -0.056 NA 
HETATM    3  C   UNL     1     -12.372   7.348  70.338  1.00  0.00     0.179 C  
HETATM    4  C   UNL     1     -12.206   6.951  71.805  1.00  0.00    -0.396 C  
HETATM    5  C   UNL     1     -11.831   8.145  72.673  1.00  0.00    -0.389 C  
HETATM    6  C   UNL     1     -10.646   8.899  72.081  1.00  0.00    -0.323 C  
HETATM    7  C   UNL     1     -10.863   9.278  70.606  1.00  0.00    -0.278 C  
ENDROOT
BRANCH   7   8
HETATM    8  C   UNL     1     -11.934  10.371  70.416  1.00  0.00    -0.409 C  
BRANCH   8   9
HETATM    9  C   UNL     1     -11.991  11.043  69.028  1.00  0.00    -0.293 C  
BRANCH   9  10
HETATM   10  N   UNL     1     -11.024  12.157  68.820  1.00  0.00    -0.224 NA 
HETATM   11  C   UNL     1     -11.287  13.419  69.440  1.00  0.00    -0.226 A  
HETATM   12  C   UNL     1     -10.336  14.462  69.429  1.00  0.00    -0.030 A  
HETATM   13  S   UNL     1      -8.765  14.375  68.610  1.00  0.00    -0.131 SA 
HETATM   14  C   UNL     1     -10.578  15.692  70.087  1.00  0.00    -0.348 A  
HETATM   15  C   UNL     1     -11.766  15.927  70.763  1.00  0.00    -0.433 A  
HETATM   16  C   UNL     1      -8.788  12.751  67.905  1.00  0.00    -0.186 A  
HETATM   17  C   UNL     1     -12.735  14.941  70.758  1.00  0.00    -0.421 A  
HETATM   18  C   UNL     1      -9.854  11.844  68.049  1.00  0.00    -0.190 A  
HETATM   19  C   UNL     1      -9.685  10.598  67.400  1.00  0.00    -0.192 A  
HETATM   20  C   UNL     1     -12.502  13.726  70.096  1.00  0.00    -0.332 A  
HETATM   21  C   UNL     1      -8.493  10.215  66.766  1.00  0.00    -0.126 A  
HETATM   22  C   UNL     1      -7.623  12.403  67.188  1.00  0.00    -0.104 A  
HETATM   23  C   UNL     1      -7.464  11.134  66.642  1.00  0.00    -0.146 A  
BRANCH  21  24
HETATM   24  S   UNL     1      -8.272   8.529  66.146  1.00  0.00    -0.120 S  
HETATM   25  O   UNL     1      -9.551   7.806  66.453  1.00  0.00    -0.203 OA 
HETATM   26  C   UNL     1      -7.053   7.995  67.385  1.00  0.00    -0.083 C  
ENDBRANCH  21  24
ENDBRANCH   9  10
ENDBRANCH   8   9
ENDBRANCH   7   8
TORSDOF 4
ENDMDL
MODEL      106
REMARK 921   NORMALIZED FREE ENERGY PREDICTED BY IDOCK:   -4.46 KCAL/MOL
REMARK 922        TOTAL FREE ENERGY PREDICTED BY IDOCK:   -6.27 KCAL/MOL
REMARK 923 INTER-LIGAND FREE ENERGY PREDICTED BY IDOCK:   -5.46 KCAL/MOL
REMARK 924 INTRA-LIGAND FREE ENERGY PREDICTED BY IDOCK:   -0.82 KCAL/MOL
REMARK 927      BINDING AFFINITY PREDICTED BY RF-SCORE:    0.00 PKD
ROOT
HETATM    1  C   UNL     1      -8.423   4.373  64.076  1.00  0.00    -0.116 C  
HETATM    2  N   UNL     1      -9.239   4.198  65.278  1.00  0.00    -0.142 NA 
HETATM    3  C   UNL     1      -8.920   2.949  65.981  1.00  0.00    -0.146 C  
HETATM    4  C   UNL     1      -7.606   2.988  66.763  1.00  0.00    -0.075 C  
HETATM    5  C   UNL     1      -7.534   4.197  67.685  1.00  0.00    -0.069 C  
HETATM    6  C   UNL     1      -7.859   5.480  66.927  1.00  0.00    -0.101 C  
HETATM    7  C   UNL     1      -9.190   5.393  66.160  1.00  0.00    -0.156 C  
ENDROOT
BRANCH   7   8
HETATM    8  C   UNL     1     -10.421   5.369  67.089  1.00  0.00    -0.298 C  
BRANCH   8   9
HETATM    9  C   UNL     1     -11.153   6.712  67.294  1.00  0.00    -0.345 C  
BRANCH   9  10
HETATM   10  N   UNL     1     -10.486   7.665  68.224  1.00  0.00    -0.195 NA 
HETATM   11  C   UNL     1     -10.549   7.413  69.630  1.00  0.00    -0.236 A  
HETATM   12  C   UNL     1      -9.801   8.172  70.555  1.00  0.00    -0.186 A  
HETATM   13  S   UNL     1      -8.768   9.546  70.116  1.00  0.00    -0.234 SA 
HETATM   14  C   UNL     1      -9.826   7.886  71.941  1.00  0.00    -0.233 A  
HETATM   15  C   UNL     1     -10.597   6.853  72.450  1.00  0.00    -0.240 A  
HETATM   16  C   UNL     1      -8.964   9.629  68.358  1.00  0.00    -0.123 A  
HETATM   17  C   UNL     1     -11.374   6.115  71.577  1.00  0.00    -0.340 A  
HETATM   18  C   UNL     1      -9.767   8.747  67.611  1.00  0.00    -0.169 A  
HETATM   19  C   UNL     1      -9.800   8.986  66.217  1.00  0.00    -0.361 A  
HETATM   20  C   UNL     1     -11.360   6.404  70.203  1.00  0.00    -0.485 A  
HETATM   21  C   UNL     1      -8.994   9.942  65.580  1.00  0.00    -0.171 A  
HETATM   22  C   UNL     1      -8.222  10.652  67.730  1.00  0.00    -0.111 A  
HETATM   23  C   UNL     1      -8.217  10.795  66.347  1.00  0.00    -0.155 A  
BRANCH  21  24
HETATM   24  S   UNL     1      -8.930  10.047  63.775  1.00  0.00    -0.264 S  
HETATM   25  O   UNL     1      -7.527  10.459  63.435  1.00  0.00    -0.132 OA 
HETATM   26  C   UNL     1      -9.971  11.527  63.601  1.00  0.00    -0.376 C  
ENDBRANCH  21  24
ENDBRANCH   9  10
ENDBRANCH   8   9
ENDBRANCH   7   8
TORSDOF 4
ENDMDL
MODEL      107
REMARK 921   NORMALIZED FREE ENERGY PREDICTED BY IDOCK:   -4.44 KCAL/MOL
REMARK 922        TOTAL FREE ENERGY PREDICTED BY IDOCK:   -6.26 KCAL/MOL
REMARK 923 INTER-LIGAND FREE ENERGY PREDICTED BY IDOCK:   -5.84 KCAL/MOL
REMARK 924 INTRA-LIGAND FREE ENERGY PREDICTED BY IDOCK:   -0.42 KCAL/MOL
REMARK 927      BINDING AFFINITY PREDICTED BY RF-SCORE:    0.00 PKD
ROOT
HETATM    1  C   UNL     1      -8.600   8.760  65.223  1.00  0.00    -0.187 C  
HETATM    2  N   UNL     1      -9.228   8.849  66.541  1.00  0.00    -0.169 NA 
HETATM    3  C   UNL     1      -9.800   7.564  66.965  1.00  0.00    -0.214 C  
HETATM    4  C   UNL     1      -8.763   6.537  67.423  1.00  0.00    -0.117 C  
HETATM    5  C   UNL     1      -7.820   7.116  68.469  1.00  0.00    -0.122 C  
HETATM    6  C   UNL     1      -7.234   8.444  67.999  1.00  0.00    -0.091 C  
HETATM    7  C   UNL     1      -8.316   9.442  67.552  1.00  0.00    -0.122 C  
ENDROOT
BRANCH   7   8
HETATM    8  C   UNL     1      -9.162   9.979  68.724  1.00  0.00    -0.159 C  
BRANCH   8   9
HETATM    9  C   UNL     1     -10.648  10.265  68.423  1.00  0.00    -0.216 C  
BRANCH   9  10
HETATM   10  N   UNL     1     -11.364  11.068  69.454  1.00  0.00    -0.258 NA 
HETATM   11  C   UNL     1     -11.412  12.490  69.309  1.00  0.00    -0.293 A  
HETATM   12  C   UNL     1     -12.212  13.295  70.147  1.00  0.00    -0.306 A  
HETATM   13  S   UNL     1     -13.181  12.677  71.498  1.00  0.00    -0.095 SA 
HETATM   14  C   UNL     1     -12.297  14.696  69.967  1.00  0.00    -0.365 A  
HETATM   15  C   UNL     1     -11.588  15.339  68.964  1.00  0.00    -0.360 A  
HETATM   16  C   UNL     1     -12.851  10.938  71.445  1.00  0.00    -0.449 A  
HETATM   17  C   UNL     1     -10.763  14.585  68.151  1.00  0.00    -0.240 A  
HETATM   18  C   UNL     1     -12.012  10.323  70.496  1.00  0.00    -0.323 A  
HETATM   19  C   UNL     1     -11.869   8.921  70.629  1.00  0.00    -0.159 A  
HETATM   20  C   UNL     1     -10.668  13.197  68.335  1.00  0.00    -0.270 A  
HETATM   21  C   UNL     1     -12.605   8.154  71.545  1.00  0.00    -0.304 A  
HETATM   22  C   UNL     1     -13.522  10.180  72.428  1.00  0.00    -0.164 A  
HETATM   23  C   UNL     1     -13.420   8.793  72.465  1.00  0.00    -0.406 A  
BRANCH  21  24
HETATM   24  S   UNL     1     -12.531   6.347  71.514  1.00  0.00     0.117 S  
HETATM   25  O   UNL     1     -11.822   5.941  72.773  1.00  0.00    -0.207 OA 
HETATM   26  C   UNL     1     -11.327   6.198  70.159  1.00  0.00    -0.363 C  
ENDBRANCH  21  24
ENDBRANCH   9  10
ENDBRANCH   8   9
ENDBRANCH   7   8
TORSDOF 4
ENDMDL
MODEL      108
REMARK 921   NORMALIZED FREE ENERGY PREDICTED BY IDOCK:   -4.43 KCAL/MOL
REMARK 922        TOTAL FREE ENERGY PREDICTED BY IDOCK:   -6.24 KCAL/MOL
REMARK 923 INTER-LIGAND FREE ENERGY PREDICTED BY IDOCK:   -5.59 KCAL/MOL
REMARK 924 INTRA-LIGAND FREE ENERGY PREDICTED BY IDOCK:   -0.64 KCAL/MOL
REMARK 927      BINDING AFFINITY PREDICTED BY RF-SCORE:    0.00 PKD
ROOT
HETATM    1  C   UNL     1     -11.282   8.001  70.486  1.00  0.00    -0.250 C  
HETATM    2  N   UNL     1     -10.080   7.882  69.661  1.00  0.00    -0.193 NA 
HETATM    3  C   UNL     1      -9.643   6.487  69.524  1.00  0.00    -0.145 C  
HETATM    4  C   UNL     1     -10.498   5.653  68.568  1.00  0.00    -0.273 C  
HETATM    5  C   UNL     1     -10.662   6.336  67.217  1.00  0.00    -0.424 C  
HETATM    6  C   UNL     1     -11.125   7.779  67.388  1.00  0.00     0.150 C  
HETATM    7  C   UNL     1     -10.233   8.576  68.356  1.00  0.00    -0.203 C  
ENDROOT
BRANCH   7   8
HETATM    8  C   UNL     1      -8.829   8.862  67.784  1.00  0.00    -0.136 C  
BRANCH   8   9
HETATM    9  C   UNL     1      -8.580  10.293  67.261  1.00  0.00    -0.125 C  
BRANCH   9  10
HETATM   10  N   UNL     1      -9.376  10.680  66.063  1.00  0.00    -0.179 NA 
HETATM   11  C   UNL     1     -10.399  11.669  66.206  1.00  0.00    -0.235 A  
HETATM   12  C   UNL     1     -11.072  12.208  65.089  1.00  0.00    -0.322 A  
HETATM   13  S   UNL     1     -10.798  11.694  63.413  1.00  0.00    -0.330 SA 
HETATM   14  C   UNL     1     -12.047  13.224  65.230  1.00  0.00    -0.456 A  
HETATM   15  C   UNL     1     -12.391  13.726  66.477  1.00  0.00    -0.432 A  
HETATM   16  C   UNL     1      -9.556  10.445  63.592  1.00  0.00    -0.310 A  
HETATM   17  C   UNL     1     -11.779  13.192  67.595  1.00  0.00    -0.414 A  
HETATM   18  C   UNL     1      -8.997  10.059  64.825  1.00  0.00    -0.212 A  
HETATM   19  C   UNL     1      -8.025   9.033  64.758  1.00  0.00    -0.129 A  
HETATM   20  C   UNL     1     -10.821  12.176  67.459  1.00  0.00    -0.283 A  
HETATM   21  C   UNL     1      -7.533   8.515  63.549  1.00  0.00    -0.112 A  
HETATM   22  C   UNL     1      -9.130   9.859  62.381  1.00  0.00    -0.308 A  
HETATM   23  C   UNL     1      -8.108   8.916  62.355  1.00  0.00    -0.155 A  
BRANCH  21  24
HETATM   24  S   UNL     1      -6.139   7.361  63.533  1.00  0.00    -0.050 S  
HETATM   25  O   UNL     1      -6.734   5.993  63.693  1.00  0.00    -0.035 OA 
HETATM   26  C   UNL     1      -5.447   7.828  65.148  1.00  0.00    -0.033 C  
ENDBRANCH  21  24
ENDBRANCH   9  10
ENDBRANCH   8   9
ENDBRANCH   7   8
TORSDOF 4
ENDMDL
MODEL      109
REMARK 921   NORMALIZED FREE ENERGY PREDICTED BY IDOCK:   -4.39 KCAL/MOL
REMARK 922        TOTAL FREE ENERGY PREDICTED BY IDOCK:   -6.19 KCAL/MOL
REMARK 923 INTER-LIGAND FREE ENERGY PREDICTED BY IDOCK:   -5.54 KCAL/MOL
REMARK 924 INTRA-LIGAND FREE ENERGY PREDICTED BY IDOCK:   -0.65 KCAL/MOL
REMARK 927      BINDING AFFINITY PREDICTED BY RF-SCORE:    0.00 PKD
ROOT
HETATM    1  C   UNL     1     -12.492  15.132  64.093  1.00  0.00     0.029 C  
HETATM    2  N   UNL     1     -12.371  14.077  65.099  1.00  0.00    -0.436 NA 
HETATM    3  C   UNL     1     -12.895  12.793  64.615  1.00  0.00    -0.274 C  
HETATM    4  C   UNL     1     -11.981  12.080  63.618  1.00  0.00    -0.612 C  
HETATM    5  C   UNL     1     -10.558  11.954  64.146  1.00  0.00    -0.397 C  
HETATM    6  C   UNL     1     -10.037  13.301  64.632  1.00  0.00    -0.249 C  
HETATM    7  C   UNL     1     -10.988  13.977  65.635  1.00  0.00    -0.300 C  
ENDROOT
BRANCH   7   8
HETATM    8  C   UNL     1     -11.040  13.258  66.997  1.00  0.00    -0.304 C  
BRANCH   8   9
HETATM    9  C   UNL     1     -10.229  13.898  68.143  1.00  0.00    -0.249 C  
BRANCH   9  10
HETATM   10  N   UNL     1      -8.749  13.783  68.018  1.00  0.00    -0.172 NA 
HETATM   11  C   UNL     1      -8.005  14.921  67.575  1.00  0.00    -0.178 A  
HETATM   12  C   UNL     1      -6.594  14.940  67.597  1.00  0.00    -0.165 A  
HETATM   13  S   UNL     1      -5.584  13.569  68.094  1.00  0.00    -0.123 SA 
HETATM   14  C   UNL     1      -5.862  16.087  67.206  1.00  0.00    -0.081 A  
HETATM   15  C   UNL     1      -6.502  17.239  66.775  1.00  0.00    -0.244 A  
HETATM   16  C   UNL     1      -6.785  12.334  68.503  1.00  0.00    -0.076 A  
HETATM   17  C   UNL     1      -7.882  17.240  66.704  1.00  0.00    -0.295 A  
HETATM   18  C   UNL     1      -8.176  12.530  68.421  1.00  0.00    -0.136 A  
HETATM   19  C   UNL     1      -8.969  11.415  68.782  1.00  0.00    -0.086 A  
HETATM   20  C   UNL     1      -8.610  16.101  67.078  1.00  0.00    -0.233 A  
HETATM   21  C   UNL     1      -8.437  10.231  69.318  1.00  0.00    -0.166 A  
HETATM   22  C   UNL     1      -6.243  11.111  68.954  1.00  0.00    -0.047 A  
HETATM   23  C   UNL     1      -7.063  10.073  69.382  1.00  0.00    -0.074 A  
BRANCH  21  24
HETATM   24  S   UNL     1      -9.523   8.932  69.957  1.00  0.00    -0.188 S  
HETATM   25  O   UNL     1     -10.134   8.276  68.753  1.00  0.00    -0.189 OA 
HETATM   26  C   UNL     1     -10.789  10.028  70.662  1.00  0.00    -0.297 C  
ENDBRANCH  21  24
ENDBRANCH   9  10
ENDBRANCH   8   9
ENDBRANCH   7   8
TORSDOF 4
ENDMDL
MODEL      110
REMARK 921   NORMALIZED FREE ENERGY PREDICTED BY IDOCK:   -4.38 KCAL/MOL
REMARK 922        TOTAL FREE ENERGY PREDICTED BY IDOCK:   -6.18 KCAL/MOL
REMARK 923 INTER-LIGAND FREE ENERGY PREDICTED BY IDOCK:   -5.53 KCAL/MOL
REMARK 924 INTRA-LIGAND FREE ENERGY PREDICTED BY IDOCK:   -0.65 KCAL/MOL
REMARK 927      BINDING AFFINITY PREDICTED BY RF-SCORE:    0.00 PKD
ROOT
HETATM    1  C   UNL     1     -10.389   3.258  74.368  1.00  0.00    -0.185 C  
HETATM    2  N   UNL     1      -9.929   4.461  73.674  1.00  0.00    -0.129 NA 
HETATM    3  C   UNL     1      -8.510   4.735  73.935  1.00  0.00    -0.104 C  
HETATM    4  C   UNL     1      -7.545   3.817  73.183  1.00  0.00    -0.073 C  
HETATM    5  C   UNL     1      -7.855   3.773  71.692  1.00  0.00    -0.062 C  
HETATM    6  C   UNL     1      -9.331   3.477  71.452  1.00  0.00    -0.213 C  
HETATM    7  C   UNL     1     -10.260   4.428  72.226  1.00  0.00    -0.188 C  
ENDROOT
BRANCH   7   8
HETATM    8  C   UNL     1     -10.234   5.871  71.683  1.00  0.00    -0.249 C  
BRANCH   8   9
HETATM    9  C   UNL     1     -11.339   6.243  70.671  1.00  0.00    -0.343 C  
BRANCH   9  10
HETATM   10  N   UNL     1     -11.186   7.575  70.023  1.00  0.00    -0.208 NA 
HETATM   11  C   UNL     1     -11.854   8.701  70.599  1.00  0.00    -0.102 A  
HETATM   12  C   UNL     1     -11.618  10.016  70.143  1.00  0.00    -0.252 A  
HETATM   13  S   UNL     1     -10.549  10.429  68.790  1.00  0.00    -0.223 SA 
HETATM   14  C   UNL     1     -12.242  11.133  70.749  1.00  0.00    -0.484 A  
HETATM   15  C   UNL     1     -13.120  10.981  71.811  1.00  0.00    -0.554 A  
HETATM   16  C   UNL     1      -9.952   8.844  68.274  1.00  0.00    -0.175 A  
HETATM   17  C   UNL     1     -13.404   9.703  72.255  1.00  0.00    -0.498 A  
HETATM   18  C   UNL     1     -10.310   7.628  68.886  1.00  0.00    -0.212 A  
HETATM   19  C   UNL     1      -9.734   6.468  68.318  1.00  0.00    -0.131 A  
HETATM   20  C   UNL     1     -12.796   8.593  71.649  1.00  0.00    -0.380 A  
HETATM   21  C   UNL     1      -8.765   6.506  67.303  1.00  0.00    -0.110 A  
HETATM   22  C   UNL     1      -9.047   8.878  67.191  1.00  0.00    -0.160 A  
HETATM   23  C   UNL     1      -8.437   7.720  66.722  1.00  0.00    -0.126 A  
BRANCH  21  24
HETATM   24  S   UNL     1      -7.915   4.998  66.775  1.00  0.00    -0.104 S  
HETATM   25  O   UNL     1      -7.617   5.182  65.315  1.00  0.00    -0.079 OA 
HETATM   26  C   UNL     1      -9.348   3.885  66.886  1.00  0.00    -0.188 C  
ENDBRANCH  21  24
ENDBRANCH   9  10
ENDBRANCH   8   9
ENDBRANCH   7   8
TORSDOF 4
ENDMDL
MODEL      111
REMARK 921   NORMALIZED FREE ENERGY PREDICTED BY IDOCK:   -4.38 KCAL/MOL
REMARK 922        TOTAL FREE ENERGY PREDICTED BY IDOCK:   -6.17 KCAL/MOL
REMARK 923 INTER-LIGAND FREE ENERGY PREDICTED BY IDOCK:   -5.56 KCAL/MOL
REMARK 924 INTRA-LIGAND FREE ENERGY PREDICTED BY IDOCK:   -0.61 KCAL/MOL
REMARK 927      BINDING AFFINITY PREDICTED BY RF-SCORE:    0.00 PKD
ROOT
HETATM    1  C   UNL     1     -12.163  14.803  64.248  1.00  0.00    -0.379 C  
HETATM    2  N   UNL     1     -12.199  13.631  65.123  1.00  0.00    -0.407 NA 
HETATM    3  C   UNL     1     -12.691  12.438  64.422  1.00  0.00    -0.342 C  
HETATM    4  C   UNL     1     -11.678  11.811  63.464  1.00  0.00    -0.485 C  
HETATM    5  C   UNL     1     -10.338  11.563  64.143  1.00  0.00    -0.386 C  
HETATM    6  C   UNL     1      -9.846  12.819  64.853  1.00  0.00    -0.065 C  
HETATM    7  C   UNL     1     -10.899  13.410  65.807  1.00  0.00    -0.275 C  
ENDROOT
BRANCH   7   8
HETATM    8  C   UNL     1     -11.142  12.535  67.053  1.00  0.00    -0.326 C  
BRANCH   8   9
HETATM    9  C   UNL     1     -10.255  12.829  68.281  1.00  0.00    -0.244 C  
BRANCH   9  10
HETATM   10  N   UNL     1      -9.346  11.721  68.690  1.00  0.00    -0.140 NA 
HETATM   11  C   UNL     1      -7.966  11.792  68.321  1.00  0.00    -0.147 A  
HETATM   12  C   UNL     1      -7.018  10.872  68.817  1.00  0.00    -0.078 A  
HETATM   13  S   UNL     1      -7.411   9.504  69.875  1.00  0.00    -0.121 SA 
HETATM   14  C   UNL     1      -5.645  10.976  68.491  1.00  0.00    -0.043 A  
HETATM   15  C   UNL     1      -5.174  11.981  67.660  1.00  0.00    -0.078 A  
HETATM   16  C   UNL     1      -9.163   9.663  70.076  1.00  0.00    -0.241 A  
HETATM   17  C   UNL     1      -6.083  12.875  67.125  1.00  0.00     0.183 A  
HETATM   18  C   UNL     1      -9.934  10.685  69.491  1.00  0.00    -0.106 A  
HETATM   19  C   UNL     1     -11.321  10.631  69.764  1.00  0.00    -0.371 A  
HETATM   20  C   UNL     1      -7.446  12.767  67.437  1.00  0.00    -0.145 A  
HETATM   21  C   UNL     1     -11.896   9.717  70.660  1.00  0.00    -0.256 A  
HETATM   22  C   UNL     1      -9.753   8.685  70.905  1.00  0.00    -0.254 A  
HETATM   23  C   UNL     1     -11.107   8.723  71.216  1.00  0.00    -0.348 A  
BRANCH  21  24
HETATM   24  S   UNL     1     -13.641   9.844  71.124  1.00  0.00    -0.004 S  
HETATM   25  O   UNL     1     -13.723  10.969  72.115  1.00  0.00    -0.167 OA 
HETATM   26  C   UNL     1     -13.732   8.297  72.073  1.00  0.00    -0.337 C  
ENDBRANCH  21  24
ENDBRANCH   9  10
ENDBRANCH   8   9
ENDBRANCH   7   8
TORSDOF 4
ENDMDL
MODEL      112
REMARK 921   NORMALIZED FREE ENERGY PREDICTED BY IDOCK:   -4.37 KCAL/MOL
REMARK 922        TOTAL FREE ENERGY PREDICTED BY IDOCK:   -6.17 KCAL/MOL
REMARK 923 INTER-LIGAND FREE ENERGY PREDICTED BY IDOCK:   -5.93 KCAL/MOL
REMARK 924 INTRA-LIGAND FREE ENERGY PREDICTED BY IDOCK:   -0.24 KCAL/MOL
REMARK 927      BINDING AFFINITY PREDICTED BY RF-SCORE:    0.00 PKD
ROOT
HETATM    1  C   UNL     1      -9.961   3.822  72.301  1.00  0.00    -0.168 C  
HETATM    2  N   UNL     1     -10.527   5.059  71.764  1.00  0.00    -0.202 NA 
HETATM    3  C   UNL     1     -11.219   5.840  72.798  1.00  0.00    -0.292 C  
HETATM    4  C   UNL     1     -10.283   6.574  73.760  1.00  0.00    -0.326 C  
HETATM    5  C   UNL     1      -9.245   7.403  73.015  1.00  0.00    -0.211 C  
HETATM    6  C   UNL     1      -8.537   6.565  71.956  1.00  0.00    -0.125 C  
HETATM    7  C   UNL     1      -9.520   5.851  71.012  1.00  0.00    -0.165 C  
ENDROOT
BRANCH   7   8
HETATM    8  C   UNL     1     -10.260   6.819  70.067  1.00  0.00    -0.211 C  
BRANCH   8   9
HETATM    9  C   UNL     1      -9.432   7.991  69.499  1.00  0.00    -0.160 C  
BRANCH   9  10
HETATM   10  N   UNL     1     -10.224   9.164  69.034  1.00  0.00    -0.202 NA 
HETATM   11  C   UNL     1     -11.192   9.734  69.919  1.00  0.00    -0.229 A  
HETATM   12  C   UNL     1     -11.853  10.944  69.615  1.00  0.00    -0.344 A  
HETATM   13  S   UNL     1     -11.631  11.853  68.108  1.00  0.00    -0.330 SA 
HETATM   14  C   UNL     1     -12.772  11.532  70.516  1.00  0.00    -0.193 A  
HETATM   15  C   UNL     1     -13.070  10.939  71.734  1.00  0.00    -0.564 A  
HETATM   16  C   UNL     1     -10.453  10.863  67.232  1.00  0.00    -0.232 A  
HETATM   17  C   UNL     1     -12.471   9.733  72.045  1.00  0.00    -0.390 A  
HETATM   18  C   UNL     1      -9.897   9.671  67.732  1.00  0.00    -0.159 A  
HETATM   19  C   UNL     1      -8.980   9.020  66.873  1.00  0.00    -0.144 A  
HETATM   20  C   UNL     1     -11.568   9.141  71.148  1.00  0.00    -0.386 A  
HETATM   21  C   UNL     1      -8.535   9.571  65.661  1.00  0.00    -0.133 A  
HETATM   22  C   UNL     1     -10.077  11.373  65.971  1.00  0.00    -0.275 A  
HETATM   23  C   UNL     1      -9.106  10.745  65.198  1.00  0.00    -0.225 A  
BRANCH  21  24
HETATM   24  S   UNL     1      -7.203   8.788  64.719  1.00  0.00    -0.093 S  
HETATM   25  O   UNL     1      -7.812   7.579  64.071  1.00  0.00    -0.129 OA 
HETATM   26  C   UNL     1      -6.243   8.195  66.144  1.00  0.00    -0.045 C  
ENDBRANCH  21  24
ENDBRANCH   9  10
ENDBRANCH   8   9
ENDBRANCH   7   8
TORSDOF 4
ENDMDL
MODEL      113
REMARK 921   NORMALIZED FREE ENERGY PREDICTED BY IDOCK:   -4.36 KCAL/MOL
REMARK 922        TOTAL FREE ENERGY PREDICTED BY IDOCK:   -6.15 KCAL/MOL
REMARK 923 INTER-LIGAND FREE ENERGY PREDICTED BY IDOCK:   -5.60 KCAL/MOL
REMARK 924 INTRA-LIGAND FREE ENERGY PREDICTED BY IDOCK:   -0.55 KCAL/MOL
REMARK 927      BINDING AFFINITY PREDICTED BY RF-SCORE:    0.00 PKD
ROOT
HETATM    1  C   UNL     1      -8.846  10.205  62.929  1.00  0.00    -0.229 C  
HETATM    2  N   UNL     1      -8.828   9.300  64.078  1.00  0.00    -0.179 NA 
HETATM    3  C   UNL     1      -8.311   7.972  63.722  1.00  0.00     0.050 C  
HETATM    4  C   UNL     1      -6.794   7.919  63.535  1.00  0.00    -0.075 C  
HETATM    5  C   UNL     1      -6.058   8.519  64.725  1.00  0.00    -0.064 C  
HETATM    6  C   UNL     1      -6.608   9.899  65.066  1.00  0.00    -0.110 C  
HETATM    7  C   UNL     1      -8.135   9.900  65.247  1.00  0.00    -0.139 C  
ENDROOT
BRANCH   7   8
HETATM    8  C   UNL     1      -8.592   9.162  66.521  1.00  0.00    -0.136 C  
BRANCH   8   9
HETATM    9  C   UNL     1     -10.115   9.037  66.734  1.00  0.00    -0.274 C  
BRANCH   9  10
HETATM   10  N   UNL     1     -10.531   8.480  68.051  1.00  0.00    -0.215 NA 
HETATM   11  C   UNL     1     -10.298   7.094  68.317  1.00  0.00    -0.195 A  
HETATM   12  C   UNL     1     -10.506   6.539  69.598  1.00  0.00    -0.216 A  
HETATM   13  S   UNL     1     -11.133   7.443  70.989  1.00  0.00    -0.264 SA 
HETATM   14  C   UNL     1     -10.226   5.179  69.870  1.00  0.00    -0.361 A  
HETATM   15  C   UNL     1      -9.744   4.330  68.885  1.00  0.00    -0.195 A  
HETATM   16  C   UNL     1     -11.375   9.064  70.318  1.00  0.00    -0.178 A  
HETATM   17  C   UNL     1      -9.567   4.832  67.610  1.00  0.00    -0.190 A  
HETATM   18  C   UNL     1     -11.085   9.417  68.987  1.00  0.00     0.016 A  
HETATM   19  C   UNL     1     -11.358  10.762  68.642  1.00  0.00    -0.356 A  
HETATM   20  C   UNL     1      -9.855   6.177  67.334  1.00  0.00    -0.151 A  
HETATM   21  C   UNL     1     -11.760  11.731  69.575  1.00  0.00    -0.343 A  
HETATM   22  C   UNL     1     -11.868  10.015  71.237  1.00  0.00    -0.471 A  
HETATM   23  C   UNL     1     -12.038  11.347  70.876  1.00  0.00    -0.383 A  
BRANCH  21  24
HETATM   24  S   UNL     1     -11.883  13.475  69.106  1.00  0.00    -0.339 S  
HETATM   25  O   UNL     1     -10.474  13.941  68.879  1.00  0.00    -0.237 OA 
HETATM   26  C   UNL     1     -12.392  14.106  70.733  1.00  0.00    -0.369 C  
ENDBRANCH  21  24
ENDBRANCH   9  10
ENDBRANCH   8   9
ENDBRANCH   7   8
TORSDOF 4
ENDMDL
MODEL      114
REMARK 921   NORMALIZED FREE ENERGY PREDICTED BY IDOCK:   -4.35 KCAL/MOL
REMARK 922        TOTAL FREE ENERGY PREDICTED BY IDOCK:   -6.14 KCAL/MOL
REMARK 923 INTER-LIGAND FREE ENERGY PREDICTED BY IDOCK:   -6.05 KCAL/MOL
REMARK 924 INTRA-LIGAND FREE ENERGY PREDICTED BY IDOCK:   -0.10 KCAL/MOL
REMARK 927      BINDING AFFINITY PREDICTED BY RF-SCORE:    0.00 PKD
ROOT
HETATM    1  C   UNL     1     -10.513  20.324  68.011  1.00  0.00    -0.168 C  
HETATM    2  N   UNL     1     -10.181  19.172  67.173  1.00  0.00    -0.373 NA 
HETATM    3  C   UNL     1      -9.444  19.567  65.965  1.00  0.00    -0.253 C  
HETATM    4  C   UNL     1      -7.979  19.928  66.215  1.00  0.00    -0.346 C  
HETATM    5  C   UNL     1      -7.255  18.840  66.996  1.00  0.00    -0.218 C  
HETATM    6  C   UNL     1      -8.037  18.457  68.248  1.00  0.00    -0.315 C  
HETATM    7  C   UNL     1      -9.502  18.100  67.945  1.00  0.00    -0.281 C  
ENDROOT
BRANCH   7   8
HETATM    8  C   UNL     1      -9.652  16.771  67.178  1.00  0.00    -0.238 C  
BRANCH   8   9
HETATM    9  C   UNL     1      -8.345  16.097  66.710  1.00  0.00    -0.264 C  
BRANCH   9  10
HETATM   10  N   UNL     1      -8.150  14.695  67.173  1.00  0.00    -0.205 NA 
HETATM   11  C   UNL     1      -7.237  14.445  68.245  1.00  0.00    -0.122 A  
HETATM   12  C   UNL     1      -7.130  13.173  68.847  1.00  0.00    -0.075 A  
HETATM   13  S   UNL     1      -8.035  11.740  68.325  1.00  0.00    -0.153 SA 
HETATM   14  C   UNL     1      -6.262  12.942  69.941  1.00  0.00    -0.086 A  
HETATM   15  C   UNL     1      -5.472  13.956  70.462  1.00  0.00    -0.132 A  
HETATM   16  C   UNL     1      -8.994  12.363  66.972  1.00  0.00    -0.209 A  
HETATM   17  C   UNL     1      -5.522  15.203  69.869  1.00  0.00    -0.109 A  
HETATM   18  C   UNL     1      -8.960  13.699  66.531  1.00  0.00    -0.047 A  
HETATM   19  C   UNL     1      -9.794  13.995  65.426  1.00  0.00    -0.216 A  
HETATM   20  C   UNL     1      -6.372  15.432  68.776  1.00  0.00    -0.101 A  
HETATM   21  C   UNL     1     -10.702  13.077  64.877  1.00  0.00    -0.332 A  
HETATM   22  C   UNL     1      -9.839  11.412  66.361  1.00  0.00    -0.242 A  
HETATM   23  C   UNL     1     -10.706  11.770  65.335  1.00  0.00    -0.333 A  
BRANCH  21  24
HETATM   24  S   UNL     1     -11.887  13.589  63.609  1.00  0.00    -0.231 S  
HETATM   25  O   UNL     1     -12.658  14.731  64.202  1.00  0.00    -0.784 OA 
HETATM   26  C   UNL     1     -12.958  12.123  63.701  1.00  0.00    -0.213 C  
ENDBRANCH  21  24
ENDBRANCH   9  10
ENDBRANCH   8   9
ENDBRANCH   7   8
TORSDOF 4
ENDMDL
MODEL      115
REMARK 921   NORMALIZED FREE ENERGY PREDICTED BY IDOCK:   -4.31 KCAL/MOL
REMARK 922        TOTAL FREE ENERGY PREDICTED BY IDOCK:   -6.09 KCAL/MOL
REMARK 923 INTER-LIGAND FREE ENERGY PREDICTED BY IDOCK:   -5.49 KCAL/MOL
REMARK 924 INTRA-LIGAND FREE ENERGY PREDICTED BY IDOCK:   -0.60 KCAL/MOL
REMARK 927      BINDING AFFINITY PREDICTED BY RF-SCORE:    0.00 PKD
ROOT
HETATM    1  C   UNL     1      -6.354   9.994  65.070  1.00  0.00    -0.116 C  
HETATM    2  N   UNL     1      -7.793   9.730  65.047  1.00  0.00    -0.122 NA 
HETATM    3  C   UNL     1      -8.217   9.113  63.783  1.00  0.00    -0.173 C  
HETATM    4  C   UNL     1      -7.847   7.636  63.650  1.00  0.00    -0.120 C  
HETATM    5  C   UNL     1      -8.301   6.830  64.860  1.00  0.00    -0.025 C  
HETATM    6  C   UNL     1      -7.839   7.487  66.157  1.00  0.00    -0.096 C  
HETATM    7  C   UNL     1      -8.238   8.970  66.243  1.00  0.00    -0.115 C  
ENDROOT
BRANCH   7   8
HETATM    8  C   UNL     1      -9.755   9.178  66.421  1.00  0.00    -0.330 C  
BRANCH   8   9
HETATM    9  C   UNL     1     -10.193  10.063  67.607  1.00  0.00    -0.204 C  
BRANCH   9  10
HETATM   10  N   UNL     1      -9.271  11.186  67.937  1.00  0.00    -0.150 NA 
HETATM   11  C   UNL     1      -8.198  10.949  68.853  1.00  0.00    -0.141 A  
HETATM   12  C   UNL     1      -7.190  11.910  69.079  1.00  0.00    -0.068 A  
HETATM   13  S   UNL     1      -7.159  13.520  68.335  1.00  0.00    -0.119 SA 
HETATM   14  C   UNL     1      -6.102  11.653  69.947  1.00  0.00    -0.147 A  
HETATM   15  C   UNL     1      -5.986  10.446  70.620  1.00  0.00    -0.105 A  
HETATM   16  C   UNL     1      -8.624  13.513  67.340  1.00  0.00    -0.208 A  
HETATM   17  C   UNL     1      -6.978   9.498  70.452  1.00  0.00    -0.112 A  
HETATM   18  C   UNL     1      -9.506  12.421  67.244  1.00  0.00    -0.191 A  
HETATM   19  C   UNL     1     -10.628  12.618  66.404  1.00  0.00    -0.272 A  
HETATM   20  C   UNL     1      -8.064   9.756  69.602  1.00  0.00    -0.158 A  
HETATM   21  C   UNL     1     -10.802  13.758  65.605  1.00  0.00    -0.287 A  
HETATM   22  C   UNL     1      -8.845  14.699  66.608  1.00  0.00    -0.240 A  
HETATM   23  C   UNL     1      -9.914  14.815  65.727  1.00  0.00    -0.375 A  
BRANCH  21  24
HETATM   24  S   UNL     1     -12.145  13.848  64.396  1.00  0.00    -0.426 S  
HETATM   25  O   UNL     1     -13.404  14.035  65.191  1.00  0.00    -0.703 OA 
HETATM   26  C   UNL     1     -12.099  12.105  63.883  1.00  0.00    -0.488 C  
ENDBRANCH  21  24
ENDBRANCH   9  10
ENDBRANCH   8   9
ENDBRANCH   7   8
TORSDOF 4
ENDMDL
MODEL      116
REMARK 921   NORMALIZED FREE ENERGY PREDICTED BY IDOCK:   -4.30 KCAL/MOL
REMARK 922        TOTAL FREE ENERGY PREDICTED BY IDOCK:   -6.08 KCAL/MOL
REMARK 923 INTER-LIGAND FREE ENERGY PREDICTED BY IDOCK:   -5.31 KCAL/MOL
REMARK 924 INTRA-LIGAND FREE ENERGY PREDICTED BY IDOCK:   -0.77 KCAL/MOL
REMARK 927      BINDING AFFINITY PREDICTED BY RF-SCORE:    0.00 PKD
ROOT
HETATM    1  C   UNL     1     -12.429  13.029  70.246  1.00  0.00    -0.147 C  
HETATM    2  N   UNL     1     -12.407  14.432  69.832  1.00  0.00    -0.329 NA 
HETATM    3  C   UNL     1     -13.459  15.215  70.494  1.00  0.00    -0.078 C  
HETATM    4  C   UNL     1     -13.169  15.543  71.959  1.00  0.00    -0.549 C  
HETATM    5  C   UNL     1     -11.793  16.170  72.135  1.00  0.00    -0.626 C  
HETATM    6  C   UNL     1     -10.720  15.332  71.448  1.00  0.00     0.150 C  
HETATM    7  C   UNL     1     -11.056  15.032  69.977  1.00  0.00    -0.263 C  
ENDROOT
BRANCH   7   8
HETATM    8  C   UNL     1     -10.972  16.279  69.073  1.00  0.00    -0.325 C  
BRANCH   8   9
HETATM    9  C   UNL     1     -10.079  16.159  67.820  1.00  0.00    -0.250 C  
BRANCH   9  10
HETATM   10  N   UNL     1      -9.179  14.973  67.791  1.00  0.00    -0.180 NA 
HETATM   11  C   UNL     1      -7.956  15.018  68.531  1.00  0.00    -0.144 A  
HETATM   12  C   UNL     1      -7.141  13.877  68.689  1.00  0.00    -0.110 A  
HETATM   13  S   UNL     1      -7.478  12.299  67.952  1.00  0.00    -0.135 SA 
HETATM   14  C   UNL     1      -5.958  13.913  69.465  1.00  0.00    -0.105 A  
HETATM   15  C   UNL     1      -5.544  15.076  70.096  1.00  0.00    -0.127 A  
HETATM   16  C   UNL     1      -8.984  12.599  67.072  1.00  0.00    -0.216 A  
HETATM   17  C   UNL     1      -6.298  16.222  69.929  1.00  0.00    -0.131 A  
HETATM   18  C   UNL     1      -9.656  13.835  67.055  1.00  0.00    -0.251 A  
HETATM   19  C   UNL     1     -10.840  13.874  66.282  1.00  0.00    -0.290 A  
HETATM   20  C   UNL     1      -7.465  16.193  69.150  1.00  0.00    -0.221 A  
HETATM   21  C   UNL     1     -11.403  12.740  65.676  1.00  0.00    -0.319 A  
HETATM   22  C   UNL     1      -9.499  11.478  66.386  1.00  0.00    -0.230 A  
HETATM   23  C   UNL     1     -10.714  11.539  65.711  1.00  0.00    -0.325 A  
BRANCH  21  24
HETATM   24  S   UNL     1     -13.029  12.821  64.886  1.00  0.00     0.180 S  
HETATM   25  O   UNL     1     -12.967  11.880  63.718  1.00  0.00    -0.644 OA 
HETATM   26  C   UNL     1     -12.868  14.504  64.219  1.00  0.00     0.360 C  
ENDBRANCH  21  24
ENDBRANCH   9  10
ENDBRANCH   8   9
ENDBRANCH   7   8
TORSDOF 4
ENDMDL
MODEL      117
REMARK 921   NORMALIZED FREE ENERGY PREDICTED BY IDOCK:   -4.30 KCAL/MOL
REMARK 922        TOTAL FREE ENERGY PREDICTED BY IDOCK:   -6.08 KCAL/MOL
REMARK 923 INTER-LIGAND FREE ENERGY PREDICTED BY IDOCK:   -5.50 KCAL/MOL
REMARK 924 INTRA-LIGAND FREE ENERGY PREDICTED BY IDOCK:   -0.57 KCAL/MOL
REMARK 927      BINDING AFFINITY PREDICTED BY RF-SCORE:    0.00 PKD
ROOT
HETATM    1  C   UNL     1     -13.071  14.414  64.977  1.00  0.00     0.241 C  
HETATM    2  N   UNL     1     -12.721  13.031  65.298  1.00  0.00    -0.665 NA 
HETATM    3  C   UNL     1     -12.885  12.141  64.141  1.00  0.00    -0.236 C  
HETATM    4  C   UNL     1     -11.786  12.274  63.086  1.00  0.00    -0.309 C  
HETATM    5  C   UNL     1     -10.398  12.163  63.702  1.00  0.00    -0.482 C  
HETATM    6  C   UNL     1     -10.252  13.103  64.893  1.00  0.00    -0.306 C  
HETATM    7  C   UNL     1     -11.379  12.928  65.926  1.00  0.00    -0.312 C  
ENDROOT
BRANCH   7   8
HETATM    8  C   UNL     1     -11.294  11.592  66.691  1.00  0.00    -0.338 C  
BRANCH   8   9
HETATM    9  C   UNL     1     -10.856  11.673  68.168  1.00  0.00    -0.217 C  
BRANCH   9  10
HETATM   10  N   UNL     1     -10.141  12.922  68.553  1.00  0.00    -0.220 NA 
HETATM   11  C   UNL     1     -10.852  13.924  69.285  1.00  0.00    -0.135 A  
HETATM   12  C   UNL     1     -10.198  15.050  69.829  1.00  0.00    -0.125 A  
HETATM   13  S   UNL     1      -8.471  15.398  69.624  1.00  0.00     0.013 SA 
HETATM   14  C   UNL     1     -10.895  16.013  70.597  1.00  0.00    -0.183 A  
HETATM   15  C   UNL     1     -12.255  15.896  70.839  1.00  0.00    -0.397 A  
HETATM   16  C   UNL     1      -7.918  14.035  68.638  1.00  0.00    -0.122 A  
HETATM   17  C   UNL     1     -12.934  14.826  70.286  1.00  0.00    -0.179 A  
HETATM   18  C   UNL     1      -8.751  12.988  68.202  1.00  0.00    -0.190 A  
HETATM   19  C   UNL     1      -8.120  11.997  67.413  1.00  0.00    -0.168 A  
HETATM   20  C   UNL     1     -12.248  13.877  69.514  1.00  0.00    -0.356 A  
HETATM   21  C   UNL     1      -6.736  11.962  67.180  1.00  0.00    -0.142 A  
HETATM   22  C   UNL     1      -6.541  14.052  68.327  1.00  0.00    -0.110 A  
HETATM   23  C   UNL     1      -5.947  13.011  67.623  1.00  0.00    -0.145 A  
BRANCH  21  24
HETATM   24  S   UNL     1      -5.971  10.551  66.346  1.00  0.00    -0.095 S  
HETATM   25  O   UNL     1      -5.322  11.105  65.110  1.00  0.00    -0.220 OA 
HETATM   26  C   UNL     1      -7.511   9.744  65.817  1.00  0.00    -0.105 C  
ENDBRANCH  21  24
ENDBRANCH   9  10
ENDBRANCH   8   9
ENDBRANCH   7   8
TORSDOF 4
ENDMDL
MODEL      118
REMARK 921   NORMALIZED FREE ENERGY PREDICTED BY IDOCK:   -4.27 KCAL/MOL
REMARK 922        TOTAL FREE ENERGY PREDICTED BY IDOCK:   -6.04 KCAL/MOL
REMARK 923 INTER-LIGAND FREE ENERGY PREDICTED BY IDOCK:   -5.40 KCAL/MOL
REMARK 924 INTRA-LIGAND FREE ENERGY PREDICTED BY IDOCK:   -0.64 KCAL/MOL
REMARK 927      BINDING AFFINITY PREDICTED BY RF-SCORE:    0.00 PKD
ROOT
HETATM    1  C   UNL     1     -12.190  14.805  64.257  1.00  0.00    -0.379 C  
HETATM    2  N   UNL     1     -12.345  13.632  65.116  1.00  0.00    -0.430 NA 
HETATM    3  C   UNL     1     -12.770  12.448  64.357  1.00  0.00    -0.342 C  
HETATM    4  C   UNL     1     -11.661  11.808  63.521  1.00  0.00    -0.485 C  
HETATM    5  C   UNL     1     -10.414  11.537  64.351  1.00  0.00    -0.380 C  
HETATM    6  C   UNL     1      -9.990  12.784  65.120  1.00  0.00    -0.185 C  
HETATM    7  C   UNL     1     -11.138  13.388  65.947  1.00  0.00    -0.280 C  
ENDROOT
BRANCH   7   8
HETATM    8  C   UNL     1     -11.539  12.513  67.152  1.00  0.00    -0.437 C  
BRANCH   8   9
HETATM    9  C   UNL     1     -10.866  12.850  68.499  1.00  0.00    -0.257 C  
BRANCH   9  10
HETATM   10  N   UNL     1      -9.408  12.554  68.574  1.00  0.00    -0.138 NA 
HETATM   11  C   UNL     1      -8.480  13.637  68.467  1.00  0.00    -0.106 A  
HETATM   12  C   UNL     1      -7.100  13.456  68.700  1.00  0.00    -0.106 A  
HETATM   13  S   UNL     1      -6.345  11.895  69.075  1.00  0.00    -0.088 SA 
HETATM   14  C   UNL     1      -6.191  14.540  68.645  1.00  0.00    -0.083 A  
HETATM   15  C   UNL     1      -6.618  15.825  68.348  1.00  0.00    -0.116 A  
HETATM   16  C   UNL     1      -7.726  10.787  69.063  1.00  0.00    -0.133 A  
HETATM   17  C   UNL     1      -7.958  16.029  68.075  1.00  0.00    -0.142 A  
HETATM   18  C   UNL     1      -9.053  11.184  68.815  1.00  0.00    -0.139 A  
HETATM   19  C   UNL     1     -10.013  10.144  68.838  1.00  0.00    -0.207 A  
HETATM   20  C   UNL     1      -8.859  14.955  68.118  1.00  0.00    -0.174 A  
HETATM   21  C   UNL     1      -9.712   8.826  69.215  1.00  0.00    -0.172 A  
HETATM   22  C   UNL     1      -7.406   9.443  69.351  1.00  0.00    -0.078 A  
HETATM   23  C   UNL     1      -8.394   8.470  69.450  1.00  0.00    -0.119 A  
BRANCH  21  24
HETATM   24  S   UNL     1     -11.026   7.600  69.431  1.00  0.00     0.026 S  
HETATM   25  O   UNL     1     -11.663   7.907  70.756  1.00  0.00    -0.284 OA 
HETATM   26  C   UNL     1      -9.947   6.160  69.685  1.00  0.00    -0.168 C  
ENDBRANCH  21  24
ENDBRANCH   9  10
ENDBRANCH   8   9
ENDBRANCH   7   8
TORSDOF 4
ENDMDL
MODEL      119
REMARK 921   NORMALIZED FREE ENERGY PREDICTED BY IDOCK:   -4.23 KCAL/MOL
REMARK 922        TOTAL FREE ENERGY PREDICTED BY IDOCK:   -5.99 KCAL/MOL
REMARK 923 INTER-LIGAND FREE ENERGY PREDICTED BY IDOCK:   -5.37 KCAL/MOL
REMARK 924 INTRA-LIGAND FREE ENERGY PREDICTED BY IDOCK:   -0.62 KCAL/MOL
REMARK 927      BINDING AFFINITY PREDICTED BY RF-SCORE:    0.00 PKD
ROOT
HETATM    1  C   UNL     1      -7.581  11.947  67.160  1.00  0.00    -0.154 C  
HETATM    2  N   UNL     1      -8.886  11.425  67.566  1.00  0.00    -0.144 NA 
HETATM    3  C   UNL     1      -9.970  12.374  67.279  1.00  0.00    -0.206 C  
HETATM    4  C   UNL     1     -10.357  12.456  65.802  1.00  0.00    -0.289 C  
HETATM    5  C   UNL     1     -10.631  11.078  65.213  1.00  0.00    -0.283 C  
HETATM    6  C   UNL     1      -9.486  10.118  65.518  1.00  0.00    -0.286 C  
HETATM    7  C   UNL     1      -9.138  10.068  67.015  1.00  0.00    -0.142 C  
ENDROOT
BRANCH   7   8
HETATM    8  C   UNL     1     -10.228   9.386  67.866  1.00  0.00    -0.259 C  
BRANCH   8   9
HETATM    9  C   UNL     1     -10.767   8.039  67.340  1.00  0.00    -0.190 C  
BRANCH   9  10
HETATM   10  N   UNL     1     -10.193   6.827  67.988  1.00  0.00    -0.159 NA 
HETATM   11  C   UNL     1      -9.255   6.034  67.256  1.00  0.00    -0.114 A  
HETATM   12  C   UNL     1      -8.544   4.977  67.862  1.00  0.00    -0.103 A  
HETATM   13  S   UNL     1      -8.764   4.459  69.544  1.00  0.00    -0.085 SA 
HETATM   14  C   UNL     1      -7.578   4.227  67.148  1.00  0.00    -0.077 A  
HETATM   15  C   UNL     1      -7.298   4.495  65.817  1.00  0.00    -0.077 A  
HETATM   16  C   UNL     1     -10.010   5.573  70.129  1.00  0.00    -0.221 A  
HETATM   17  C   UNL     1      -8.005   5.497  65.181  1.00  0.00    -0.110 A  
HETATM   18  C   UNL     1     -10.592   6.588  69.347  1.00  0.00    -0.245 A  
HETATM   19  C   UNL     1     -11.579   7.367  69.995  1.00  0.00    -0.024 A  
HETATM   20  C   UNL     1      -8.971   6.234  65.883  1.00  0.00    -0.122 A  
HETATM   21  C   UNL     1     -11.880   7.247  71.361  1.00  0.00    -0.305 A  
HETATM   22  C   UNL     1     -10.378   5.390  71.480  1.00  0.00    -0.289 A  
HETATM   23  C   UNL     1     -11.290   6.236  72.101  1.00  0.00    -0.343 A  
BRANCH  21  24
HETATM   24  S   UNL     1     -12.997   8.419  72.170  1.00  0.00    -0.316 S  
HETATM   25  O   UNL     1     -14.357   8.163  71.587  1.00  0.00    -0.426 OA 
HETATM   26  C   UNL     1     -12.356   9.922  71.376  1.00  0.00    -0.404 C  
ENDBRANCH  21  24
ENDBRANCH   9  10
ENDBRANCH   8   9
ENDBRANCH   7   8
TORSDOF 4
ENDMDL
MODEL      120
REMARK 921   NORMALIZED FREE ENERGY PREDICTED BY IDOCK:   -4.15 KCAL/MOL
REMARK 922        TOTAL FREE ENERGY PREDICTED BY IDOCK:   -5.90 KCAL/MOL
REMARK 923 INTER-LIGAND FREE ENERGY PREDICTED BY IDOCK:   -5.59 KCAL/MOL
REMARK 924 INTRA-LIGAND FREE ENERGY PREDICTED BY IDOCK:   -0.30 KCAL/MOL
REMARK 927      BINDING AFFINITY PREDICTED BY RF-SCORE:    0.00 PKD
ROOT
HETATM    1  C   UNL     1     -12.314  14.241  69.472  1.00  0.00    -0.230 C  
HETATM    2  N   UNL     1     -11.611  13.319  68.579  1.00  0.00    -0.310 NA 
HETATM    3  C   UNL     1     -12.160  13.348  67.217  1.00  0.00    -0.304 C  
HETATM    4  C   UNL     1     -11.766  14.585  66.408  1.00  0.00    -0.372 C  
HETATM    5  C   UNL     1     -10.260  14.811  66.422  1.00  0.00    -0.299 C  
HETATM    6  C   UNL     1      -9.719  14.786  67.848  1.00  0.00    -0.211 C  
HETATM    7  C   UNL     1     -10.140  13.522  68.618  1.00  0.00    -0.166 C  
ENDROOT
BRANCH   7   8
HETATM    8  C   UNL     1      -9.453  12.243  68.100  1.00  0.00    -0.213 C  
BRANCH   8   9
HETATM    9  C   UNL     1     -10.379  11.057  67.758  1.00  0.00    -0.188 C  
BRANCH   9  10
HETATM   10  N   UNL     1      -9.786  10.024  66.864  1.00  0.00    -0.188 NA 
HETATM   11  C   UNL     1      -9.670  10.308  65.467  1.00  0.00    -0.265 A  
HETATM   12  C   UNL     1      -8.966   9.453  64.592  1.00  0.00    -0.187 A  
HETATM   13  S   UNL     1      -8.217   7.921  65.079  1.00  0.00    -0.100 SA 
HETATM   14  C   UNL     1      -8.809   9.764  63.220  1.00  0.00    -0.260 A  
HETATM   15  C   UNL     1      -9.349  10.919  62.675  1.00  0.00    -0.343 A  
HETATM   16  C   UNL     1      -8.596   7.840  66.807  1.00  0.00    -0.132 A  
HETATM   17  C   UNL     1     -10.078  11.758  63.496  1.00  0.00    -0.463 A  
HETATM   18  C   UNL     1      -9.315   8.828  67.504  1.00  0.00    -0.136 A  
HETATM   19  C   UNL     1      -9.524   8.572  68.880  1.00  0.00    -0.147 A  
HETATM   20  C   UNL     1     -10.246  11.446  64.854  1.00  0.00    -0.330 A  
HETATM   21  C   UNL     1      -8.949   7.485  69.558  1.00  0.00    -0.143 A  
HETATM   22  C   UNL     1      -8.094   6.698  67.467  1.00  0.00    -0.118 A  
HETATM   23  C   UNL     1      -8.248   6.531  68.839  1.00  0.00    -0.119 A  
BRANCH  21  24
HETATM   24  S   UNL     1      -9.080   7.339  71.356  1.00  0.00    -0.141 S  
HETATM   25  O   UNL     1      -7.823   7.942  71.913  1.00  0.00    -0.091 OA 
HETATM   26  C   UNL     1      -8.886   5.534  71.447  1.00  0.00    -0.136 C  
ENDBRANCH  21  24
ENDBRANCH   9  10
ENDBRANCH   8   9
ENDBRANCH   7   8
TORSDOF 4
ENDMDL
MODEL      121
REMARK 921   NORMALIZED FREE ENERGY PREDICTED BY IDOCK:   -4.15 KCAL/MOL
REMARK 922        TOTAL FREE ENERGY PREDICTED BY IDOCK:   -5.89 KCAL/MOL
REMARK 923 INTER-LIGAND FREE ENERGY PREDICTED BY IDOCK:   -5.17 KCAL/MOL
REMARK 924 INTRA-LIGAND FREE ENERGY PREDICTED BY IDOCK:   -0.73 KCAL/MOL
REMARK 927      BINDING AFFINITY PREDICTED BY RF-SCORE:    0.00 PKD
ROOT
HETATM    1  C   UNL     1     -10.720  10.849  66.730  1.00  0.00    -0.252 C  
HETATM    2  N   UNL     1     -10.209  10.983  68.095  1.00  0.00    -0.176 NA 
HETATM    3  C   UNL     1      -9.842  12.370  68.409  1.00  0.00    -0.198 C  
HETATM    4  C   UNL     1     -11.035  13.293  68.663  1.00  0.00    -0.294 C  
HETATM    5  C   UNL     1     -11.992  12.707  69.692  1.00  0.00    -0.352 C  
HETATM    6  C   UNL     1     -12.364  11.272  69.335  1.00  0.00    -0.216 C  
HETATM    7  C   UNL     1     -11.132  10.384  69.093  1.00  0.00    -0.246 C  
ENDROOT
BRANCH   7   8
HETATM    8  C   UNL     1     -10.338  10.090  70.382  1.00  0.00    -0.268 C  
BRANCH   8   9
HETATM    9  C   UNL     1      -9.029   9.291  70.214  1.00  0.00    -0.229 C  
BRANCH   9  10
HETATM   10  N   UNL     1      -9.187   7.810  70.182  1.00  0.00    -0.153 NA 
HETATM   11  C   UNL     1      -9.572   7.132  71.381  1.00  0.00    -0.161 A  
HETATM   12  C   UNL     1      -9.906   5.761  71.384  1.00  0.00    -0.170 A  
HETATM   13  S   UNL     1      -9.827   4.710  69.957  1.00  0.00    -0.226 SA 
HETATM   14  C   UNL     1     -10.337   5.106  72.562  1.00  0.00    -0.254 A  
HETATM   15  C   UNL     1     -10.438   5.783  73.768  1.00  0.00    -0.291 A  
HETATM   16  C   UNL     1      -9.265   5.816  68.694  1.00  0.00    -0.118 A  
HETATM   17  C   UNL     1     -10.079   7.117  73.809  1.00  0.00    -0.391 A  
HETATM   18  C   UNL     1      -8.996   7.182  68.905  1.00  0.00    -0.129 A  
HETATM   19  C   UNL     1      -8.544   7.895  67.769  1.00  0.00    -0.128 A  
HETATM   20  C   UNL     1      -9.641   7.766  72.645  1.00  0.00    -0.261 A  
HETATM   21  C   UNL     1      -8.490   7.339  66.481  1.00  0.00    -0.125 A  
HETATM   22  C   UNL     1      -9.122   5.231  67.418  1.00  0.00    -0.112 A  
HETATM   23  C   UNL     1      -8.760   5.991  66.311  1.00  0.00    -0.138 A  
BRANCH  21  24
HETATM   24  S   UNL     1      -8.110   8.368  65.042  1.00  0.00    -0.153 S  
HETATM   25  O   UNL     1      -8.212   7.462  63.849  1.00  0.00    -0.066 OA 
HETATM   26  C   UNL     1      -6.339   8.587  65.388  1.00  0.00    -0.055 C  
ENDBRANCH  21  24
ENDBRANCH   9  10
ENDBRANCH   8   9
ENDBRANCH   7   8
TORSDOF 4
ENDMDL
MODEL      122
REMARK 921   NORMALIZED FREE ENERGY PREDICTED BY IDOCK:   -4.10 KCAL/MOL
REMARK 922        TOTAL FREE ENERGY PREDICTED BY IDOCK:   -5.83 KCAL/MOL
REMARK 923 INTER-LIGAND FREE ENERGY PREDICTED BY IDOCK:   -5.42 KCAL/MOL
REMARK 924 INTRA-LIGAND FREE ENERGY PREDICTED BY IDOCK:   -0.41 KCAL/MOL
REMARK 927      BINDING AFFINITY PREDICTED BY RF-SCORE:    0.00 PKD
ROOT
HETATM    1  C   UNL     1      -5.735  10.356  65.410  1.00  0.00    -0.123 C  
HETATM    2  N   UNL     1      -7.134  10.287  64.989  1.00  0.00    -0.132 NA 
HETATM    3  C   UNL     1      -7.267   9.851  63.593  1.00  0.00    -0.124 C  
HETATM    4  C   UNL     1      -7.030   8.356  63.378  1.00  0.00    -0.089 C  
HETATM    5  C   UNL     1      -7.871   7.510  64.323  1.00  0.00    -0.133 C  
HETATM    6  C   UNL     1      -7.707   7.977  65.765  1.00  0.00    -0.093 C  
HETATM    7  C   UNL     1      -7.958   9.486  65.930  1.00  0.00    -0.111 C  
ENDROOT
BRANCH   7   8
HETATM    8  C   UNL     1      -9.439   9.875  65.741  1.00  0.00    -0.280 C  
BRANCH   8   9
HETATM    9  C   UNL     1     -10.476   9.012  66.490  1.00  0.00    -0.122 C  
BRANCH   9  10
HETATM   10  N   UNL     1     -10.684   9.365  67.922  1.00  0.00    -0.238 NA 
HETATM   11  C   UNL     1     -11.102  10.693  68.249  1.00  0.00    -0.279 A  
HETATM   12  C   UNL     1     -11.482  11.049  69.561  1.00  0.00    -0.299 A  
HETATM   13  S   UNL     1     -11.427   9.949  70.951  1.00  0.00    -0.397 SA 
HETATM   14  C   UNL     1     -11.945  12.351  69.870  1.00  0.00    -0.369 A  
HETATM   15  C   UNL     1     -12.034  13.335  68.898  1.00  0.00    -0.336 A  
HETATM   16  C   UNL     1     -10.816   8.451  70.232  1.00  0.00    -0.239 A  
HETATM   17  C   UNL     1     -11.631  13.031  67.612  1.00  0.00    -0.403 A  
HETATM   18  C   UNL     1     -10.503   8.301  68.868  1.00  0.00    -0.191 A  
HETATM   19  C   UNL     1     -10.018   7.026  68.492  1.00  0.00    -0.158 A  
HETATM   20  C   UNL     1     -11.160  11.745  67.304  1.00  0.00    -0.342 A  
HETATM   21  C   UNL     1      -9.971   5.930  69.368  1.00  0.00    -0.178 A  
HETATM   22  C   UNL     1     -10.682   7.375  71.136  1.00  0.00    -0.246 A  
HETATM   23  C   UNL     1     -10.285   6.114  70.704  1.00  0.00    -0.250 A  
BRANCH  21  24
HETATM   24  S   UNL     1      -9.544   4.278  68.764  1.00  0.00    -0.119 S  
HETATM   25  O   UNL     1      -8.661   3.671  69.815  1.00  0.00    -0.064 OA 
HETATM   26  C   UNL     1      -8.459   4.812  67.407  1.00  0.00    -0.104 C  
ENDBRANCH  21  24
ENDBRANCH   9  10
ENDBRANCH   8   9
ENDBRANCH   7   8
TORSDOF 4
ENDMDL
MODEL      123
REMARK 921   NORMALIZED FREE ENERGY PREDICTED BY IDOCK:   -4.07 KCAL/MOL
REMARK 922        TOTAL FREE ENERGY PREDICTED BY IDOCK:   -5.80 KCAL/MOL
REMARK 923 INTER-LIGAND FREE ENERGY PREDICTED BY IDOCK:   -5.62 KCAL/MOL
REMARK 924 INTRA-LIGAND FREE ENERGY PREDICTED BY IDOCK:   -0.18 KCAL/MOL
REMARK 927      BINDING AFFINITY PREDICTED BY RF-SCORE:    0.00 PKD
ROOT
HETATM    1  C   UNL     1      -7.150  10.851  66.580  1.00  0.00    -0.139 C  
HETATM    2  N   UNL     1      -8.503  10.707  67.118  1.00  0.00    -0.127 NA 
HETATM    3  C   UNL     1      -9.302  11.925  66.928  1.00  0.00    -0.196 C  
HETATM    4  C   UNL     1      -9.792  12.137  65.495  1.00  0.00    -0.240 C  
HETATM    5  C   UNL     1     -10.495  10.901  64.951  1.00  0.00    -0.352 C  
HETATM    6  C   UNL     1      -9.640   9.655  65.152  1.00  0.00    -0.324 C  
HETATM    7  C   UNL     1      -9.176   9.484  66.608  1.00  0.00    -0.152 C  
ENDROOT
BRANCH   7   8
HETATM    8  C   UNL     1     -10.325   9.118  67.569  1.00  0.00    -0.324 C  
BRANCH   8   9
HETATM    9  C   UNL     1     -10.909   7.697  67.431  1.00  0.00    -0.170 C  
BRANCH   9  10
HETATM   10  N   UNL     1     -10.514   6.739  68.501  1.00  0.00    -0.190 NA 
HETATM   11  C   UNL     1     -10.793   7.076  69.863  1.00  0.00    -0.251 A  
HETATM   12  C   UNL     1     -10.605   6.149  70.910  1.00  0.00    -0.242 A  
HETATM   13  S   UNL     1      -9.952   4.515  70.693  1.00  0.00    -0.167 SA 
HETATM   14  C   UNL     1     -10.931   6.469  72.250  1.00  0.00    -0.281 A  
HETATM   15  C   UNL     1     -11.439   7.713  72.592  1.00  0.00    -0.403 A  
HETATM   16  C   UNL     1      -9.656   4.447  68.948  1.00  0.00    -0.163 A  
HETATM   17  C   UNL     1     -11.597   8.658  71.596  1.00  0.00    -0.379 A  
HETATM   18  C   UNL     1      -9.931   5.503  68.060  1.00  0.00    -0.149 A  
HETATM   19  C   UNL     1      -9.613   5.256  66.704  1.00  0.00    -0.160 A  
HETATM   20  C   UNL     1     -11.264   8.348  70.269  1.00  0.00    -0.175 A  
HETATM   21  C   UNL     1      -9.181   4.008  66.228  1.00  0.00    -0.158 A  
HETATM   22  C   UNL     1      -9.133   3.220  68.486  1.00  0.00    -0.210 A  
HETATM   23  C   UNL     1      -8.918   2.992  67.131  1.00  0.00    -0.180 A  
BRANCH  21  24
HETATM   24  S   UNL     1      -9.000   3.704  64.454  1.00  0.00    -0.127 S  
HETATM   25  O   UNL     1      -8.422   4.963  63.876  1.00  0.00    -0.126 OA 
HETATM   26  C   UNL     1     -10.772   3.700  64.047  1.00  0.00    -0.239 C  
ENDBRANCH  21  24
ENDBRANCH   9  10
ENDBRANCH   8   9
ENDBRANCH   7   8
TORSDOF 4
ENDMDL
MODEL      124
REMARK 921   NORMALIZED FREE ENERGY PREDICTED BY IDOCK:   -4.04 KCAL/MOL
REMARK 922        TOTAL FREE ENERGY PREDICTED BY IDOCK:   -5.76 KCAL/MOL
REMARK 923 INTER-LIGAND FREE ENERGY PREDICTED BY IDOCK:   -6.27 KCAL/MOL
REMARK 924 INTRA-LIGAND FREE ENERGY PREDICTED BY IDOCK:    0.51 KCAL/MOL
REMARK 927      BINDING AFFINITY PREDICTED BY RF-SCORE:    0.00 PKD
ROOT
HETATM    1  C   UNL     1     -13.234  12.437  63.504  1.00  0.00     0.420 C  
HETATM    2  N   UNL     1     -12.577  12.436  64.811  1.00  0.00    -0.605 NA 
HETATM    3  C   UNL     1     -11.227  11.861  64.747  1.00  0.00    -0.297 C  
HETATM    4  C   UNL     1     -10.182  12.783  64.116  1.00  0.00    -0.344 C  
HETATM    5  C   UNL     1     -10.186  14.163  64.758  1.00  0.00    -0.311 C  
HETATM    6  C   UNL     1     -11.597  14.740  64.803  1.00  0.00    -0.418 C  
HETATM    7  C   UNL     1     -12.609  13.778  65.449  1.00  0.00    -0.497 C  
ENDROOT
BRANCH   7   8
HETATM    8  C   UNL     1     -12.394  13.606  66.966  1.00  0.00    -0.277 C  
BRANCH   8   9
HETATM    9  C   UNL     1     -11.568  14.703  67.671  1.00  0.00    -0.361 C  
BRANCH   9  10
HETATM   10  N   UNL     1     -10.162  14.332  67.993  1.00  0.00    -0.223 NA 
HETATM   11  C   UNL     1      -9.813  12.947  68.058  1.00  0.00    -0.223 A  
HETATM   12  C   UNL     1      -8.473  12.524  68.187  1.00  0.00    -0.180 A  
HETATM   13  S   UNL     1      -7.090  13.623  68.352  1.00  0.00    -0.119 SA 
HETATM   14  C   UNL     1      -8.126  11.152  68.200  1.00  0.00    -0.128 A  
HETATM   15  C   UNL     1      -9.092  10.163  68.096  1.00  0.00    -0.128 A  
HETATM   16  C   UNL     1      -7.857  15.218  68.303  1.00  0.00    -0.116 A  
HETATM   17  C   UNL     1     -10.419  10.542  68.009  1.00  0.00    -0.232 A  
HETATM   18  C   UNL     1      -9.241  15.423  68.152  1.00  0.00    -0.186 A  
HETATM   19  C   UNL     1      -9.660  16.774  68.148  1.00  0.00    -0.242 A  
HETATM   20  C   UNL     1     -10.766  11.901  68.009  1.00  0.00    -0.242 A  
HETATM   21  C   UNL     1      -8.766  17.858  68.155  1.00  0.00    -0.268 A  
HETATM   22  C   UNL     1      -6.964  16.306  68.404  1.00  0.00    -0.135 A  
HETATM   23  C   UNL     1      -7.411  17.619  68.307  1.00  0.00    -0.234 A  
BRANCH  21  24
HETATM   24  S   UNL     1      -9.361  19.552  67.931  1.00  0.00    -0.345 S  
HETATM   25  O   UNL     1     -10.628  19.653  68.730  1.00  0.00    -0.191 OA 
HETATM   26  C   UNL     1      -9.848  19.388  66.188  1.00  0.00    -0.390 C  
ENDBRANCH  21  24
ENDBRANCH   9  10
ENDBRANCH   8   9
ENDBRANCH   7   8
TORSDOF 4
ENDMDL
MODEL      125
REMARK 921   NORMALIZED FREE ENERGY PREDICTED BY IDOCK:   -4.03 KCAL/MOL
REMARK 922        TOTAL FREE ENERGY PREDICTED BY IDOCK:   -5.75 KCAL/MOL
REMARK 923 INTER-LIGAND FREE ENERGY PREDICTED BY IDOCK:   -5.86 KCAL/MOL
REMARK 924 INTRA-LIGAND FREE ENERGY PREDICTED BY IDOCK:    0.11 KCAL/MOL
REMARK 927      BINDING AFFINITY PREDICTED BY RF-SCORE:    0.00 PKD
ROOT
HETATM    1  C   UNL     1      -5.165  12.111  67.933  1.00  0.00    -0.065 C  
HETATM    2  N   UNL     1      -6.287  12.740  68.629  1.00  0.00    -0.069 NA 
HETATM    3  C   UNL     1      -6.267  12.457  70.070  1.00  0.00    -0.075 C  
HETATM    4  C   UNL     1      -5.216  13.248  70.850  1.00  0.00    -0.148 C  
HETATM    5  C   UNL     1      -5.305  14.741  70.561  1.00  0.00    -0.128 C  
HETATM    6  C   UNL     1      -5.314  15.006  69.060  1.00  0.00    -0.097 C  
HETATM    7  C   UNL     1      -6.389  14.190  68.321  1.00  0.00    -0.118 C  
ENDROOT
BRANCH   7   8
HETATM    8  C   UNL     1      -7.824  14.659  68.635  1.00  0.00    -0.138 C  
BRANCH   8   9
HETATM    9  C   UNL     1      -8.944  13.614  68.449  1.00  0.00    -0.160 C  
BRANCH   9  10
HETATM   10  N   UNL     1      -9.473  13.487  67.063  1.00  0.00    -0.243 NA 
HETATM   11  C   UNL     1      -9.571  12.184  66.481  1.00  0.00    -0.228 A  
HETATM   12  C   UNL     1     -10.219  11.971  65.245  1.00  0.00    -0.271 A  
HETATM   13  S   UNL     1     -10.914  13.260  64.245  1.00  0.00    -0.364 SA 
HETATM   14  C   UNL     1     -10.360  10.674  64.697  1.00  0.00    -0.353 A  
HETATM   15  C   UNL     1      -9.857   9.557  65.347  1.00  0.00    -0.248 A  
HETATM   16  C   UNL     1     -10.570  14.713  65.196  1.00  0.00    -0.421 A  
HETATM   17  C   UNL     1      -9.181   9.736  66.539  1.00  0.00    -0.194 A  
HETATM   18  C   UNL     1      -9.908  14.705  66.438  1.00  0.00    -0.285 A  
HETATM   19  C   UNL     1      -9.718  15.973  67.036  1.00  0.00    -0.235 A  
HETATM   20  C   UNL     1      -9.030  11.022  67.079  1.00  0.00    -0.151 A  
HETATM   21  C   UNL     1     -10.262  17.159  66.516  1.00  0.00    -0.322 A  
HETATM   22  C   UNL     1     -11.037  15.917  64.625  1.00  0.00    -0.368 A  
HETATM   23  C   UNL     1     -10.906  17.131  65.290  1.00  0.00    -0.043 A  
BRANCH  21  24
HETATM   24  S   UNL     1     -10.164  18.709  67.445  1.00  0.00    -0.406 S  
HETATM   25  O   UNL     1     -11.029  19.688  66.706  1.00  0.00    -0.444 OA 
HETATM   26  C   UNL     1      -8.440  19.108  67.027  1.00  0.00    -0.285 C  
ENDBRANCH  21  24
ENDBRANCH   9  10
ENDBRANCH   8   9
ENDBRANCH   7   8
TORSDOF 4
ENDMDL
MODEL      126
REMARK 921   NORMALIZED FREE ENERGY PREDICTED BY IDOCK:   -3.98 KCAL/MOL
REMARK 922        TOTAL FREE ENERGY PREDICTED BY IDOCK:   -5.69 KCAL/MOL
REMARK 923 INTER-LIGAND FREE ENERGY PREDICTED BY IDOCK:   -5.24 KCAL/MOL
REMARK 924 INTRA-LIGAND FREE ENERGY PREDICTED BY IDOCK:   -0.45 KCAL/MOL
REMARK 927      BINDING AFFINITY PREDICTED BY RF-SCORE:    0.00 PKD
ROOT
HETATM    1  C   UNL     1     -12.260  14.659  69.163  1.00  0.00    -0.188 C  
HETATM    2  N   UNL     1     -11.204  14.019  68.378  1.00  0.00    -0.253 NA 
HETATM    3  C   UNL     1     -11.750  13.171  67.311  1.00  0.00    -0.374 C  
HETATM    4  C   UNL     1     -12.301  13.947  66.114  1.00  0.00    -0.504 C  
HETATM    5  C   UNL     1     -11.292  14.956  65.582  1.00  0.00    -0.325 C  
HETATM    6  C   UNL     1     -10.750  15.828  66.709  1.00  0.00    -0.293 C  
HETATM    7  C   UNL     1     -10.205  15.003  67.887  1.00  0.00    -0.228 C  
ENDROOT
BRANCH   7   8
HETATM    8  C   UNL     1      -8.902  14.251  67.545  1.00  0.00    -0.202 C  
BRANCH   8   9
HETATM    9  C   UNL     1      -7.744  15.104  66.985  1.00  0.00    -0.123 C  
BRANCH   9  10
HETATM   10  N   UNL     1      -6.958  15.857  68.003  1.00  0.00    -0.122 NA 
HETATM   11  C   UNL     1      -6.930  17.285  67.932  1.00  0.00    -0.166 A  
HETATM   12  C   UNL     1      -6.352  18.067  68.954  1.00  0.00    -0.224 A  
HETATM   13  S   UNL     1      -5.545  17.402  70.387  1.00  0.00    -0.127 SA 
HETATM   14  C   UNL     1      -6.371  19.482  68.906  1.00  0.00    -0.306 A  
HETATM   15  C   UNL     1      -6.951  20.159  67.844  1.00  0.00    -0.316 A  
HETATM   16  C   UNL     1      -5.692  15.655  70.135  1.00  0.00    -0.151 A  
HETATM   17  C   UNL     1      -7.490  19.423  66.806  1.00  0.00    -0.249 A  
HETATM   18  C   UNL     1      -6.333  15.069  69.027  1.00  0.00    -0.100 A  
HETATM   19  C   UNL     1      -6.335  13.654  69.004  1.00  0.00    -0.102 A  
HETATM   20  C   UNL     1      -7.462  18.021  66.846  1.00  0.00    -0.235 A  
HETATM   21  C   UNL     1      -5.861  12.865  70.064  1.00  0.00    -0.142 A  
HETATM   22  C   UNL     1      -5.131  14.862  71.159  1.00  0.00    -0.140 A  
HETATM   23  C   UNL     1      -5.234  13.476  71.138  1.00  0.00    -0.164 A  
BRANCH  21  24
HETATM   24  S   UNL     1      -6.092  11.071  70.059  1.00  0.00    -0.141 S  
HETATM   25  O   UNL     1      -5.164  10.538  69.006  1.00  0.00    -0.042 OA 
HETATM   26  C   UNL     1      -7.762  11.063  69.344  1.00  0.00    -0.020 C  
ENDBRANCH  21  24
ENDBRANCH   9  10
ENDBRANCH   8   9
ENDBRANCH   7   8
TORSDOF 4
ENDMDL
MODEL      127
REMARK 921   NORMALIZED FREE ENERGY PREDICTED BY IDOCK:   -3.96 KCAL/MOL
REMARK 922        TOTAL FREE ENERGY PREDICTED BY IDOCK:   -5.66 KCAL/MOL
REMARK 923 INTER-LIGAND FREE ENERGY PREDICTED BY IDOCK:   -5.80 KCAL/MOL
REMARK 924 INTRA-LIGAND FREE ENERGY PREDICTED BY IDOCK:    0.14 KCAL/MOL
REMARK 927      BINDING AFFINITY PREDICTED BY RF-SCORE:    0.00 PKD
ROOT
HETATM    1  C   UNL     1     -11.700  15.239  64.447  1.00  0.00    -0.285 C  
HETATM    2  N   UNL     1     -10.874  14.307  65.214  1.00  0.00    -0.333 NA 
HETATM    3  C   UNL     1      -9.837  15.001  65.988  1.00  0.00    -0.319 C  
HETATM    4  C   UNL     1     -10.358  15.715  67.236  1.00  0.00    -0.277 C  
HETATM    5  C   UNL     1     -11.197  14.790  68.106  1.00  0.00    -0.307 C  
HETATM    6  C   UNL     1     -12.271  14.090  67.280  1.00  0.00    -0.325 C  
HETATM    7  C   UNL     1     -11.697  13.385  66.039  1.00  0.00    -0.362 C  
ENDROOT
BRANCH   7   8
HETATM    8  C   UNL     1     -10.848  12.146  66.388  1.00  0.00    -0.306 C  
BRANCH   8   9
HETATM    9  C   UNL     1     -10.619  11.129  65.251  1.00  0.00    -0.238 C  
BRANCH   9  10
HETATM   10  N   UNL     1      -9.666  10.027  65.564  1.00  0.00    -0.269 NA 
HETATM   11  C   UNL     1      -8.683   9.670  64.588  1.00  0.00    -0.201 A  
HETATM   12  C   UNL     1      -7.645   8.759  64.881  1.00  0.00    -0.099 A  
HETATM   13  S   UNL     1      -7.467   7.909  66.427  1.00  0.00    -0.088 SA 
HETATM   14  C   UNL     1      -6.645   8.447  63.930  1.00  0.00    -0.075 A  
HETATM   15  C   UNL     1      -6.648   9.015  62.665  1.00  0.00    -0.094 A  
HETATM   16  C   UNL     1      -8.847   8.510  67.358  1.00  0.00    -0.134 A  
HETATM   17  C   UNL     1      -7.674   9.880  62.333  1.00  0.00    -0.133 A  
HETATM   18  C   UNL     1      -9.778   9.448  66.873  1.00  0.00    -0.186 A  
HETATM   19  C   UNL     1     -10.818   9.793  67.769  1.00  0.00    -0.306 A  
HETATM   20  C   UNL     1      -8.674  10.182  63.269  1.00  0.00    -0.214 A  
HETATM   21  C   UNL     1     -10.865   9.353  69.101  1.00  0.00    -0.155 A  
HETATM   22  C   UNL     1      -8.945   7.994  68.668  1.00  0.00    -0.134 A  
HETATM   23  C   UNL     1      -9.933   8.429  69.544  1.00  0.00    -0.190 A  
BRANCH  21  24
HETATM   24  S   UNL     1     -12.102  10.004  70.250  1.00  0.00    -0.092 S  
HETATM   25  O   UNL     1     -11.690  11.418  70.541  1.00  0.00    -0.320 OA 
HETATM   26  C   UNL     1     -11.616   9.006  71.689  1.00  0.00    -0.356 C  
ENDBRANCH  21  24
ENDBRANCH   9  10
ENDBRANCH   8   9
ENDBRANCH   7   8
TORSDOF 4
ENDMDL
MODEL      128
REMARK 921   NORMALIZED FREE ENERGY PREDICTED BY IDOCK:   -3.95 KCAL/MOL
REMARK 922        TOTAL FREE ENERGY PREDICTED BY IDOCK:   -5.65 KCAL/MOL
REMARK 923 INTER-LIGAND FREE ENERGY PREDICTED BY IDOCK:   -5.18 KCAL/MOL
REMARK 924 INTRA-LIGAND FREE ENERGY PREDICTED BY IDOCK:   -0.47 KCAL/MOL
REMARK 927      BINDING AFFINITY PREDICTED BY RF-SCORE:    0.00 PKD
ROOT
HETATM    1  C   UNL     1     -13.240   8.251  71.666  1.00  0.00    -0.328 C  
HETATM    2  N   UNL     1     -11.816   8.396  71.366  1.00  0.00    -0.287 NA 
HETATM    3  C   UNL     1     -10.986   8.274  72.571  1.00  0.00    -0.354 C  
HETATM    4  C   UNL     1     -10.830   6.841  73.082  1.00  0.00    -0.315 C  
HETATM    5  C   UNL     1     -10.377   5.895  71.978  1.00  0.00    -0.250 C  
HETATM    6  C   UNL     1     -11.262   6.036  70.744  1.00  0.00    -0.340 C  
HETATM    7  C   UNL     1     -11.385   7.493  70.267  1.00  0.00    -0.199 C  
ENDROOT
BRANCH   7   8
HETATM    8  C   UNL     1     -10.077   8.043  69.664  1.00  0.00    -0.198 C  
BRANCH   8   9
HETATM    9  C   UNL     1     -10.188   8.710  68.276  1.00  0.00    -0.198 C  
BRANCH   9  10
HETATM   10  N   UNL     1      -8.957   9.404  67.803  1.00  0.00    -0.123 NA 
HETATM   11  C   UNL     1      -7.872   8.616  67.306  1.00  0.00    -0.097 A  
HETATM   12  C   UNL     1      -6.750   9.207  66.685  1.00  0.00    -0.076 A  
HETATM   13  S   UNL     1      -6.512  10.956  66.506  1.00  0.00    -0.136 SA 
HETATM   14  C   UNL     1      -5.702   8.422  66.148  1.00  0.00    -0.043 A  
HETATM   15  C   UNL     1      -5.727   7.038  66.220  1.00  0.00    -0.030 A  
HETATM   16  C   UNL     1      -7.966  11.622  67.267  1.00  0.00    -0.157 A  
HETATM   17  C   UNL     1      -6.791   6.429  66.858  1.00  0.00    -0.066 A  
HETATM   18  C   UNL     1      -8.992  10.839  67.828  1.00  0.00    -0.137 A  
HETATM   19  C   UNL     1     -10.066  11.561  68.399  1.00  0.00    -0.207 A  
HETATM   20  C   UNL     1      -7.827   7.205  67.401  1.00  0.00    -0.112 A  
HETATM   21  C   UNL     1     -10.193  12.956  68.305  1.00  0.00    -0.245 A  
HETATM   22  C   UNL     1      -8.045  13.031  67.254  1.00  0.00    -0.164 A  
HETATM   23  C   UNL     1      -9.162  13.696  67.748  1.00  0.00    -0.214 A  
BRANCH  21  24
HETATM   24  S   UNL     1     -11.696  13.792  68.868  1.00  0.00    -0.356 S  
HETATM   25  O   UNL     1     -12.361  14.321  67.631  1.00  0.00    -0.265 OA 
HETATM   26  C   UNL     1     -10.879  15.201  69.673  1.00  0.00    -0.286 C  
ENDBRANCH  21  24
ENDBRANCH   9  10
ENDBRANCH   8   9
ENDBRANCH   7   8
TORSDOF 4
ENDMDL
MODEL      129
REMARK 921   NORMALIZED FREE ENERGY PREDICTED BY IDOCK:   -3.93 KCAL/MOL
REMARK 922        TOTAL FREE ENERGY PREDICTED BY IDOCK:   -5.62 KCAL/MOL
REMARK 923 INTER-LIGAND FREE ENERGY PREDICTED BY IDOCK:   -5.34 KCAL/MOL
REMARK 924 INTRA-LIGAND FREE ENERGY PREDICTED BY IDOCK:   -0.28 KCAL/MOL
REMARK 927      BINDING AFFINITY PREDICTED BY RF-SCORE:    0.00 PKD
ROOT
HETATM    1  C   UNL     1      -8.082   9.183  64.003  1.00  0.00    -0.151 C  
HETATM    2  N   UNL     1      -8.387   8.901  65.406  1.00  0.00    -0.139 NA 
HETATM    3  C   UNL     1      -8.035   7.524  65.777  1.00  0.00    -0.117 C  
HETATM    4  C   UNL     1      -6.535   7.287  65.956  1.00  0.00    -0.045 C  
HETATM    5  C   UNL     1      -5.910   8.310  66.895  1.00  0.00    -0.049 C  
HETATM    6  C   UNL     1      -6.284   9.729  66.481  1.00  0.00    -0.068 C  
HETATM    7  C   UNL     1      -7.802   9.918  66.317  1.00  0.00    -0.108 C  
ENDROOT
BRANCH   7   8
HETATM    8  C   UNL     1      -8.563   9.873  67.657  1.00  0.00    -0.122 C  
BRANCH   8   9
HETATM    9  C   UNL     1     -10.020   9.368  67.602  1.00  0.00    -0.190 C  
BRANCH   9  10
HETATM   10  N   UNL     1     -10.570   8.869  68.894  1.00  0.00    -0.200 NA 
HETATM   11  C   UNL     1     -11.317   9.768  69.717  1.00  0.00    -0.158 A  
HETATM   12  C   UNL     1     -12.010   9.323  70.863  1.00  0.00    -0.257 A  
HETATM   13  S   UNL     1     -11.989   7.652  71.458  1.00  0.00    -0.315 SA 
HETATM   14  C   UNL     1     -12.790  10.206  71.647  1.00  0.00    -0.559 A  
HETATM   15  C   UNL     1     -12.899  11.551  71.326  1.00  0.00    -0.463 A  
HETATM   16  C   UNL     1     -10.946   6.838  70.282  1.00  0.00    -0.291 A  
HETATM   17  C   UNL     1     -12.201  12.028  70.233  1.00  0.00    -0.348 A  
HETATM   18  C   UNL     1     -10.351   7.479  69.178  1.00  0.00    -0.212 A  
HETATM   19  C   UNL     1      -9.542   6.655  68.360  1.00  0.00    -0.123 A  
HETATM   20  C   UNL     1     -11.416  11.157  69.461  1.00  0.00    -0.374 A  
HETATM   21  C   UNL     1      -9.432   5.267  68.534  1.00  0.00    -0.128 A  
HETATM   22  C   UNL     1     -10.761   5.458  70.512  1.00  0.00    -0.266 A  
HETATM   23  C   UNL     1     -10.028   4.670  69.632  1.00  0.00    -0.281 A  
BRANCH  21  24
HETATM   24  S   UNL     1      -8.553   4.247  67.323  1.00  0.00    -0.106 S  
HETATM   25  O   UNL     1      -9.418   4.227  66.096  1.00  0.00    -0.151 OA 
HETATM   26  C   UNL     1      -8.790   2.653  68.163  1.00  0.00    -0.122 C  
ENDBRANCH  21  24
ENDBRANCH   9  10
ENDBRANCH   8   9
ENDBRANCH   7   8
TORSDOF 4
ENDMDL
MODEL      130
REMARK 921   NORMALIZED FREE ENERGY PREDICTED BY IDOCK:   -3.92 KCAL/MOL
REMARK 922        TOTAL FREE ENERGY PREDICTED BY IDOCK:   -5.62 KCAL/MOL
REMARK 923 INTER-LIGAND FREE ENERGY PREDICTED BY IDOCK:   -5.02 KCAL/MOL
REMARK 924 INTRA-LIGAND FREE ENERGY PREDICTED BY IDOCK:   -0.60 KCAL/MOL
REMARK 927      BINDING AFFINITY PREDICTED BY RF-SCORE:    0.00 PKD
ROOT
HETATM    1  C   UNL     1     -13.485   7.224  71.628  1.00  0.00    -0.354 C  
HETATM    2  N   UNL     1     -12.214   7.821  71.216  1.00  0.00    -0.311 NA 
HETATM    3  C   UNL     1     -11.453   8.335  72.362  1.00  0.00    -0.394 C  
HETATM    4  C   UNL     1     -10.780   7.251  73.205  1.00  0.00    -0.428 C  
HETATM    5  C   UNL     1      -9.953   6.302  72.348  1.00  0.00    -0.187 C  
HETATM    6  C   UNL     1     -10.770   5.777  71.173  1.00  0.00    -0.327 C  
HETATM    7  C   UNL     1     -11.423   6.904  70.355  1.00  0.00    -0.338 C  
ENDROOT
BRANCH   7   8
HETATM    8  C   UNL     1     -10.402   7.739  69.556  1.00  0.00    -0.219 C  
BRANCH   8   9
HETATM    9  C   UNL     1     -10.882   8.297  68.200  1.00  0.00     0.078 C  
BRANCH   9  10
HETATM   10  N   UNL     1      -9.811   8.838  67.318  1.00  0.00    -0.185 NA 
HETATM   11  C   UNL     1      -9.459  10.220  67.432  1.00  0.00    -0.153 A  
HETATM   12  C   UNL     1      -8.344  10.759  66.756  1.00  0.00    -0.136 A  
HETATM   13  S   UNL     1      -7.302   9.840  65.653  1.00  0.00    -0.112 SA 
HETATM   14  C   UNL     1      -7.968  12.115  66.910  1.00  0.00    -0.089 A  
HETATM   15  C   UNL     1      -8.688  12.974  67.726  1.00  0.00    -0.188 A  
HETATM   16  C   UNL     1      -8.036   8.228  65.685  1.00  0.00    -0.113 A  
HETATM   17  C   UNL     1      -9.810  12.488  68.371  1.00  0.00    -0.202 A  
HETATM   18  C   UNL     1      -9.164   7.890  66.454  1.00  0.00    -0.191 A  
HETATM   19  C   UNL     1      -9.605   6.551  66.334  1.00  0.00    -0.151 A  
HETATM   20  C   UNL     1     -10.192  11.147  68.210  1.00  0.00    -0.197 A  
HETATM   21  C   UNL     1      -8.904   5.572  65.612  1.00  0.00    -0.152 A  
HETATM   22  C   UNL     1      -7.383   7.267  64.883  1.00  0.00    -0.080 A  
HETATM   23  C   UNL     1      -7.798   5.940  64.864  1.00  0.00    -0.108 A  
BRANCH  21  24
HETATM   24  S   UNL     1      -9.407   3.834  65.677  1.00  0.00    -0.167 S  
HETATM   25  O   UNL     1      -8.229   3.045  65.184  1.00  0.00    -0.089 OA 
HETATM   26  C   UNL     1     -10.607   3.899  64.314  1.00  0.00    -0.223 C  
ENDBRANCH  21  24
ENDBRANCH   9  10
ENDBRANCH   8   9
ENDBRANCH   7   8
TORSDOF 4
ENDMDL
MODEL      131
REMARK 921   NORMALIZED FREE ENERGY PREDICTED BY IDOCK:   -3.92 KCAL/MOL
REMARK 922        TOTAL FREE ENERGY PREDICTED BY IDOCK:   -5.61 KCAL/MOL
REMARK 923 INTER-LIGAND FREE ENERGY PREDICTED BY IDOCK:   -5.04 KCAL/MOL
REMARK 924 INTRA-LIGAND FREE ENERGY PREDICTED BY IDOCK:   -0.57 KCAL/MOL
REMARK 927      BINDING AFFINITY PREDICTED BY RF-SCORE:    0.00 PKD
ROOT
HETATM    1  C   UNL     1      -7.099   7.891  67.281  1.00  0.00    -0.083 C  
HETATM    2  N   UNL     1      -8.320   8.583  66.867  1.00  0.00    -0.109 NA 
HETATM    3  C   UNL     1      -9.339   7.648  66.370  1.00  0.00    -0.172 C  
HETATM    4  C   UNL     1     -10.048   6.853  67.467  1.00  0.00    -0.222 C  
HETATM    5  C   UNL     1     -10.590   7.761  68.562  1.00  0.00    -0.153 C  
HETATM    6  C   UNL     1      -9.510   8.713  69.065  1.00  0.00    -0.153 C  
HETATM    7  C   UNL     1      -8.830   9.491  67.926  1.00  0.00    -0.119 C  
ENDROOT
BRANCH   7   8
HETATM    8  C   UNL     1      -9.756  10.537  67.273  1.00  0.00    -0.197 C  
BRANCH   8   9
HETATM    9  C   UNL     1      -9.956  11.856  68.047  1.00  0.00    -0.190 C  
BRANCH   9  10
HETATM   10  N   UNL     1      -9.627  13.096  67.289  1.00  0.00    -0.226 NA 
HETATM   11  C   UNL     1     -10.596  13.622  66.378  1.00  0.00    -0.284 A  
HETATM   12  C   UNL     1     -10.426  14.878  65.758  1.00  0.00    -0.330 A  
HETATM   13  S   UNL     1      -8.998  15.910  65.965  1.00  0.00    -0.216 SA 
HETATM   14  C   UNL     1     -11.411  15.419  64.897  1.00  0.00    -0.367 A  
HETATM   15  C   UNL     1     -12.582  14.731  64.618  1.00  0.00    -0.116 A  
HETATM   16  C   UNL     1      -7.992  14.958  67.068  1.00  0.00    -0.135 A  
HETATM   17  C   UNL     1     -12.762  13.479  65.177  1.00  0.00    -0.453 A  
HETATM   18  C   UNL     1      -8.363  13.706  67.592  1.00  0.00    -0.182 A  
HETATM   19  C   UNL     1      -7.415  13.099  68.449  1.00  0.00    -0.124 A  
HETATM   20  C   UNL     1     -11.782  12.936  66.021  1.00  0.00    -0.456 A  
HETATM   21  C   UNL     1      -6.240  13.740  68.874  1.00  0.00    -0.091 A  
HETATM   22  C   UNL     1      -6.768  15.565  67.421  1.00  0.00    -0.200 A  
HETATM   23  C   UNL     1      -5.906  14.972  68.337  1.00  0.00    -0.109 A  
BRANCH  21  24
HETATM   24  S   UNL     1      -5.182  12.993  70.138  1.00  0.00    -0.110 S  
HETATM   25  O   UNL     1      -5.613  11.559  70.242  1.00  0.00    -0.103 OA 
HETATM   26  C   UNL     1      -5.893  13.863  71.566  1.00  0.00    -0.139 C  
ENDBRANCH  21  24
ENDBRANCH   9  10
ENDBRANCH   8   9
ENDBRANCH   7   8
TORSDOF 4
ENDMDL
MODEL      132
REMARK 921   NORMALIZED FREE ENERGY PREDICTED BY IDOCK:   -3.84 KCAL/MOL
REMARK 922        TOTAL FREE ENERGY PREDICTED BY IDOCK:   -5.52 KCAL/MOL
REMARK 923 INTER-LIGAND FREE ENERGY PREDICTED BY IDOCK:   -5.03 KCAL/MOL
REMARK 924 INTRA-LIGAND FREE ENERGY PREDICTED BY IDOCK:   -0.49 KCAL/MOL
REMARK 927      BINDING AFFINITY PREDICTED BY RF-SCORE:    0.00 PKD
ROOT
HETATM    1  C   UNL     1      -7.351  10.042  65.286  1.00  0.00    -0.137 C  
HETATM    2  N   UNL     1      -7.678   8.827  66.032  1.00  0.00    -0.096 NA 
HETATM    3  C   UNL     1      -7.234   7.616  65.330  1.00  0.00    -0.065 C  
HETATM    4  C   UNL     1      -5.727   7.367  65.400  1.00  0.00    -0.037 C  
HETATM    5  C   UNL     1      -5.212   7.419  66.832  1.00  0.00    -0.023 C  
HETATM    6  C   UNL     1      -5.679   8.691  67.533  1.00  0.00    -0.039 C  
HETATM    7  C   UNL     1      -7.201   8.894  67.437  1.00  0.00    -0.080 C  
ENDROOT
BRANCH   7   8
HETATM    8  C   UNL     1      -7.999   7.875  68.276  1.00  0.00    -0.122 C  
BRANCH   8   9
HETATM    9  C   UNL     1      -9.537   7.948  68.163  1.00  0.00    -0.152 C  
BRANCH   9  10
HETATM   10  N   UNL     1     -10.252   8.297  69.423  1.00  0.00    -0.200 NA 
HETATM   11  C   UNL     1     -10.805   9.609  69.559  1.00  0.00    -0.231 A  
HETATM   12  C   UNL     1     -11.639   9.954  70.644  1.00  0.00    -0.335 A  
HETATM   13  S   UNL     1     -12.043   8.861  71.981  1.00  0.00    -0.367 SA 
HETATM   14  C   UNL     1     -12.226  11.237  70.748  1.00  0.00    -0.479 A  
HETATM   15  C   UNL     1     -11.997  12.216  69.792  1.00  0.00    -0.372 A  
HETATM   16  C   UNL     1     -11.165   7.384  71.550  1.00  0.00    -0.243 A  
HETATM   17  C   UNL     1     -11.153  11.924  68.738  1.00  0.00    -0.296 A  
HETATM   18  C   UNL     1     -10.383   7.243  70.388  1.00  0.00    -0.208 A  
HETATM   19  C   UNL     1      -9.752   5.986  70.229  1.00  0.00    -0.201 A  
HETATM   20  C   UNL     1     -10.560  10.656  68.638  1.00  0.00    -0.229 A  
HETATM   21  C   UNL     1      -9.982   4.895  71.082  1.00  0.00    -0.208 A  
HETATM   22  C   UNL     1     -11.324   6.317  72.459  1.00  0.00    -0.313 A  
HETATM   23  C   UNL     1     -10.756   5.071  72.217  1.00  0.00    -0.246 A  
BRANCH  21  24
HETATM   24  S   UNL     1      -9.311   3.259  70.696  1.00  0.00    -0.167 S  
HETATM   25  O   UNL     1      -7.836   3.345  70.962  1.00  0.00    -0.049 OA 
HETATM   26  C   UNL     1      -9.530   3.349  68.894  1.00  0.00    -0.131 C  
ENDBRANCH  21  24
ENDBRANCH   9  10
ENDBRANCH   8   9
ENDBRANCH   7   8
TORSDOF 4
ENDMDL
MODEL      133
REMARK 921   NORMALIZED FREE ENERGY PREDICTED BY IDOCK:   -3.84 KCAL/MOL
REMARK 922        TOTAL FREE ENERGY PREDICTED BY IDOCK:   -5.52 KCAL/MOL
REMARK 923 INTER-LIGAND FREE ENERGY PREDICTED BY IDOCK:   -4.83 KCAL/MOL
REMARK 924 INTRA-LIGAND FREE ENERGY PREDICTED BY IDOCK:   -0.69 KCAL/MOL
REMARK 927      BINDING AFFINITY PREDICTED BY RF-SCORE:    0.00 PKD
ROOT
HETATM    1  C   UNL     1      -7.772  12.051  67.167  1.00  0.00    -0.161 C  
HETATM    2  N   UNL     1      -8.566  10.839  67.368  1.00  0.00    -0.126 NA 
HETATM    3  C   UNL     1      -9.411  10.929  68.566  1.00  0.00    -0.181 C  
HETATM    4  C   UNL     1     -10.641  11.822  68.401  1.00  0.00    -0.239 C  
HETATM    5  C   UNL     1     -11.444  11.452  67.161  1.00  0.00    -0.268 C  
HETATM    6  C   UNL     1     -10.545  11.377  65.932  1.00  0.00    -0.317 C  
HETATM    7  C   UNL     1      -9.325  10.465  66.147  1.00  0.00    -0.172 C  
ENDROOT
BRANCH   7   8
HETATM    8  C   UNL     1      -9.697   8.971  66.238  1.00  0.00    -0.345 C  
BRANCH   8   9
HETATM    9  C   UNL     1      -8.593   8.018  66.743  1.00  0.00    -0.130 C  
BRANCH   9  10
HETATM   10  N   UNL     1      -9.030   6.617  67.001  1.00  0.00    -0.116 NA 
HETATM   11  C   UNL     1      -8.938   5.662  65.940  1.00  0.00    -0.155 A  
HETATM   12  C   UNL     1      -9.170   4.287  66.158  1.00  0.00    -0.145 A  
HETATM   13  S   UNL     1      -9.660   3.590  67.714  1.00  0.00    -0.035 SA 
HETATM   14  C   UNL     1      -9.028   3.338  65.118  1.00  0.00    -0.140 A  
HETATM   15  C   UNL     1      -8.665   3.721  63.836  1.00  0.00    -0.098 A  
HETATM   16  C   UNL     1      -9.746   5.014  68.763  1.00  0.00    -0.161 A  
HETATM   17  C   UNL     1      -8.471   5.065  63.579  1.00  0.00    -0.127 A  
HETATM   18  C   UNL     1      -9.456   6.324  68.340  1.00  0.00    -0.118 A  
HETATM   19  C   UNL     1      -9.595   7.328  69.328  1.00  0.00    -0.156 A  
HETATM   20  C   UNL     1      -8.622   6.010  64.605  1.00  0.00     0.069 A  
HETATM   21  C   UNL     1      -9.867   7.049  70.677  1.00  0.00    -0.182 A  
HETATM   22  C   UNL     1     -10.111   4.741  70.099  1.00  0.00    -0.310 A  
HETATM   23  C   UNL     1     -10.149   5.747  71.058  1.00  0.00    -0.260 A  
BRANCH  21  24
HETATM   24  S   UNL     1      -9.817   8.360  71.923  1.00  0.00    -0.286 S  
HETATM   25  O   UNL     1     -10.244   7.720  73.212  1.00  0.00    -0.317 OA 
HETATM   26  C   UNL     1     -11.239   9.307  71.307  1.00  0.00    -0.355 C  
ENDBRANCH  21  24
ENDBRANCH   9  10
ENDBRANCH   8   9
ENDBRANCH   7   8
TORSDOF 4
ENDMDL
MODEL      134
REMARK 921   NORMALIZED FREE ENERGY PREDICTED BY IDOCK:   -3.83 KCAL/MOL
REMARK 922        TOTAL FREE ENERGY PREDICTED BY IDOCK:   -5.50 KCAL/MOL
REMARK 923 INTER-LIGAND FREE ENERGY PREDICTED BY IDOCK:   -4.89 KCAL/MOL
REMARK 924 INTRA-LIGAND FREE ENERGY PREDICTED BY IDOCK:   -0.61 KCAL/MOL
REMARK 927      BINDING AFFINITY PREDICTED BY RF-SCORE:    0.00 PKD
ROOT
HETATM    1  C   UNL     1      -8.498  11.811  66.833  1.00  0.00    -0.174 C  
HETATM    2  N   UNL     1      -9.066  10.497  67.137  1.00  0.00    -0.143 NA 
HETATM    3  C   UNL     1      -9.880   9.982  66.028  1.00  0.00    -0.257 C  
HETATM    4  C   UNL     1      -9.067   9.462  64.842  1.00  0.00    -0.258 C  
HETATM    5  C   UNL     1      -8.003   8.466  65.281  1.00  0.00    -0.125 C  
HETATM    6  C   UNL     1      -7.167   9.030  66.425  1.00  0.00    -0.087 C  
HETATM    7  C   UNL     1      -8.029   9.536  67.594  1.00  0.00    -0.106 C  
ENDROOT
BRANCH   7   8
HETATM    8  C   UNL     1      -8.722   8.398  68.370  1.00  0.00    -0.136 C  
BRANCH   8   9
HETATM    9  C   UNL     1      -8.515   8.385  69.899  1.00  0.00    -0.126 C  
BRANCH   9  10
HETATM   10  N   UNL     1      -9.591   7.713  70.681  1.00  0.00    -0.164 NA 
HETATM   11  C   UNL     1     -10.731   8.478  71.081  1.00  0.00    -0.234 A  
HETATM   12  C   UNL     1     -11.861   7.872  71.671  1.00  0.00    -0.288 A  
HETATM   13  S   UNL     1     -11.986   6.144  72.049  1.00  0.00    -0.149 SA 
HETATM   14  C   UNL     1     -13.008   8.625  72.018  1.00  0.00    -0.419 A  
HETATM   15  C   UNL     1     -13.066   9.993  71.802  1.00  0.00    -0.562 A  
HETATM   16  C   UNL     1     -10.421   5.517  71.505  1.00  0.00    -0.235 A  
HETATM   17  C   UNL     1     -11.961  10.624  71.263  1.00  0.00    -0.344 A  
HETATM   18  C   UNL     1      -9.416   6.308  70.918  1.00  0.00    -0.172 A  
HETATM   19  C   UNL     1      -8.232   5.620  70.561  1.00  0.00    -0.116 A  
HETATM   20  C   UNL     1     -10.817   9.883  70.929  1.00  0.00    -0.357 A  
HETATM   21  C   UNL     1      -8.094   4.226  70.648  1.00  0.00    -0.063 A  
HETATM   22  C   UNL     1     -10.250   4.127  71.679  1.00  0.00    -0.133 A  
HETATM   23  C   UNL     1      -9.104   3.479  71.233  1.00  0.00    -0.180 A  
BRANCH  21  24
HETATM   24  S   UNL     1      -6.636   3.394  69.974  1.00  0.00    -0.034 S  
HETATM   25  O   UNL     1      -6.408   2.191  70.843  1.00  0.00    -0.022 OA 
HETATM   26  C   UNL     1      -5.416   4.645  70.474  1.00  0.00    -0.011 C  
ENDBRANCH  21  24
ENDBRANCH   9  10
ENDBRANCH   8   9
ENDBRANCH   7   8
TORSDOF 4
ENDMDL
MODEL      135
REMARK 921   NORMALIZED FREE ENERGY PREDICTED BY IDOCK:   -3.79 KCAL/MOL
REMARK 922        TOTAL FREE ENERGY PREDICTED BY IDOCK:   -5.45 KCAL/MOL
REMARK 923 INTER-LIGAND FREE ENERGY PREDICTED BY IDOCK:   -4.92 KCAL/MOL
REMARK 924 INTRA-LIGAND FREE ENERGY PREDICTED BY IDOCK:   -0.53 KCAL/MOL
REMARK 927      BINDING AFFINITY PREDICTED BY RF-SCORE:    0.00 PKD
ROOT
HETATM    1  C   UNL     1     -11.139   9.452  70.775  1.00  0.00    -0.300 C  
HETATM    2  N   UNL     1     -10.785   9.457  69.355  1.00  0.00    -0.226 NA 
HETATM    3  C   UNL     1     -11.316  10.638  68.661  1.00  0.00    -0.281 C  
HETATM    4  C   UNL     1     -10.554  11.932  68.954  1.00  0.00    -0.205 C  
HETATM    5  C   UNL     1      -9.056  11.766  68.737  1.00  0.00     0.009 C  
HETATM    6  C   UNL     1      -8.531  10.540  69.476  1.00  0.00    -0.060 C  
HETATM    7  C   UNL     1      -9.327   9.265  69.146  1.00  0.00    -0.157 C  
ENDROOT
BRANCH   7   8
HETATM    8  C   UNL     1      -9.098   8.767  67.705  1.00  0.00    -0.145 C  
BRANCH   8   9
HETATM    9  C   UNL     1      -7.972   9.459  66.910  1.00  0.00    -0.109 C  
BRANCH   9  10
HETATM   10  N   UNL     1      -8.003   9.239  65.437  1.00  0.00    -0.106 NA 
HETATM   11  C   UNL     1      -7.229   8.170  64.885  1.00  0.00    -0.081 A  
HETATM   12  C   UNL     1      -7.343   7.796  63.529  1.00  0.00    -0.097 A  
HETATM   13  S   UNL     1      -8.378   8.620  62.347  1.00  0.00    -0.188 SA 
HETATM   14  C   UNL     1      -6.614   6.705  62.998  1.00  0.00    -0.038 A  
HETATM   15  C   UNL     1      -5.747   5.964  63.787  1.00  0.00    -0.021 A  
HETATM   16  C   UNL     1      -9.124   9.901  63.316  1.00  0.00    -0.266 A  
HETATM   17  C   UNL     1      -5.581   6.330  65.109  1.00  0.00    -0.021 A  
HETATM   18  C   UNL     1      -8.877  10.097  64.688  1.00  0.00    -0.196 A  
HETATM   19  C   UNL     1      -9.563  11.184  65.280  1.00  0.00    -0.268 A  
HETATM   20  C   UNL     1      -6.294   7.419  65.635  1.00  0.00    -0.041 A  
HETATM   21  C   UNL     1     -10.531  11.944  64.605  1.00  0.00    -0.295 A  
HETATM   22  C   UNL     1     -10.028  10.723  62.611  1.00  0.00    -0.072 A  
HETATM   23  C   UNL     1     -10.747  11.725  63.254  1.00  0.00    -0.414 A  
BRANCH  21  24
HETATM   24  S   UNL     1     -11.522  13.177  65.484  1.00  0.00    -0.327 S  
HETATM   25  O   UNL     1     -12.953  12.868  65.153  1.00  0.00    -0.758 OA 
HETATM   26  C   UNL     1     -11.043  14.609  64.473  1.00  0.00    -0.257 C  
ENDBRANCH  21  24
ENDBRANCH   9  10
ENDBRANCH   8   9
ENDBRANCH   7   8
TORSDOF 4
ENDMDL
MODEL      136
REMARK 921   NORMALIZED FREE ENERGY PREDICTED BY IDOCK:   -3.76 KCAL/MOL
REMARK 922        TOTAL FREE ENERGY PREDICTED BY IDOCK:   -5.42 KCAL/MOL
REMARK 923 INTER-LIGAND FREE ENERGY PREDICTED BY IDOCK:   -4.79 KCAL/MOL
REMARK 924 INTRA-LIGAND FREE ENERGY PREDICTED BY IDOCK:   -0.62 KCAL/MOL
REMARK 927      BINDING AFFINITY PREDICTED BY RF-SCORE:    0.00 PKD
ROOT
HETATM    1  C   UNL     1     -12.252  14.334  66.872  1.00  0.00    -0.331 C  
HETATM    2  N   UNL     1     -11.106  14.764  67.673  1.00  0.00    -0.295 NA 
HETATM    3  C   UNL     1     -11.466  15.831  68.616  1.00  0.00    -0.386 C  
HETATM    4  C   UNL     1     -12.259  15.351  69.833  1.00  0.00    -0.363 C  
HETATM    5  C   UNL     1     -11.574  14.181  70.527  1.00  0.00    -0.205 C  
HETATM    6  C   UNL     1     -11.222  13.085  69.527  1.00  0.00    -0.146 C  
HETATM    7  C   UNL     1     -10.423  13.617  68.324  1.00  0.00    -0.249 C  
ENDROOT
BRANCH   7   8
HETATM    8  C   UNL     1      -8.988  14.045  68.695  1.00  0.00    -0.104 C  
BRANCH   8   9
HETATM    9  C   UNL     1      -7.853  13.466  67.825  1.00  0.00    -0.158 C  
BRANCH   9  10
HETATM   10  N   UNL     1      -7.763  11.979  67.803  1.00  0.00    -0.129 NA 
HETATM   11  C   UNL     1      -7.056  11.317  68.856  1.00  0.00    -0.104 A  
HETATM   12  C   UNL     1      -7.075   9.912  68.994  1.00  0.00    -0.068 A  
HETATM   13  S   UNL     1      -7.895   8.809  67.873  1.00  0.00    -0.103 SA 
HETATM   14  C   UNL     1      -6.417   9.264  70.067  1.00  0.00    -0.049 A  
HETATM   15  C   UNL     1      -5.716   9.983  71.023  1.00  0.00    -0.083 A  
HETATM   16  C   UNL     1      -8.592   9.918  66.682  1.00  0.00    -0.125 A  
HETATM   17  C   UNL     1      -5.643  11.357  70.894  1.00  0.00    -0.072 A  
HETATM   18  C   UNL     1      -8.462  11.319  66.738  1.00  0.00    -0.161 A  
HETATM   19  C   UNL     1      -9.084  12.030  65.684  1.00  0.00     0.072 A  
HETATM   20  C   UNL     1      -6.284  12.001  69.825  1.00  0.00    -0.136 A  
HETATM   21  C   UNL     1      -9.894  11.418  64.714  1.00  0.00    -0.259 A  
HETATM   22  C   UNL     1      -9.330   9.293  65.654  1.00  0.00    -0.308 A  
HETATM   23  C   UNL     1      -9.998  10.037  64.689  1.00  0.00    -0.206 A  
BRANCH  21  24
HETATM   24  S   UNL     1     -10.830  12.412  63.526  1.00  0.00    -0.370 S  
HETATM   25  O   UNL     1     -10.655  13.840  63.956  1.00  0.00    -0.144 OA 
HETATM   26  C   UNL     1     -12.488  11.898  64.064  1.00  0.00    -0.313 C  
ENDBRANCH  21  24
ENDBRANCH   9  10
ENDBRANCH   8   9
ENDBRANCH   7   8
TORSDOF 4
ENDMDL
MODEL      137
REMARK 921   NORMALIZED FREE ENERGY PREDICTED BY IDOCK:   -3.70 KCAL/MOL
REMARK 922        TOTAL FREE ENERGY PREDICTED BY IDOCK:   -5.35 KCAL/MOL
REMARK 923 INTER-LIGAND FREE ENERGY PREDICTED BY IDOCK:   -4.48 KCAL/MOL
REMARK 924 INTRA-LIGAND FREE ENERGY PREDICTED BY IDOCK:   -0.87 KCAL/MOL
REMARK 927      BINDING AFFINITY PREDICTED BY RF-SCORE:    0.00 PKD
ROOT
HETATM    1  C   UNL     1      -9.160   4.188  65.443  1.00  0.00    -0.139 C  
HETATM    2  N   UNL     1      -9.682   3.936  66.786  1.00  0.00    -0.205 NA 
HETATM    3  C   UNL     1      -9.163   2.684  67.352  1.00  0.00    -0.160 C  
HETATM    4  C   UNL     1      -7.712   2.765  67.828  1.00  0.00    -0.060 C  
HETATM    5  C   UNL     1      -7.490   3.949  68.759  1.00  0.00    -0.054 C  
HETATM    6  C   UNL     1      -8.029   5.236  68.144  1.00  0.00    -0.091 C  
HETATM    7  C   UNL     1      -9.491   5.104  67.684  1.00  0.00    -0.127 C  
ENDROOT
BRANCH   7   8
HETATM    8  C   UNL     1     -10.484   4.990  68.858  1.00  0.00    -0.061 C  
BRANCH   8   9
HETATM    9  C   UNL     1     -11.064   6.315  69.398  1.00  0.00    -0.410 C  
BRANCH   9  10
HETATM   10  N   UNL     1     -10.223   7.011  70.411  1.00  0.00    -0.195 NA 
HETATM   11  C   UNL     1     -10.196   6.504  71.748  1.00  0.00    -0.188 A  
HETATM   12  C   UNL     1      -9.296   7.005  72.713  1.00  0.00    -0.135 A  
HETATM   13  S   UNL     1      -8.162   8.338  72.426  1.00  0.00    -0.140 SA 
HETATM   14  C   UNL     1      -9.236   6.466  74.020  1.00  0.00    -0.165 A  
HETATM   15  C   UNL     1     -10.068   5.429  74.412  1.00  0.00    -0.278 A  
HETATM   16  C   UNL     1      -8.493   8.769  70.741  1.00  0.00    -0.173 A  
HETATM   17  C   UNL     1     -10.990   4.942  73.504  1.00  0.00    -0.397 A  
HETATM   18  C   UNL     1      -9.446   8.120  69.933  1.00  0.00    -0.160 A  
HETATM   19  C   UNL     1      -9.570   8.621  68.615  1.00  0.00    -0.159 A  
HETATM   20  C   UNL     1     -11.059   5.483  72.211  1.00  0.00    -0.297 A  
HETATM   21  C   UNL     1      -8.721   9.603  68.082  1.00  0.00    -0.119 A  
HETATM   22  C   UNL     1      -7.701   9.822  70.234  1.00  0.00    -0.187 A  
HETATM   23  C   UNL     1      -7.796  10.222  68.906  1.00  0.00    -0.106 A  
BRANCH  21  24
HETATM   24  S   UNL     1      -8.797  10.041  66.327  1.00  0.00    -0.146 S  
HETATM   25  O   UNL     1      -8.977   8.747  65.587  1.00  0.00    -0.190 OA 
HETATM   26  C   UNL     1      -7.053  10.517  66.142  1.00  0.00    -0.135 C  
ENDBRANCH  21  24
ENDBRANCH   9  10
ENDBRANCH   8   9
ENDBRANCH   7   8
TORSDOF 4
ENDMDL
MODEL      138
REMARK 921   NORMALIZED FREE ENERGY PREDICTED BY IDOCK:   -3.69 KCAL/MOL
REMARK 922        TOTAL FREE ENERGY PREDICTED BY IDOCK:   -5.32 KCAL/MOL
REMARK 923 INTER-LIGAND FREE ENERGY PREDICTED BY IDOCK:   -4.54 KCAL/MOL
REMARK 924 INTRA-LIGAND FREE ENERGY PREDICTED BY IDOCK:   -0.78 KCAL/MOL
REMARK 927      BINDING AFFINITY PREDICTED BY RF-SCORE:    0.00 PKD
ROOT
HETATM    1  C   UNL     1     -11.611   9.904  69.512  1.00  0.00     0.001 C  
HETATM    2  N   UNL     1     -10.802   9.185  70.496  1.00  0.00    -0.240 NA 
HETATM    3  C   UNL     1     -11.346   9.317  71.855  1.00  0.00    -0.289 C  
HETATM    4  C   UNL     1     -12.591   8.469  72.117  1.00  0.00    -0.431 C  
HETATM    5  C   UNL     1     -12.375   7.013  71.726  1.00  0.00    -0.391 C  
HETATM    6  C   UNL     1     -11.820   6.906  70.310  1.00  0.00    -0.311 C  
HETATM    7  C   UNL     1     -10.567   7.774  70.097  1.00  0.00    -0.237 C  
ENDROOT
BRANCH   7   8
HETATM    8  C   UNL     1      -9.333   7.247  70.857  1.00  0.00    -0.159 C  
BRANCH   8   9
HETATM    9  C   UNL     1      -8.059   7.014  70.018  1.00  0.00    -0.128 C  
BRANCH   9  10
HETATM   10  N   UNL     1      -8.290   6.494  68.641  1.00  0.00    -0.121 NA 
HETATM   11  C   UNL     1      -8.561   5.100  68.468  1.00  0.00    -0.094 A  
HETATM   12  C   UNL     1      -8.956   4.571  67.221  1.00  0.00    -0.117 A  
HETATM   13  S   UNL     1      -9.098   5.522  65.731  1.00  0.00    -0.111 SA 
HETATM   14  C   UNL     1      -9.273   3.200  67.066  1.00  0.00    -0.198 A  
HETATM   15  C   UNL     1      -9.198   2.317  68.132  1.00  0.00    -0.247 A  
HETATM   16  C   UNL     1      -8.638   7.146  66.265  1.00  0.00    -0.139 A  
HETATM   17  C   UNL     1      -8.775   2.795  69.357  1.00  0.00    -0.134 A  
HETATM   18  C   UNL     1      -8.282   7.470  67.588  1.00  0.00    -0.118 A  
HETATM   19  C   UNL     1      -7.936   8.824  67.810  1.00  0.00    -0.106 A  
HETATM   20  C   UNL     1      -8.448   4.151  69.511  1.00  0.00    -0.093 A  
HETATM   21  C   UNL     1      -8.063   9.823  66.832  1.00  0.00    -0.113 A  
HETATM   22  C   UNL     1      -8.677   8.132  65.256  1.00  0.00    -0.093 A  
HETATM   23  C   UNL     1      -8.414   9.467  65.540  1.00  0.00    -0.150 A  
BRANCH  21  24
HETATM   24  S   UNL     1      -7.808  11.565  67.248  1.00  0.00    -0.161 S  
HETATM   25  O   UNL     1      -8.045  11.676  68.726  1.00  0.00    -0.140 OA 
HETATM   26  C   UNL     1      -9.296  12.209  66.425  1.00  0.00    -0.224 C  
ENDBRANCH  21  24
ENDBRANCH   9  10
ENDBRANCH   8   9
ENDBRANCH   7   8
TORSDOF 4
ENDMDL
MODEL      139
REMARK 921   NORMALIZED FREE ENERGY PREDICTED BY IDOCK:   -3.67 KCAL/MOL
REMARK 922        TOTAL FREE ENERGY PREDICTED BY IDOCK:   -5.31 KCAL/MOL
REMARK 923 INTER-LIGAND FREE ENERGY PREDICTED BY IDOCK:   -4.80 KCAL/MOL
REMARK 924 INTRA-LIGAND FREE ENERGY PREDICTED BY IDOCK:   -0.51 KCAL/MOL
REMARK 927      BINDING AFFINITY PREDICTED BY RF-SCORE:    0.00 PKD
ROOT
HETATM    1  C   UNL     1     -10.247  14.666  66.596  1.00  0.00    -0.274 C  
HETATM    2  N   UNL     1     -10.627  13.255  66.524  1.00  0.00    -0.283 NA 
HETATM    3  C   UNL     1     -12.063  13.086  66.266  1.00  0.00    -0.386 C  
HETATM    4  C   UNL     1     -12.479  13.370  64.823  1.00  0.00    -0.416 C  
HETATM    5  C   UNL     1     -11.625  12.598  63.827  1.00  0.00    -0.550 C  
HETATM    6  C   UNL     1     -10.140  12.799  64.111  1.00  0.00    -0.260 C  
HETATM    7  C   UNL     1      -9.772  12.498  65.574  1.00  0.00    -0.119 C  
ENDROOT
BRANCH   7   8
HETATM    8  C   UNL     1      -9.860  10.998  65.921  1.00  0.00    -0.278 C  
BRANCH   8   9
HETATM    9  C   UNL     1      -8.529  10.217  65.936  1.00  0.00    -0.150 C  
BRANCH   9  10
HETATM   10  N   UNL     1      -7.966   9.944  67.288  1.00  0.00    -0.109 NA 
HETATM   11  C   UNL     1      -7.287  10.998  67.976  1.00  0.00    -0.088 A  
HETATM   12  C   UNL     1      -6.881  10.864  69.321  1.00  0.00    -0.105 A  
HETATM   13  S   UNL     1      -7.089   9.391  70.287  1.00  0.00    -0.113 SA 
HETATM   14  C   UNL     1      -6.255  11.927  70.015  1.00  0.00    -0.123 A  
HETATM   15  C   UNL     1      -6.004  13.143  69.398  1.00  0.00    -0.102 A  
HETATM   16  C   UNL     1      -7.877   8.291  69.145  1.00  0.00    -0.106 A  
HETATM   17  C   UNL     1      -6.352  13.293  68.069  1.00  0.00    -0.128 A  
HETATM   18  C   UNL     1      -8.213   8.635  67.823  1.00  0.00    -0.118 A  
HETATM   19  C   UNL     1      -8.829   7.610  67.065  1.00  0.00    -0.135 A  
HETATM   20  C   UNL     1      -6.962  12.237  67.375  1.00  0.00    -0.151 A  
HETATM   21  C   UNL     1      -9.213   6.374  67.609  1.00  0.00    -0.116 A  
HETATM   22  C   UNL     1      -8.178   7.015  69.668  1.00  0.00    -0.131 A  
HETATM   23  C   UNL     1      -8.864   6.068  68.914  1.00  0.00    -0.120 A  
BRANCH  21  24
HETATM   24  S   UNL     1     -10.187   5.197  66.640  1.00  0.00    -0.275 S  
HETATM   25  O   UNL     1     -10.141   3.901  67.397  1.00  0.00    -0.011 OA 
HETATM   26  C   UNL     1      -9.025   5.038  65.251  1.00  0.00    -0.151 C  
ENDBRANCH  21  24
ENDBRANCH   9  10
ENDBRANCH   8   9
ENDBRANCH   7   8
TORSDOF 4
ENDMDL
MODEL      140
REMARK 921   NORMALIZED FREE ENERGY PREDICTED BY IDOCK:   -3.67 KCAL/MOL
REMARK 922        TOTAL FREE ENERGY PREDICTED BY IDOCK:   -5.30 KCAL/MOL
REMARK 923 INTER-LIGAND FREE ENERGY PREDICTED BY IDOCK:   -4.93 KCAL/MOL
REMARK 924 INTRA-LIGAND FREE ENERGY PREDICTED BY IDOCK:   -0.37 KCAL/MOL
REMARK 927      BINDING AFFINITY PREDICTED BY RF-SCORE:    0.00 PKD
ROOT
HETATM    1  C   UNL     1     -10.646  16.029  66.001  1.00  0.00    -0.316 C  
HETATM    2  N   UNL     1     -10.618  14.700  66.612  1.00  0.00    -0.284 NA 
HETATM    3  C   UNL     1     -11.968  14.206  66.912  1.00  0.00    -0.449 C  
HETATM    4  C   UNL     1     -12.749  13.730  65.686  1.00  0.00    -0.523 C  
HETATM    5  C   UNL     1     -11.948  12.736  64.857  1.00  0.00    -0.451 C  
HETATM    6  C   UNL     1     -10.556  13.279  64.552  1.00  0.00    -0.437 C  
HETATM    7  C   UNL     1      -9.810  13.740  65.816  1.00  0.00    -0.221 C  
ENDROOT
BRANCH   7   8
HETATM    8  C   UNL     1      -9.393  12.571  66.731  1.00  0.00    -0.230 C  
BRANCH   8   9
HETATM    9  C   UNL     1      -7.878  12.323  66.881  1.00  0.00    -0.044 C  
BRANCH   9  10
HETATM   10  N   UNL     1      -7.503  11.003  67.461  1.00  0.00    -0.098 NA 
HETATM   11  C   UNL     1      -7.823   9.815  66.730  1.00  0.00    -0.102 A  
HETATM   12  C   UNL     1      -7.349   8.548  67.131  1.00  0.00    -0.084 A  
HETATM   13  S   UNL     1      -6.382   8.257  68.589  1.00  0.00    -0.054 SA 
HETATM   14  C   UNL     1      -7.624   7.382  66.377  1.00  0.00    -0.088 A  
HETATM   15  C   UNL     1      -8.382   7.435  65.217  1.00  0.00    -0.110 A  
HETATM   16  C   UNL     1      -6.229   9.881  69.279  1.00  0.00    -0.040 A  
HETATM   17  C   UNL     1      -8.895   8.654  64.819  1.00  0.00    -0.036 A  
HETATM   18  C   UNL     1      -6.780  11.039  68.700  1.00  0.00    -0.061 A  
HETATM   19  C   UNL     1      -6.556  12.241  69.413  1.00  0.00    -0.081 A  
HETATM   20  C   UNL     1      -8.634   9.810  65.570  1.00  0.00    -0.158 A  
HETATM   21  C   UNL     1      -5.731  12.323  70.546  1.00  0.00    -0.161 A  
HETATM   22  C   UNL     1      -5.476   9.946  70.471  1.00  0.00    -0.051 A  
HETATM   23  C   UNL     1      -5.206  11.162  71.090  1.00  0.00    -0.098 A  
BRANCH  21  24
HETATM   24  S   UNL     1      -5.317  13.926  71.277  1.00  0.00    -0.204 S  
HETATM   25  O   UNL     1      -5.873  13.898  72.672  1.00  0.00    -0.423 OA 
HETATM   26  C   UNL     1      -6.455  14.928  70.275  1.00  0.00    -0.124 C  
ENDBRANCH  21  24
ENDBRANCH   9  10
ENDBRANCH   8   9
ENDBRANCH   7   8
TORSDOF 4
ENDMDL
MODEL      141
REMARK 921   NORMALIZED FREE ENERGY PREDICTED BY IDOCK:   -3.66 KCAL/MOL
REMARK 922        TOTAL FREE ENERGY PREDICTED BY IDOCK:   -5.29 KCAL/MOL
REMARK 923 INTER-LIGAND FREE ENERGY PREDICTED BY IDOCK:   -4.48 KCAL/MOL
REMARK 924 INTRA-LIGAND FREE ENERGY PREDICTED BY IDOCK:   -0.81 KCAL/MOL
REMARK 927      BINDING AFFINITY PREDICTED BY RF-SCORE:    0.00 PKD
ROOT
HETATM    1  C   UNL     1     -11.331  10.077  69.489  1.00  0.00    -0.169 C  
HETATM    2  N   UNL     1     -10.749   9.313  70.593  1.00  0.00    -0.246 NA 
HETATM    3  C   UNL     1     -11.629   9.289  71.768  1.00  0.00    -0.388 C  
HETATM    4  C   UNL     1     -12.833   8.356  71.631  1.00  0.00    -0.355 C  
HETATM    5  C   UNL     1     -12.415   6.956  71.200  1.00  0.00    -0.398 C  
HETATM    6  C   UNL     1     -11.511   7.011  69.973  1.00  0.00    -0.262 C  
HETATM    7  C   UNL     1     -10.314   7.959  70.162  1.00  0.00    -0.215 C  
ENDROOT
BRANCH   7   8
HETATM    8  C   UNL     1      -9.279   7.430  71.174  1.00  0.00    -0.155 C  
BRANCH   8   9
HETATM    9  C   UNL     1      -8.033   6.737  70.583  1.00  0.00    -0.110 C  
BRANCH   9  10
HETATM   10  N   UNL     1      -8.309   5.539  69.742  1.00  0.00    -0.104 NA 
HETATM   11  C   UNL     1      -8.680   4.317  70.386  1.00  0.00    -0.078 A  
HETATM   12  C   UNL     1      -9.121   3.195  69.652  1.00  0.00    -0.136 A  
HETATM   13  S   UNL     1      -9.205   3.129  67.881  1.00  0.00    -0.198 SA 
HETATM   14  C   UNL     1      -9.535   2.005  70.296  1.00  0.00    -0.145 A  
HETATM   15  C   UNL     1      -9.515   1.887  71.677  1.00  0.00    -0.188 A  
HETATM   16  C   UNL     1      -8.628   4.735  67.409  1.00  0.00    -0.104 A  
HETATM   17  C   UNL     1      -9.050   2.953  72.424  1.00  0.00    -0.136 A  
HETATM   18  C   UNL     1      -8.240   5.734  68.321  1.00  0.00    -0.108 A  
HETATM   19  C   UNL     1      -7.797   6.948  67.743  1.00  0.00    -0.113 A  
HETATM   20  C   UNL     1      -8.628   4.130  71.788  1.00  0.00    -0.119 A  
HETATM   21  C   UNL     1      -7.859   7.213  66.366  1.00  0.00    -0.109 A  
HETATM   22  C   UNL     1      -8.603   4.967  66.017  1.00  0.00    -0.119 A  
HETATM   23  C   UNL     1      -8.244   6.206  65.497  1.00  0.00    -0.144 A  
BRANCH  21  24
HETATM   24  S   UNL     1      -7.479   8.861  65.721  1.00  0.00    -0.090 S  
HETATM   25  O   UNL     1      -7.215   9.723  66.921  1.00  0.00    -0.089 OA 
HETATM   26  C   UNL     1      -9.154   9.263  65.140  1.00  0.00    -0.206 C  
ENDBRANCH  21  24
ENDBRANCH   9  10
ENDBRANCH   8   9
ENDBRANCH   7   8
TORSDOF 4
ENDMDL
MODEL      142
REMARK 921   NORMALIZED FREE ENERGY PREDICTED BY IDOCK:   -3.64 KCAL/MOL
REMARK 922        TOTAL FREE ENERGY PREDICTED BY IDOCK:   -5.27 KCAL/MOL
REMARK 923 INTER-LIGAND FREE ENERGY PREDICTED BY IDOCK:   -4.93 KCAL/MOL
REMARK 924 INTRA-LIGAND FREE ENERGY PREDICTED BY IDOCK:   -0.34 KCAL/MOL
REMARK 927      BINDING AFFINITY PREDICTED BY RF-SCORE:    0.00 PKD
ROOT
HETATM    1  C   UNL     1      -6.511  10.568  65.908  1.00  0.00    -0.127 C  
HETATM    2  N   UNL     1      -7.588  10.146  66.805  1.00  0.00    -0.103 NA 
HETATM    3  C   UNL     1      -8.300  11.292  67.384  1.00  0.00    -0.137 C  
HETATM    4  C   UNL     1      -9.253  11.993  66.415  1.00  0.00    -0.216 C  
HETATM    5  C   UNL     1     -10.202  11.008  65.745  1.00  0.00    -0.316 C  
HETATM    6  C   UNL     1      -9.435   9.835  65.145  1.00  0.00    -0.338 C  
HETATM    7  C   UNL     1      -8.494   9.162  66.159  1.00  0.00    -0.129 C  
ENDROOT
BRANCH   7   8
HETATM    8  C   UNL     1      -9.247   8.390  67.261  1.00  0.00    -0.165 C  
BRANCH   8   9
HETATM    9  C   UNL     1      -8.544   8.289  68.631  1.00  0.00    -0.133 C  
BRANCH   9  10
HETATM   10  N   UNL     1      -9.288   7.528  69.673  1.00  0.00    -0.154 NA 
HETATM   11  C   UNL     1      -8.794   6.246  70.073  1.00  0.00    -0.142 A  
HETATM   12  C   UNL     1      -9.344   5.548  71.170  1.00  0.00    -0.150 A  
HETATM   13  S   UNL     1     -10.726   6.117  72.125  1.00  0.00    -0.248 SA 
HETATM   14  C   UNL     1      -8.819   4.305  71.595  1.00  0.00    -0.145 A  
HETATM   15  C   UNL     1      -7.747   3.713  70.944  1.00  0.00    -0.047 A  
HETATM   16  C   UNL     1     -11.127   7.655  71.344  1.00  0.00    -0.238 A  
HETATM   17  C   UNL     1      -7.211   4.351  69.841  1.00  0.00    -0.049 A  
HETATM   18  C   UNL     1     -10.427   8.188  70.246  1.00  0.00    -0.219 A  
HETATM   19  C   UNL     1     -10.911   9.425  69.758  1.00  0.00    -0.234 A  
HETATM   20  C   UNL     1      -7.737   5.578  69.410  1.00  0.00    -0.086 A  
HETATM   21  C   UNL     1     -11.928  10.158  70.390  1.00  0.00    -0.267 A  
HETATM   22  C   UNL     1     -12.211   8.347  71.926  1.00  0.00    -0.395 A  
HETATM   23  C   UNL     1     -12.596   9.602  71.468  1.00  0.00    -0.483 A  
BRANCH  21  24
HETATM   24  S   UNL     1     -12.347  11.830  69.838  1.00  0.00    -0.070 S  
HETATM   25  O   UNL     1     -11.038  12.528  69.607  1.00  0.00    -0.086 OA 
HETATM   26  C   UNL     1     -12.994  12.432  71.425  1.00  0.00    -0.250 C  
ENDBRANCH  21  24
ENDBRANCH   9  10
ENDBRANCH   8   9
ENDBRANCH   7   8
TORSDOF 4
ENDMDL
MODEL      143
REMARK 921   NORMALIZED FREE ENERGY PREDICTED BY IDOCK:   -3.62 KCAL/MOL
REMARK 922        TOTAL FREE ENERGY PREDICTED BY IDOCK:   -5.24 KCAL/MOL
REMARK 923 INTER-LIGAND FREE ENERGY PREDICTED BY IDOCK:   -4.91 KCAL/MOL
REMARK 924 INTRA-LIGAND FREE ENERGY PREDICTED BY IDOCK:   -0.33 KCAL/MOL
REMARK 927      BINDING AFFINITY PREDICTED BY RF-SCORE:    0.00 PKD
ROOT
HETATM    1  C   UNL     1     -10.655   5.090  72.548  1.00  0.00    -0.219 C  
HETATM    2  N   UNL     1     -10.423   6.191  71.613  1.00  0.00    -0.216 NA 
HETATM    3  C   UNL     1     -11.466   6.263  70.581  1.00  0.00    -0.329 C  
HETATM    4  C   UNL     1     -12.796   6.834  71.073  1.00  0.00    -0.134 C  
HETATM    5  C   UNL     1     -12.608   8.165  71.790  1.00  0.00    -0.360 C  
HETATM    6  C   UNL     1     -11.528   8.058  72.861  1.00  0.00    -0.329 C  
HETATM    7  C   UNL     1     -10.209   7.481  72.317  1.00  0.00    -0.206 C  
ENDROOT
BRANCH   7   8
HETATM    8  C   UNL     1      -9.477   8.446  71.362  1.00  0.00    -0.251 C  
BRANCH   8   9
HETATM    9  C   UNL     1      -8.071   8.015  70.896  1.00  0.00    -0.102 C  
BRANCH   9  10
HETATM   10  N   UNL     1      -8.014   7.376  69.551  1.00  0.00    -0.124 NA 
HETATM   11  C   UNL     1      -7.439   6.072  69.433  1.00  0.00    -0.088 A  
HETATM   12  C   UNL     1      -7.506   5.338  68.229  1.00  0.00    -0.076 A  
HETATM   13  S   UNL     1      -8.229   5.945  66.727  1.00  0.00    -0.105 SA 
HETATM   14  C   UNL     1      -6.980   4.028  68.131  1.00  0.00    -0.051 A  
HETATM   15  C   UNL     1      -6.367   3.413  69.211  1.00  0.00    -0.029 A  
HETATM   16  C   UNL     1      -8.769   7.567  67.188  1.00  0.00    -0.121 A  
HETATM   17  C   UNL     1      -6.248   4.120  70.393  1.00  0.00    -0.019 A  
HETATM   18  C   UNL     1      -8.613   8.115  68.475  1.00  0.00    -0.130 A  
HETATM   19  C   UNL     1      -9.102   9.432  68.639  1.00  0.00    -0.132 A  
HETATM   20  C   UNL     1      -6.758   5.424  70.490  1.00  0.00    -0.047 A  
HETATM   21  C   UNL     1      -9.820  10.117  67.646  1.00  0.00    -0.172 A  
HETATM   22  C   UNL     1      -9.409   8.290  66.159  1.00  0.00    -0.254 A  
HETATM   23  C   UNL     1      -9.954   9.548  66.390  1.00  0.00    -0.339 A  
BRANCH  21  24
HETATM   24  S   UNL     1     -10.601  11.711  67.999  1.00  0.00    -0.212 S  
HETATM   25  O   UNL     1     -12.007  11.604  67.483  1.00  0.00    -0.622 OA 
HETATM   26  C   UNL     1      -9.667  12.689  66.786  1.00  0.00    -0.240 C  
ENDBRANCH  21  24
ENDBRANCH   9  10
ENDBRANCH   8   9
ENDBRANCH   7   8
TORSDOF 4
ENDMDL
MODEL      144
REMARK 921   NORMALIZED FREE ENERGY PREDICTED BY IDOCK:   -3.59 KCAL/MOL
REMARK 922        TOTAL FREE ENERGY PREDICTED BY IDOCK:   -5.21 KCAL/MOL
REMARK 923 INTER-LIGAND FREE ENERGY PREDICTED BY IDOCK:   -4.67 KCAL/MOL
REMARK 924 INTRA-LIGAND FREE ENERGY PREDICTED BY IDOCK:   -0.54 KCAL/MOL
REMARK 927      BINDING AFFINITY PREDICTED BY RF-SCORE:    0.00 PKD
ROOT
HETATM    1  C   UNL     1     -12.520  12.724  66.254  1.00  0.00     0.165 C  
HETATM    2  N   UNL     1     -11.227  12.041  66.191  1.00  0.00    -0.330 NA 
HETATM    3  C   UNL     1     -11.241  10.929  65.232  1.00  0.00     0.288 C  
HETATM    4  C   UNL     1     -11.190  11.363  63.767  1.00  0.00    -0.375 C  
HETATM    5  C   UNL     1     -10.043  12.331  63.505  1.00  0.00    -0.344 C  
HETATM    6  C   UNL     1     -10.060  13.479  64.507  1.00  0.00    -0.179 C  
HETATM    7  C   UNL     1     -10.108  12.991  65.966  1.00  0.00    -0.284 C  
ENDROOT
BRANCH   7   8
HETATM    8  C   UNL     1      -8.796  12.322  66.421  1.00  0.00    -0.072 C  
BRANCH   8   9
HETATM    9  C   UNL     1      -8.442  12.452  67.917  1.00  0.00    -0.166 C  
BRANCH   9  10
HETATM   10  N   UNL     1      -9.537  12.963  68.789  1.00  0.00     0.009 NA 
HETATM   11  C   UNL     1      -9.761  14.374  68.857  1.00  0.00    -0.144 A  
HETATM   12  C   UNL     1     -10.882  14.916  69.521  1.00  0.00    -0.259 A  
HETATM   13  S   UNL     1     -12.088  13.953  70.395  1.00  0.00    -0.348 SA 
HETATM   14  C   UNL     1     -11.128  16.309  69.543  1.00  0.00    -0.330 A  
HETATM   15  C   UNL     1     -10.271  17.203  68.920  1.00  0.00    -0.332 A  
HETATM   16  C   UNL     1     -11.492  12.300  70.178  1.00  0.00     0.049 A  
HETATM   17  C   UNL     1      -9.142  16.709  68.294  1.00  0.00    -0.218 A  
HETATM   18  C   UNL     1     -10.333  11.968  69.452  1.00  0.00     0.342 A  
HETATM   19  C   UNL     1     -10.018  10.590  69.404  1.00  0.00    -0.220 A  
HETATM   20  C   UNL     1      -8.889  15.328  68.282  1.00  0.00    -0.171 A  
HETATM   21  C   UNL     1     -10.858   9.589  69.918  1.00  0.00    -0.246 A  
HETATM   22  C   UNL     1     -12.290  11.301  70.777  1.00  0.00    -0.495 A  
HETATM   23  C   UNL     1     -11.990   9.952  70.629  1.00  0.00    -0.361 A  
BRANCH  21  24
HETATM   24  S   UNL     1     -10.498   7.839  69.632  1.00  0.00    -0.228 S  
HETATM   25  O   UNL     1     -10.861   7.572  68.200  1.00  0.00    -0.129 OA 
HETATM   26  C   UNL     1     -11.844   7.166  70.651  1.00  0.00    -0.291 C  
ENDBRANCH  21  24
ENDBRANCH   9  10
ENDBRANCH   8   9
ENDBRANCH   7   8
TORSDOF 4
ENDMDL
MODEL      145
REMARK 921   NORMALIZED FREE ENERGY PREDICTED BY IDOCK:   -3.56 KCAL/MOL
REMARK 922        TOTAL FREE ENERGY PREDICTED BY IDOCK:   -5.17 KCAL/MOL
REMARK 923 INTER-LIGAND FREE ENERGY PREDICTED BY IDOCK:   -4.47 KCAL/MOL
REMARK 924 INTRA-LIGAND FREE ENERGY PREDICTED BY IDOCK:   -0.70 KCAL/MOL
REMARK 927      BINDING AFFINITY PREDICTED BY RF-SCORE:    0.00 PKD
ROOT
HETATM    1  C   UNL     1     -10.217  10.930  68.070  1.00  0.00    -0.178 C  
HETATM    2  N   UNL     1     -10.611   9.725  67.341  1.00  0.00    -0.267 NA 
HETATM    3  C   UNL     1     -10.381   9.857  65.896  1.00  0.00    -0.113 C  
HETATM    4  C   UNL     1      -8.913   9.744  65.482  1.00  0.00    -0.214 C  
HETATM    5  C   UNL     1      -8.261   8.491  66.052  1.00  0.00    -0.118 C  
HETATM    6  C   UNL     1      -8.507   8.385  67.553  1.00  0.00    -0.129 C  
HETATM    7  C   UNL     1      -9.997   8.501  67.919  1.00  0.00    -0.181 C  
ENDROOT
BRANCH   7   8
HETATM    8  C   UNL     1     -10.825   7.279  67.474  1.00  0.00    -0.284 C  
BRANCH   8   9
HETATM    9  C   UNL     1     -11.240   6.290  68.583  1.00  0.00    -0.238 C  
BRANCH   9  10
HETATM   10  N   UNL     1     -10.166   5.931  69.551  1.00  0.00    -0.203 NA 
HETATM   11  C   UNL     1     -10.227   6.466  70.876  1.00  0.00    -0.189 A  
HETATM   12  C   UNL     1      -9.345   6.036  71.891  1.00  0.00    -0.150 A  
HETATM   13  S   UNL     1      -8.037   4.863  71.648  1.00  0.00    -0.115 SA 
HETATM   14  C   UNL     1      -9.442   6.530  73.214  1.00  0.00    -0.157 A  
HETATM   15  C   UNL     1     -10.402   7.466  73.567  1.00  0.00    -0.405 A  
HETATM   16  C   UNL     1      -8.193   4.463  69.930  1.00  0.00    -0.062 A  
HETATM   17  C   UNL     1     -11.255   7.938  72.587  1.00  0.00    -0.459 A  
HETATM   18  C   UNL     1      -9.172   5.008  69.079  1.00  0.00    -0.114 A  
HETATM   19  C   UNL     1      -9.123   4.570  67.735  1.00  0.00    -0.142 A  
HETATM   20  C   UNL     1     -11.154   7.460  71.272  1.00  0.00    -0.269 A  
HETATM   21  C   UNL     1      -8.257   3.560  67.285  1.00  0.00    -0.090 A  
HETATM   22  C   UNL     1      -7.259   3.516  69.458  1.00  0.00    -0.045 A  
HETATM   23  C   UNL     1      -7.304   3.048  68.149  1.00  0.00    -0.050 A  
BRANCH  21  24
HETATM   24  S   UNL     1      -8.396   2.899  65.606  1.00  0.00    -0.099 S  
HETATM   25  O   UNL     1      -6.991   2.788  65.089  1.00  0.00    -0.050 OA 
HETATM   26  C   UNL     1      -9.123   4.380  64.844  1.00  0.00    -0.151 C  
ENDBRANCH  21  24
ENDBRANCH   9  10
ENDBRANCH   8   9
ENDBRANCH   7   8
TORSDOF 4
ENDMDL
MODEL      146
REMARK 921   NORMALIZED FREE ENERGY PREDICTED BY IDOCK:   -3.53 KCAL/MOL
REMARK 922        TOTAL FREE ENERGY PREDICTED BY IDOCK:   -5.13 KCAL/MOL
REMARK 923 INTER-LIGAND FREE ENERGY PREDICTED BY IDOCK:   -4.55 KCAL/MOL
REMARK 924 INTRA-LIGAND FREE ENERGY PREDICTED BY IDOCK:   -0.58 KCAL/MOL
REMARK 927      BINDING AFFINITY PREDICTED BY RF-SCORE:    0.00 PKD
ROOT
HETATM    1  C   UNL     1      -9.764   4.442  70.507  1.00  0.00    -0.217 C  
HETATM    2  N   UNL     1     -10.297   5.804  70.547  1.00  0.00    -0.229 NA 
HETATM    3  C   UNL     1     -11.176   6.016  71.705  1.00  0.00    -0.268 C  
HETATM    4  C   UNL     1     -10.436   6.165  73.035  1.00  0.00    -0.245 C  
HETATM    5  C   UNL     1      -9.334   7.213  72.953  1.00  0.00    -0.179 C  
HETATM    6  C   UNL     1      -8.433   6.963  71.750  1.00  0.00    -0.115 C  
HETATM    7  C   UNL     1      -9.223   6.824  70.437  1.00  0.00    -0.156 C  
ENDROOT
BRANCH   7   8
HETATM    8  C   UNL     1      -9.851   8.152  69.968  1.00  0.00    -0.182 C  
BRANCH   8   9
HETATM    9  C   UNL     1     -10.620   8.112  68.631  1.00  0.00    -0.109 C  
BRANCH   9  10
HETATM   10  N   UNL     1      -9.829   8.500  67.429  1.00  0.00    -0.172 NA 
HETATM   11  C   UNL     1      -9.261   7.468  66.618  1.00  0.00    -0.162 A  
HETATM   12  C   UNL     1      -8.649   7.751  65.378  1.00  0.00    -0.070 A  
HETATM   13  S   UNL     1      -8.446   9.383  64.714  1.00  0.00    -0.178 SA 
HETATM   14  C   UNL     1      -8.133   6.722  64.554  1.00  0.00    -0.070 A  
HETATM   15  C   UNL     1      -8.199   5.391  64.936  1.00  0.00    -0.138 A  
HETATM   16  C   UNL     1      -9.176  10.402  65.964  1.00  0.00    -0.167 A  
HETATM   17  C   UNL     1      -8.756   5.082  66.163  1.00  0.00    -0.120 A  
HETATM   18  C   UNL     1      -9.755   9.905  67.147  1.00  0.00    -0.178 A  
HETATM   19  C   UNL     1     -10.277  10.884  68.026  1.00  0.00    -0.202 A  
HETATM   20  C   UNL     1      -9.256   6.101  66.988  1.00  0.00    -0.127 A  
HETATM   21  C   UNL     1     -10.348  12.249  67.706  1.00  0.00    -0.207 A  
HETATM   22  C   UNL     1      -9.163  11.784  65.681  1.00  0.00    -0.109 A  
HETATM   23  C   UNL     1      -9.766  12.702  66.534  1.00  0.00    -0.256 A  
BRANCH  21  24
HETATM   24  S   UNL     1     -11.221  13.410  68.784  1.00  0.00    -0.291 S  
HETATM   25  O   UNL     1     -12.186  14.147  67.901  1.00  0.00    -0.319 OA 
HETATM   26  C   UNL     1      -9.820  14.529  69.084  1.00  0.00    -0.080 C  
ENDBRANCH  21  24
ENDBRANCH   9  10
ENDBRANCH   8   9
ENDBRANCH   7   8
TORSDOF 4
ENDMDL
MODEL      147
REMARK 921   NORMALIZED FREE ENERGY PREDICTED BY IDOCK:   -3.51 KCAL/MOL
REMARK 922        TOTAL FREE ENERGY PREDICTED BY IDOCK:   -5.10 KCAL/MOL
REMARK 923 INTER-LIGAND FREE ENERGY PREDICTED BY IDOCK:   -4.48 KCAL/MOL
REMARK 924 INTRA-LIGAND FREE ENERGY PREDICTED BY IDOCK:   -0.62 KCAL/MOL
REMARK 927      BINDING AFFINITY PREDICTED BY RF-SCORE:    0.00 PKD
ROOT
HETATM    1  C   UNL     1     -12.896   9.944  70.081  1.00  0.00     0.297 C  
HETATM    2  N   UNL     1     -11.515  10.396  69.909  1.00  0.00    -0.277 NA 
HETATM    3  C   UNL     1     -10.594   9.706  70.822  1.00  0.00    -0.322 C  
HETATM    4  C   UNL     1     -10.274   8.266  70.419  1.00  0.00    -0.209 C  
HETATM    5  C   UNL     1      -9.818   8.174  68.969  1.00  0.00    -0.176 C  
HETATM    6  C   UNL     1     -10.796   8.889  68.044  1.00  0.00    -0.079 C  
HETATM    7  C   UNL     1     -11.083  10.333  68.489  1.00  0.00    -0.242 C  
ENDROOT
BRANCH   7   8
HETATM    8  C   UNL     1      -9.876  11.274  68.300  1.00  0.00    -0.201 C  
BRANCH   8   9
HETATM    9  C   UNL     1     -10.084  12.748  68.705  1.00  0.00    -0.124 C  
BRANCH   9  10
HETATM   10  N   UNL     1      -9.599  13.754  67.719  1.00  0.00    -0.213 NA 
HETATM   11  C   UNL     1     -10.492  14.199  66.694  1.00  0.00    -0.278 A  
HETATM   12  C   UNL     1     -10.161  15.270  65.836  1.00  0.00    -0.332 A  
HETATM   13  S   UNL     1      -8.613  16.134  65.866  1.00  0.00     0.266 SA 
HETATM   14  C   UNL     1     -11.068  15.741  64.857  1.00  0.00    -0.411 A  
HETATM   15  C   UNL     1     -12.317  15.163  64.692  1.00  0.00    -0.158 A  
HETATM   16  C   UNL     1      -7.738  15.311  67.167  1.00  0.00    -0.203 A  
HETATM   17  C   UNL     1     -12.657  14.086  65.489  1.00  0.00    -0.543 A  
HETATM   18  C   UNL     1      -8.267  14.249  67.925  1.00  0.00    -0.156 A  
HETATM   19  C   UNL     1      -7.405  13.718  68.913  1.00  0.00    -0.076 A  
HETATM   20  C   UNL     1     -11.755  13.609  66.453  1.00  0.00    -0.403 A  
HETATM   21  C   UNL     1      -6.158  14.279  69.230  1.00  0.00    -0.099 A  
HETATM   22  C   UNL     1      -6.446  15.817  67.422  1.00  0.00    -0.193 A  
HETATM   23  C   UNL     1      -5.667  15.322  68.462  1.00  0.00    -0.095 A  
BRANCH  21  24
HETATM   24  S   UNL     1      -5.205  13.681  70.647  1.00  0.00    -0.135 S  
HETATM   25  O   UNL     1      -5.853  12.392  71.066  1.00  0.00    -0.344 OA 
HETATM   26  C   UNL     1      -5.745  14.951  71.830  1.00  0.00     0.225 C  
ENDBRANCH  21  24
ENDBRANCH   9  10
ENDBRANCH   8   9
ENDBRANCH   7   8
TORSDOF 4
ENDMDL
MODEL      148
REMARK 921   NORMALIZED FREE ENERGY PREDICTED BY IDOCK:   -3.47 KCAL/MOL
REMARK 922        TOTAL FREE ENERGY PREDICTED BY IDOCK:   -5.06 KCAL/MOL
REMARK 923 INTER-LIGAND FREE ENERGY PREDICTED BY IDOCK:   -4.60 KCAL/MOL
REMARK 924 INTRA-LIGAND FREE ENERGY PREDICTED BY IDOCK:   -0.46 KCAL/MOL
REMARK 927      BINDING AFFINITY PREDICTED BY RF-SCORE:    0.00 PKD
ROOT
HETATM    1  C   UNL     1      -8.067   5.488  64.096  1.00  0.00    -0.124 C  
HETATM    2  N   UNL     1      -8.500   4.808  65.317  1.00  0.00    -0.127 NA 
HETATM    3  C   UNL     1      -8.368   3.350  65.209  1.00  0.00    -0.098 C  
HETATM    4  C   UNL     1      -6.931   2.840  65.322  1.00  0.00    -0.052 C  
HETATM    5  C   UNL     1      -6.234   3.388  66.560  1.00  0.00    -0.028 C  
HETATM    6  C   UNL     1      -6.378   4.904  66.641  1.00  0.00    -0.040 C  
HETATM    7  C   UNL     1      -7.841   5.365  66.526  1.00  0.00    -0.100 C  
ENDROOT
BRANCH   7   8
HETATM    8  C   UNL     1      -8.689   4.998  67.761  1.00  0.00    -0.103 C  
BRANCH   8   9
HETATM    9  C   UNL     1     -10.076   5.666  67.865  1.00  0.00    -0.168 C  
BRANCH   9  10
HETATM   10  N   UNL     1     -10.164   6.806  68.820  1.00  0.00    -0.167 NA 
HETATM   11  C   UNL     1     -10.267   8.134  68.298  1.00  0.00    -0.206 A  
HETATM   12  C   UNL     1     -10.526   9.241  69.133  1.00  0.00    -0.217 A  
HETATM   13  S   UNL     1     -10.683   9.147  70.897  1.00  0.00    -0.304 SA 
HETATM   14  C   UNL     1     -10.678  10.546  68.607  1.00  0.00    -0.247 A  
HETATM   15  C   UNL     1     -10.569  10.794  67.247  1.00  0.00    -0.304 A  
HETATM   16  C   UNL     1     -10.441   7.422  71.214  1.00  0.00    -0.208 A  
HETATM   17  C   UNL     1     -10.275   9.738  66.406  1.00  0.00    -0.288 A  
HETATM   18  C   UNL     1     -10.203   6.462  70.213  1.00  0.00    -0.195 A  
HETATM   19  C   UNL     1     -10.024   5.136  70.672  1.00  0.00    -0.296 A  
HETATM   20  C   UNL     1     -10.112   8.445  66.926  1.00  0.00    -0.364 A  
HETATM   21  C   UNL     1     -10.202   4.753  72.011  1.00  0.00    -0.195 A  
HETATM   22  C   UNL     1     -10.528   7.054  72.574  1.00  0.00    -0.243 A  
HETATM   23  C   UNL     1     -10.434   5.724  72.970  1.00  0.00    -0.248 A  
BRANCH  21  24
HETATM   24  S   UNL     1     -10.170   3.008  72.488  1.00  0.00    -0.113 S  
HETATM   25  O   UNL     1      -9.641   2.974  73.893  1.00  0.00    -0.087 OA 
HETATM   26  C   UNL     1      -8.805   2.505  71.398  1.00  0.00    -0.073 C  
ENDBRANCH  21  24
ENDBRANCH   9  10
ENDBRANCH   8   9
ENDBRANCH   7   8
TORSDOF 4
ENDMDL
MODEL      149
REMARK 921   NORMALIZED FREE ENERGY PREDICTED BY IDOCK:   -3.46 KCAL/MOL
REMARK 922        TOTAL FREE ENERGY PREDICTED BY IDOCK:   -5.04 KCAL/MOL
REMARK 923 INTER-LIGAND FREE ENERGY PREDICTED BY IDOCK:   -4.75 KCAL/MOL
REMARK 924 INTRA-LIGAND FREE ENERGY PREDICTED BY IDOCK:   -0.29 KCAL/MOL
REMARK 927      BINDING AFFINITY PREDICTED BY RF-SCORE:    0.00 PKD
ROOT
HETATM    1  C   UNL     1     -12.410  14.137  66.903  1.00  0.00    -0.258 C  
HETATM    2  N   UNL     1     -11.283  14.333  67.815  1.00  0.00    -0.280 NA 
HETATM    3  C   UNL     1     -11.572  15.350  68.834  1.00  0.00    -0.354 C  
HETATM    4  C   UNL     1     -12.512  14.877  69.944  1.00  0.00    -0.273 C  
HETATM    5  C   UNL     1     -12.042  13.566  70.561  1.00  0.00    -0.409 C  
HETATM    6  C   UNL     1     -11.758  12.527  69.482  1.00  0.00    -0.375 C  
HETATM    7  C   UNL     1     -10.807  13.049  68.392  1.00  0.00    -0.258 C  
ENDROOT
BRANCH   7   8
HETATM    8  C   UNL     1      -9.362  13.242  68.895  1.00  0.00     0.240 C  
BRANCH   8   9
HETATM    9  C   UNL     1      -8.249  12.583  68.054  1.00  0.00    -0.166 C  
BRANCH   9  10
HETATM   10  N   UNL     1      -8.611  11.282  67.426  1.00  0.00    -0.134 NA 
HETATM   11  C   UNL     1      -9.179  11.286  66.113  1.00  0.00    -0.206 A  
HETATM   12  C   UNL     1      -9.386  10.091  65.391  1.00  0.00    -0.229 A  
HETATM   13  S   UNL     1      -9.046   8.469  66.024  1.00  0.00    -0.185 SA 
HETATM   14  C   UNL     1      -9.900  10.102  64.073  1.00  0.00    -0.176 A  
HETATM   15  C   UNL     1     -10.232  11.289  63.438  1.00  0.00    -0.454 A  
HETATM   16  C   UNL     1      -8.437   8.810  67.651  1.00  0.00    -0.125 A  
HETATM   17  C   UNL     1     -10.079  12.474  64.132  1.00  0.00    -0.311 A  
HETATM   18  C   UNL     1      -8.294  10.104  68.184  1.00  0.00    -0.117 A  
HETATM   19  C   UNL     1      -7.800  10.166  69.509  1.00  0.00    -0.165 A  
HETATM   20  C   UNL     1      -9.581  12.465  65.443  1.00  0.00    -0.043 A  
HETATM   21  C   UNL     1      -7.346   9.040  70.215  1.00  0.00    -0.076 A  
HETATM   22  C   UNL     1      -8.068   7.668  68.394  1.00  0.00    -0.124 A  
HETATM   23  C   UNL     1      -7.504   7.781  69.660  1.00  0.00    -0.090 A  
BRANCH  21  24
HETATM   24  S   UNL     1      -6.528   9.219  71.819  1.00  0.00     0.163 S  
HETATM   25  O   UNL     1      -5.760  10.507  71.749  1.00  0.00    -0.315 OA 
HETATM   26  C   UNL     1      -5.325   7.874  71.606  1.00  0.00    -0.034 C  
ENDBRANCH  21  24
ENDBRANCH   9  10
ENDBRANCH   8   9
ENDBRANCH   7   8
TORSDOF 4
ENDMDL
MODEL      150
REMARK 921   NORMALIZED FREE ENERGY PREDICTED BY IDOCK:   -3.45 KCAL/MOL
REMARK 922        TOTAL FREE ENERGY PREDICTED BY IDOCK:   -5.03 KCAL/MOL
REMARK 923 INTER-LIGAND FREE ENERGY PREDICTED BY IDOCK:   -4.76 KCAL/MOL
REMARK 924 INTRA-LIGAND FREE ENERGY PREDICTED BY IDOCK:   -0.27 KCAL/MOL
REMARK 927      BINDING AFFINITY PREDICTED BY RF-SCORE:    0.00 PKD
ROOT
HETATM    1  C   UNL     1     -11.891   9.944  70.823  1.00  0.00    -0.330 C  
HETATM    2  N   UNL     1     -11.601   9.869  69.392  1.00  0.00    -0.029 NA 
HETATM    3  C   UNL     1     -11.896  11.133  68.705  1.00  0.00    -0.287 C  
HETATM    4  C   UNL     1     -10.867  12.237  68.953  1.00  0.00    -0.238 C  
HETATM    5  C   UNL     1      -9.448  11.756  68.681  1.00  0.00    -0.107 C  
HETATM    6  C   UNL     1      -9.166  10.449  69.414  1.00  0.00    -0.177 C  
HETATM    7  C   UNL     1     -10.226   9.371  69.130  1.00  0.00    -0.202 C  
ENDROOT
BRANCH   7   8
HETATM    8  C   UNL     1     -10.165   8.831  67.687  1.00  0.00    -0.298 C  
BRANCH   8   9
HETATM    9  C   UNL     1      -8.779   8.838  67.009  1.00  0.00    -0.123 C  
BRANCH   9  10
HETATM   10  N   UNL     1      -8.798   8.845  65.519  1.00  0.00    -0.189 NA 
HETATM   11  C   UNL     1      -9.439   9.932  64.845  1.00  0.00    -0.291 A  
HETATM   12  C   UNL     1      -9.348  10.093  63.446  1.00  0.00    -0.294 A  
HETATM   13  S   UNL     1      -8.512   8.966  62.362  1.00  0.00    -0.201 SA 
HETATM   14  C   UNL     1      -9.939  11.198  62.788  1.00  0.00    -0.205 A  
HETATM   15  C   UNL     1     -10.644  12.164  63.490  1.00  0.00    -0.501 A  
HETATM   16  C   UNL     1      -7.907   7.733  63.480  1.00  0.00    -0.129 A  
HETATM   17  C   UNL     1     -10.786  12.014  64.857  1.00  0.00    -0.349 A  
HETATM   18  C   UNL     1      -8.102   7.769  64.873  1.00  0.00    -0.136 A  
HETATM   19  C   UNL     1      -7.549   6.683  65.593  1.00  0.00    -0.086 A  
HETATM   20  C   UNL     1     -10.211  10.914  65.510  1.00  0.00    -0.332 A  
HETATM   21  C   UNL     1      -6.742   5.698  65.002  1.00  0.00    -0.047 A  
HETATM   22  C   UNL     1      -7.173   6.693  62.870  1.00  0.00    -0.062 A  
HETATM   23  C   UNL     1      -6.573   5.693  63.627  1.00  0.00    -0.036 A  
BRANCH  21  24
HETATM   24  S   UNL     1      -5.893   4.463  66.017  1.00  0.00    -0.023 S  
HETATM   25  O   UNL     1      -5.599   3.310  65.102  1.00  0.00    -0.012 OA 
HETATM   26  C   UNL     1      -7.325   3.984  67.028  1.00  0.00    -0.072 C  
ENDBRANCH  21  24
ENDBRANCH   9  10
ENDBRANCH   8   9
ENDBRANCH   7   8
TORSDOF 4
ENDMDL
MODEL      151
REMARK 921   NORMALIZED FREE ENERGY PREDICTED BY IDOCK:   -3.43 KCAL/MOL
REMARK 922        TOTAL FREE ENERGY PREDICTED BY IDOCK:   -5.01 KCAL/MOL
REMARK 923 INTER-LIGAND FREE ENERGY PREDICTED BY IDOCK:   -4.38 KCAL/MOL
REMARK 924 INTRA-LIGAND FREE ENERGY PREDICTED BY IDOCK:   -0.63 KCAL/MOL
REMARK 927      BINDING AFFINITY PREDICTED BY RF-SCORE:    0.00 PKD
ROOT
HETATM    1  C   UNL     1     -11.445   9.974  69.640  1.00  0.00    -0.155 C  
HETATM    2  N   UNL     1     -10.764   9.169  70.655  1.00  0.00    -0.234 NA 
HETATM    3  C   UNL     1     -11.532   9.098  71.905  1.00  0.00    -0.353 C  
HETATM    4  C   UNL     1     -12.745   8.168  71.844  1.00  0.00    -0.361 C  
HETATM    5  C   UNL     1     -12.370   6.786  71.323  1.00  0.00    -0.395 C  
HETATM    6  C   UNL     1     -11.583   6.890  70.021  1.00  0.00    -0.299 C  
HETATM    7  C   UNL     1     -10.373   7.834  70.134  1.00  0.00    -0.218 C  
ENDROOT
BRANCH   7   8
HETATM    8  C   UNL     1      -9.249   7.269  71.025  1.00  0.00    -0.154 C  
BRANCH   8   9
HETATM    9  C   UNL     1      -8.060   6.611  70.295  1.00  0.00    -0.121 C  
BRANCH   9  10
HETATM   10  N   UNL     1      -8.415   5.820  69.083  1.00  0.00    -0.107 NA 
HETATM   11  C   UNL     1      -8.265   6.428  67.797  1.00  0.00    -0.118 A  
HETATM   12  C   UNL     1      -8.417   5.689  66.605  1.00  0.00    -0.113 A  
HETATM   13  S   UNL     1      -8.870   3.975  66.542  1.00  0.00    -0.129 SA 
HETATM   14  C   UNL     1      -8.217   6.281  65.335  1.00  0.00    -0.142 A  
HETATM   15  C   UNL     1      -7.873   7.619  65.209  1.00  0.00    -0.122 A  
HETATM   16  C   UNL     1      -9.042   3.560  68.255  1.00  0.00    -0.150 A  
HETATM   17  C   UNL     1      -7.756   8.381  66.355  1.00  0.00    -0.094 A  
HETATM   18  C   UNL     1      -8.828   4.464  69.311  1.00  0.00    -0.091 A  
HETATM   19  C   UNL     1      -9.027   3.941  70.610  1.00  0.00    -0.155 A  
HETATM   20  C   UNL     1      -7.965   7.800  67.615  1.00  0.00    -0.124 A  
HETATM   21  C   UNL     1      -9.287   2.585  70.864  1.00  0.00    -0.145 A  
HETATM   22  C   UNL     1      -9.395   2.216  68.503  1.00  0.00    -0.244 A  
HETATM   23  C   UNL     1      -9.494   1.723  69.799  1.00  0.00    -0.124 A  
BRANCH  21  24
HETATM   24  S   UNL     1      -9.317   1.946  72.556  1.00  0.00    -0.080 S  
HETATM   25  O   UNL     1     -10.233   2.855  73.324  1.00  0.00    -0.113 OA 
HETATM   26  C   UNL     1      -7.617   2.413  73.000  1.00  0.00    -0.042 C  
ENDBRANCH  21  24
ENDBRANCH   9  10
ENDBRANCH   8   9
ENDBRANCH   7   8
TORSDOF 4
ENDMDL
MODEL      152
REMARK 921   NORMALIZED FREE ENERGY PREDICTED BY IDOCK:   -3.43 KCAL/MOL
REMARK 922        TOTAL FREE ENERGY PREDICTED BY IDOCK:   -5.00 KCAL/MOL
REMARK 923 INTER-LIGAND FREE ENERGY PREDICTED BY IDOCK:   -4.74 KCAL/MOL
REMARK 924 INTRA-LIGAND FREE ENERGY PREDICTED BY IDOCK:   -0.26 KCAL/MOL
REMARK 927      BINDING AFFINITY PREDICTED BY RF-SCORE:    0.00 PKD
ROOT
HETATM    1  C   UNL     1     -11.988   9.637  71.289  1.00  0.00    -0.380 C  
HETATM    2  N   UNL     1     -11.077   8.583  70.845  1.00  0.00    -0.249 NA 
HETATM    3  C   UNL     1      -9.947   8.409  71.767  1.00  0.00    -0.241 C  
HETATM    4  C   UNL     1     -10.303   7.686  73.066  1.00  0.00    -0.393 C  
HETATM    5  C   UNL     1     -11.031   6.375  72.800  1.00  0.00    -0.289 C  
HETATM    6  C   UNL     1     -12.204   6.586  71.849  1.00  0.00    -0.373 C  
HETATM    7  C   UNL     1     -11.794   7.314  70.557  1.00  0.00    -0.199 C  
ENDROOT
BRANCH   7   8
HETATM    8  C   UNL     1     -10.914   6.450  69.631  1.00  0.00    -0.420 C  
BRANCH   8   9
HETATM    9  C   UNL     1     -10.943   6.804  68.130  1.00  0.00    -0.201 C  
BRANCH   9  10
HETATM   10  N   UNL     1      -9.610   7.023  67.501  1.00  0.00    -0.128 NA 
HETATM   11  C   UNL     1      -9.327   8.297  66.915  1.00  0.00    -0.176 A  
HETATM   12  C   UNL     1      -8.035   8.632  66.457  1.00  0.00    -0.099 A  
HETATM   13  S   UNL     1      -6.648   7.527  66.482  1.00  0.00    -0.054 SA 
HETATM   14  C   UNL     1      -7.746   9.911  65.924  1.00  0.00    -0.110 A  
HETATM   15  C   UNL     1      -8.725  10.887  65.820  1.00  0.00    -0.196 A  
HETATM   16  C   UNL     1      -7.340   6.056  67.185  1.00  0.00    -0.076 A  
HETATM   17  C   UNL     1     -10.011  10.578  66.222  1.00  0.00    -0.276 A  
HETATM   18  C   UNL     1      -8.680   5.934  67.595  1.00  0.00    -0.104 A  
HETATM   19  C   UNL     1      -9.042   4.671  68.123  1.00  0.00    -0.148 A  
HETATM   20  C   UNL     1     -10.303   9.307  66.739  1.00  0.00    -0.296 A  
HETATM   21  C   UNL     1      -8.118   3.642  68.360  1.00  0.00    -0.070 A  
HETATM   22  C   UNL     1      -6.428   4.990  67.336  1.00  0.00    -0.045 A  
HETATM   23  C   UNL     1      -6.807   3.796  67.942  1.00  0.00    -0.047 A  
BRANCH  21  24
HETATM   24  S   UNL     1      -8.611   2.136  69.235  1.00  0.00    -0.068 S  
HETATM   25  O   UNL     1      -9.690   2.550  70.193  1.00  0.00    -0.067 OA 
HETATM   26  C   UNL     1      -7.089   1.937  70.208  1.00  0.00    -0.033 C  
ENDBRANCH  21  24
ENDBRANCH   9  10
ENDBRANCH   8   9
ENDBRANCH   7   8
TORSDOF 4
ENDMDL
MODEL      153
REMARK 921   NORMALIZED FREE ENERGY PREDICTED BY IDOCK:   -3.37 KCAL/MOL
REMARK 922        TOTAL FREE ENERGY PREDICTED BY IDOCK:   -4.94 KCAL/MOL
REMARK 923 INTER-LIGAND FREE ENERGY PREDICTED BY IDOCK:   -4.28 KCAL/MOL
REMARK 924 INTRA-LIGAND FREE ENERGY PREDICTED BY IDOCK:   -0.65 KCAL/MOL
REMARK 927      BINDING AFFINITY PREDICTED BY RF-SCORE:    0.00 PKD
ROOT
HETATM    1  C   UNL     1     -11.783   8.763  70.291  1.00  0.00     0.069 C  
HETATM    2  N   UNL     1     -10.444   8.279  69.954  1.00  0.00    -0.219 NA 
HETATM    3  C   UNL     1     -10.282   6.852  70.265  1.00  0.00    -0.192 C  
HETATM    4  C   UNL     1     -10.975   5.912  69.278  1.00  0.00    -0.397 C  
HETATM    5  C   UNL     1     -10.597   6.229  67.837  1.00  0.00    -0.327 C  
HETATM    6  C   UNL     1     -10.785   7.713  67.539  1.00  0.00    -0.280 C  
HETATM    7  C   UNL     1     -10.067   8.616  68.557  1.00  0.00    -0.190 C  
ENDROOT
BRANCH   7   8
HETATM    8  C   UNL     1      -8.531   8.561  68.435  1.00  0.00    -0.138 C  
BRANCH   8   9
HETATM    9  C   UNL     1      -7.891   9.498  67.390  1.00  0.00    -0.102 C  
BRANCH   9  10
HETATM   10  N   UNL     1      -7.910   8.995  65.988  1.00  0.00    -0.101 NA 
HETATM   11  C   UNL     1      -7.270   7.750  65.695  1.00  0.00    -0.068 A  
HETATM   12  C   UNL     1      -7.394   7.131  64.433  1.00  0.00    -0.082 A  
HETATM   13  S   UNL     1      -8.275   7.827  63.060  1.00  0.00     0.047 SA 
HETATM   14  C   UNL     1      -6.803   5.874  64.163  1.00  0.00    -0.049 A  
HETATM   15  C   UNL     1      -6.066   5.201  65.126  1.00  0.00    -0.030 A  
HETATM   16  C   UNL     1      -8.870   9.359  63.721  1.00  0.00    -0.171 A  
HETATM   17  C   UNL     1      -5.891   5.799  66.360  1.00  0.00    -0.018 A  
HETATM   18  C   UNL     1      -8.638   9.791  65.040  1.00  0.00    -0.162 A  
HETATM   19  C   UNL     1      -9.189  11.051  65.373  1.00  0.00    -0.232 A  
HETATM   20  C   UNL     1      -6.466   7.051  66.626  1.00  0.00    -0.051 A  
HETATM   21  C   UNL     1     -10.027  11.778  64.512  1.00  0.00    -0.242 A  
HETATM   22  C   UNL     1      -9.635  10.132  62.822  1.00  0.00    -0.217 A  
HETATM   23  C   UNL     1     -10.231  11.323  63.220  1.00  0.00    -0.417 A  
BRANCH  21  24
HETATM   24  S   UNL     1     -10.868  13.275  65.082  1.00  0.00    -0.325 S  
HETATM   25  O   UNL     1     -10.116  13.733  66.298  1.00  0.00    -0.284 OA 
HETATM   26  C   UNL     1     -12.385  12.466  65.673  1.00  0.00    -0.106 C  
ENDBRANCH  21  24
ENDBRANCH   9  10
ENDBRANCH   8   9
ENDBRANCH   7   8
TORSDOF 4
ENDMDL
MODEL      154
REMARK 921   NORMALIZED FREE ENERGY PREDICTED BY IDOCK:   -3.37 KCAL/MOL
REMARK 922        TOTAL FREE ENERGY PREDICTED BY IDOCK:   -4.93 KCAL/MOL
REMARK 923 INTER-LIGAND FREE ENERGY PREDICTED BY IDOCK:   -4.42 KCAL/MOL
REMARK 924 INTRA-LIGAND FREE ENERGY PREDICTED BY IDOCK:   -0.51 KCAL/MOL
REMARK 927      BINDING AFFINITY PREDICTED BY RF-SCORE:    0.00 PKD
ROOT
HETATM    1  C   UNL     1      -9.023   4.188  72.209  1.00  0.00    -0.115 C  
HETATM    2  N   UNL     1      -9.677   5.435  71.814  1.00  0.00    -0.159 NA 
HETATM    3  C   UNL     1     -10.592   5.928  72.853  1.00  0.00    -0.235 C  
HETATM    4  C   UNL     1      -9.892   6.564  74.054  1.00  0.00    -0.294 C  
HETATM    5  C   UNL     1      -8.888   7.626  73.625  1.00  0.00    -0.295 C  
HETATM    6  C   UNL     1      -7.946   7.084  72.555  1.00  0.00    -0.101 C  
HETATM    7  C   UNL     1      -8.698   6.459  71.368  1.00  0.00    -0.131 C  
ENDROOT
BRANCH   7   8
HETATM    8  C   UNL     1      -9.435   7.501  70.503  1.00  0.00    -0.164 C  
BRANCH   8   9
HETATM    9  C   UNL     1     -10.269   6.952  69.327  1.00  0.00    -0.186 C  
BRANCH   9  10
HETATM   10  N   UNL     1      -9.518   6.741  68.058  1.00  0.00    -0.120 NA 
HETATM   11  C   UNL     1      -9.253   5.402  67.630  1.00  0.00    -0.112 A  
HETATM   12  C   UNL     1      -8.702   5.124  66.361  1.00  0.00    -0.113 A  
HETATM   13  S   UNL     1      -8.214   6.364  65.190  1.00  0.00    -0.109 SA 
HETATM   14  C   UNL     1      -8.488   3.796  65.921  1.00  0.00    -0.110 A  
HETATM   15  C   UNL     1      -8.802   2.710  66.724  1.00  0.00    -0.144 A  
HETATM   16  C   UNL     1      -8.603   7.869  66.038  1.00  0.00    -0.150 A  
HETATM   17  C   UNL     1      -9.306   2.948  67.988  1.00  0.00    -0.258 A  
HETATM   18  C   UNL     1      -9.172   7.925  67.324  1.00  0.00    -0.142 A  
HETATM   19  C   UNL     1      -9.397   9.226  67.833  1.00  0.00    -0.143 A  
HETATM   20  C   UNL     1      -9.507   4.264  68.432  1.00  0.00    -0.215 A  
HETATM   21  C   UNL     1      -9.204  10.393  67.078  1.00  0.00    -0.147 A  
HETATM   22  C   UNL     1      -8.320   9.045  65.312  1.00  0.00    -0.157 A  
HETATM   23  C   UNL     1      -8.640  10.301  65.817  1.00  0.00    -0.163 A  
BRANCH  21  24
HETATM   24  S   UNL     1      -9.716  12.007  67.718  1.00  0.00    -0.197 S  
HETATM   25  O   UNL     1     -10.759  11.726  68.760  1.00  0.00    -0.211 OA 
HETATM   26  C   UNL     1     -10.594  12.567  66.229  1.00  0.00    -0.248 C  
ENDBRANCH  21  24
ENDBRANCH   9  10
ENDBRANCH   8   9
ENDBRANCH   7   8
TORSDOF 4
ENDMDL
MODEL      155
REMARK 921   NORMALIZED FREE ENERGY PREDICTED BY IDOCK:   -3.36 KCAL/MOL
REMARK 922        TOTAL FREE ENERGY PREDICTED BY IDOCK:   -4.92 KCAL/MOL
REMARK 923 INTER-LIGAND FREE ENERGY PREDICTED BY IDOCK:   -5.21 KCAL/MOL
REMARK 924 INTRA-LIGAND FREE ENERGY PREDICTED BY IDOCK:    0.30 KCAL/MOL
REMARK 927      BINDING AFFINITY PREDICTED BY RF-SCORE:    0.00 PKD
ROOT
HETATM    1  C   UNL     1      -5.859   8.780  64.457  1.00  0.00    -0.065 C  
HETATM    2  N   UNL     1      -7.281   8.658  64.778  1.00  0.00    -0.087 NA 
HETATM    3  C   UNL     1      -8.086   8.338  63.591  1.00  0.00    -0.126 C  
HETATM    4  C   UNL     1      -7.968   6.886  63.126  1.00  0.00    -0.069 C  
HETATM    5  C   UNL     1      -8.216   5.907  64.266  1.00  0.00    -0.088 C  
HETATM    6  C   UNL     1      -7.361   6.256  65.479  1.00  0.00    -0.080 C  
HETATM    7  C   UNL     1      -7.516   7.725  65.910  1.00  0.00    -0.081 C  
ENDROOT
BRANCH   7   8
HETATM    8  C   UNL     1      -8.899   8.032  66.520  1.00  0.00    -0.175 C  
BRANCH   8   9
HETATM    9  C   UNL     1      -8.990   9.282  67.419  1.00  0.00    -0.124 C  
BRANCH   9  10
HETATM   10  N   UNL     1     -10.038   9.231  68.477  1.00  0.00    -0.183 NA 
HETATM   11  C   UNL     1     -10.336   7.974  69.089  1.00  0.00    -0.220 A  
HETATM   12  C   UNL     1     -11.188   7.878  70.211  1.00  0.00    -0.200 A  
HETATM   13  S   UNL     1     -12.033   9.254  70.944  1.00  0.00    -0.221 SA 
HETATM   14  C   UNL     1     -11.440   6.639  70.846  1.00  0.00    -0.401 A  
HETATM   15  C   UNL     1     -10.868   5.462  70.386  1.00  0.00    -0.208 A  
HETATM   16  C   UNL     1     -11.513  10.610  69.931  1.00  0.00    -0.317 A  
HETATM   17  C   UNL     1     -10.061   5.515  69.265  1.00  0.00    -0.293 A  
HETATM   18  C   UNL     1     -10.627  10.488  68.844  1.00  0.00    -0.216 A  
HETATM   19  C   UNL     1     -10.344  11.689  68.152  1.00  0.00    -0.208 A  
HETATM   20  C   UNL     1      -9.819   6.740  68.626  1.00  0.00    -0.142 A  
HETATM   21  C   UNL     1     -10.791  12.949  68.580  1.00  0.00    -0.258 A  
HETATM   22  C   UNL     1     -12.039  11.864  70.308  1.00  0.00    -0.409 A  
HETATM   23  C   UNL     1     -11.663  13.032  69.653  1.00  0.00    -0.364 A  
BRANCH  21  24
HETATM   24  S   UNL     1     -10.214  14.462  67.772  1.00  0.00    -0.232 S  
HETATM   25  O   UNL     1     -10.278  14.192  66.297  1.00  0.00    -0.279 OA 
HETATM   26  C   UNL     1      -8.469  14.322  68.260  1.00  0.00    -0.167 C  
ENDBRANCH  21  24
ENDBRANCH   9  10
ENDBRANCH   8   9
ENDBRANCH   7   8
TORSDOF 4
ENDMDL
MODEL      156
REMARK 921   NORMALIZED FREE ENERGY PREDICTED BY IDOCK:   -3.35 KCAL/MOL
REMARK 922        TOTAL FREE ENERGY PREDICTED BY IDOCK:   -4.91 KCAL/MOL
REMARK 923 INTER-LIGAND FREE ENERGY PREDICTED BY IDOCK:   -4.33 KCAL/MOL
REMARK 924 INTRA-LIGAND FREE ENERGY PREDICTED BY IDOCK:   -0.58 KCAL/MOL
REMARK 927      BINDING AFFINITY PREDICTED BY RF-SCORE:    0.00 PKD
ROOT
HETATM    1  C   UNL     1      -6.020  12.344  70.236  1.00  0.00    -0.132 C  
HETATM    2  N   UNL     1      -6.824  12.205  69.021  1.00  0.00    -0.101 NA 
HETATM    3  C   UNL     1      -6.006  12.312  67.806  1.00  0.00    -0.098 C  
HETATM    4  C   UNL     1      -5.164  11.071  67.506  1.00  0.00    -0.038 C  
HETATM    5  C   UNL     1      -6.006   9.802  67.519  1.00  0.00    -0.051 C  
HETATM    6  C   UNL     1      -6.836   9.712  68.794  1.00  0.00    -0.051 C  
HETATM    7  C   UNL     1      -7.667  10.982  69.050  1.00  0.00    -0.132 C  
ENDROOT
BRANCH   7   8
HETATM    8  C   UNL     1      -8.824  11.158  68.047  1.00  0.00    -0.142 C  
BRANCH   8   9
HETATM    9  C   UNL     1     -10.017  10.191  68.199  1.00  0.00    -0.147 C  
BRANCH   9  10
HETATM   10  N   UNL     1      -9.800   8.821  67.654  1.00  0.00    -0.169 NA 
HETATM   11  C   UNL     1      -9.300   8.682  66.322  1.00  0.00    -0.220 A  
HETATM   12  C   UNL     1      -8.909   7.429  65.803  1.00  0.00    -0.075 A  
HETATM   13  S   UNL     1      -9.048   5.895  66.683  1.00  0.00    -0.138 SA 
HETATM   14  C   UNL     1      -8.366   7.302  64.502  1.00  0.00     0.073 A  
HETATM   15  C   UNL     1      -8.205   8.405  63.677  1.00  0.00    -0.105 A  
HETATM   16  C   UNL     1      -9.747   6.401  68.229  1.00  0.00    -0.127 A  
HETATM   17  C   UNL     1      -8.616   9.641  64.139  1.00  0.00    -0.209 A  
HETATM   18  C   UNL     1     -10.057   7.734  68.556  1.00  0.00    -0.199 A  
HETATM   19  C   UNL     1     -10.621   7.931  69.839  1.00  0.00    -0.242 A  
HETATM   20  C   UNL     1      -9.165   9.768  65.424  1.00  0.00    -0.282 A  
HETATM   21  C   UNL     1     -10.745   6.907  70.792  1.00  0.00    -0.233 A  
HETATM   22  C   UNL     1      -9.959   5.354  69.152  1.00  0.00    -0.267 A  
HETATM   23  C   UNL     1     -10.432   5.606  70.435  1.00  0.00    -0.355 A  
BRANCH  21  24
HETATM   24  S   UNL     1     -11.273   7.273  72.483  1.00  0.00    -0.307 S  
HETATM   25  O   UNL     1     -11.869   8.650  72.441  1.00  0.00    -0.372 OA 
HETATM   26  C   UNL     1      -9.613   7.438  73.203  1.00  0.00    -0.210 C  
ENDBRANCH  21  24
ENDBRANCH   9  10
ENDBRANCH   8   9
ENDBRANCH   7   8
TORSDOF 4
ENDMDL
MODEL      157
REMARK 921   NORMALIZED FREE ENERGY PREDICTED BY IDOCK:   -3.34 KCAL/MOL
REMARK 922        TOTAL FREE ENERGY PREDICTED BY IDOCK:   -4.89 KCAL/MOL
REMARK 923 INTER-LIGAND FREE ENERGY PREDICTED BY IDOCK:   -4.74 KCAL/MOL
REMARK 924 INTRA-LIGAND FREE ENERGY PREDICTED BY IDOCK:   -0.15 KCAL/MOL
REMARK 927      BINDING AFFINITY PREDICTED BY RF-SCORE:    0.00 PKD
ROOT
HETATM    1  C   UNL     1      -8.237   4.107  72.440  1.00  0.00    -0.099 C  
HETATM    2  N   UNL     1      -8.855   5.279  71.821  1.00  0.00    -0.134 NA 
HETATM    3  C   UNL     1     -10.318   5.260  71.948  1.00  0.00    -0.215 C  
HETATM    4  C   UNL     1     -10.830   5.610  73.346  1.00  0.00    -0.315 C  
HETATM    5  C   UNL     1     -10.228   6.912  73.857  1.00  0.00    -0.401 C  
HETATM    6  C   UNL     1      -8.710   6.900  73.722  1.00  0.00    -0.172 C  
HETATM    7  C   UNL     1      -8.245   6.547  72.299  1.00  0.00    -0.106 C  
ENDROOT
BRANCH   7   8
HETATM    8  C   UNL     1      -8.548   7.656  71.272  1.00  0.00    -0.124 C  
BRANCH   8   9
HETATM    9  C   UNL     1      -9.116   7.197  69.913  1.00  0.00    -0.141 C  
BRANCH   9  10
HETATM   10  N   UNL     1      -8.839   8.108  68.767  1.00  0.00    -0.138 NA 
HETATM   11  C   UNL     1      -7.795   7.763  67.851  1.00  0.00    -0.127 A  
HETATM   12  C   UNL     1      -7.591   8.482  66.654  1.00  0.00    -0.082 A  
HETATM   13  S   UNL     1      -8.527   9.911  66.174  1.00  0.00    -0.127 SA 
HETATM   14  C   UNL     1      -6.591   8.107  65.726  1.00  0.00    -0.052 A  
HETATM   15  C   UNL     1      -5.761   7.020  65.958  1.00  0.00    -0.031 A  
HETATM   16  C   UNL     1      -9.657  10.102  67.524  1.00  0.00    -0.156 A  
HETATM   17  C   UNL     1      -5.908   6.319  67.140  1.00  0.00    -0.020 A  
HETATM   18  C   UNL     1      -9.703   9.247  68.641  1.00  0.00    -0.150 A  
HETATM   19  C   UNL     1     -10.672   9.576  69.619  1.00  0.00    -0.257 A  
HETATM   20  C   UNL     1      -6.891   6.696  68.068  1.00  0.00    -0.077 A  
HETATM   21  C   UNL     1     -11.623  10.594  69.450  1.00  0.00    -0.280 A  
HETATM   22  C   UNL     1     -10.553  11.185  67.395  1.00  0.00    -0.272 A  
HETATM   23  C   UNL     1     -11.546  11.417  68.339  1.00  0.00    -0.385 A  
BRANCH  21  24
HETATM   24  S   UNL     1     -12.965  10.817  70.643  1.00  0.00    -0.132 S  
HETATM   25  O   UNL     1     -12.667  12.100  71.363  1.00  0.00    -0.358 OA 
HETATM   26  C   UNL     1     -12.495   9.463  71.761  1.00  0.00    -0.391 C  
ENDBRANCH  21  24
ENDBRANCH   9  10
ENDBRANCH   8   9
ENDBRANCH   7   8
TORSDOF 4
ENDMDL
MODEL      158
REMARK 921   NORMALIZED FREE ENERGY PREDICTED BY IDOCK:   -3.33 KCAL/MOL
REMARK 922        TOTAL FREE ENERGY PREDICTED BY IDOCK:   -4.88 KCAL/MOL
REMARK 923 INTER-LIGAND FREE ENERGY PREDICTED BY IDOCK:   -5.28 KCAL/MOL
REMARK 924 INTRA-LIGAND FREE ENERGY PREDICTED BY IDOCK:    0.39 KCAL/MOL
REMARK 927      BINDING AFFINITY PREDICTED BY RF-SCORE:    0.00 PKD
ROOT
HETATM    1  C   UNL     1      -6.141  10.468  64.973  1.00  0.00    -0.081 C  
HETATM    2  N   UNL     1      -7.455  10.385  65.610  1.00  0.00    -0.148 NA 
HETATM    3  C   UNL     1      -8.546  10.447  64.627  1.00  0.00    -0.185 C  
HETATM    4  C   UNL     1      -8.745   9.158  63.828  1.00  0.00    -0.150 C  
HETATM    5  C   UNL     1      -8.864   7.943  64.739  1.00  0.00     0.310 C  
HETATM    6  C   UNL     1      -7.715   7.898  65.741  1.00  0.00    -0.090 C  
HETATM    7  C   UNL     1      -7.558   9.215  66.520  1.00  0.00    -0.093 C  
ENDROOT
BRANCH   7   8
HETATM    8  C   UNL     1      -8.708   9.467  67.516  1.00  0.00    -0.126 C  
BRANCH   8   9
HETATM    9  C   UNL     1      -8.833  10.901  68.072  1.00  0.00    -0.135 C  
BRANCH   9  10
HETATM   10  N   UNL     1     -10.059  11.169  68.875  1.00  0.00    -0.201 NA 
HETATM   11  C   UNL     1     -10.591  10.119  69.688  1.00  0.00    -0.257 A  
HETATM   12  C   UNL     1     -11.642  10.349  70.601  1.00  0.00    -0.349 A  
HETATM   13  S   UNL     1     -12.466  11.906  70.806  1.00  0.00    -0.211 SA 
HETATM   14  C   UNL     1     -12.132   9.321  71.441  1.00  0.00    -0.424 A  
HETATM   15  C   UNL     1     -11.605   8.039  71.394  1.00  0.00    -0.301 A  
HETATM   16  C   UNL     1     -11.633  12.940  69.634  1.00  0.00    -0.248 A  
HETATM   17  C   UNL     1     -10.603   7.770  70.482  1.00  0.00    -0.226 A  
HETATM   18  C   UNL     1     -10.577  12.506  68.811  1.00  0.00    -0.175 A  
HETATM   19  C   UNL     1     -10.050  13.482  67.932  1.00  0.00    -0.248 A  
HETATM   20  C   UNL     1     -10.123   8.784  69.640  1.00  0.00    -0.204 A  
HETATM   21  C   UNL     1     -10.440  14.831  67.955  1.00  0.00    -0.246 A  
HETATM   22  C   UNL     1     -12.091  14.274  69.594  1.00  0.00    -0.396 A  
HETATM   23  C   UNL     1     -11.484  15.222  68.777  1.00  0.00    -0.345 A  
BRANCH  21  24
HETATM   24  S   UNL     1      -9.573  16.064  66.954  1.00  0.00    -0.235 S  
HETATM   25  O   UNL     1      -8.173  16.120  67.491  1.00  0.00    -0.143 OA 
HETATM   26  C   UNL     1     -10.445  17.524  67.597  1.00  0.00    -0.370 C  
ENDBRANCH  21  24
ENDBRANCH   9  10
ENDBRANCH   8   9
ENDBRANCH   7   8
TORSDOF 4
ENDMDL
MODEL      159
REMARK 921   NORMALIZED FREE ENERGY PREDICTED BY IDOCK:   -3.32 KCAL/MOL
REMARK 922        TOTAL FREE ENERGY PREDICTED BY IDOCK:   -4.87 KCAL/MOL
REMARK 923 INTER-LIGAND FREE ENERGY PREDICTED BY IDOCK:   -4.15 KCAL/MOL
REMARK 924 INTRA-LIGAND FREE ENERGY PREDICTED BY IDOCK:   -0.72 KCAL/MOL
REMARK 927      BINDING AFFINITY PREDICTED BY RF-SCORE:    0.00 PKD
ROOT
HETATM    1  C   UNL     1     -11.158   5.242  72.874  1.00  0.00    -0.305 C  
HETATM    2  N   UNL     1     -10.217   5.540  71.794  1.00  0.00    -0.196 NA 
HETATM    3  C   UNL     1      -8.871   5.834  72.305  1.00  0.00    -0.135 C  
HETATM    4  C   UNL     1      -8.095   4.602  72.771  1.00  0.00    -0.100 C  
HETATM    5  C   UNL     1      -8.078   3.510  71.710  1.00  0.00    -0.062 C  
HETATM    6  C   UNL     1      -9.487   3.219  71.205  1.00  0.00    -0.222 C  
HETATM    7  C   UNL     1     -10.225   4.488  70.745  1.00  0.00    -0.094 C  
ENDROOT
BRANCH   7   8
HETATM    8  C   UNL     1      -9.646   5.085  69.446  1.00  0.00    -0.236 C  
BRANCH   8   9
HETATM    9  C   UNL     1     -10.650   5.784  68.506  1.00  0.00    -0.229 C  
BRANCH   9  10
HETATM   10  N   UNL     1     -10.308   7.186  68.138  1.00  0.00    -0.188 NA 
HETATM   11  C   UNL     1     -10.726   8.245  69.004  1.00  0.00    -0.079 A  
HETATM   12  C   UNL     1     -10.293   9.575  68.812  1.00  0.00    -0.208 A  
HETATM   13  S   UNL     1      -9.261  10.106  67.471  1.00  0.00    -0.137 SA 
HETATM   14  C   UNL     1     -10.666  10.611  69.701  1.00  0.00    -0.290 A  
HETATM   15  C   UNL     1     -11.483  10.365  70.794  1.00  0.00    -0.422 A  
HETATM   16  C   UNL     1      -8.991   8.604  66.574  1.00  0.00    -0.154 A  
HETATM   17  C   UNL     1     -11.958   9.082  70.987  1.00  0.00    -0.323 A  
HETATM   18  C   UNL     1      -9.517   7.354  66.952  1.00  0.00    -0.162 A  
HETATM   19  C   UNL     1      -9.195   6.274  66.096  1.00  0.00    -0.143 A  
HETATM   20  C   UNL     1     -11.599   8.055  70.101  1.00  0.00     0.080 A  
HETATM   21  C   UNL     1      -8.305   6.385  65.016  1.00  0.00    -0.087 A  
HETATM   22  C   UNL     1      -8.171   8.736  65.433  1.00  0.00    -0.137 A  
HETATM   23  C   UNL     1      -7.809   7.631  64.671  1.00  0.00    -0.126 A  
BRANCH  21  24
HETATM   24  S   UNL     1      -7.774   4.920  64.097  1.00  0.00    -0.085 S  
HETATM   25  O   UNL     1      -8.274   3.739  64.879  1.00  0.00    -0.093 OA 
HETATM   26  C   UNL     1      -5.997   5.071  64.448  1.00  0.00    -0.021 C  
ENDBRANCH  21  24
ENDBRANCH   9  10
ENDBRANCH   8   9
ENDBRANCH   7   8
TORSDOF 4
ENDMDL
MODEL      160
REMARK 921   NORMALIZED FREE ENERGY PREDICTED BY IDOCK:   -3.32 KCAL/MOL
REMARK 922        TOTAL FREE ENERGY PREDICTED BY IDOCK:   -4.87 KCAL/MOL
REMARK 923 INTER-LIGAND FREE ENERGY PREDICTED BY IDOCK:   -4.09 KCAL/MOL
REMARK 924 INTRA-LIGAND FREE ENERGY PREDICTED BY IDOCK:   -0.78 KCAL/MOL
REMARK 927      BINDING AFFINITY PREDICTED BY RF-SCORE:    0.00 PKD
ROOT
HETATM    1  C   UNL     1     -11.432  10.065  71.113  1.00  0.00    -0.354 C  
HETATM    2  N   UNL     1     -11.037   9.483  69.830  1.00  0.00    -0.221 NA 
HETATM    3  C   UNL     1     -10.601  10.509  68.873  1.00  0.00    -0.216 C  
HETATM    4  C   UNL     1      -9.208  11.075  69.154  1.00  0.00    -0.022 C  
HETATM    5  C   UNL     1      -8.173   9.971  69.320  1.00  0.00    -0.147 C  
HETATM    6  C   UNL     1      -8.647   8.926  70.325  1.00  0.00    -0.178 C  
HETATM    7  C   UNL     1     -10.050   8.386  69.998  1.00  0.00    -0.192 C  
ENDROOT
BRANCH   7   8
HETATM    8  C   UNL     1     -10.077   7.502  68.735  1.00  0.00    -0.191 C  
BRANCH   8   9
HETATM    9  C   UNL     1     -10.999   6.266  68.781  1.00  0.00    -0.352 C  
BRANCH   9  10
HETATM   10  N   UNL     1     -10.318   4.955  68.584  1.00  0.00    -0.042 NA 
HETATM   11  C   UNL     1     -10.124   4.474  67.251  1.00  0.00    -0.087 A  
HETATM   12  C   UNL     1      -9.340   3.332  66.981  1.00  0.00    -0.169 A  
HETATM   13  S   UNL     1      -8.571   2.331  68.227  1.00  0.00    -0.092 SA 
HETATM   14  C   UNL     1      -9.108   2.889  65.658  1.00  0.00    -0.140 A  
HETATM   15  C   UNL     1      -9.652   3.553  64.568  1.00  0.00    -0.167 A  
HETATM   16  C   UNL     1      -9.054   3.142  69.725  1.00  0.00    -0.131 A  
HETATM   17  C   UNL     1     -10.458   4.651  64.800  1.00  0.00     0.135 A  
HETATM   18  C   UNL     1      -9.848   4.303  69.773  1.00  0.00    -0.187 A  
HETATM   19  C   UNL     1     -10.133   4.792  71.070  1.00  0.00    -0.269 A  
HETATM   20  C   UNL     1     -10.700   5.086  66.112  1.00  0.00    -0.264 A  
HETATM   21  C   UNL     1      -9.565   4.257  72.237  1.00  0.00    -0.141 A  
HETATM   22  C   UNL     1      -8.557   2.546  70.904  1.00  0.00    -0.104 A  
HETATM   23  C   UNL     1      -8.789   3.113  72.153  1.00  0.00    -0.119 A  
BRANCH  21  24
HETATM   24  S   UNL     1      -9.803   5.066  73.839  1.00  0.00    -0.169 S  
HETATM   25  O   UNL     1     -11.283   5.270  73.982  1.00  0.00    -0.139 OA 
HETATM   26  C   UNL     1      -9.089   6.674  73.384  1.00  0.00    -0.126 C  
ENDBRANCH  21  24
ENDBRANCH   9  10
ENDBRANCH   8   9
ENDBRANCH   7   8
TORSDOF 4
ENDMDL
MODEL      161
REMARK 921   NORMALIZED FREE ENERGY PREDICTED BY IDOCK:   -3.30 KCAL/MOL
REMARK 922        TOTAL FREE ENERGY PREDICTED BY IDOCK:   -4.85 KCAL/MOL
REMARK 923 INTER-LIGAND FREE ENERGY PREDICTED BY IDOCK:   -4.64 KCAL/MOL
REMARK 924 INTRA-LIGAND FREE ENERGY PREDICTED BY IDOCK:   -0.21 KCAL/MOL
REMARK 927      BINDING AFFINITY PREDICTED BY RF-SCORE:    0.00 PKD
ROOT
HETATM    1  C   UNL     1      -5.141  12.117  67.909  1.00  0.00    -0.064 C  
HETATM    2  N   UNL     1      -6.264  12.770  68.582  1.00  0.00    -0.066 NA 
HETATM    3  C   UNL     1      -6.190  12.621  70.041  1.00  0.00    -0.060 C  
HETATM    4  C   UNL     1      -5.146  13.515  70.711  1.00  0.00    -0.115 C  
HETATM    5  C   UNL     1      -5.297  14.971  70.291  1.00  0.00    -0.120 C  
HETATM    6  C   UNL     1      -5.361  15.096  68.772  1.00  0.00    -0.091 C  
HETATM    7  C   UNL     1      -6.428  14.181  68.147  1.00  0.00    -0.126 C  
ENDROOT
BRANCH   7   8
HETATM    8  C   UNL     1      -7.869  14.629  68.465  1.00  0.00    -0.133 C  
BRANCH   8   9
HETATM    9  C   UNL     1      -8.941  13.520  68.498  1.00  0.00    -0.086 C  
BRANCH   9  10
HETATM   10  N   UNL     1      -9.577  13.210  67.187  1.00  0.00    -0.228 NA 
HETATM   11  C   UNL     1     -10.135  14.283  66.423  1.00  0.00    -0.288 A  
HETATM   12  C   UNL     1     -10.598  14.091  65.103  1.00  0.00    -0.386 A  
HETATM   13  S   UNL     1     -10.613  12.527  64.266  1.00  0.00    -0.397 SA 
HETATM   14  C   UNL     1     -11.102  15.165  64.332  1.00  0.00    -0.124 A  
HETATM   15  C   UNL     1     -11.173  16.451  64.845  1.00  0.00    -0.191 A  
HETATM   16  C   UNL     1      -9.938  11.433  65.483  1.00  0.00    -0.239 A  
HETATM   17  C   UNL     1     -10.767  16.665  66.148  1.00  0.00    -0.132 A  
HETATM   18  C   UNL     1      -9.518  11.839  66.764  1.00  0.00    -0.193 A  
HETATM   19  C   UNL     1      -9.017  10.810  67.595  1.00  0.00    -0.140 A  
HETATM   20  C   UNL     1     -10.277  15.600  66.919  1.00  0.00    -0.281 A  
HETATM   21  C   UNL     1      -8.814   9.493  67.154  1.00  0.00    -0.131 A  
HETATM   22  C   UNL     1      -9.821  10.089  65.068  1.00  0.00    -0.374 A  
HETATM   23  C   UNL     1      -9.241   9.127  65.888  1.00  0.00    -0.286 A  
BRANCH  21  24
HETATM   24  S   UNL     1      -7.971   8.283  68.203  1.00  0.00    -0.124 S  
HETATM   25  O   UNL     1      -7.978   6.994  67.433  1.00  0.00    -0.109 OA 
HETATM   26  C   UNL     1      -9.266   8.148  69.471  1.00  0.00    -0.158 C  
ENDBRANCH  21  24
ENDBRANCH   9  10
ENDBRANCH   8   9
ENDBRANCH   7   8
TORSDOF 4
ENDMDL
MODEL      162
REMARK 921   NORMALIZED FREE ENERGY PREDICTED BY IDOCK:   -3.27 KCAL/MOL
REMARK 922        TOTAL FREE ENERGY PREDICTED BY IDOCK:   -4.81 KCAL/MOL
REMARK 923 INTER-LIGAND FREE ENERGY PREDICTED BY IDOCK:   -4.25 KCAL/MOL
REMARK 924 INTRA-LIGAND FREE ENERGY PREDICTED BY IDOCK:   -0.55 KCAL/MOL
REMARK 927      BINDING AFFINITY PREDICTED BY RF-SCORE:    0.00 PKD
ROOT
HETATM    1  C   UNL     1      -7.755   4.734  72.425  1.00  0.00    -0.091 C  
HETATM    2  N   UNL     1      -8.414   5.896  71.828  1.00  0.00    -0.130 NA 
HETATM    3  C   UNL     1      -9.857   5.681  71.660  1.00  0.00    -0.170 C  
HETATM    4  C   UNL     1     -10.660   5.773  72.958  1.00  0.00    -0.272 C  
HETATM    5  C   UNL     1     -10.357   7.057  73.719  1.00  0.00    -0.408 C  
HETATM    6  C   UNL     1      -8.854   7.248  73.888  1.00  0.00    -0.245 C  
HETATM    7  C   UNL     1      -8.092   7.150  72.555  1.00  0.00    -0.103 C  
ENDROOT
BRANCH   7   8
HETATM    8  C   UNL     1      -8.361   8.345  71.617  1.00  0.00    -0.202 C  
BRANCH   8   9
HETATM    9  C   UNL     1      -7.342   8.568  70.480  1.00  0.00    -0.060 C  
BRANCH   9  10
HETATM   10  N   UNL     1      -7.585   9.769  69.633  1.00  0.00    -0.103 NA 
HETATM   11  C   UNL     1      -6.817  10.951  69.879  1.00  0.00    -0.125 A  
HETATM   12  C   UNL     1      -6.871  12.064  69.013  1.00  0.00    -0.105 A  
HETATM   13  S   UNL     1      -7.919  12.171  67.586  1.00  0.00    -0.170 SA 
HETATM   14  C   UNL     1      -6.071  13.211  69.231  1.00  0.00    -0.098 A  
HETATM   15  C   UNL     1      -5.207  13.294  70.313  1.00  0.00    -0.104 A  
HETATM   16  C   UNL     1      -8.762  10.614  67.610  1.00  0.00    -0.121 A  
HETATM   17  C   UNL     1      -5.161  12.237  71.203  1.00  0.00    -0.130 A  
HETATM   18  C   UNL     1      -8.547   9.616  68.579  1.00  0.00    -0.119 A  
HETATM   19  C   UNL     1      -9.329   8.445  68.430  1.00  0.00    -0.137 A  
HETATM   20  C   UNL     1      -5.962  11.104  70.996  1.00  0.00     0.185 A  
HETATM   21  C   UNL     1     -10.166   8.213  67.327  1.00  0.00    -0.278 A  
HETATM   22  C   UNL     1      -9.673  10.420  66.550  1.00  0.00    -0.241 A  
HETATM   23  C   UNL     1     -10.355   9.219  66.394  1.00  0.00    -0.238 A  
BRANCH  21  24
HETATM   24  S   UNL     1     -10.968   6.608  67.094  1.00  0.00    -0.350 S  
HETATM   25  O   UNL     1     -11.330   6.124  68.468  1.00  0.00    -0.289 OA 
HETATM   26  C   UNL     1      -9.484   5.690  66.585  1.00  0.00    -0.147 C  
ENDBRANCH  21  24
ENDBRANCH   9  10
ENDBRANCH   8   9
ENDBRANCH   7   8
TORSDOF 4
ENDMDL
MODEL      163
REMARK 921   NORMALIZED FREE ENERGY PREDICTED BY IDOCK:   -3.17 KCAL/MOL
REMARK 922        TOTAL FREE ENERGY PREDICTED BY IDOCK:   -4.69 KCAL/MOL
REMARK 923 INTER-LIGAND FREE ENERGY PREDICTED BY IDOCK:   -5.05 KCAL/MOL
REMARK 924 INTRA-LIGAND FREE ENERGY PREDICTED BY IDOCK:    0.36 KCAL/MOL
REMARK 927      BINDING AFFINITY PREDICTED BY RF-SCORE:    0.00 PKD
ROOT
HETATM    1  C   UNL     1     -12.780  13.986  67.540  1.00  0.00     0.750 C  
HETATM    2  N   UNL     1     -11.578  14.409  68.258  1.00  0.00    -0.310 NA 
HETATM    3  C   UNL     1     -11.842  15.548  69.147  1.00  0.00    -0.354 C  
HETATM    4  C   UNL     1     -12.595  15.183  70.428  1.00  0.00    -0.405 C  
HETATM    5  C   UNL     1     -11.929  14.027  71.162  1.00  0.00    -0.257 C  
HETATM    6  C   UNL     1     -11.676  12.856  70.219  1.00  0.00    -0.187 C  
HETATM    7  C   UNL     1     -10.915  13.273  68.949  1.00  0.00    -0.240 C  
ENDROOT
BRANCH   7   8
HETATM    8  C   UNL     1      -9.446  13.655  69.224  1.00  0.00     0.572 C  
BRANCH   8   9
HETATM    9  C   UNL     1      -8.509  13.707  67.999  1.00  0.00    -0.174 C  
BRANCH   9  10
HETATM   10  N   UNL     1      -9.151  13.391  66.692  1.00  0.00    -0.210 NA 
HETATM   11  C   UNL     1      -9.188  12.029  66.255  1.00  0.00    -0.206 A  
HETATM   12  C   UNL     1      -9.926  11.635  65.118  1.00  0.00    -0.259 A  
HETATM   13  S   UNL     1     -10.822  12.751  64.071  1.00  0.00    -0.420 SA 
HETATM   14  C   UNL     1     -10.002  10.279  64.719  1.00  0.00    -0.392 A  
HETATM   15  C   UNL     1      -9.344   9.281  65.422  1.00  0.00    -0.292 A  
HETATM   16  C   UNL     1     -10.520  14.320  64.834  1.00  0.00    -0.430 A  
HETATM   17  C   UNL     1      -8.579   9.639  66.516  1.00  0.00    -0.135 A  
HETATM   18  C   UNL     1      -9.748  14.496  65.997  1.00  0.00    -0.303 A  
HETATM   19  C   UNL     1      -9.616  15.833  66.444  1.00  0.00    -0.311 A  
HETATM   20  C   UNL     1      -8.492  10.984  66.908  1.00  0.00    -0.139 A  
HETATM   21  C   UNL     1     -10.309  16.909  65.868  1.00  0.00    -0.315 A  
HETATM   22  C   UNL     1     -11.143  15.415  64.197  1.00  0.00     0.266 A  
HETATM   23  C   UNL     1     -11.059  16.700  64.722  1.00  0.00    -0.120 A  
BRANCH  21  24
HETATM   24  S   UNL     1     -10.261  18.553  66.623  1.00  0.00    -0.420 S  
HETATM   25  O   UNL     1     -10.859  19.489  65.612  1.00  0.00    -0.458 OA 
HETATM   26  C   UNL     1      -8.459  18.779  66.551  1.00  0.00    -0.301 C  
ENDBRANCH  21  24
ENDBRANCH   9  10
ENDBRANCH   8   9
ENDBRANCH   7   8
TORSDOF 4
ENDMDL
MODEL      164
REMARK 921   NORMALIZED FREE ENERGY PREDICTED BY IDOCK:   -3.14 KCAL/MOL
REMARK 922        TOTAL FREE ENERGY PREDICTED BY IDOCK:   -4.65 KCAL/MOL
REMARK 923 INTER-LIGAND FREE ENERGY PREDICTED BY IDOCK:   -3.99 KCAL/MOL
REMARK 924 INTRA-LIGAND FREE ENERGY PREDICTED BY IDOCK:   -0.65 KCAL/MOL
REMARK 927      BINDING AFFINITY PREDICTED BY RF-SCORE:    0.00 PKD
ROOT
HETATM    1  C   UNL     1     -11.434   6.302  69.398  1.00  0.00    -0.278 C  
HETATM    2  N   UNL     1     -10.453   7.259  69.910  1.00  0.00    -0.220 NA 
HETATM    3  C   UNL     1     -11.096   8.397  70.580  1.00  0.00    -0.252 C  
HETATM    4  C   UNL     1     -11.650   8.077  71.968  1.00  0.00    -0.369 C  
HETATM    5  C   UNL     1     -10.606   7.408  72.852  1.00  0.00    -0.370 C  
HETATM    6  C   UNL     1      -9.963   6.225  72.136  1.00  0.00    -0.184 C  
HETATM    7  C   UNL     1      -9.419   6.599  70.747  1.00  0.00    -0.168 C  
ENDROOT
BRANCH   7   8
HETATM    8  C   UNL     1      -8.180   7.516  70.811  1.00  0.00    -0.110 C  
BRANCH   8   9
HETATM    9  C   UNL     1      -7.150   7.358  69.673  1.00  0.00    -0.072 C  
BRANCH   9  10
HETATM   10  N   UNL     1      -7.643   7.716  68.314  1.00  0.00    -0.111 NA 
HETATM   11  C   UNL     1      -7.693   9.096  67.942  1.00  0.00    -0.093 A  
HETATM   12  C   UNL     1      -7.983   9.498  66.620  1.00  0.00    -0.108 A  
HETATM   13  S   UNL     1      -8.383   8.382  65.301  1.00  0.00    -0.157 SA 
HETATM   14  C   UNL     1      -7.981  10.862  66.244  1.00  0.00    -0.161 A  
HETATM   15  C   UNL     1      -7.703  11.864  67.161  1.00  0.00    -0.163 A  
HETATM   16  C   UNL     1      -8.301   6.802  66.095  1.00  0.00    -0.130 A  
HETATM   17  C   UNL     1      -7.455  11.507  68.473  1.00  0.00    -0.115 A  
HETATM   18  C   UNL     1      -7.974   6.617  67.451  1.00  0.00    -0.114 A  
HETATM   19  C   UNL     1      -7.973   5.275  67.900  1.00  0.00    -0.095 A  
HETATM   20  C   UNL     1      -7.468  10.156  68.852  1.00  0.00    -0.086 A  
HETATM   21  C   UNL     1      -8.149   4.176  67.043  1.00  0.00    -0.100 A  
HETATM   22  C   UNL     1      -8.571   5.703  65.252  1.00  0.00    -0.141 A  
HETATM   23  C   UNL     1      -8.472   4.395  65.715  1.00  0.00    -0.114 A  
BRANCH  21  24
HETATM   24  S   UNL     1      -7.923   2.485  67.646  1.00  0.00    -0.064 S  
HETATM   25  O   UNL     1      -9.302   1.953  67.912  1.00  0.00    -0.173 OA 
HETATM   26  C   UNL     1      -7.204   2.918  69.258  1.00  0.00    -0.044 C  
ENDBRANCH  21  24
ENDBRANCH   9  10
ENDBRANCH   8   9
ENDBRANCH   7   8
TORSDOF 4
ENDMDL
MODEL      165
REMARK 921   NORMALIZED FREE ENERGY PREDICTED BY IDOCK:   -3.11 KCAL/MOL
REMARK 922        TOTAL FREE ENERGY PREDICTED BY IDOCK:   -4.61 KCAL/MOL
REMARK 923 INTER-LIGAND FREE ENERGY PREDICTED BY IDOCK:   -4.26 KCAL/MOL
REMARK 924 INTRA-LIGAND FREE ENERGY PREDICTED BY IDOCK:   -0.35 KCAL/MOL
REMARK 927      BINDING AFFINITY PREDICTED BY RF-SCORE:    0.00 PKD
ROOT
HETATM    1  C   UNL     1      -8.155   7.868  62.777  1.00  0.00    -0.130 C  
HETATM    2  N   UNL     1      -8.240   7.149  64.049  1.00  0.00    -0.007 NA 
HETATM    3  C   UNL     1      -7.315   6.009  64.097  1.00  0.00    -0.069 C  
HETATM    4  C   UNL     1      -5.851   6.397  64.305  1.00  0.00    -0.023 C  
HETATM    5  C   UNL     1      -5.678   7.326  65.500  1.00  0.00    -0.036 C  
HETATM    6  C   UNL     1      -6.642   8.504  65.418  1.00  0.00    -0.059 C  
HETATM    7  C   UNL     1      -8.101   8.062  65.212  1.00  0.00    -0.138 C  
ENDROOT
BRANCH   7   8
HETATM    8  C   UNL     1      -8.703   7.372  66.453  1.00  0.00    -0.154 C  
BRANCH   8   9
HETATM    9  C   UNL     1      -7.985   7.625  67.795  1.00  0.00    -0.121 C  
BRANCH   9  10
HETATM   10  N   UNL     1      -8.783   7.312  69.013  1.00  0.00    -0.133 NA 
HETATM   11  C   UNL     1      -8.547   6.073  69.690  1.00  0.00    -0.126 A  
HETATM   12  C   UNL     1      -9.138   5.786  70.939  1.00  0.00    -0.145 A  
HETATM   13  S   UNL     1     -10.274   6.860  71.778  1.00  0.00    -0.188 SA 
HETATM   14  C   UNL     1      -8.863   4.582  71.629  1.00  0.00    -0.145 A  
HETATM   15  C   UNL     1      -8.007   3.627  71.102  1.00  0.00    -0.059 A  
HETATM   16  C   UNL     1     -10.396   8.234  70.667  1.00  0.00    -0.199 A  
HETATM   17  C   UNL     1      -7.443   3.859  69.861  1.00  0.00    -0.048 A  
HETATM   18  C   UNL     1      -9.696   8.329  69.450  1.00  0.00    -0.177 A  
HETATM   19  C   UNL     1      -9.938   9.504  68.699  1.00  0.00    -0.181 A  
HETATM   20  C   UNL     1      -7.724   5.047  69.169  1.00  0.00    -0.076 A  
HETATM   21  C   UNL     1     -10.711  10.576  69.173  1.00  0.00    -0.231 A  
HETATM   22  C   UNL     1     -11.248   9.271  71.104  1.00  0.00    -0.413 A  
HETATM   23  C   UNL     1     -11.388  10.447  70.374  1.00  0.00    -0.417 A  
BRANCH  21  24
HETATM   24  S   UNL     1     -10.802  12.132  68.253  1.00  0.00    -0.237 S  
HETATM   25  O   UNL     1     -12.045  12.044  67.417  1.00  0.00    -0.566 OA 
HETATM   26  C   UNL     1      -9.397  11.816  67.144  1.00  0.00    -0.177 C  
ENDBRANCH  21  24
ENDBRANCH   9  10
ENDBRANCH   8   9
ENDBRANCH   7   8
TORSDOF 4
ENDMDL
MODEL      166
REMARK 921   NORMALIZED FREE ENERGY PREDICTED BY IDOCK:   -3.10 KCAL/MOL
REMARK 922        TOTAL FREE ENERGY PREDICTED BY IDOCK:   -4.60 KCAL/MOL
REMARK 923 INTER-LIGAND FREE ENERGY PREDICTED BY IDOCK:   -4.53 KCAL/MOL
REMARK 924 INTRA-LIGAND FREE ENERGY PREDICTED BY IDOCK:   -0.07 KCAL/MOL
REMARK 927      BINDING AFFINITY PREDICTED BY RF-SCORE:    0.00 PKD
ROOT
HETATM    1  C   UNL     1      -8.762   8.171  73.262  1.00  0.00    -0.246 C  
HETATM    2  N   UNL     1      -7.757   8.346  72.213  1.00  0.00    -0.200 NA 
HETATM    3  C   UNL     1      -6.800   7.232  72.179  1.00  0.00    -0.059 C  
HETATM    4  C   UNL     1      -7.355   5.947  71.564  1.00  0.00    -0.088 C  
HETATM    5  C   UNL     1      -7.987   6.200  70.202  1.00  0.00    -0.107 C  
HETATM    6  C   UNL     1      -8.982   7.354  70.269  1.00  0.00    -0.147 C  
HETATM    7  C   UNL     1      -8.375   8.623  70.892  1.00  0.00    -0.157 C  
ENDROOT
BRANCH   7   8
HETATM    8  C   UNL     1      -7.323   9.295  69.987  1.00  0.00    -0.083 C  
BRANCH   8   9
HETATM    9  C   UNL     1      -7.731  10.631  69.333  1.00  0.00    -0.129 C  
BRANCH   9  10
HETATM   10  N   UNL     1      -8.460  10.511  68.039  1.00  0.00    -0.118 NA 
HETATM   11  C   UNL     1      -8.160   9.406  67.182  1.00  0.00    -0.102 A  
HETATM   12  C   UNL     1      -8.926   9.134  66.028  1.00  0.00    -0.181 A  
HETATM   13  S   UNL     1     -10.278  10.135  65.466  1.00  0.00    -0.135 SA 
HETATM   14  C   UNL     1      -8.659   8.010  65.210  1.00  0.00    -0.112 A  
HETATM   15  C   UNL     1      -7.625   7.134  65.502  1.00  0.00    -0.098 A  
HETATM   16  C   UNL     1     -10.336  11.421  66.682  1.00  0.00    -0.233 A  
HETATM   17  C   UNL     1      -6.830   7.395  66.602  1.00  0.00    -0.062 A  
HETATM   18  C   UNL     1      -9.467  11.502  67.787  1.00  0.00    -0.168 A  
HETATM   19  C   UNL     1      -9.669  12.613  68.639  1.00  0.00    -0.050 A  
HETATM   20  C   UNL     1      -7.084   8.515  67.408  1.00  0.00    -0.080 A  
HETATM   21  C   UNL     1     -10.738  13.512  68.495  1.00  0.00    -0.255 A  
HETATM   22  C   UNL     1     -11.355  12.377  66.482  1.00  0.00    -0.392 A  
HETATM   23  C   UNL     1     -11.572  13.403  67.394  1.00  0.00    -0.394 A  
BRANCH  21  24
HETATM   24  S   UNL     1     -11.058  14.781  69.744  1.00  0.00    -0.234 S  
HETATM   25  O   UNL     1     -12.448  14.520  70.250  1.00  0.00    -0.333 OA 
HETATM   26  C   UNL     1     -11.167  16.192  68.605  1.00  0.00    -0.369 C  
ENDBRANCH  21  24
ENDBRANCH   9  10
ENDBRANCH   8   9
ENDBRANCH   7   8
TORSDOF 4
ENDMDL
MODEL      167
REMARK 921   NORMALIZED FREE ENERGY PREDICTED BY IDOCK:   -3.02 KCAL/MOL
REMARK 922        TOTAL FREE ENERGY PREDICTED BY IDOCK:   -4.50 KCAL/MOL
REMARK 923 INTER-LIGAND FREE ENERGY PREDICTED BY IDOCK:   -4.66 KCAL/MOL
REMARK 924 INTRA-LIGAND FREE ENERGY PREDICTED BY IDOCK:    0.16 KCAL/MOL
REMARK 927      BINDING AFFINITY PREDICTED BY RF-SCORE:    0.00 PKD
ROOT
HETATM    1  C   UNL     1      -8.997   9.685  63.754  1.00  0.00    -0.217 C  
HETATM    2  N   UNL     1      -8.205   9.281  64.916  1.00  0.00    -0.136 NA 
HETATM    3  C   UNL     1      -7.412  10.395  65.453  1.00  0.00    -0.127 C  
HETATM    4  C   UNL     1      -8.226  11.421  66.243  1.00  0.00    -0.088 C  
HETATM    5  C   UNL     1      -9.080  10.758  67.315  1.00  0.00    -0.151 C  
HETATM    6  C   UNL     1      -9.899   9.613  66.729  1.00  0.00    -0.270 C  
HETATM    7  C   UNL     1      -9.036   8.608  65.947  1.00  0.00    -0.205 C  
ENDROOT
BRANCH   7   8
HETATM    8  C   UNL     1      -8.112   7.773  66.855  1.00  0.00    -0.116 C  
BRANCH   8   9
HETATM    9  C   UNL     1      -8.335   7.911  68.376  1.00  0.00    -0.124 C  
BRANCH   9  10
HETATM   10  N   UNL     1      -8.863   6.695  69.055  1.00  0.00    -0.129 NA 
HETATM   11  C   UNL     1      -8.223   5.439  68.811  1.00  0.00    -0.094 A  
HETATM   12  C   UNL     1      -8.557   4.281  69.547  1.00  0.00    -0.076 A  
HETATM   13  S   UNL     1      -9.823   4.215  70.786  1.00  0.00    -0.130 SA 
HETATM   14  C   UNL     1      -7.886   3.052  69.338  1.00  0.00    -0.052 A  
HETATM   15  C   UNL     1      -6.879   2.931  68.392  1.00  0.00    -0.048 A  
HETATM   16  C   UNL     1     -10.445   5.873  70.791  1.00  0.00    -0.248 A  
HETATM   17  C   UNL     1      -6.557   4.035  67.626  1.00  0.00    -0.042 A  
HETATM   18  C   UNL     1      -9.952   6.902  69.967  1.00  0.00    -0.180 A  
HETATM   19  C   UNL     1     -10.591   8.157  70.112  1.00  0.00    -0.237 A  
HETATM   20  C   UNL     1      -7.228   5.252  67.823  1.00  0.00    -0.071 A  
HETATM   21  C   UNL     1     -11.556   8.420  71.097  1.00  0.00    -0.279 A  
HETATM   22  C   UNL     1     -11.481   6.112  71.719  1.00  0.00    -0.342 A  
HETATM   23  C   UNL     1     -12.019   7.383  71.890  1.00  0.00    -0.337 A  
BRANCH  21  24
HETATM   24  S   UNL     1     -12.172  10.101  71.366  1.00  0.00    -0.391 S  
HETATM   25  O   UNL     1     -13.653   9.969  71.573  1.00  0.00    -0.299 OA 
HETATM   26  C   UNL     1     -11.928  10.700  69.667  1.00  0.00    -0.268 C  
ENDBRANCH  21  24
ENDBRANCH   9  10
ENDBRANCH   8   9
ENDBRANCH   7   8
TORSDOF 4
ENDMDL
MODEL      168
REMARK 921   NORMALIZED FREE ENERGY PREDICTED BY IDOCK:   -3.00 KCAL/MOL
REMARK 922        TOTAL FREE ENERGY PREDICTED BY IDOCK:   -4.48 KCAL/MOL
REMARK 923 INTER-LIGAND FREE ENERGY PREDICTED BY IDOCK:   -3.92 KCAL/MOL
REMARK 924 INTRA-LIGAND FREE ENERGY PREDICTED BY IDOCK:   -0.56 KCAL/MOL
REMARK 927      BINDING AFFINITY PREDICTED BY RF-SCORE:    0.00 PKD
ROOT
HETATM    1  C   UNL     1     -10.618  13.461  64.135  1.00  0.00    -0.236 C  
HETATM    2  N   UNL     1     -10.906  12.079  64.519  1.00  0.00    -0.297 NA 
HETATM    3  C   UNL     1     -11.133  11.220  63.349  1.00  0.00    -0.096 C  
HETATM    4  C   UNL     1      -9.860  10.845  62.590  1.00  0.00    -0.178 C  
HETATM    5  C   UNL     1      -8.796  10.275  63.520  1.00  0.00    -0.232 C  
HETATM    6  C   UNL     1      -8.574  11.191  64.719  1.00  0.00     0.185 C  
HETATM    7  C   UNL     1      -9.883  11.537  65.450  1.00  0.00    -0.235 C  
ENDROOT
BRANCH   7   8
HETATM    8  C   UNL     1     -10.490  10.335  66.201  1.00  0.00    -0.200 C  
BRANCH   8   9
HETATM    9  C   UNL     1     -10.293  10.312  67.732  1.00  0.00    -0.204 C  
BRANCH   9  10
HETATM   10  N   UNL     1      -8.963  10.781  68.210  1.00  0.00    -0.137 NA 
HETATM   11  C   UNL     1      -7.891   9.838  68.295  1.00  0.00    -0.089 A  
HETATM   12  C   UNL     1      -6.568  10.242  68.574  1.00  0.00    -0.052 A  
HETATM   13  S   UNL     1      -6.084  11.914  68.914  1.00  0.00    -0.068 SA 
HETATM   14  C   UNL     1      -5.501   9.313  68.607  1.00  0.00    -0.040 A  
HETATM   15  C   UNL     1      -5.713   7.962  68.377  1.00  0.00    -0.032 A  
HETATM   16  C   UNL     1      -7.619  12.790  68.799  1.00  0.00    -0.025 A  
HETATM   17  C   UNL     1      -7.003   7.527  68.142  1.00  0.00    -0.072 A  
HETATM   18  C   UNL     1      -8.851  12.184  68.491  1.00  0.00    -0.079 A  
HETATM   19  C   UNL     1      -9.966  13.056  68.458  1.00  0.00    -0.174 A  
HETATM   20  C   UNL     1      -8.065   8.444  68.120  1.00  0.00    -0.120 A  
HETATM   21  C   UNL     1      -9.858  14.450  68.584  1.00  0.00    -0.231 A  
HETATM   22  C   UNL     1      -7.522  14.181  69.019  1.00  0.00    -0.082 A  
HETATM   23  C   UNL     1      -8.630  15.011  68.889  1.00  0.00    -0.189 A  
BRANCH  21  24
HETATM   24  S   UNL     1     -11.294  15.518  68.317  1.00  0.00    -0.353 S  
HETATM   25  O   UNL     1     -12.087  15.471  69.591  1.00  0.00    -0.351 OA 
HETATM   26  C   UNL     1     -12.149  14.448  67.123  1.00  0.00    -0.333 C  
ENDBRANCH  21  24
ENDBRANCH   9  10
ENDBRANCH   8   9
ENDBRANCH   7   8
TORSDOF 4
ENDMDL
MODEL      169
REMARK 921   NORMALIZED FREE ENERGY PREDICTED BY IDOCK:   -2.98 KCAL/MOL
REMARK 922        TOTAL FREE ENERGY PREDICTED BY IDOCK:   -4.45 KCAL/MOL
REMARK 923 INTER-LIGAND FREE ENERGY PREDICTED BY IDOCK:   -4.04 KCAL/MOL
REMARK 924 INTRA-LIGAND FREE ENERGY PREDICTED BY IDOCK:   -0.41 KCAL/MOL
REMARK 927      BINDING AFFINITY PREDICTED BY RF-SCORE:    0.00 PKD
ROOT
HETATM    1  C   UNL     1     -11.863   9.726  71.298  1.00  0.00    -0.399 C  
HETATM    2  N   UNL     1     -10.832   8.781  70.868  1.00  0.00    -0.226 NA 
HETATM    3  C   UNL     1      -9.880   8.479  71.945  1.00  0.00    -0.288 C  
HETATM    4  C   UNL     1     -10.428   7.540  73.020  1.00  0.00    -0.396 C  
HETATM    5  C   UNL     1     -11.025   6.277  72.415  1.00  0.00    -0.291 C  
HETATM    6  C   UNL     1     -12.015   6.620  71.307  1.00  0.00    -0.409 C  
HETATM    7  C   UNL     1     -11.417   7.564  70.250  1.00  0.00    -0.152 C  
ENDROOT
BRANCH   7   8
HETATM    8  C   UNL     1     -10.340   6.888  69.378  1.00  0.00    -0.220 C  
BRANCH   8   9
HETATM    9  C   UNL     1      -9.842   7.689  68.157  1.00  0.00    -0.164 C  
BRANCH   9  10
HETATM   10  N   UNL     1      -8.614   8.501  68.385  1.00  0.00    -0.138 NA 
HETATM   11  C   UNL     1      -8.676   9.914  68.175  1.00  0.00    -0.122 A  
HETATM   12  C   UNL     1      -7.608  10.764  68.534  1.00  0.00    -0.104 A  
HETATM   13  S   UNL     1      -6.066  10.203  69.208  1.00  0.00    -0.038 SA 
HETATM   14  C   UNL     1      -7.692  12.168  68.372  1.00  0.00    -0.134 A  
HETATM   15  C   UNL     1      -8.825  12.767  67.843  1.00  0.00    -0.186 A  
HETATM   16  C   UNL     1      -6.291   8.448  69.272  1.00  0.00    -0.038 A  
HETATM   17  C   UNL     1      -9.873  11.959  67.444  1.00  0.00    -0.192 A  
HETATM   18  C   UNL     1      -7.466   7.788  68.867  1.00  0.00    -0.095 A  
HETATM   19  C   UNL     1      -7.443   6.378  68.987  1.00  0.00    -0.095 A  
HETATM   20  C   UNL     1      -9.788  10.567  67.592  1.00  0.00    -0.192 A  
HETATM   21  C   UNL     1      -6.391   5.672  69.591  1.00  0.00    -0.037 A  
HETATM   22  C   UNL     1      -5.192   7.732  69.794  1.00  0.00    -0.023 A  
HETATM   23  C   UNL     1      -5.249   6.354  69.976  1.00  0.00    -0.014 A  
BRANCH  21  24
HETATM   24  S   UNL     1      -6.525   3.895  69.904  1.00  0.00    -0.033 S  
HETATM   25  O   UNL     1      -7.981   3.628  70.152  1.00  0.00    -0.047 OA 
HETATM   26  C   UNL     1      -5.704   3.892  71.525  1.00  0.00    -0.009 C  
ENDBRANCH  21  24
ENDBRANCH   9  10
ENDBRANCH   8   9
ENDBRANCH   7   8
TORSDOF 4
ENDMDL
MODEL      170
REMARK 921   NORMALIZED FREE ENERGY PREDICTED BY IDOCK:   -2.84 KCAL/MOL
REMARK 922        TOTAL FREE ENERGY PREDICTED BY IDOCK:   -4.28 KCAL/MOL
REMARK 923 INTER-LIGAND FREE ENERGY PREDICTED BY IDOCK:   -3.53 KCAL/MOL
REMARK 924 INTRA-LIGAND FREE ENERGY PREDICTED BY IDOCK:   -0.75 KCAL/MOL
REMARK 927      BINDING AFFINITY PREDICTED BY RF-SCORE:    0.00 PKD
ROOT
HETATM    1  C   UNL     1     -11.035   5.967  67.225  1.00  0.00    -0.261 C  
HETATM    2  N   UNL     1     -10.139   6.624  68.177  1.00  0.00    -0.150 NA 
HETATM    3  C   UNL     1     -10.878   7.397  69.183  1.00  0.00    -0.111 C  
HETATM    4  C   UNL     1     -11.552   6.544  70.259  1.00  0.00    -0.473 C  
HETATM    5  C   UNL     1     -10.575   5.563  70.895  1.00  0.00    -0.309 C  
HETATM    6  C   UNL     1      -9.829   4.768  69.829  1.00  0.00    -0.288 C  
HETATM    7  C   UNL     1      -9.167   5.670  68.773  1.00  0.00    -0.118 C  
ENDROOT
BRANCH   7   8
HETATM    8  C   UNL     1      -7.971   6.470  69.327  1.00  0.00    -0.111 C  
BRANCH   8   9
HETATM    9  C   UNL     1      -6.852   6.815  68.322  1.00  0.00    -0.077 C  
BRANCH   9  10
HETATM   10  N   UNL     1      -7.139   7.966  67.420  1.00  0.00    -0.081 NA 
HETATM   11  C   UNL     1      -7.034   9.293  67.944  1.00  0.00    -0.077 A  
HETATM   12  C   UNL     1      -7.123  10.428  67.111  1.00  0.00    -0.090 A  
HETATM   13  S   UNL     1      -7.436  10.366  65.366  1.00  0.00    -0.092 SA 
HETATM   14  C   UNL     1      -6.967  11.738  67.625  1.00  0.00    -0.103 A  
HETATM   15  C   UNL     1      -6.732  11.961  68.973  1.00  0.00    -0.099 A  
HETATM   16  C   UNL     1      -7.579   8.628  65.063  1.00  0.00    -0.098 A  
HETATM   17  C   UNL     1      -6.681  10.873  69.823  1.00  0.00    -0.144 A  
HETATM   18  C   UNL     1      -7.441   7.640  66.056  1.00  0.00    -0.082 A  
HETATM   19  C   UNL     1      -7.602   6.305  65.612  1.00  0.00    -0.085 A  
HETATM   20  C   UNL     1      -6.846   9.574  69.319  1.00  0.00    -0.049 A  
HETATM   21  C   UNL     1      -7.751   5.955  64.261  1.00  0.00    -0.106 A  
HETATM   22  C   UNL     1      -7.823   8.282  63.716  1.00  0.00    -0.152 A  
HETATM   23  C   UNL     1      -7.885   6.953  63.311  1.00  0.00    -0.104 A  
BRANCH  21  24
HETATM   24  S   UNL     1      -7.734   4.220  63.746  1.00  0.00    -0.076 S  
HETATM   25  O   UNL     1      -8.450   4.175  62.427  1.00  0.00    -0.075 OA 
HETATM   26  C   UNL     1      -8.898   3.605  64.999  1.00  0.00    -0.123 C  
ENDBRANCH  21  24
ENDBRANCH   9  10
ENDBRANCH   8   9
ENDBRANCH   7   8
TORSDOF 4
ENDMDL
MODEL      171
REMARK 921   NORMALIZED FREE ENERGY PREDICTED BY IDOCK:   -2.84 KCAL/MOL
REMARK 922        TOTAL FREE ENERGY PREDICTED BY IDOCK:   -4.27 KCAL/MOL
REMARK 923 INTER-LIGAND FREE ENERGY PREDICTED BY IDOCK:   -4.44 KCAL/MOL
REMARK 924 INTRA-LIGAND FREE ENERGY PREDICTED BY IDOCK:    0.17 KCAL/MOL
REMARK 927      BINDING AFFINITY PREDICTED BY RF-SCORE:    0.00 PKD
ROOT
HETATM    1  C   UNL     1     -11.774   9.656  71.317  1.00  0.00    -0.382 C  
HETATM    2  N   UNL     1     -11.119   8.425  70.875  1.00  0.00    -0.249 NA 
HETATM    3  C   UNL     1     -10.072   7.994  71.810  1.00  0.00    -0.191 C  
HETATM    4  C   UNL     1     -10.603   7.362  73.097  1.00  0.00    -0.424 C  
HETATM    5  C   UNL     1     -11.605   6.252  72.809  1.00  0.00    -0.141 C  
HETATM    6  C   UNL     1     -12.685   6.730  71.844  1.00  0.00    -0.298 C  
HETATM    7  C   UNL     1     -12.101   7.354  70.565  1.00  0.00    -0.055 C  
ENDROOT
BRANCH   7   8
HETATM    8  C   UNL     1     -11.425   6.320  69.643  1.00  0.00    -0.425 C  
BRANCH   8   9
HETATM    9  C   UNL     1     -10.641   6.882  68.439  1.00  0.00    -0.210 C  
BRANCH   9  10
HETATM   10  N   UNL     1      -9.183   6.578  68.431  1.00  0.00    -0.122 NA 
HETATM   11  C   UNL     1      -8.711   5.449  69.172  1.00  0.00    -0.101 A  
HETATM   12  C   UNL     1      -7.377   5.001  69.073  1.00  0.00    -0.057 A  
HETATM   13  S   UNL     1      -6.125   5.796  68.099  1.00  0.00    -0.018 SA 
HETATM   14  C   UNL     1      -6.927   3.853  69.768  1.00  0.00    -0.042 A  
HETATM   15  C   UNL     1      -7.778   3.126  70.587  1.00  0.00    -0.043 A  
HETATM   16  C   UNL     1      -7.001   7.159  67.385  1.00  0.00    -0.079 A  
HETATM   17  C   UNL     1      -9.081   3.561  70.738  1.00  0.00    -0.181 A  
HETATM   18  C   UNL     1      -8.365   7.425  67.610  1.00  0.00    -0.118 A  
HETATM   19  C   UNL     1      -8.877   8.571  66.956  1.00  0.00    -0.144 A  
HETATM   20  C   UNL     1      -9.526   4.706  70.059  1.00  0.00    -0.242 A  
HETATM   21  C   UNL     1      -8.136   9.328  66.035  1.00  0.00    -0.110 A  
HETATM   22  C   UNL     1      -6.228   7.975  66.531  1.00  0.00    -0.050 A  
HETATM   23  C   UNL     1      -6.796   9.039  65.840  1.00  0.00    -0.080 A  
BRANCH  21  24
HETATM   24  S   UNL     1      -8.920  10.648  65.077  1.00  0.00    -0.197 S  
HETATM   25  O   UNL     1     -10.390  10.546  65.359  1.00  0.00    -0.278 OA 
HETATM   26  C   UNL     1      -8.646   9.922  63.433  1.00  0.00    -0.205 C  
ENDBRANCH  21  24
ENDBRANCH   9  10
ENDBRANCH   8   9
ENDBRANCH   7   8
TORSDOF 4
ENDMDL
MODEL      172
REMARK 921   NORMALIZED FREE ENERGY PREDICTED BY IDOCK:   -2.83 KCAL/MOL
REMARK 922        TOTAL FREE ENERGY PREDICTED BY IDOCK:   -4.27 KCAL/MOL
REMARK 923 INTER-LIGAND FREE ENERGY PREDICTED BY IDOCK:   -5.00 KCAL/MOL
REMARK 924 INTRA-LIGAND FREE ENERGY PREDICTED BY IDOCK:    0.73 KCAL/MOL
REMARK 927      BINDING AFFINITY PREDICTED BY RF-SCORE:    0.00 PKD
ROOT
HETATM    1  C   UNL     1     -10.222   7.189  73.221  1.00  0.00    -0.300 C  
HETATM    2  N   UNL     1      -9.551   7.305  71.926  1.00  0.00    -0.149 NA 
HETATM    3  C   UNL     1      -8.207   6.711  71.949  1.00  0.00    -0.103 C  
HETATM    4  C   UNL     1      -8.197   5.182  71.924  1.00  0.00    -0.117 C  
HETATM    5  C   UNL     1      -9.047   4.631  70.787  1.00  0.00    -0.181 C  
HETATM    6  C   UNL     1     -10.437   5.256  70.794  1.00  0.00    -0.298 C  
HETATM    7  C   UNL     1     -10.394   6.794  70.815  1.00  0.00    -0.204 C  
ENDROOT
BRANCH   7   8
HETATM    8  C   UNL     1      -9.887   7.402  69.492  1.00  0.00    -0.165 C  
BRANCH   8   9
HETATM    9  C   UNL     1      -9.993   8.935  69.356  1.00  0.00    -0.192 C  
BRANCH   9  10
HETATM   10  N   UNL     1     -10.021   9.450  67.958  1.00  0.00    -0.168 NA 
HETATM   11  C   UNL     1     -10.570  10.748  67.714  1.00  0.00    -0.228 A  
HETATM   12  C   UNL     1     -10.474  11.368  66.450  1.00  0.00    -0.254 A  
HETATM   13  S   UNL     1      -9.745  10.615  65.020  1.00  0.00    -0.307 SA 
HETATM   14  C   UNL     1     -10.972  12.674  66.226  1.00  0.00    -0.314 A  
HETATM   15  C   UNL     1     -11.586  13.396  67.238  1.00  0.00    -0.400 A  
HETATM   16  C   UNL     1      -9.241   9.032  65.633  1.00  0.00    -0.225 A  
HETATM   17  C   UNL     1     -11.733  12.802  68.477  1.00  0.00    -0.371 A  
HETATM   18  C   UNL     1      -9.424   8.606  66.962  1.00  0.00    -0.171 A  
HETATM   19  C   UNL     1      -8.963   7.300  67.252  1.00  0.00    -0.126 A  
HETATM   20  C   UNL     1     -11.250  11.503  68.699  1.00  0.00    -0.307 A  
HETATM   21  C   UNL     1      -8.246   6.515  66.335  1.00  0.00    -0.116 A  
HETATM   22  C   UNL     1      -8.603   8.207  64.682  1.00  0.00     0.035 A  
HETATM   23  C   UNL     1      -8.087   6.965  65.034  1.00  0.00    -0.117 A  
BRANCH  21  24
HETATM   24  S   UNL     1      -7.501   4.946  66.841  1.00  0.00    -0.088 S  
HETATM   25  O   UNL     1      -6.067   5.009  66.400  1.00  0.00    -0.028 OA 
HETATM   26  C   UNL     1      -8.375   3.890  65.647  1.00  0.00    -0.109 C  
ENDBRANCH  21  24
ENDBRANCH   9  10
ENDBRANCH   8   9
ENDBRANCH   7   8
TORSDOF 4
ENDMDL
MODEL      173
REMARK 921   NORMALIZED FREE ENERGY PREDICTED BY IDOCK:   -2.78 KCAL/MOL
REMARK 922        TOTAL FREE ENERGY PREDICTED BY IDOCK:   -4.21 KCAL/MOL
REMARK 923 INTER-LIGAND FREE ENERGY PREDICTED BY IDOCK:   -3.74 KCAL/MOL
REMARK 924 INTRA-LIGAND FREE ENERGY PREDICTED BY IDOCK:   -0.47 KCAL/MOL
REMARK 927      BINDING AFFINITY PREDICTED BY RF-SCORE:    0.00 PKD
ROOT
HETATM    1  C   UNL     1      -9.976   9.814  70.185  1.00  0.00    -0.263 C  
HETATM    2  N   UNL     1      -9.734   8.668  71.062  1.00  0.00    -0.192 NA 
HETATM    3  C   UNL     1     -10.688   8.621  72.178  1.00  0.00    -0.347 C  
HETATM    4  C   UNL     1     -12.089   8.148  71.787  1.00  0.00    -0.357 C  
HETATM    5  C   UNL     1     -12.045   6.836  71.015  1.00  0.00    -0.426 C  
HETATM    6  C   UNL     1     -11.056   6.916  69.858  1.00  0.00    -0.333 C  
HETATM    7  C   UNL     1      -9.663   7.393  70.303  1.00  0.00    -0.172 C  
ENDROOT
BRANCH   7   8
HETATM    8  C   UNL     1      -8.914   6.353  71.160  1.00  0.00    -0.146 C  
BRANCH   8   9
HETATM    9  C   UNL     1      -9.397   4.892  71.043  1.00  0.00    -0.153 C  
BRANCH   9  10
HETATM   10  N   UNL     1      -8.319   3.873  70.912  1.00  0.00    -0.070 NA 
HETATM   11  C   UNL     1      -7.680   3.391  72.098  1.00  0.00    -0.058 A  
HETATM   12  C   UNL     1      -6.776   2.307  72.066  1.00  0.00    -0.015 A  
HETATM   13  S   UNL     1      -6.272   1.470  70.586  1.00  0.00    -0.023 SA 
HETATM   14  C   UNL     1      -6.186   1.800  73.248  1.00  0.00    -0.008 A  
HETATM   15  C   UNL     1      -6.464   2.353  74.489  1.00  0.00    -0.017 A  
HETATM   16  C   UNL     1      -7.169   2.335  69.329  1.00  0.00    -0.043 A  
HETATM   17  C   UNL     1      -7.314   3.442  74.551  1.00  0.00    -0.053 A  
HETATM   18  C   UNL     1      -8.049   3.405  69.582  1.00  0.00    -0.048 A  
HETATM   19  C   UNL     1      -8.662   3.971  68.440  1.00  0.00    -0.126 A  
HETATM   20  C   UNL     1      -7.891   3.955  73.379  1.00  0.00    -0.084 A  
HETATM   21  C   UNL     1      -8.528   3.438  67.148  1.00  0.00    -0.102 A  
HETATM   22  C   UNL     1      -6.960   1.856  68.018  1.00  0.00    -0.039 A  
HETATM   23  C   UNL     1      -7.652   2.386  66.935  1.00  0.00    -0.070 A  
BRANCH  21  24
HETATM   24  S   UNL     1      -9.510   4.083  65.772  1.00  0.00    -0.190 S  
HETATM   25  O   UNL     1      -8.557   4.865  64.916  1.00  0.00    -0.137 OA 
HETATM   26  C   UNL     1     -10.471   5.291  66.732  1.00  0.00    -0.273 C  
ENDBRANCH  21  24
ENDBRANCH   9  10
ENDBRANCH   8   9
ENDBRANCH   7   8
TORSDOF 4
ENDMDL
MODEL      174
REMARK 921   NORMALIZED FREE ENERGY PREDICTED BY IDOCK:   -2.78 KCAL/MOL
REMARK 922        TOTAL FREE ENERGY PREDICTED BY IDOCK:   -4.21 KCAL/MOL
REMARK 923 INTER-LIGAND FREE ENERGY PREDICTED BY IDOCK:   -3.70 KCAL/MOL
REMARK 924 INTRA-LIGAND FREE ENERGY PREDICTED BY IDOCK:   -0.51 KCAL/MOL
REMARK 927      BINDING AFFINITY PREDICTED BY RF-SCORE:    0.00 PKD
ROOT
HETATM    1  C   UNL     1     -13.137  11.816  71.943  1.00  0.00    -0.376 C  
HETATM    2  N   UNL     1     -12.363  10.599  71.695  1.00  0.00    -0.305 NA 
HETATM    3  C   UNL     1     -12.684   9.538  72.658  1.00  0.00     0.037 C  
HETATM    4  C   UNL     1     -14.027   8.850  72.408  1.00  0.00    -0.516 C  
HETATM    5  C   UNL     1     -14.157   8.373  70.968  1.00  0.00    -0.026 C  
HETATM    6  C   UNL     1     -13.827   9.496  69.991  1.00  0.00     1.682 C  
HETATM    7  C   UNL     1     -12.467  10.154  70.281  1.00  0.00    -0.104 C  
ENDROOT
BRANCH   7   8
HETATM    8  C   UNL     1     -11.272   9.232  69.967  1.00  0.00    -0.190 C  
BRANCH   8   9
HETATM    9  C   UNL     1     -10.509   9.520  68.657  1.00  0.00    -0.211 C  
BRANCH   9  10
HETATM   10  N   UNL     1      -9.409  10.519  68.767  1.00  0.00    -0.172 NA 
HETATM   11  C   UNL     1      -8.215  10.152  69.464  1.00  0.00    -0.168 A  
HETATM   12  C   UNL     1      -7.071  10.979  69.461  1.00  0.00    -0.113 A  
HETATM   13  S   UNL     1      -6.988  12.567  68.676  1.00  0.00    -0.093 SA 
HETATM   14  C   UNL     1      -5.874  10.590  70.108  1.00  0.00    -0.080 A  
HETATM   15  C   UNL     1      -5.778   9.382  70.782  1.00  0.00    -0.053 A  
HETATM   16  C   UNL     1      -8.609  12.741  67.986  1.00  0.00    -0.186 A  
HETATM   17  C   UNL     1      -6.893   8.567  70.839  1.00  0.00    -0.052 A  
HETATM   18  C   UNL     1      -9.622  11.770  68.096  1.00  0.00    -0.193 A  
HETATM   19  C   UNL     1     -10.853  12.103  67.484  1.00  0.00    -0.283 A  
HETATM   20  C   UNL     1      -8.084   8.956  70.209  1.00  0.00    -0.125 A  
HETATM   21  C   UNL     1     -11.039  13.252  66.699  1.00  0.00    -0.291 A  
HETATM   22  C   UNL     1      -8.822  13.942  67.275  1.00  0.00    -0.227 A  
HETATM   23  C   UNL     1     -10.021  14.187  66.614  1.00  0.00    -0.280 A  
BRANCH  21  24
HETATM   24  S   UNL     1     -12.572  13.504  65.772  1.00  0.00    -0.379 S  
HETATM   25  O   UNL     1     -12.824  12.221  65.035  1.00  0.00    -0.563 OA 
HETATM   26  C   UNL     1     -11.907  14.686  64.562  1.00  0.00    -0.431 C  
ENDBRANCH  21  24
ENDBRANCH   9  10
ENDBRANCH   8   9
ENDBRANCH   7   8
TORSDOF 4
ENDMDL
MODEL      175
REMARK 921   NORMALIZED FREE ENERGY PREDICTED BY IDOCK:   -2.77 KCAL/MOL
REMARK 922        TOTAL FREE ENERGY PREDICTED BY IDOCK:   -4.19 KCAL/MOL
REMARK 923 INTER-LIGAND FREE ENERGY PREDICTED BY IDOCK:   -5.50 KCAL/MOL
REMARK 924 INTRA-LIGAND FREE ENERGY PREDICTED BY IDOCK:    1.31 KCAL/MOL
REMARK 927      BINDING AFFINITY PREDICTED BY RF-SCORE:    0.00 PKD
ROOT
HETATM    1  C   UNL     1     -10.976   5.574  73.565  1.00  0.00    -0.240 C  
HETATM    2  N   UNL     1     -10.497   6.651  72.698  1.00  0.00    -0.204 NA 
HETATM    3  C   UNL     1      -9.598   6.151  71.650  1.00  0.00    -0.151 C  
HETATM    4  C   UNL     1     -10.309   5.420  70.510  1.00  0.00    -0.344 C  
HETATM    5  C   UNL     1     -11.453   6.245  69.937  1.00  0.00    -0.459 C  
HETATM    6  C   UNL     1     -12.375   6.742  71.045  1.00  0.00    -0.370 C  
HETATM    7  C   UNL     1     -11.614   7.472  72.165  1.00  0.00    -0.298 C  
ENDROOT
BRANCH   7   8
HETATM    8  C   UNL     1     -11.052   8.838  71.721  1.00  0.00    -0.417 C  
BRANCH   8   9
HETATM    9  C   UNL     1      -9.611   8.839  71.167  1.00  0.00    -0.242 C  
BRANCH   9  10
HETATM   10  N   UNL     1      -9.482   9.206  69.729  1.00  0.00    -0.172 NA 
HETATM   11  C   UNL     1      -8.671   8.388  68.881  1.00  0.00    -0.136 A  
HETATM   12  C   UNL     1      -8.639   8.572  67.482  1.00  0.00    -0.128 A  
HETATM   13  S   UNL     1      -9.520   9.850  66.623  1.00  0.00    -0.182 SA 
HETATM   14  C   UNL     1      -7.876   7.729  66.641  1.00  0.00    -0.102 A  
HETATM   15  C   UNL     1      -7.117   6.690  67.158  1.00  0.00    -0.076 A  
HETATM   16  C   UNL     1     -10.345  10.701  67.938  1.00  0.00    -0.199 A  
HETATM   17  C   UNL     1      -7.093   6.507  68.528  1.00  0.00    -0.083 A  
HETATM   18  C   UNL     1     -10.250  10.338  69.294  1.00  0.00    -0.227 A  
HETATM   19  C   UNL     1     -10.977  11.152  70.195  1.00  0.00     0.022 A  
HETATM   20  C   UNL     1      -7.840   7.349  69.365  1.00  0.00    -0.122 A  
HETATM   21  C   UNL     1     -11.849  12.171  69.780  1.00  0.00    -0.327 A  
HETATM   22  C   UNL     1     -11.149  11.785  67.526  1.00  0.00    -0.330 A  
HETATM   23  C   UNL     1     -11.916  12.503  68.437  1.00  0.00    -0.271 A  
BRANCH  21  24
HETATM   24  S   UNL     1     -12.909  13.027  70.971  1.00  0.00    -0.123 S  
HETATM   25  O   UNL     1     -11.991  13.870  71.809  1.00  0.00    -0.026 OA 
HETATM   26  C   UNL     1     -13.344  11.571  71.967  1.00  0.00    -0.292 C  
ENDBRANCH  21  24
ENDBRANCH   9  10
ENDBRANCH   8   9
ENDBRANCH   7   8
TORSDOF 4
ENDMDL
MODEL      176
REMARK 921   NORMALIZED FREE ENERGY PREDICTED BY IDOCK:   -2.75 KCAL/MOL
REMARK 922        TOTAL FREE ENERGY PREDICTED BY IDOCK:   -4.17 KCAL/MOL
REMARK 923 INTER-LIGAND FREE ENERGY PREDICTED BY IDOCK:   -5.39 KCAL/MOL
REMARK 924 INTRA-LIGAND FREE ENERGY PREDICTED BY IDOCK:    1.21 KCAL/MOL
REMARK 927      BINDING AFFINITY PREDICTED BY RF-SCORE:    0.00 PKD
ROOT
HETATM    1  C   UNL     1     -11.043   5.216  73.361  1.00  0.00    -0.320 C  
HETATM    2  N   UNL     1     -10.474   6.346  72.626  1.00  0.00    -0.203 NA 
HETATM    3  C   UNL     1      -9.668   5.905  71.480  1.00  0.00    -0.161 C  
HETATM    4  C   UNL     1     -10.488   5.418  70.286  1.00  0.00    -0.355 C  
HETATM    5  C   UNL     1     -11.551   6.431  69.881  1.00  0.00    -0.422 C  
HETATM    6  C   UNL     1     -12.379   6.863  71.086  1.00  0.00    -0.419 C  
HETATM    7  C   UNL     1     -11.509   7.347  72.259  1.00  0.00    -0.288 C  
ENDROOT
BRANCH   7   8
HETATM    8  C   UNL     1     -10.813   8.694  71.978  1.00  0.00    -0.430 C  
BRANCH   8   9
HETATM    9  C   UNL     1      -9.399   8.620  71.364  1.00  0.00    -0.236 C  
BRANCH   9  10
HETATM   10  N   UNL     1      -9.276   9.164  69.982  1.00  0.00    -0.177 NA 
HETATM   11  C   UNL     1     -10.166  10.205  69.571  1.00  0.00    -0.236 A  
HETATM   12  C   UNL     1      -9.998  10.883  68.344  1.00  0.00    -0.178 A  
HETATM   13  S   UNL     1      -8.741  10.499  67.154  1.00  0.00    -0.130 SA 
HETATM   14  C   UNL     1     -10.850  11.947  67.964  1.00  0.00    -0.256 A  
HETATM   15  C   UNL     1     -11.894  12.362  68.776  1.00  0.00    -0.358 A  
HETATM   16  C   UNL     1      -7.880   9.157  67.923  1.00  0.00    -0.100 A  
HETATM   17  C   UNL     1     -12.112  11.692  69.965  1.00  0.00    -0.395 A  
HETATM   18  C   UNL     1      -8.209   8.628  69.185  1.00  0.00    -0.117 A  
HETATM   19  C   UNL     1      -7.406   7.547  69.620  1.00  0.00    -0.090 A  
HETATM   20  C   UNL     1     -11.276  10.629  70.340  1.00  0.00    -0.334 A  
HETATM   21  C   UNL     1      -6.269   7.103  68.927  1.00  0.00    -0.027 A  
HETATM   22  C   UNL     1      -6.793   8.650  67.179  1.00  0.00    -0.067 A  
HETATM   23  C   UNL     1      -5.976   7.645  67.686  1.00  0.00    -0.040 A  
BRANCH  21  24
HETATM   24  S   UNL     1      -5.168   5.863  69.649  1.00  0.00    -0.005 S  
HETATM   25  O   UNL     1      -5.925   4.567  69.611  1.00  0.00    -0.017 OA 
HETATM   26  C   UNL     1      -5.243   6.469  71.361  1.00  0.00    -0.026 C  
ENDBRANCH  21  24
ENDBRANCH   9  10
ENDBRANCH   8   9
ENDBRANCH   7   8
TORSDOF 4
ENDMDL
MODEL      177
REMARK 921   NORMALIZED FREE ENERGY PREDICTED BY IDOCK:   -2.70 KCAL/MOL
REMARK 922        TOTAL FREE ENERGY PREDICTED BY IDOCK:   -4.10 KCAL/MOL
REMARK 923 INTER-LIGAND FREE ENERGY PREDICTED BY IDOCK:   -3.47 KCAL/MOL
REMARK 924 INTRA-LIGAND FREE ENERGY PREDICTED BY IDOCK:   -0.63 KCAL/MOL
REMARK 927      BINDING AFFINITY PREDICTED BY RF-SCORE:    0.00 PKD
ROOT
HETATM    1  C   UNL     1      -5.931   9.822  71.725  1.00  0.00     0.152 C  
HETATM    2  N   UNL     1      -6.345   8.434  71.522  1.00  0.00    -0.047 NA 
HETATM    3  C   UNL     1      -6.468   7.706  72.792  1.00  0.00    -0.062 C  
HETATM    4  C   UNL     1      -7.717   8.061  73.599  1.00  0.00    -0.223 C  
HETATM    5  C   UNL     1      -8.981   7.957  72.756  1.00  0.00    -0.258 C  
HETATM    6  C   UNL     1      -8.829   8.728  71.450  1.00  0.00    -0.292 C  
HETATM    7  C   UNL     1      -7.560   8.334  70.674  1.00  0.00    -0.071 C  
ENDROOT
BRANCH   7   8
HETATM    8  C   UNL     1      -7.632   6.913  70.082  1.00  0.00    -0.099 C  
BRANCH   8   9
HETATM    9  C   UNL     1      -9.026   6.427  69.630  1.00  0.00    -0.137 C  
BRANCH   9  10
HETATM   10  N   UNL     1      -9.031   5.186  68.807  1.00  0.00    -0.099 NA 
HETATM   11  C   UNL     1      -8.705   5.281  67.417  1.00  0.00    -0.106 A  
HETATM   12  C   UNL     1      -8.523   4.132  66.618  1.00  0.00    -0.104 A  
HETATM   13  S   UNL     1      -8.738   2.468  67.194  1.00  0.00    -0.133 SA 
HETATM   14  C   UNL     1      -8.150   4.229  65.256  1.00  0.00    -0.101 A  
HETATM   15  C   UNL     1      -7.957   5.459  64.646  1.00  0.00    -0.112 A  
HETATM   16  C   UNL     1      -9.194   2.704  68.889  1.00  0.00    -0.160 A  
HETATM   17  C   UNL     1      -8.167   6.605  65.390  1.00  0.00    -0.138 A  
HETATM   18  C   UNL     1      -9.309   3.963  69.507  1.00  0.00    -0.176 A  
HETATM   19  C   UNL     1      -9.696   3.940  70.868  1.00  0.00    -0.253 A  
HETATM   20  C   UNL     1      -8.549   6.512  66.737  1.00  0.00    -0.117 A  
HETATM   21  C   UNL     1      -9.830   2.757  71.611  1.00  0.00    -0.141 A  
HETATM   22  C   UNL     1      -9.419   1.512  69.610  1.00  0.00    -0.131 A  
HETATM   23  C   UNL     1      -9.712   1.535  70.970  1.00  0.00    -0.174 A  
BRANCH  21  24
HETATM   24  S   UNL     1     -10.116   2.811  73.397  1.00  0.00    -0.121 S  
HETATM   25  O   UNL     1     -11.587   2.577  73.586  1.00  0.00    -0.225 OA 
HETATM   26  C   UNL     1      -9.832   4.593  73.614  1.00  0.00    -0.142 C  
ENDBRANCH  21  24
ENDBRANCH   9  10
ENDBRANCH   8   9
ENDBRANCH   7   8
TORSDOF 4
ENDMDL
MODEL      178
REMARK 921   NORMALIZED FREE ENERGY PREDICTED BY IDOCK:   -2.64 KCAL/MOL
REMARK 922        TOTAL FREE ENERGY PREDICTED BY IDOCK:   -4.03 KCAL/MOL
REMARK 923 INTER-LIGAND FREE ENERGY PREDICTED BY IDOCK:   -4.10 KCAL/MOL
REMARK 924 INTRA-LIGAND FREE ENERGY PREDICTED BY IDOCK:    0.06 KCAL/MOL
REMARK 927      BINDING AFFINITY PREDICTED BY RF-SCORE:    0.00 PKD
ROOT
HETATM    1  C   UNL     1     -11.234  16.643  71.214  1.00  0.00     0.284 C  
HETATM    2  N   UNL     1     -11.346  15.184  71.220  1.00  0.00    -0.337 NA 
HETATM    3  C   UNL     1     -11.856  14.679  72.502  1.00  0.00    -0.014 C  
HETATM    4  C   UNL     1     -13.357  14.890  72.707  1.00  0.00    -0.576 C  
HETATM    5  C   UNL     1     -14.166  14.373  71.525  1.00  0.00    -0.445 C  
HETATM    6  C   UNL     1     -13.621  14.921  70.210  1.00  0.00     0.419 C  
HETATM    7  C   UNL     1     -12.110  14.681  70.050  1.00  0.00    -0.329 C  
ENDROOT
BRANCH   7   8
HETATM    8  C   UNL     1     -11.755  13.196  69.832  1.00  0.00    -0.327 C  
BRANCH   8   9
HETATM    9  C   UNL     1     -10.423  12.908  69.108  1.00  0.00     0.122 C  
BRANCH   9  10
HETATM   10  N   UNL     1     -10.546  12.170  67.820  1.00  0.00    -0.200 NA 
HETATM   11  C   UNL     1     -11.359  12.727  66.783  1.00  0.00    -0.313 A  
HETATM   12  C   UNL     1     -11.385  12.176  65.484  1.00  0.00    -0.344 A  
HETATM   13  S   UNL     1     -10.494  10.722  64.997  1.00  0.00    -0.172 SA 
HETATM   14  C   UNL     1     -12.151  12.760  64.447  1.00  0.00    -0.484 A  
HETATM   15  C   UNL     1     -12.918  13.894  64.667  1.00  0.00     0.137 A  
HETATM   16  C   UNL     1      -9.667  10.258  66.493  1.00  0.00    -0.193 A  
HETATM   17  C   UNL     1     -12.947  14.434  65.939  1.00  0.00     0.054 A  
HETATM   18  C   UNL     1      -9.769  10.968  67.703  1.00  0.00    -0.168 A  
HETATM   19  C   UNL     1      -9.040  10.428  68.789  1.00  0.00    -0.165 A  
HETATM   20  C   UNL     1     -12.198  13.851  66.972  1.00  0.00    -0.392 A  
HETATM   21  C   UNL     1      -8.160   9.342  68.662  1.00  0.00    -0.105 A  
HETATM   22  C   UNL     1      -8.855   9.108  66.386  1.00  0.00    -0.165 A  
HETATM   23  C   UNL     1      -8.086   8.665  67.456  1.00  0.00    -0.106 A  
BRANCH  21  24
HETATM   24  S   UNL     1      -7.099   8.841  70.040  1.00  0.00    -0.050 S  
HETATM   25  O   UNL     1      -8.022   8.561  71.190  1.00  0.00    -0.099 OA 
HETATM   26  C   UNL     1      -6.352  10.470  70.347  1.00  0.00    -0.126 C  
ENDBRANCH  21  24
ENDBRANCH   9  10
ENDBRANCH   8   9
ENDBRANCH   7   8
TORSDOF 4
ENDMDL
MODEL      179
REMARK 921   NORMALIZED FREE ENERGY PREDICTED BY IDOCK:   -2.47 KCAL/MOL
REMARK 922        TOTAL FREE ENERGY PREDICTED BY IDOCK:   -3.83 KCAL/MOL
REMARK 923 INTER-LIGAND FREE ENERGY PREDICTED BY IDOCK:   -3.01 KCAL/MOL
REMARK 924 INTRA-LIGAND FREE ENERGY PREDICTED BY IDOCK:   -0.82 KCAL/MOL
REMARK 927      BINDING AFFINITY PREDICTED BY RF-SCORE:    0.00 PKD
ROOT
HETATM    1  C   UNL     1     -11.169   9.865  69.104  1.00  0.00    -0.107 C  
HETATM    2  N   UNL     1     -10.654   9.818  70.473  1.00  0.00    -0.296 NA 
HETATM    3  C   UNL     1     -11.574  10.451  71.427  1.00  0.00    -0.032 C  
HETATM    4  C   UNL     1     -12.808   9.611  71.760  1.00  0.00    -0.514 C  
HETATM    5  C   UNL     1     -12.430   8.197  72.182  1.00  0.00    -0.364 C  
HETATM    6  C   UNL     1     -11.484   7.561  71.169  1.00  0.00    -0.295 C  
HETATM    7  C   UNL     1     -10.259   8.442  70.870  1.00  0.00    -0.194 C  
ENDROOT
BRANCH   7   8
HETATM    8  C   UNL     1      -9.279   8.536  72.057  1.00  0.00    -0.326 C  
BRANCH   8   9
HETATM    9  C   UNL     1      -7.802   8.817  71.708  1.00  0.00    -0.044 C  
BRANCH   9  10
HETATM   10  N   UNL     1      -7.299   8.143  70.479  1.00  0.00    -0.055 NA 
HETATM   11  C   UNL     1      -7.027   6.739  70.527  1.00  0.00    -0.063 A  
HETATM   12  C   UNL     1      -6.715   6.005  69.363  1.00  0.00    -0.060 A  
HETATM   13  S   UNL     1      -6.552   6.715  67.746  1.00  0.00    -0.060 SA 
HETATM   14  C   UNL     1      -6.497   4.607  69.406  1.00  0.00    -0.036 A  
HETATM   15  C   UNL     1      -6.572   3.901  70.597  1.00  0.00    -0.032 A  
HETATM   16  C   UNL     1      -6.874   8.430  68.044  1.00  0.00    -0.070 A  
HETATM   17  C   UNL     1      -6.836   4.597  71.761  1.00  0.00    -0.043 A  
HETATM   18  C   UNL     1      -7.186   8.965  69.308  1.00  0.00    -0.066 A  
HETATM   19  C   UNL     1      -7.400  10.364  69.340  1.00  0.00    -0.123 A  
HETATM   20  C   UNL     1      -7.041   5.985  71.724  1.00  0.00    -0.086 A  
HETATM   21  C   UNL     1      -7.440  11.164  68.187  1.00  0.00    -0.093 A  
HETATM   22  C   UNL     1      -6.822   9.248  66.896  1.00  0.00    -0.080 A  
HETATM   23  C   UNL     1      -7.126  10.604  66.960  1.00  0.00    -0.100 A  
BRANCH  21  24
HETATM   24  S   UNL     1      -7.931  12.903  68.282  1.00  0.00    -0.145 S  
HETATM   25  O   UNL     1      -7.250  13.587  67.132  1.00  0.00    -0.064 OA 
HETATM   26  C   UNL     1      -6.987  13.319  69.778  1.00  0.00     0.335 C  
ENDBRANCH  21  24
ENDBRANCH   9  10
ENDBRANCH   8   9
ENDBRANCH   7   8
TORSDOF 4
ENDMDL
MODEL      180
REMARK 921   NORMALIZED FREE ENERGY PREDICTED BY IDOCK:   -2.42 KCAL/MOL
REMARK 922        TOTAL FREE ENERGY PREDICTED BY IDOCK:   -3.76 KCAL/MOL
REMARK 923 INTER-LIGAND FREE ENERGY PREDICTED BY IDOCK:   -3.22 KCAL/MOL
REMARK 924 INTRA-LIGAND FREE ENERGY PREDICTED BY IDOCK:   -0.54 KCAL/MOL
REMARK 927      BINDING AFFINITY PREDICTED BY RF-SCORE:    0.00 PKD
ROOT
HETATM    1  C   UNL     1     -10.990   9.498  67.904  1.00  0.00    -0.110 C  
HETATM    2  N   UNL     1     -10.161   8.721  68.826  1.00  0.00    -0.203 NA 
HETATM    3  C   UNL     1     -10.387   9.107  70.225  1.00  0.00    -0.214 C  
HETATM    4  C   UNL     1     -11.699   8.588  70.815  1.00  0.00    -0.228 C  
HETATM    5  C   UNL     1     -11.858   7.088  70.603  1.00  0.00    -0.377 C  
HETATM    6  C   UNL     1     -11.628   6.717  69.142  1.00  0.00    -0.016 C  
HETATM    7  C   UNL     1     -10.295   7.260  68.596  1.00  0.00    -0.193 C  
ENDROOT
BRANCH   7   8
HETATM    8  C   UNL     1      -9.065   6.552  69.198  1.00  0.00    -0.136 C  
BRANCH   8   9
HETATM    9  C   UNL     1      -7.815   6.464  68.298  1.00  0.00    -0.105 C  
BRANCH   9  10
HETATM   10  N   UNL     1      -7.273   7.770  67.831  1.00  0.00    -0.088 NA 
HETATM   11  C   UNL     1      -7.381   8.104  66.444  1.00  0.00    -0.080 A  
HETATM   12  C   UNL     1      -7.047   9.388  65.962  1.00  0.00    -0.091 A  
HETATM   13  S   UNL     1      -6.402  10.697  66.969  1.00  0.00    -0.080 SA 
HETATM   14  C   UNL     1      -7.204   9.730  64.598  1.00  0.00    -0.131 A  
HETATM   15  C   UNL     1      -7.683   8.814  63.674  1.00  0.00    -0.133 A  
HETATM   16  C   UNL     1      -6.330   9.950  68.573  1.00  0.00    -0.050 A  
HETATM   17  C   UNL     1      -7.981   7.535  64.106  1.00  0.00    -0.098 A  
HETATM   18  C   UNL     1      -6.732   8.629  68.846  1.00  0.00    -0.053 A  
HETATM   19  C   UNL     1      -6.586   8.215  70.191  1.00  0.00    -0.036 A  
HETATM   20  C   UNL     1      -7.815   7.189  65.455  1.00  0.00    -0.115 A  
HETATM   21  C   UNL     1      -6.199   9.080  71.227  1.00  0.00    -0.065 A  
HETATM   22  C   UNL     1      -5.852  10.795  69.597  1.00  0.00    -0.052 A  
HETATM   23  C   UNL     1      -5.808  10.373  70.921  1.00  0.00    -0.068 A  
BRANCH  21  24
HETATM   24  S   UNL     1      -6.241   8.538  72.953  1.00  0.00    -0.070 S  
HETATM   25  O   UNL     1      -7.620   8.859  73.452  1.00  0.00    -0.371 OA 
HETATM   26  C   UNL     1      -5.130   9.816  73.614  1.00  0.00    -0.057 C  
ENDBRANCH  21  24
ENDBRANCH   9  10
ENDBRANCH   8   9
ENDBRANCH   7   8
TORSDOF 4
ENDMDL
MODEL      181
REMARK 921   NORMALIZED FREE ENERGY PREDICTED BY IDOCK:   -2.38 KCAL/MOL
REMARK 922        TOTAL FREE ENERGY PREDICTED BY IDOCK:   -3.71 KCAL/MOL
REMARK 923 INTER-LIGAND FREE ENERGY PREDICTED BY IDOCK:   -4.02 KCAL/MOL
REMARK 924 INTRA-LIGAND FREE ENERGY PREDICTED BY IDOCK:    0.31 KCAL/MOL
REMARK 927      BINDING AFFINITY PREDICTED BY RF-SCORE:    0.00 PKD
ROOT
HETATM    1  C   UNL     1      -8.400  13.039  67.358  1.00  0.00    -0.194 C  
HETATM    2  N   UNL     1      -8.365  11.723  67.996  1.00  0.00    -0.146 NA 
HETATM    3  C   UNL     1      -9.712  11.236  68.325  1.00  0.00    -0.198 C  
HETATM    4  C   UNL     1     -10.509  10.737  67.120  1.00  0.00    -0.285 C  
HETATM    5  C   UNL     1      -9.719   9.724  66.301  1.00  0.00    -0.295 C  
HETATM    6  C   UNL     1      -8.331  10.259  65.966  1.00  0.00    -0.142 C  
HETATM    7  C   UNL     1      -7.568  10.746  67.210  1.00  0.00    -0.102 C  
ENDROOT
BRANCH   7   8
HETATM    8  C   UNL     1      -7.141   9.596  68.144  1.00  0.00    -0.079 C  
BRANCH   8   9
HETATM    9  C   UNL     1      -7.193   8.173  67.549  1.00  0.00    -0.091 C  
BRANCH   9  10
HETATM   10  N   UNL     1      -8.204   7.265  68.159  1.00  0.00    -0.123 NA 
HETATM   11  C   UNL     1      -8.666   7.541  69.484  1.00  0.00    -0.137 A  
HETATM   12  C   UNL     1      -9.741   6.829  70.058  1.00  0.00    -0.163 A  
HETATM   13  S   UNL     1     -10.592   5.491  69.264  1.00  0.00    -0.207 SA 
HETATM   14  C   UNL     1     -10.229   7.140  71.350  1.00  0.00    -0.203 A  
HETATM   15  C   UNL     1      -9.664   8.151  72.112  1.00  0.00    -0.311 A  
HETATM   16  C   UNL     1      -9.749   5.367  67.712  1.00  0.00    -0.135 A  
HETATM   17  C   UNL     1      -8.583   8.840  71.595  1.00  0.00    -0.228 A  
HETATM   18  C   UNL     1      -8.685   6.202  67.323  1.00  0.00    -0.108 A  
HETATM   19  C   UNL     1      -8.138   5.935  66.046  1.00  0.00    -0.115 A  
HETATM   20  C   UNL     1      -8.089   8.527  70.320  1.00  0.00    -0.106 A  
HETATM   21  C   UNL     1      -8.685   5.000  65.152  1.00  0.00    -0.150 A  
HETATM   22  C   UNL     1     -10.243   4.363  66.851  1.00  0.00    -0.073 A  
HETATM   23  C   UNL     1      -9.731   4.194  65.569  1.00  0.00    -0.202 A  
BRANCH  21  24
HETATM   24  S   UNL     1      -8.066   4.864  63.457  1.00  0.00    -0.107 S  
HETATM   25  O   UNL     1      -8.791   3.702  62.845  1.00  0.00    -0.092 OA 
HETATM   26  C   UNL     1      -6.396   4.283  63.877  1.00  0.00    -0.030 C  
ENDBRANCH  21  24
ENDBRANCH   9  10
ENDBRANCH   8   9
ENDBRANCH   7   8
TORSDOF 4
ENDMDL
MODEL      182
REMARK 921   NORMALIZED FREE ENERGY PREDICTED BY IDOCK:   -2.38 KCAL/MOL
REMARK 922        TOTAL FREE ENERGY PREDICTED BY IDOCK:   -3.71 KCAL/MOL
REMARK 923 INTER-LIGAND FREE ENERGY PREDICTED BY IDOCK:   -3.46 KCAL/MOL
REMARK 924 INTRA-LIGAND FREE ENERGY PREDICTED BY IDOCK:   -0.25 KCAL/MOL
REMARK 927      BINDING AFFINITY PREDICTED BY RF-SCORE:    0.00 PKD
ROOT
HETATM    1  C   UNL     1     -10.299  15.961  70.545  1.00  0.00     0.156 C  
HETATM    2  N   UNL     1     -11.091  14.751  70.760  1.00  0.00    -0.113 NA 
HETATM    3  C   UNL     1     -11.987  14.880  71.917  1.00  0.00    -0.359 C  
HETATM    4  C   UNL     1     -13.216  15.754  71.663  1.00  0.00    -0.462 C  
HETATM    5  C   UNL     1     -13.962  15.327  70.406  1.00  0.00     0.576 C  
HETATM    6  C   UNL     1     -13.010  15.211  69.221  1.00  0.00     0.675 C  
HETATM    7  C   UNL     1     -11.793  14.320  69.524  1.00  0.00    -0.329 C  
ENDROOT
BRANCH   7   8
HETATM    8  C   UNL     1     -12.157  12.828  69.660  1.00  0.00    -0.286 C  
BRANCH   8   9
HETATM    9  C   UNL     1     -11.514  11.868  68.636  1.00  0.00    -0.294 C  
BRANCH   9  10
HETATM   10  N   UNL     1     -10.150  11.384  68.988  1.00  0.00    -0.145 NA 
HETATM   11  C   UNL     1     -10.014  10.102  69.608  1.00  0.00    -0.232 A  
HETATM   12  C   UNL     1      -8.751   9.507  69.812  1.00  0.00    -0.194 A  
HETATM   13  S   UNL     1      -7.206  10.275  69.402  1.00  0.00    -0.120 SA 
HETATM   14  C   UNL     1      -8.623   8.216  70.379  1.00  0.00    -0.131 A  
HETATM   15  C   UNL     1      -9.735   7.486  70.769  1.00  0.00    -0.174 A  
HETATM   16  C   UNL     1      -7.716  11.835  68.737  1.00  0.00    -0.091 A  
HETATM   17  C   UNL     1     -10.985   8.057  70.621  1.00  0.00    -0.250 A  
HETATM   18  C   UNL     1      -9.059  12.236  68.608  1.00  0.00     0.018 A  
HETATM   19  C   UNL     1      -9.259  13.526  68.062  1.00  0.00    -0.209 A  
HETATM   20  C   UNL     1     -11.114   9.341  70.070  1.00  0.00    -0.228 A  
HETATM   21  C   UNL     1      -8.218  14.316  67.550  1.00  0.00    -0.189 A  
HETATM   22  C   UNL     1      -6.660  12.667  68.307  1.00  0.00    -0.079 A  
HETATM   23  C   UNL     1      -6.908  13.891  67.695  1.00  0.00    -0.193 A  
BRANCH  21  24
HETATM   24  S   UNL     1      -8.570  15.859  66.673  1.00  0.00    -0.310 S  
HETATM   25  O   UNL     1      -8.639  16.926  67.727  1.00  0.00    -0.202 OA 
HETATM   26  C   UNL     1     -10.282  15.465  66.208  1.00  0.00    -0.290 C  
ENDBRANCH  21  24
ENDBRANCH   9  10
ENDBRANCH   8   9
ENDBRANCH   7   8
TORSDOF 4
ENDMDL
MODEL      183
REMARK 921   NORMALIZED FREE ENERGY PREDICTED BY IDOCK:   -2.34 KCAL/MOL
REMARK 922        TOTAL FREE ENERGY PREDICTED BY IDOCK:   -3.66 KCAL/MOL
REMARK 923 INTER-LIGAND FREE ENERGY PREDICTED BY IDOCK:   -3.29 KCAL/MOL
REMARK 924 INTRA-LIGAND FREE ENERGY PREDICTED BY IDOCK:   -0.37 KCAL/MOL
REMARK 927      BINDING AFFINITY PREDICTED BY RF-SCORE:    0.00 PKD
ROOT
HETATM    1  C   UNL     1     -11.312  10.514  68.784  1.00  0.00    -0.249 C  
HETATM    2  N   UNL     1     -10.691   9.885  69.950  1.00  0.00    -0.259 NA 
HETATM    3  C   UNL     1     -11.497  10.067  71.165  1.00  0.00    -0.354 C  
HETATM    4  C   UNL     1     -12.742   9.181  71.230  1.00  0.00    -0.340 C  
HETATM    5  C   UNL     1     -12.406   7.717  70.980  1.00  0.00    -0.204 C  
HETATM    6  C   UNL     1     -11.579   7.557  69.709  1.00  0.00     0.189 C  
HETATM    7  C   UNL     1     -10.338   8.466  69.693  1.00  0.00    -0.218 C  
ENDROOT
BRANCH   7   8
HETATM    8  C   UNL     1      -9.262   8.035  70.710  1.00  0.00    -0.165 C  
BRANCH   8   9
HETATM    9  C   UNL     1      -9.287   6.556  71.151  1.00  0.00    -0.163 C  
BRANCH   9  10
HETATM   10  N   UNL     1      -7.986   5.837  71.043  1.00  0.00    -0.113 NA 
HETATM   11  C   UNL     1      -7.128   5.794  72.186  1.00  0.00    -0.087 A  
HETATM   12  C   UNL     1      -5.967   4.991  72.212  1.00  0.00    -0.025 A  
HETATM   13  S   UNL     1      -5.397   4.014  70.846  1.00  0.00    -0.004 SA 
HETATM   14  C   UNL     1      -5.148   4.911  73.363  1.00  0.00    -0.009 A  
HETATM   15  C   UNL     1      -5.446   5.626  74.513  1.00  0.00    -0.036 A  
HETATM   16  C   UNL     1      -6.616   4.339  69.604  1.00  0.00    -0.033 A  
HETATM   17  C   UNL     1      -6.553   6.454  74.507  1.00  0.00    -0.085 A  
HETATM   18  C   UNL     1      -7.728   5.181  69.792  1.00  0.00    -0.071 A  
HETATM   19  C   UNL     1      -8.583   5.321  68.672  1.00  0.00    -0.087 A  
HETATM   20  C   UNL     1      -7.361   6.545  73.363  1.00  0.00    -0.085 A  
HETATM   21  C   UNL     1      -8.432   4.577  67.491  1.00  0.00    -0.103 A  
HETATM   22  C   UNL     1      -6.411   3.661  68.383  1.00  0.00    -0.033 A  
HETATM   23  C   UNL     1      -7.325   3.759  67.340  1.00  0.00    -0.067 A  
BRANCH  21  24
HETATM   24  S   UNL     1      -9.683   4.648  66.185  1.00  0.00    -0.225 S  
HETATM   25  O   UNL     1      -9.028   5.337  65.024  1.00  0.00    -0.149 OA 
HETATM   26  C   UNL     1     -10.767   5.869  66.982  1.00  0.00    -0.318 C  
ENDBRANCH  21  24
ENDBRANCH   9  10
ENDBRANCH   8   9
ENDBRANCH   7   8
TORSDOF 4
ENDMDL
MODEL      184
REMARK 921   NORMALIZED FREE ENERGY PREDICTED BY IDOCK:   -2.33 KCAL/MOL
REMARK 922        TOTAL FREE ENERGY PREDICTED BY IDOCK:   -3.65 KCAL/MOL
REMARK 923 INTER-LIGAND FREE ENERGY PREDICTED BY IDOCK:   -3.18 KCAL/MOL
REMARK 924 INTRA-LIGAND FREE ENERGY PREDICTED BY IDOCK:   -0.47 KCAL/MOL
REMARK 927      BINDING AFFINITY PREDICTED BY RF-SCORE:    0.00 PKD
ROOT
HETATM    1  C   UNL     1     -13.325  10.006  70.173  1.00  0.00     0.538 C  
HETATM    2  N   UNL     1     -12.155  10.878  70.066  1.00  0.00    -0.329 NA 
HETATM    3  C   UNL     1     -11.138  10.558  71.077  1.00  0.00     0.312 C  
HETATM    4  C   UNL     1     -10.338   9.288  70.781  1.00  0.00    -0.348 C  
HETATM    5  C   UNL     1      -9.760   9.301  69.373  1.00  0.00    -0.175 C  
HETATM    6  C   UNL     1     -10.838   9.626  68.344  1.00  0.00    -0.212 C  
HETATM    7  C   UNL     1     -11.611  10.911  68.684  1.00  0.00    -0.303 C  
ENDROOT
BRANCH   7   8
HETATM    8  C   UNL     1     -10.761  12.187  68.520  1.00  0.00    -0.257 C  
BRANCH   8   9
HETATM    9  C   UNL     1      -9.963  12.317  67.206  1.00  0.00    -0.204 C  
BRANCH   9  10
HETATM   10  N   UNL     1      -8.540  12.730  67.364  1.00  0.00    -0.184 NA 
HETATM   11  C   UNL     1      -7.511  11.807  66.996  1.00  0.00    -0.137 A  
HETATM   12  C   UNL     1      -6.153  12.188  66.955  1.00  0.00    -0.097 A  
HETATM   13  S   UNL     1      -5.551  13.794  67.409  1.00  0.00     0.466 SA 
HETATM   14  C   UNL     1      -5.143  11.287  66.542  1.00  0.00    -0.121 A  
HETATM   15  C   UNL     1      -5.445   9.987  66.168  1.00  0.00    -0.050 A  
HETATM   16  C   UNL     1      -7.034  14.646  67.867  1.00  0.00    -0.159 A  
HETATM   17  C   UNL     1      -6.760   9.569  66.235  1.00  0.00    -0.075 A  
HETATM   18  C   UNL     1      -8.319  14.072  67.822  1.00  0.00    -0.176 A  
HETATM   19  C   UNL     1      -9.376  14.915  68.240  1.00  0.00    -0.195 A  
HETATM   20  C   UNL     1      -7.762  10.456  66.657  1.00  0.00    -0.117 A  
HETATM   21  C   UNL     1      -9.203  16.273  68.551  1.00  0.00    -0.211 A  
HETATM   22  C   UNL     1      -6.845  15.985  68.270  1.00  0.00    -0.123 A  
HETATM   23  C   UNL     1      -7.924  16.803  68.588  1.00  0.00    -0.246 A  
BRANCH  21  24
HETATM   24  S   UNL     1     -10.628  17.341  68.868  1.00  0.00    -0.202 S  
HETATM   25  O   UNL     1     -11.829  16.441  68.856  1.00  0.00    -0.208 OA 
HETATM   26  C   UNL     1     -10.608  18.216  67.275  1.00  0.00    -0.367 C  
ENDBRANCH  21  24
ENDBRANCH   9  10
ENDBRANCH   8   9
ENDBRANCH   7   8
TORSDOF 4
ENDMDL
MODEL      185
REMARK 921   NORMALIZED FREE ENERGY PREDICTED BY IDOCK:   -2.32 KCAL/MOL
REMARK 922        TOTAL FREE ENERGY PREDICTED BY IDOCK:   -3.64 KCAL/MOL
REMARK 923 INTER-LIGAND FREE ENERGY PREDICTED BY IDOCK:   -2.93 KCAL/MOL
REMARK 924 INTRA-LIGAND FREE ENERGY PREDICTED BY IDOCK:   -0.71 KCAL/MOL
REMARK 927      BINDING AFFINITY PREDICTED BY RF-SCORE:    0.00 PKD
ROOT
HETATM    1  C   UNL     1     -11.041   4.796  73.668  1.00  0.00    -0.304 C  
HETATM    2  N   UNL     1      -9.936   4.773  72.710  1.00  0.00    -0.158 NA 
HETATM    3  C   UNL     1      -8.646   4.526  73.366  1.00  0.00    -0.101 C  
HETATM    4  C   UNL     1      -8.429   3.075  73.797  1.00  0.00    -0.073 C  
HETATM    5  C   UNL     1      -8.684   2.102  72.654  1.00  0.00    -0.070 C  
HETATM    6  C   UNL     1     -10.033   2.375  71.998  1.00  0.00    -0.231 C  
HETATM    7  C   UNL     1     -10.202   3.846  71.579  1.00  0.00     0.015 C  
ENDROOT
BRANCH   7   8
HETATM    8  C   UNL     1      -9.298   4.243  70.395  1.00  0.00    -0.219 C  
BRANCH   8   9
HETATM    9  C   UNL     1      -9.537   5.642  69.788  1.00  0.00    -0.159 C  
BRANCH   9  10
HETATM   10  N   UNL     1      -8.312   6.354  69.328  1.00  0.00    -0.121 NA 
HETATM   11  C   UNL     1      -7.604   7.176  70.260  1.00  0.00    -0.090 A  
HETATM   12  C   UNL     1      -6.349   7.741  69.947  1.00  0.00    -0.030 A  
HETATM   13  S   UNL     1      -5.540   7.570  68.378  1.00  0.00    -0.028 SA 
HETATM   14  C   UNL     1      -5.627   8.511  70.889  1.00  0.00    -0.032 A  
HETATM   15  C   UNL     1      -6.129   8.754  72.159  1.00  0.00    -0.075 A  
HETATM   16  C   UNL     1      -6.685   6.579  67.460  1.00  0.00    -0.067 A  
HETATM   17  C   UNL     1      -7.374   8.249  72.484  1.00  0.00    -0.142 A  
HETATM   18  C   UNL     1      -7.903   6.099  67.976  1.00  0.00    -0.106 A  
HETATM   19  C   UNL     1      -8.684   5.333  67.079  1.00  0.00    -0.107 A  
HETATM   20  C   UNL     1      -8.097   7.495  71.548  1.00  0.00    -0.099 A  
HETATM   21  C   UNL     1      -8.240   4.948  65.804  1.00  0.00    -0.113 A  
HETATM   22  C   UNL     1      -6.277   6.272  66.144  1.00  0.00    -0.037 A  
HETATM   23  C   UNL     1      -7.036   5.441  65.328  1.00  0.00    -0.066 A  
BRANCH  21  24
HETATM   24  S   UNL     1      -9.199   3.791  64.797  1.00  0.00    -0.157 S  
HETATM   25  O   UNL     1     -10.628   4.240  64.902  1.00  0.00    -0.240 OA 
HETATM   26  C   UNL     1      -9.018   2.347  65.885  1.00  0.00    -0.117 C  
ENDBRANCH  21  24
ENDBRANCH   9  10
ENDBRANCH   8   9
ENDBRANCH   7   8
TORSDOF 4
ENDMDL
MODEL      186
REMARK 921   NORMALIZED FREE ENERGY PREDICTED BY IDOCK:   -2.30 KCAL/MOL
REMARK 922        TOTAL FREE ENERGY PREDICTED BY IDOCK:   -3.62 KCAL/MOL
REMARK 923 INTER-LIGAND FREE ENERGY PREDICTED BY IDOCK:   -2.97 KCAL/MOL
REMARK 924 INTRA-LIGAND FREE ENERGY PREDICTED BY IDOCK:   -0.65 KCAL/MOL
REMARK 927      BINDING AFFINITY PREDICTED BY RF-SCORE:    0.00 PKD
ROOT
HETATM    1  C   UNL     1      -7.181   3.816  71.274  1.00  0.00    -0.033 C  
HETATM    2  N   UNL     1      -7.311   5.202  70.825  1.00  0.00    -0.067 NA 
HETATM    3  C   UNL     1      -8.340   5.930  71.580  1.00  0.00    -0.127 C  
HETATM    4  C   UNL     1      -7.916   6.327  72.994  1.00  0.00    -0.107 C  
HETATM    5  C   UNL     1      -6.580   7.058  72.999  1.00  0.00    -0.065 C  
HETATM    6  C   UNL     1      -5.529   6.276  72.217  1.00  0.00    -0.032 C  
HETATM    7  C   UNL     1      -6.001   5.903  70.801  1.00  0.00    -0.029 C  
ENDROOT
BRANCH   7   8
HETATM    8  C   UNL     1      -6.112   7.121  69.862  1.00  0.00    -0.027 C  
BRANCH   8   9
HETATM    9  C   UNL     1      -5.957   6.840  68.352  1.00  0.00    -0.025 C  
BRANCH   9  10
HETATM   10  N   UNL     1      -7.129   6.190  67.702  1.00  0.00    -0.072 NA 
HETATM   11  C   UNL     1      -7.044   4.805  67.356  1.00  0.00    -0.065 A  
HETATM   12  C   UNL     1      -8.167   4.084  66.897  1.00  0.00    -0.100 A  
HETATM   13  S   UNL     1      -9.770   4.796  66.629  1.00  0.00    -0.213 SA 
HETATM   14  C   UNL     1      -8.092   2.702  66.605  1.00  0.00    -0.082 A  
HETATM   15  C   UNL     1      -6.905   1.998  66.747  1.00  0.00    -0.039 A  
HETATM   16  C   UNL     1      -9.518   6.491  67.075  1.00  0.00    -0.138 A  
HETATM   17  C   UNL     1      -5.776   2.683  67.156  1.00  0.00    -0.022 A  
HETATM   18  C   UNL     1      -8.293   7.013  67.531  1.00  0.00    -0.119 A  
HETATM   19  C   UNL     1      -8.294   8.397  67.826  1.00  0.00    -0.130 A  
HETATM   20  C   UNL     1      -5.846   4.056  67.435  1.00  0.00    -0.023 A  
HETATM   21  C   UNL     1      -9.453   9.188  67.807  1.00  0.00    -0.140 A  
HETATM   22  C   UNL     1     -10.665   7.306  66.966  1.00  0.00    -0.406 A  
HETATM   23  C   UNL     1     -10.641   8.642  67.351  1.00  0.00    -0.298 A  
BRANCH  21  24
HETATM   24  S   UNL     1      -9.420  10.897  68.403  1.00  0.00    -0.185 S  
HETATM   25  O   UNL     1     -10.667  11.073  69.220  1.00  0.00    -0.219 OA 
HETATM   26  C   UNL     1      -9.722  11.697  66.799  1.00  0.00    -0.201 C  
ENDBRANCH  21  24
ENDBRANCH   9  10
ENDBRANCH   8   9
ENDBRANCH   7   8
TORSDOF 4
ENDMDL
MODEL      187
REMARK 921   NORMALIZED FREE ENERGY PREDICTED BY IDOCK:   -2.27 KCAL/MOL
REMARK 922        TOTAL FREE ENERGY PREDICTED BY IDOCK:   -3.58 KCAL/MOL
REMARK 923 INTER-LIGAND FREE ENERGY PREDICTED BY IDOCK:   -3.20 KCAL/MOL
REMARK 924 INTRA-LIGAND FREE ENERGY PREDICTED BY IDOCK:   -0.38 KCAL/MOL
REMARK 927      BINDING AFFINITY PREDICTED BY RF-SCORE:    0.00 PKD
ROOT
HETATM    1  C   UNL     1     -13.406  10.908  71.878  1.00  0.00    -0.324 C  
HETATM    2  N   UNL     1     -12.669   9.775  72.438  1.00  0.00    -0.237 NA 
HETATM    3  C   UNL     1     -13.565   8.684  72.843  1.00  0.00     0.037 C  
HETATM    4  C   UNL     1     -14.124   7.867  71.677  1.00  0.00    -0.528 C  
HETATM    5  C   UNL     1     -13.021   7.385  70.745  1.00  0.00     0.027 C  
HETATM    6  C   UNL     1     -12.113   8.539  70.334  1.00  0.00     0.263 C  
HETATM    7  C   UNL     1     -11.574   9.327  71.540  1.00  0.00    -0.382 C  
ENDROOT
BRANCH   7   8
HETATM    8  C   UNL     1     -10.550   8.529  72.373  1.00  0.00    -0.368 C  
BRANCH   8   9
HETATM    9  C   UNL     1      -9.829   7.372  71.650  1.00  0.00    -0.165 C  
BRANCH   9  10
HETATM   10  N   UNL     1      -8.387   7.212  71.986  1.00  0.00    -0.107 NA 
HETATM   11  C   UNL     1      -7.999   6.154  72.867  1.00  0.00    -0.105 A  
HETATM   12  C   UNL     1      -6.643   5.836  73.093  1.00  0.00    -0.069 A  
HETATM   13  S   UNL     1      -5.277   6.725  72.391  1.00  0.00    -0.037 SA 
HETATM   14  C   UNL     1      -6.263   4.756  73.925  1.00  0.00    -0.050 A  
HETATM   15  C   UNL     1      -7.211   3.970  74.563  1.00  0.00    -0.069 A  
HETATM   16  C   UNL     1      -6.085   7.978  71.435  1.00  0.00    -0.035 A  
HETATM   17  C   UNL     1      -8.547   4.279  74.396  1.00  0.00    -0.095 A  
HETATM   18  C   UNL     1      -7.482   8.114  71.332  1.00  0.00    -0.078 A  
HETATM   19  C   UNL     1      -7.931   9.188  70.527  1.00  0.00    -0.170 A  
HETATM   20  C   UNL     1      -8.926   5.357  73.581  1.00  0.00    -0.124 A  
HETATM   21  C   UNL     1      -7.069   9.991  69.763  1.00  0.00    -0.119 A  
HETATM   22  C   UNL     1      -5.212   8.843  70.740  1.00  0.00    -0.027 A  
HETATM   23  C   UNL     1      -5.700   9.829  69.889  1.00  0.00    -0.041 A  
BRANCH  21  24
HETATM   24  S   UNL     1      -7.727  11.203  68.591  1.00  0.00    -0.141 S  
HETATM   25  O   UNL     1      -9.192  10.901  68.464  1.00  0.00    -0.166 OA 
HETATM   26  C   UNL     1      -6.920  10.537  67.105  1.00  0.00    -0.089 C  
ENDBRANCH  21  24
ENDBRANCH   9  10
ENDBRANCH   8   9
ENDBRANCH   7   8
TORSDOF 4
ENDMDL
MODEL      188
REMARK 921   NORMALIZED FREE ENERGY PREDICTED BY IDOCK:   -2.27 KCAL/MOL
REMARK 922        TOTAL FREE ENERGY PREDICTED BY IDOCK:   -3.58 KCAL/MOL
REMARK 923 INTER-LIGAND FREE ENERGY PREDICTED BY IDOCK:   -2.80 KCAL/MOL
REMARK 924 INTRA-LIGAND FREE ENERGY PREDICTED BY IDOCK:   -0.78 KCAL/MOL
REMARK 927      BINDING AFFINITY PREDICTED BY RF-SCORE:    0.00 PKD
ROOT
HETATM    1  C   UNL     1      -7.715   4.789  71.210  1.00  0.00    -0.083 C  
HETATM    2  N   UNL     1      -7.448   6.192  70.894  1.00  0.00    -0.092 NA 
HETATM    3  C   UNL     1      -7.950   7.094  71.939  1.00  0.00    -0.093 C  
HETATM    4  C   UNL     1      -7.098   7.118  73.209  1.00  0.00    -0.073 C  
HETATM    5  C   UNL     1      -5.628   7.366  72.897  1.00  0.00    -0.040 C  
HETATM    6  C   UNL     1      -5.132   6.410  71.818  1.00  0.00    -0.022 C  
HETATM    7  C   UNL     1      -6.019   6.424  70.561  1.00  0.00    -0.023 C  
ENDROOT
BRANCH   7   8
HETATM    8  C   UNL     1      -5.908   7.737  69.759  1.00  0.00    -0.023 C  
BRANCH   8   9
HETATM    9  C   UNL     1      -6.197   7.644  68.247  1.00  0.00    -0.040 C  
BRANCH   9  10
HETATM   10  N   UNL     1      -7.634   7.750  67.865  1.00  0.00    -0.114 NA 
HETATM   11  C   UNL     1      -8.351   6.555  67.548  1.00  0.00    -0.121 A  
HETATM   12  C   UNL     1      -9.748   6.560  67.346  1.00  0.00    -0.126 A  
HETATM   13  S   UNL     1     -10.759   8.016  67.388  1.00  0.00    -0.096 SA 
HETATM   14  C   UNL     1     -10.463   5.367  67.083  1.00  0.00    -0.298 A  
HETATM   15  C   UNL     1      -9.818   4.142  67.002  1.00  0.00    -0.190 A  
HETATM   16  C   UNL     1      -9.580   9.293  67.727  1.00  0.00    -0.142 A  
HETATM   17  C   UNL     1      -8.445   4.108  67.154  1.00  0.00    -0.100 A  
HETATM   18  C   UNL     1      -8.204   9.067  67.910  1.00  0.00    -0.110 A  
HETATM   19  C   UNL     1      -7.425  10.222  68.161  1.00  0.00    -0.086 A  
HETATM   20  C   UNL     1      -7.732   5.290  67.403  1.00  0.00    -0.096 A  
HETATM   21  C   UNL     1      -7.979  11.497  68.355  1.00  0.00    -0.143 A  
HETATM   22  C   UNL     1     -10.128  10.590  67.829  1.00  0.00    -0.205 A  
HETATM   23  C   UNL     1      -9.338  11.684  68.165  1.00  0.00    -0.188 A  
BRANCH  21  24
HETATM   24  S   UNL     1      -6.947  12.886  68.884  1.00  0.00    -0.054 S  
HETATM   25  O   UNL     1      -6.393  13.492  67.627  1.00  0.00    -0.159 OA 
HETATM   26  C   UNL     1      -5.613  11.901  69.627  1.00  0.00    -0.084 C  
ENDBRANCH  21  24
ENDBRANCH   9  10
ENDBRANCH   8   9
ENDBRANCH   7   8
TORSDOF 4
ENDMDL
MODEL      189
REMARK 921   NORMALIZED FREE ENERGY PREDICTED BY IDOCK:   -2.24 KCAL/MOL
REMARK 922        TOTAL FREE ENERGY PREDICTED BY IDOCK:   -3.54 KCAL/MOL
REMARK 923 INTER-LIGAND FREE ENERGY PREDICTED BY IDOCK:   -3.30 KCAL/MOL
REMARK 924 INTRA-LIGAND FREE ENERGY PREDICTED BY IDOCK:   -0.24 KCAL/MOL
REMARK 927      BINDING AFFINITY PREDICTED BY RF-SCORE:    0.00 PKD
ROOT
HETATM    1  C   UNL     1     -10.916   9.565  69.583  1.00  0.00    -0.212 C  
HETATM    2  N   UNL     1     -10.005   8.420  69.556  1.00  0.00    -0.186 NA 
HETATM    3  C   UNL     1     -10.598   7.233  70.185  1.00  0.00    -0.232 C  
HETATM    4  C   UNL     1     -11.655   6.532  69.331  1.00  0.00    -0.249 C  
HETATM    5  C   UNL     1     -11.143   6.241  67.926  1.00  0.00    -0.360 C  
HETATM    6  C   UNL     1     -10.543   7.492  67.295  1.00  0.00    -0.394 C  
HETATM    7  C   UNL     1      -9.484   8.157  68.190  1.00  0.00    -0.141 C  
ENDROOT
BRANCH   7   8
HETATM    8  C   UNL     1      -8.188   7.329  68.309  1.00  0.00    -0.125 C  
BRANCH   8   9
HETATM    9  C   UNL     1      -7.267   7.663  69.501  1.00  0.00    -0.080 C  
BRANCH   9  10
HETATM   10  N   UNL     1      -7.065   6.558  70.480  1.00  0.00    -0.064 NA 
HETATM   11  C   UNL     1      -7.451   6.767  71.841  1.00  0.00    -0.093 A  
HETATM   12  C   UNL     1      -7.450   5.715  72.782  1.00  0.00    -0.096 A  
HETATM   13  S   UNL     1      -6.918   4.060  72.430  1.00  0.00    -0.049 SA 
HETATM   14  C   UNL     1      -7.881   5.912  74.115  1.00  0.00    -0.101 A  
HETATM   15  C   UNL     1      -8.314   7.153  74.557  1.00  0.00    -0.215 A  
HETATM   16  C   UNL     1      -6.453   4.159  70.724  1.00  0.00    -0.030 A  
HETATM   17  C   UNL     1      -8.290   8.215  73.672  1.00  0.00    -0.305 A  
HETATM   18  C   UNL     1      -6.547   5.330  69.948  1.00  0.00    -0.043 A  
HETATM   19  C   UNL     1      -6.115   5.207  68.606  1.00  0.00    -0.029 A  
HETATM   20  C   UNL     1      -7.851   8.024  72.353  1.00  0.00    -0.161 A  
HETATM   21  C   UNL     1      -5.744   3.984  68.025  1.00  0.00    -0.022 A  
HETATM   22  C   UNL     1      -5.991   2.948  70.167  1.00  0.00    -0.023 A  
HETATM   23  C   UNL     1      -5.661   2.852  68.819  1.00  0.00    -0.021 A  
BRANCH  21  24
HETATM   24  S   UNL     1      -5.410   3.863  66.251  1.00  0.00    -0.013 S  
HETATM   25  O   UNL     1      -6.089   5.045  65.622  1.00  0.00    -0.031 OA 
HETATM   26  C   UNL     1      -6.460   2.416  65.925  1.00  0.00    -0.028 C  
ENDBRANCH  21  24
ENDBRANCH   9  10
ENDBRANCH   8   9
ENDBRANCH   7   8
TORSDOF 4
ENDMDL
MODEL      190
REMARK 921   NORMALIZED FREE ENERGY PREDICTED BY IDOCK:   -2.24 KCAL/MOL
REMARK 922        TOTAL FREE ENERGY PREDICTED BY IDOCK:   -3.53 KCAL/MOL
REMARK 923 INTER-LIGAND FREE ENERGY PREDICTED BY IDOCK:   -3.01 KCAL/MOL
REMARK 924 INTRA-LIGAND FREE ENERGY PREDICTED BY IDOCK:   -0.52 KCAL/MOL
REMARK 927      BINDING AFFINITY PREDICTED BY RF-SCORE:    0.00 PKD
ROOT
HETATM    1  C   UNL     1      -6.775  11.257  67.261  1.00  0.00    -0.104 C  
HETATM    2  N   UNL     1      -8.092  10.840  67.742  1.00  0.00    -0.110 NA 
HETATM    3  C   UNL     1      -9.064  11.940  67.702  1.00  0.00    -0.179 C  
HETATM    4  C   UNL     1      -9.576  12.274  66.300  1.00  0.00    -0.248 C  
HETATM    5  C   UNL     1     -10.083  11.035  65.574  1.00  0.00    -0.316 C  
HETATM    6  C   UNL     1      -9.051   9.914  65.623  1.00  0.00    -0.220 C  
HETATM    7  C   UNL     1      -8.571   9.614  67.053  1.00  0.00    -0.128 C  
ENDROOT
BRANCH   7   8
HETATM    8  C   UNL     1      -9.655   8.951  67.927  1.00  0.00    -0.171 C  
BRANCH   8   9
HETATM    9  C   UNL     1      -9.962   7.468  67.633  1.00  0.00    -0.171 C  
BRANCH   9  10
HETATM   10  N   UNL     1      -8.964   6.495  68.159  1.00  0.00    -0.118 NA 
HETATM   11  C   UNL     1      -8.829   6.345  69.575  1.00  0.00    -0.136 A  
HETATM   12  C   UNL     1      -8.033   5.327  70.141  1.00  0.00    -0.080 A  
HETATM   13  S   UNL     1      -7.065   4.176  69.201  1.00  0.00    -0.051 SA 
HETATM   14  C   UNL     1      -7.943   5.149  71.542  1.00  0.00    -0.113 A  
HETATM   15  C   UNL     1      -8.627   5.977  72.420  1.00  0.00    -0.120 A  
HETATM   16  C   UNL     1      -7.395   4.669  67.532  1.00  0.00    -0.074 A  
HETATM   17  C   UNL     1      -9.384   7.009  71.899  1.00  0.00    -0.147 A  
HETATM   18  C   UNL     1      -8.250   5.728  67.177  1.00  0.00    -0.102 A  
HETATM   19  C   UNL     1      -8.373   5.972  65.789  1.00  0.00    -0.142 A  
HETATM   20  C   UNL     1      -9.465   7.195  70.511  1.00  0.00    -0.162 A  
HETATM   21  C   UNL     1      -7.802   5.146  64.808  1.00  0.00    -0.094 A  
HETATM   22  C   UNL     1      -6.745   3.893  66.548  1.00  0.00    -0.046 A  
HETATM   23  C   UNL     1      -6.964   4.113  65.193  1.00  0.00    -0.058 A  
BRANCH  21  24
HETATM   24  S   UNL     1      -8.178   5.392  63.055  1.00  0.00    -0.094 S  
HETATM   25  O   UNL     1      -8.692   6.797  62.936  1.00  0.00     0.275 OA 
HETATM   26  C   UNL     1      -9.624   4.293  62.981  1.00  0.00    -0.106 C  
ENDBRANCH  21  24
ENDBRANCH   9  10
ENDBRANCH   8   9
ENDBRANCH   7   8
TORSDOF 4
ENDMDL
MODEL      191
REMARK 921   NORMALIZED FREE ENERGY PREDICTED BY IDOCK:   -2.14 KCAL/MOL
REMARK 922        TOTAL FREE ENERGY PREDICTED BY IDOCK:   -3.41 KCAL/MOL
REMARK 923 INTER-LIGAND FREE ENERGY PREDICTED BY IDOCK:   -2.76 KCAL/MOL
REMARK 924 INTRA-LIGAND FREE ENERGY PREDICTED BY IDOCK:   -0.65 KCAL/MOL
REMARK 927      BINDING AFFINITY PREDICTED BY RF-SCORE:    0.00 PKD
ROOT
HETATM    1  C   UNL     1     -13.588  11.924  72.188  1.00  0.00    -0.085 C  
HETATM    2  N   UNL     1     -12.623  10.963  71.654  1.00  0.00    -0.364 NA 
HETATM    3  C   UNL     1     -12.415   9.830  72.566  1.00  0.00     0.267 C  
HETATM    4  C   UNL     1     -13.561   8.817  72.578  1.00  0.00    -0.416 C  
HETATM    5  C   UNL     1     -13.925   8.361  71.171  1.00  0.00    -0.125 C  
HETATM    6  C   UNL     1     -14.144   9.556  70.250  1.00  0.00     1.225 C  
HETATM    7  C   UNL     1     -12.964  10.543  70.271  1.00  0.00    -0.056 C  
ENDROOT
BRANCH   7   8
HETATM    8  C   UNL     1     -11.695   9.980  69.600  1.00  0.00    -0.098 C  
BRANCH   8   9
HETATM    9  C   UNL     1     -11.439  10.414  68.142  1.00  0.00    -0.118 C  
BRANCH   9  10
HETATM   10  N   UNL     1     -10.011  10.652  67.789  1.00  0.00    -0.164 NA 
HETATM   11  C   UNL     1      -9.242   9.566  67.265  1.00  0.00    -0.134 A  
HETATM   12  C   UNL     1      -7.942   9.758  66.752  1.00  0.00    -0.105 A  
HETATM   13  S   UNL     1      -7.086  11.311  66.752  1.00  0.00    -0.128 SA 
HETATM   14  C   UNL     1      -7.203   8.690  66.187  1.00  0.00    -0.085 A  
HETATM   15  C   UNL     1      -7.723   7.407  66.124  1.00  0.00    -0.094 A  
HETATM   16  C   UNL     1      -8.260  12.397  67.511  1.00  0.00    -0.173 A  
HETATM   17  C   UNL     1      -8.978   7.176  66.656  1.00  0.00    -0.164 A  
HETATM   18  C   UNL     1      -9.536  11.997  67.950  1.00  0.00    -0.196 A  
HETATM   19  C   UNL     1     -10.323  13.013  68.542  1.00  0.00    -0.247 A  
HETATM   20  C   UNL     1      -9.708   8.230  67.227  1.00  0.00    -0.234 A  
HETATM   21  C   UNL     1      -9.939  14.363  68.577  1.00  0.00    -0.237 A  
HETATM   22  C   UNL     1      -7.834  13.737  67.630  1.00  0.00    -0.185 A  
HETATM   23  C   UNL     1      -8.675  14.721  68.138  1.00  0.00    -0.168 A  
BRANCH  21  24
HETATM   24  S   UNL     1     -11.085  15.639  69.154  1.00  0.00    -0.310 S  
HETATM   25  O   UNL     1     -10.450  16.245  70.372  1.00  0.00    -0.098 OA 
HETATM   26  C   UNL     1     -12.389  14.517  69.741  1.00  0.00    -0.272 C  
ENDBRANCH  21  24
ENDBRANCH   9  10
ENDBRANCH   8   9
ENDBRANCH   7   8
TORSDOF 4
ENDMDL
MODEL      192
REMARK 921   NORMALIZED FREE ENERGY PREDICTED BY IDOCK:   -2.12 KCAL/MOL
REMARK 922        TOTAL FREE ENERGY PREDICTED BY IDOCK:   -3.39 KCAL/MOL
REMARK 923 INTER-LIGAND FREE ENERGY PREDICTED BY IDOCK:   -3.14 KCAL/MOL
REMARK 924 INTRA-LIGAND FREE ENERGY PREDICTED BY IDOCK:   -0.25 KCAL/MOL
REMARK 927      BINDING AFFINITY PREDICTED BY RF-SCORE:    0.00 PKD
ROOT
HETATM    1  C   UNL     1     -13.240  11.966  71.979  1.00  0.00    -0.356 C  
HETATM    2  N   UNL     1     -12.322  10.921  71.526  1.00  0.00    -0.291 NA 
HETATM    3  C   UNL     1     -12.305   9.772  72.442  1.00  0.00     0.197 C  
HETATM    4  C   UNL     1     -13.535   8.870  72.339  1.00  0.00    -0.499 C  
HETATM    5  C   UNL     1     -13.808   8.451  70.900  1.00  0.00     0.216 C  
HETATM    6  C   UNL     1     -13.831   9.663  69.975  1.00  0.00     1.600 C  
HETATM    7  C   UNL     1     -12.572  10.536  70.113  1.00  0.00    -0.178 C  
ENDROOT
BRANCH   7   8
HETATM    8  C   UNL     1     -11.303   9.859  69.556  1.00  0.00    -0.172 C  
BRANCH   8   9
HETATM    9  C   UNL     1     -10.975  10.130  68.073  1.00  0.00    -0.270 C  
BRANCH   9  10
HETATM   10  N   UNL     1     -10.044  11.266  67.824  1.00  0.00    -0.177 NA 
HETATM   11  C   UNL     1     -10.511  12.383  67.063  1.00  0.00    -0.220 A  
HETATM   12  C   UNL     1      -9.748  13.563  66.933  1.00  0.00    -0.261 A  
HETATM   13  S   UNL     1      -8.127  13.785  67.618  1.00  0.00    -0.192 SA 
HETATM   14  C   UNL     1     -10.235  14.685  66.222  1.00  0.00    -0.302 A  
HETATM   15  C   UNL     1     -11.480  14.669  65.612  1.00  0.00    -0.340 A  
HETATM   16  C   UNL     1      -7.830  12.233  68.416  1.00  0.00    -0.151 A  
HETATM   17  C   UNL     1     -12.236  13.514  65.685  1.00  0.00    -0.500 A  
HETATM   18  C   UNL     1      -8.750  11.168  68.437  1.00  0.00    -0.157 A  
HETATM   19  C   UNL     1      -8.319  10.005  69.119  1.00  0.00    -0.146 A  
HETATM   20  C   UNL     1     -11.751  12.396  66.380  1.00  0.00    -0.453 A  
HETATM   21  C   UNL     1      -7.122   9.939  69.849  1.00  0.00    -0.118 A  
HETATM   22  C   UNL     1      -6.583  12.135  69.071  1.00  0.00    -0.100 A  
HETATM   23  C   UNL     1      -6.239  11.005  69.804  1.00  0.00    -0.113 A  
BRANCH  21  24
HETATM   24  S   UNL     1      -6.738   8.496  70.872  1.00  0.00    -0.052 S  
HETATM   25  O   UNL     1      -5.252   8.525  71.084  1.00  0.00    -0.028 OA 
HETATM   26  C   UNL     1      -7.067   7.233  69.607  1.00  0.00    -0.073 C  
ENDBRANCH  21  24
ENDBRANCH   9  10
ENDBRANCH   8   9
ENDBRANCH   7   8
TORSDOF 4
ENDMDL
MODEL      193
REMARK 921   NORMALIZED FREE ENERGY PREDICTED BY IDOCK:   -2.10 KCAL/MOL
REMARK 922        TOTAL FREE ENERGY PREDICTED BY IDOCK:   -3.36 KCAL/MOL
REMARK 923 INTER-LIGAND FREE ENERGY PREDICTED BY IDOCK:   -3.55 KCAL/MOL
REMARK 924 INTRA-LIGAND FREE ENERGY PREDICTED BY IDOCK:    0.19 KCAL/MOL
REMARK 927      BINDING AFFINITY PREDICTED BY RF-SCORE:    0.00 PKD
ROOT
HETATM    1  C   UNL     1     -10.968   4.063  73.802  1.00  0.00    -0.244 C  
HETATM    2  N   UNL     1      -9.882   4.697  73.055  1.00  0.00    -0.140 NA 
HETATM    3  C   UNL     1      -8.568   4.409  73.647  1.00  0.00    -0.096 C  
HETATM    4  C   UNL     1      -8.056   2.994  73.379  1.00  0.00    -0.072 C  
HETATM    5  C   UNL     1      -8.103   2.648  71.896  1.00  0.00    -0.057 C  
HETATM    6  C   UNL     1      -9.479   2.947  71.311  1.00  0.00    -0.219 C  
HETATM    7  C   UNL     1      -9.948   4.382  71.605  1.00  0.00    -0.186 C  
ENDROOT
BRANCH   7   8
HETATM    8  C   UNL     1      -9.146   5.449  70.833  1.00  0.00    -0.164 C  
BRANCH   8   9
HETATM    9  C   UNL     1      -7.966   4.936  69.980  1.00  0.00    -0.073 C  
BRANCH   9  10
HETATM   10  N   UNL     1      -8.146   5.058  68.506  1.00  0.00    -0.085 NA 
HETATM   11  C   UNL     1      -7.996   3.889  67.696  1.00  0.00    -0.090 A  
HETATM   12  C   UNL     1      -8.318   3.892  66.322  1.00  0.00    -0.105 A  
HETATM   13  S   UNL     1      -8.869   5.322  65.427  1.00  0.00    -0.133 SA 
HETATM   14  C   UNL     1      -8.218   2.720  65.535  1.00  0.00    -0.089 A  
HETATM   15  C   UNL     1      -7.787   1.520  66.079  1.00  0.00    -0.067 A  
HETATM   16  C   UNL     1      -8.878   6.577  66.676  1.00  0.00    -0.132 A  
HETATM   17  C   UNL     1      -7.425   1.492  67.413  1.00  0.00    -0.058 A  
HETATM   18  C   UNL     1      -8.525   6.355  68.020  1.00  0.00    -0.118 A  
HETATM   19  C   UNL     1      -8.587   7.491  68.862  1.00  0.00    -0.129 A  
HETATM   20  C   UNL     1      -7.512   2.655  68.193  1.00  0.00    -0.052 A  
HETATM   21  C   UNL     1      -9.093   8.732  68.444  1.00  0.00    -0.141 A  
HETATM   22  C   UNL     1      -9.300   7.848  66.232  1.00  0.00    -0.225 A  
HETATM   23  C   UNL     1      -9.430   8.915  67.113  1.00  0.00    -0.202 A  
BRANCH  21  24
HETATM   24  S   UNL     1      -9.344  10.077  69.628  1.00  0.00    -0.196 S  
HETATM   25  O   UNL     1      -9.194   9.462  70.989  1.00  0.00    -0.229 OA 
HETATM   26  C   UNL     1     -11.125  10.296  69.342  1.00  0.00    -0.252 C  
ENDBRANCH  21  24
ENDBRANCH   9  10
ENDBRANCH   8   9
ENDBRANCH   7   8
TORSDOF 4
ENDMDL
MODEL      194
REMARK 921   NORMALIZED FREE ENERGY PREDICTED BY IDOCK:   -2.09 KCAL/MOL
REMARK 922        TOTAL FREE ENERGY PREDICTED BY IDOCK:   -3.35 KCAL/MOL
REMARK 923 INTER-LIGAND FREE ENERGY PREDICTED BY IDOCK:   -4.19 KCAL/MOL
REMARK 924 INTRA-LIGAND FREE ENERGY PREDICTED BY IDOCK:    0.84 KCAL/MOL
REMARK 927      BINDING AFFINITY PREDICTED BY RF-SCORE:    0.00 PKD
ROOT
HETATM    1  C   UNL     1     -11.168   9.790  69.015  1.00  0.00    -0.038 C  
HETATM    2  N   UNL     1     -10.152   9.045  69.759  1.00  0.00    -0.193 NA 
HETATM    3  C   UNL     1     -10.162   9.382  71.189  1.00  0.00    -0.291 C  
HETATM    4  C   UNL     1     -11.323   8.766  71.970  1.00  0.00    -0.441 C  
HETATM    5  C   UNL     1     -11.427   7.265  71.736  1.00  0.00    -0.300 C  
HETATM    6  C   UNL     1     -11.425   6.945  70.245  1.00  0.00    -0.373 C  
HETATM    7  C   UNL     1     -10.237   7.584  69.504  1.00  0.00    -0.207 C  
ENDROOT
BRANCH   7   8
HETATM    8  C   UNL     1      -8.884   6.942  69.868  1.00  0.00    -0.142 C  
BRANCH   8   9
HETATM    9  C   UNL     1      -8.869   6.031  71.113  1.00  0.00    -0.139 C  
BRANCH   9  10
HETATM   10  N   UNL     1      -8.897   4.568  70.833  1.00  0.00    -0.110 NA 
HETATM   11  C   UNL     1      -9.586   3.707  71.745  1.00  0.00    -0.151 A  
HETATM   12  C   UNL     1      -9.801   2.342  71.456  1.00  0.00    -0.127 A  
HETATM   13  S   UNL     1      -9.202   1.521  70.003  1.00  0.00    -0.097 SA 
HETATM   14  C   UNL     1     -10.527   1.505  72.336  1.00  0.00    -0.225 A  
HETATM   15  C   UNL     1     -11.050   1.989  73.526  1.00  0.00    -0.294 A  
HETATM   16  C   UNL     1      -8.358   2.821  69.146  1.00  0.00    -0.059 A  
HETATM   17  C   UNL     1     -10.823   3.311  73.858  1.00  0.00    -0.298 A  
HETATM   18  C   UNL     1      -8.271   4.146  69.613  1.00  0.00    -0.058 A  
HETATM   19  C   UNL     1      -7.542   5.035  68.787  1.00  0.00    -0.077 A  
HETATM   20  C   UNL     1     -10.093   4.141  72.993  1.00  0.00    -0.212 A  
HETATM   21  C   UNL     1      -7.048   4.681  67.522  1.00  0.00    -0.065 A  
HETATM   22  C   UNL     1      -7.781   2.439  67.916  1.00  0.00    -0.059 A  
HETATM   23  C   UNL     1      -7.150   3.367  67.096  1.00  0.00    -0.058 A  
BRANCH  21  24
HETATM   24  S   UNL     1      -6.315   5.926  66.432  1.00  0.00    -0.040 S  
HETATM   25  O   UNL     1      -6.347   7.216  67.198  1.00  0.00    -0.048 OA 
HETATM   26  C   UNL     1      -7.675   5.994  65.227  1.00  0.00    -0.093 C  
ENDBRANCH  21  24
ENDBRANCH   9  10
ENDBRANCH   8   9
ENDBRANCH   7   8
TORSDOF 4
ENDMDL
MODEL      195
REMARK 921   NORMALIZED FREE ENERGY PREDICTED BY IDOCK:   -2.09 KCAL/MOL
REMARK 922        TOTAL FREE ENERGY PREDICTED BY IDOCK:   -3.35 KCAL/MOL
REMARK 923 INTER-LIGAND FREE ENERGY PREDICTED BY IDOCK:   -4.30 KCAL/MOL
REMARK 924 INTRA-LIGAND FREE ENERGY PREDICTED BY IDOCK:    0.95 KCAL/MOL
REMARK 927      BINDING AFFINITY PREDICTED BY RF-SCORE:    0.00 PKD
ROOT
HETATM    1  C   UNL     1      -8.938   9.794  63.737  1.00  0.00    -0.240 C  
HETATM    2  N   UNL     1      -8.332   9.075  64.858  1.00  0.00    -0.160 NA 
HETATM    3  C   UNL     1      -7.529   9.962  65.710  1.00  0.00    -0.110 C  
HETATM    4  C   UNL     1      -8.354  10.875  66.617  1.00  0.00    -0.143 C  
HETATM    5  C   UNL     1      -9.385  10.092  67.419  1.00  0.00    -0.167 C  
HETATM    6  C   UNL     1     -10.210   9.188  66.510  1.00  0.00    -0.322 C  
HETATM    7  C   UNL     1      -9.335   8.287  65.620  1.00  0.00     0.052 C  
ENDROOT
BRANCH   7   8
HETATM    8  C   UNL     1      -8.599   7.188  66.412  1.00  0.00    -0.137 C  
BRANCH   8   9
HETATM    9  C   UNL     1      -9.090   6.936  67.853  1.00  0.00    -0.122 C  
BRANCH   9  10
HETATM   10  N   UNL     1      -9.281   5.504  68.219  1.00  0.00    -0.108 NA 
HETATM   11  C   UNL     1      -9.237   4.518  67.184  1.00  0.00    -0.135 A  
HETATM   12  C   UNL     1      -9.238   3.137  67.475  1.00  0.00    -0.193 A  
HETATM   13  S   UNL     1      -9.362   2.460  69.110  1.00  0.00    -0.083 SA 
HETATM   14  C   UNL     1      -9.143   2.164  66.452  1.00  0.00    -0.064 A  
HETATM   15  C   UNL     1      -9.054   2.528  65.117  1.00  0.00    -0.135 A  
HETATM   16  C   UNL     1      -9.466   3.910  70.120  1.00  0.00    -0.191 A  
HETATM   17  C   UNL     1      -9.092   3.871  64.794  1.00  0.00    -0.141 A  
HETATM   18  C   UNL     1      -9.434   5.225  69.619  1.00  0.00    -0.141 A  
HETATM   19  C   UNL     1      -9.542   6.249  70.589  1.00  0.00    -0.189 A  
HETATM   20  C   UNL     1      -9.199   4.837  65.806  1.00  0.00    -0.149 A  
HETATM   21  C   UNL     1      -9.545   6.004  71.972  1.00  0.00    -0.152 A  
HETATM   22  C   UNL     1      -9.563   3.658  71.506  1.00  0.00    -0.234 A  
HETATM   23  C   UNL     1      -9.578   4.698  72.430  1.00  0.00    -0.192 A  
BRANCH  21  24
HETATM   24  S   UNL     1      -9.468   7.370  73.156  1.00  0.00    -0.225 S  
HETATM   25  O   UNL     1     -10.775   7.350  73.894  1.00  0.00    -0.319 OA 
HETATM   26  C   UNL     1      -9.567   8.721  71.943  1.00  0.00    -0.302 C  
ENDBRANCH  21  24
ENDBRANCH   9  10
ENDBRANCH   8   9
ENDBRANCH   7   8
TORSDOF 4
ENDMDL
MODEL      196
REMARK 921   NORMALIZED FREE ENERGY PREDICTED BY IDOCK:   -2.02 KCAL/MOL
REMARK 922        TOTAL FREE ENERGY PREDICTED BY IDOCK:   -3.26 KCAL/MOL
REMARK 923 INTER-LIGAND FREE ENERGY PREDICTED BY IDOCK:   -3.22 KCAL/MOL
REMARK 924 INTRA-LIGAND FREE ENERGY PREDICTED BY IDOCK:   -0.05 KCAL/MOL
REMARK 927      BINDING AFFINITY PREDICTED BY RF-SCORE:    0.00 PKD
ROOT
HETATM    1  C   UNL     1      -9.892  15.443  66.633  1.00  0.00    -0.255 C  
HETATM    2  N   UNL     1      -8.852  14.414  66.643  1.00  0.00    -0.204 NA 
HETATM    3  C   UNL     1      -7.602  14.903  67.240  1.00  0.00    -0.181 C  
HETATM    4  C   UNL     1      -7.638  15.016  68.765  1.00  0.00    -0.137 C  
HETATM    5  C   UNL     1      -8.116  13.724  69.415  1.00  0.00     0.569 C  
HETATM    6  C   UNL     1      -9.419  13.246  68.783  1.00  0.00     0.084 C  
HETATM    7  C   UNL     1      -9.331  13.146  67.250  1.00  0.00    -0.225 C  
ENDROOT
BRANCH   7   8
HETATM    8  C   UNL     1      -8.421  11.997  66.772  1.00  0.00    -0.155 C  
BRANCH   8   9
HETATM    9  C   UNL     1      -7.879  11.051  67.864  1.00  0.00    -0.110 C  
BRANCH   9  10
HETATM   10  N   UNL     1      -8.388   9.652  67.805  1.00  0.00    -0.120 NA 
HETATM   11  C   UNL     1      -9.142   9.147  68.910  1.00  0.00    -0.139 A  
HETATM   12  C   UNL     1      -9.799   7.899  68.852  1.00  0.00    -0.173 A  
HETATM   13  S   UNL     1      -9.720   6.791  67.469  1.00  0.00    -0.134 SA 
HETATM   14  C   UNL     1     -10.587   7.426  69.929  1.00  0.00    -0.245 A  
HETATM   15  C   UNL     1     -10.738   8.165  71.092  1.00  0.00    -0.258 A  
HETATM   16  C   UNL     1      -8.680   7.666  66.335  1.00  0.00    -0.151 A  
HETATM   17  C   UNL     1     -10.076   9.374  71.197  1.00  0.00    -0.335 A  
HETATM   18  C   UNL     1      -8.126   8.935  66.589  1.00  0.00    -0.107 A  
HETATM   19  C   UNL     1      -7.312   9.461  65.559  1.00  0.00    -0.088 A  
HETATM   20  C   UNL     1      -9.284   9.840  70.136  1.00  0.00    -0.253 A  
HETATM   21  C   UNL     1      -7.160   8.846  64.306  1.00  0.00    -0.090 A  
HETATM   22  C   UNL     1      -8.453   7.002  65.110  1.00  0.00    -0.023 A  
HETATM   23  C   UNL     1      -7.718   7.597  64.091  1.00  0.00    -0.128 A  
BRANCH  21  24
HETATM   24  S   UNL     1      -6.280   9.681  62.963  1.00  0.00    -0.110 S  
HETATM   25  O   UNL     1      -5.269  10.572  63.624  1.00  0.00    -0.135 OA 
HETATM   26  C   UNL     1      -7.651  10.745  62.427  1.00  0.00    -0.109 C  
ENDBRANCH  21  24
ENDBRANCH   9  10
ENDBRANCH   8   9
ENDBRANCH   7   8
TORSDOF 4
ENDMDL
MODEL      197
REMARK 921   NORMALIZED FREE ENERGY PREDICTED BY IDOCK:   -2.00 KCAL/MOL
REMARK 922        TOTAL FREE ENERGY PREDICTED BY IDOCK:   -3.24 KCAL/MOL
REMARK 923 INTER-LIGAND FREE ENERGY PREDICTED BY IDOCK:   -3.01 KCAL/MOL
REMARK 924 INTRA-LIGAND FREE ENERGY PREDICTED BY IDOCK:   -0.23 KCAL/MOL
REMARK 927      BINDING AFFINITY PREDICTED BY RF-SCORE:    0.00 PKD
ROOT
HETATM    1  C   UNL     1      -9.808   4.301  66.598  1.00  0.00    -0.214 C  
HETATM    2  N   UNL     1      -9.152   5.311  67.428  1.00  0.00    -0.112 NA 
HETATM    3  C   UNL     1     -10.001   6.494  67.626  1.00  0.00    -0.130 C  
HETATM    4  C   UNL     1     -11.147   6.285  68.617  1.00  0.00    -0.409 C  
HETATM    5  C   UNL     1     -10.653   5.708  69.937  1.00  0.00    -0.399 C  
HETATM    6  C   UNL     1      -9.784   4.477  69.702  1.00  0.00    -0.288 C  
HETATM    7  C   UNL     1      -8.645   4.738  68.702  1.00  0.00    -0.093 C  
ENDROOT
BRANCH   7   8
HETATM    8  C   UNL     1      -7.554   5.673  69.261  1.00  0.00    -0.087 C  
BRANCH   8   9
HETATM    9  C   UNL     1      -6.606   6.318  68.227  1.00  0.00    -0.062 C  
BRANCH   9  10
HETATM   10  N   UNL     1      -6.445   7.794  68.344  1.00  0.00    -0.051 NA 
HETATM   11  C   UNL     1      -6.128   8.352  69.623  1.00  0.00    -0.032 A  
HETATM   12  C   UNL     1      -5.793   9.714  69.775  1.00  0.00    -0.036 A  
HETATM   13  S   UNL     1      -5.790  10.897  68.453  1.00  0.00    -0.042 SA 
HETATM   14  C   UNL     1      -5.430  10.252  71.033  1.00  0.00    -0.089 A  
HETATM   15  C   UNL     1      -5.398   9.463  72.173  1.00  0.00    -0.075 A  
HETATM   16  C   UNL     1      -6.280   9.919  67.061  1.00  0.00    -0.063 A  
HETATM   17  C   UNL     1      -5.760   8.133  72.066  1.00  0.00    -0.038 A  
HETATM   18  C   UNL     1      -6.562   8.541  67.124  1.00  0.00    -0.058 A  
HETATM   19  C   UNL     1      -6.949   7.942  65.902  1.00  0.00    -0.057 A  
HETATM   20  C   UNL     1      -6.132   7.600  70.822  1.00  0.00    -0.034 A  
HETATM   21  C   UNL     1      -6.929   8.618  64.672  1.00  0.00    -0.073 A  
HETATM   22  C   UNL     1      -6.349  10.623  65.840  1.00  0.00    -0.128 A  
HETATM   23  C   UNL     1      -6.649   9.975  64.647  1.00  0.00    -0.128 A  
BRANCH  21  24
HETATM   24  S   UNL     1      -7.228   7.733  63.122  1.00  0.00    -0.097 S  
HETATM   25  O   UNL     1      -8.233   8.553  62.366  1.00  0.00    -0.164 OA 
HETATM   26  C   UNL     1      -8.127   6.326  63.840  1.00  0.00    -0.055 C  
ENDBRANCH  21  24
ENDBRANCH   9  10
ENDBRANCH   8   9
ENDBRANCH   7   8
TORSDOF 4
ENDMDL
MODEL      198
REMARK 921   NORMALIZED FREE ENERGY PREDICTED BY IDOCK:   -1.88 KCAL/MOL
REMARK 922        TOTAL FREE ENERGY PREDICTED BY IDOCK:   -3.10 KCAL/MOL
REMARK 923 INTER-LIGAND FREE ENERGY PREDICTED BY IDOCK:   -2.65 KCAL/MOL
REMARK 924 INTRA-LIGAND FREE ENERGY PREDICTED BY IDOCK:   -0.45 KCAL/MOL
REMARK 927      BINDING AFFINITY PREDICTED BY RF-SCORE:    0.00 PKD
ROOT
HETATM    1  C   UNL     1     -13.374   9.938  70.191  1.00  0.00     0.620 C  
HETATM    2  N   UNL     1     -12.159  10.630  69.764  1.00  0.00    -0.294 NA 
HETATM    3  C   UNL     1     -11.141  10.656  70.822  1.00  0.00     0.160 C  
HETATM    4  C   UNL     1     -10.422   9.323  71.034  1.00  0.00    -0.384 C  
HETATM    5  C   UNL     1      -9.874   8.764  69.727  1.00  0.00    -0.189 C  
HETATM    6  C   UNL     1     -10.954   8.739  68.651  1.00  0.00     0.091 C  
HETATM    7  C   UNL     1     -11.644  10.102  68.474  1.00  0.00     0.087 C  
ENDROOT
BRANCH   7   8
HETATM    8  C   UNL     1     -10.726  11.166  67.839  1.00  0.00    -0.261 C  
BRANCH   8   9
HETATM    9  C   UNL     1     -10.028  10.771  66.520  1.00  0.00    -0.213 C  
BRANCH   9  10
HETATM   10  N   UNL     1      -8.564  10.514  66.627  1.00  0.00    -0.129 NA 
HETATM   11  C   UNL     1      -8.065   9.221  66.272  1.00  0.00    -0.107 A  
HETATM   12  C   UNL     1      -6.681   8.959  66.183  1.00  0.00    -0.069 A  
HETATM   13  S   UNL     1      -5.414  10.142  66.559  1.00  0.00    -0.049 SA 
HETATM   14  C   UNL     1      -6.191   7.694  65.781  1.00  0.00    -0.038 A  
HETATM   15  C   UNL     1      -7.052   6.653  65.467  1.00  0.00    -0.064 A  
HETATM   16  C   UNL     1      -6.348  11.574  67.018  1.00  0.00    -0.133 A  
HETATM   17  C   UNL     1      -8.413   6.864  65.583  1.00  0.00    -0.141 A  
HETATM   18  C   UNL     1      -7.754  11.630  67.026  1.00  0.00    -0.159 A  
HETATM   19  C   UNL     1      -8.312  12.864  67.435  1.00  0.00    -0.190 A  
HETATM   20  C   UNL     1      -8.902   8.114  65.992  1.00  0.00    -0.206 A  
HETATM   21  C   UNL     1      -7.543  14.011  67.688  1.00  0.00    -0.179 A  
HETATM   22  C   UNL     1      -5.570  12.700  67.362  1.00  0.00    -0.087 A  
HETATM   23  C   UNL     1      -6.161  13.920  67.673  1.00  0.00    -0.109 A  
BRANCH  21  24
HETATM   24  S   UNL     1      -8.335  15.609  67.997  1.00  0.00    -0.147 S  
HETATM   25  O   UNL     1      -7.924  16.012  69.383  1.00  0.00    -0.236 OA 
HETATM   26  C   UNL     1     -10.041  14.993  68.110  1.00  0.00    -0.220 C  
ENDBRANCH  21  24
ENDBRANCH   9  10
ENDBRANCH   8   9
ENDBRANCH   7   8
TORSDOF 4
ENDMDL
MODEL      199
REMARK 921   NORMALIZED FREE ENERGY PREDICTED BY IDOCK:   -1.64 KCAL/MOL
REMARK 922        TOTAL FREE ENERGY PREDICTED BY IDOCK:   -2.79 KCAL/MOL
REMARK 923 INTER-LIGAND FREE ENERGY PREDICTED BY IDOCK:   -2.03 KCAL/MOL
REMARK 924 INTRA-LIGAND FREE ENERGY PREDICTED BY IDOCK:   -0.77 KCAL/MOL
REMARK 927      BINDING AFFINITY PREDICTED BY RF-SCORE:    0.00 PKD
ROOT
HETATM    1  C   UNL     1     -11.757  15.971  69.879  1.00  0.00    -0.271 C  
HETATM    2  N   UNL     1     -11.229  14.762  70.511  1.00  0.00    -0.196 NA 
HETATM    3  C   UNL     1     -10.874  14.988  71.918  1.00  0.00     0.572 C  
HETATM    4  C   UNL     1     -12.074  15.071  72.862  1.00  0.00    -0.428 C  
HETATM    5  C   UNL     1     -13.009  13.881  72.692  1.00  0.00    -0.440 C  
HETATM    6  C   UNL     1     -13.369  13.676  71.224  1.00  0.00    -0.259 C  
HETATM    7  C   UNL     1     -12.129  13.596  70.317  1.00  0.00    -0.357 C  
ENDROOT
BRANCH   7   8
HETATM    8  C   UNL     1     -11.312  12.304  70.525  1.00  0.00     0.749 C  
BRANCH   8   9
HETATM    9  C   UNL     1     -10.798  11.604  69.250  1.00  0.00    -0.152 C  
BRANCH   9  10
HETATM   10  N   UNL     1      -9.326  11.673  69.035  1.00  0.00     0.059 NA 
HETATM   11  C   UNL     1      -8.797  12.723  68.220  1.00  0.00    -0.168 A  
HETATM   12  C   UNL     1      -7.409  12.952  68.113  1.00  0.00    -0.119 A  
HETATM   13  S   UNL     1      -6.168  11.954  68.895  1.00  0.00    -0.070 SA 
HETATM   14  C   UNL     1      -6.892  14.023  67.347  1.00  0.00    -0.025 A  
HETATM   15  C   UNL     1      -7.729  14.889  66.660  1.00  0.00     0.477 A  
HETATM   16  C   UNL     1      -7.133  10.736  69.745  1.00  0.00    -0.124 A  
HETATM   17  C   UNL     1      -9.092  14.669  66.711  1.00  0.00    -0.287 A  
HETATM   18  C   UNL     1      -8.539  10.694  69.731  1.00  0.00     0.282 A  
HETATM   19  C   UNL     1      -9.123   9.634  70.465  1.00  0.00    -0.198 A  
HETATM   20  C   UNL     1      -9.607  13.600  67.460  1.00  0.00    -0.220 A  
HETATM   21  C   UNL     1      -8.383   8.755  71.271  1.00  0.00    -0.176 A  
HETATM   22  C   UNL     1      -6.380   9.795  70.480  1.00  0.00    -0.100 A  
HETATM   23  C   UNL     1      -7.000   8.824  71.259  1.00  0.00    -0.088 A  
BRANCH  21  24
HETATM   24  S   UNL     1      -9.214   7.562  72.349  1.00  0.00    -0.155 S  
HETATM   25  O   UNL     1      -8.483   6.264  72.167  1.00  0.00    -0.113 OA 
HETATM   26  C   UNL     1     -10.756   7.438  71.395  1.00  0.00    -0.219 C  
ENDBRANCH  21  24
ENDBRANCH   9  10
ENDBRANCH   8   9
ENDBRANCH   7   8
TORSDOF 4
ENDMDL
MODEL      200
REMARK 921   NORMALIZED FREE ENERGY PREDICTED BY IDOCK:   -1.62 KCAL/MOL
REMARK 922        TOTAL FREE ENERGY PREDICTED BY IDOCK:   -2.77 KCAL/MOL
REMARK 923 INTER-LIGAND FREE ENERGY PREDICTED BY IDOCK:   -3.17 KCAL/MOL
REMARK 924 INTRA-LIGAND FREE ENERGY PREDICTED BY IDOCK:    0.40 KCAL/MOL
REMARK 927      BINDING AFFINITY PREDICTED BY RF-SCORE:    0.00 PKD
ROOT
HETATM    1  C   UNL     1      -9.545  12.758  65.871  1.00  0.00    -0.136 C  
HETATM    2  N   UNL     1      -9.449  11.537  66.671  1.00  0.00    -0.188 NA 
HETATM    3  C   UNL     1     -10.522  10.587  66.353  1.00  0.00    -0.192 C  
HETATM    4  C   UNL     1     -10.333   9.847  65.028  1.00  0.00     0.247 C  
HETATM    5  C   UNL     1      -8.954   9.207  64.932  1.00  0.00    -0.201 C  
HETATM    6  C   UNL     1      -7.860  10.218  65.257  1.00  0.00    -0.145 C  
HETATM    7  C   UNL     1      -8.094  10.932  66.600  1.00  0.00    -0.147 C  
ENDROOT
BRANCH   7   8
HETATM    8  C   UNL     1      -7.905  10.005  67.817  1.00  0.00    -0.094 C  
BRANCH   8   9
HETATM    9  C   UNL     1      -8.832  10.259  69.024  1.00  0.00    -0.168 C  
BRANCH   9  10
HETATM   10  N   UNL     1      -9.905   9.246  69.228  1.00  0.00    -0.167 NA 
HETATM   11  C   UNL     1      -9.648   7.888  68.860  1.00  0.00    -0.155 A  
HETATM   12  C   UNL     1     -10.548   6.850  69.181  1.00  0.00    -0.223 A  
HETATM   13  S   UNL     1     -12.105   7.092  69.996  1.00  0.00     0.322 SA 
HETATM   14  C   UNL     1     -10.266   5.500  68.862  1.00  0.00    -0.284 A  
HETATM   15  C   UNL     1      -9.097   5.142  68.209  1.00  0.00    -0.128 A  
HETATM   16  C   UNL     1     -12.142   8.846  70.241  1.00  0.00     0.328 A  
HETATM   17  C   UNL     1      -8.212   6.140  67.844  1.00  0.00    -0.117 A  
HETATM   18  C   UNL     1     -11.111   9.719  69.848  1.00  0.00    -0.254 A  
HETATM   19  C   UNL     1     -11.335  11.089  70.123  1.00  0.00    -0.335 A  
HETATM   20  C   UNL     1      -8.495   7.480  68.149  1.00  0.00    -0.124 A  
HETATM   21  C   UNL     1     -12.436  11.557  70.858  1.00  0.00    -0.366 A  
HETATM   22  C   UNL     1     -13.295   9.325  70.898  1.00  0.00    -0.018 A  
HETATM   23  C   UNL     1     -13.433  10.669  71.227  1.00  0.00    -0.075 A  
BRANCH  21  24
HETATM   24  S   UNL     1     -12.548  13.293  71.357  1.00  0.00    -0.193 S  
HETATM   25  O   UNL     1     -14.001  13.657  71.260  1.00  0.00    -0.050 OA 
HETATM   26  C   UNL     1     -11.729  13.997  69.895  1.00  0.00    -0.303 C  
ENDBRANCH  21  24
ENDBRANCH   9  10
ENDBRANCH   8   9
ENDBRANCH   7   8
TORSDOF 4
ENDMDL
MODEL      201
REMARK 921   NORMALIZED FREE ENERGY PREDICTED BY IDOCK:   -1.61 KCAL/MOL
REMARK 922        TOTAL FREE ENERGY PREDICTED BY IDOCK:   -2.76 KCAL/MOL
REMARK 923 INTER-LIGAND FREE ENERGY PREDICTED BY IDOCK:   -3.03 KCAL/MOL
REMARK 924 INTRA-LIGAND FREE ENERGY PREDICTED BY IDOCK:    0.27 KCAL/MOL
REMARK 927      BINDING AFFINITY PREDICTED BY RF-SCORE:    0.00 PKD
ROOT
HETATM    1  C   UNL     1      -7.199  14.707  70.230  1.00  0.00     0.304 C  
HETATM    2  N   UNL     1      -7.529  15.158  68.878  1.00  0.00    -0.131 NA 
HETATM    3  C   UNL     1      -6.746  16.337  68.487  1.00  0.00    -0.135 C  
HETATM    4  C   UNL     1      -5.289  16.033  68.133  1.00  0.00    -0.115 C  
HETATM    5  C   UNL     1      -5.179  14.909  67.112  1.00  0.00     0.791 C  
HETATM    6  C   UNL     1      -5.993  13.696  67.548  1.00  0.00     0.003 C  
HETATM    7  C   UNL     1      -7.450  14.052  67.889  1.00  0.00    -0.149 C  
ENDROOT
BRANCH   7   8
HETATM    8  C   UNL     1      -8.282  14.440  66.650  1.00  0.00     0.248 C  
BRANCH   8   9
HETATM    9  C   UNL     1      -9.604  13.671  66.443  1.00  0.00    -0.268 C  
BRANCH   9  10
HETATM   10  N   UNL     1     -10.398  13.426  67.679  1.00  0.00    -0.235 NA 
HETATM   11  C   UNL     1     -10.707  12.077  68.041  1.00  0.00    -0.212 A  
HETATM   12  C   UNL     1     -11.303  11.760  69.281  1.00  0.00    -0.286 A  
HETATM   13  S   UNL     1     -11.799  12.961  70.488  1.00  0.00     0.104 SA 
HETATM   14  C   UNL     1     -11.560  10.420  69.658  1.00  0.00    -0.307 A  
HETATM   15  C   UNL     1     -11.247   9.361  68.819  1.00  0.00     0.112 A  
HETATM   16  C   UNL     1     -11.350  14.490  69.717  1.00  0.00    -0.260 A  
HETATM   17  C   UNL     1     -10.699   9.640  67.581  1.00  0.00    -0.324 A  
HETATM   18  C   UNL     1     -10.740  14.586  68.452  1.00  0.00    -0.243 A  
HETATM   19  C   UNL     1     -10.469  15.901  68.006  1.00  0.00    -0.274 A  
HETATM   20  C   UNL     1     -10.454  10.968  67.200  1.00  0.00    -0.274 A  
HETATM   21  C   UNL     1     -10.659  17.041  68.804  1.00  0.00    -0.346 A  
HETATM   22  C   UNL     1     -11.627  15.641  70.484  1.00  0.00    -0.383 A  
HETATM   23  C   UNL     1     -11.264  16.909  70.043  1.00  0.00     0.334 A  
BRANCH  21  24
HETATM   24  S   UNL     1     -10.091  18.667  68.249  1.00  0.00    -0.392 S  
HETATM   25  O   UNL     1     -11.268  19.304  67.568  1.00  0.00    -0.326 OA 
HETATM   26  C   UNL     1      -8.978  18.078  66.938  1.00  0.00    -0.262 C  
ENDBRANCH  21  24
ENDBRANCH   9  10
ENDBRANCH   8   9
ENDBRANCH   7   8
TORSDOF 4
ENDMDL
MODEL      202
REMARK 921   NORMALIZED FREE ENERGY PREDICTED BY IDOCK:   -1.33 KCAL/MOL
REMARK 922        TOTAL FREE ENERGY PREDICTED BY IDOCK:   -2.42 KCAL/MOL
REMARK 923 INTER-LIGAND FREE ENERGY PREDICTED BY IDOCK:   -1.90 KCAL/MOL
REMARK 924 INTRA-LIGAND FREE ENERGY PREDICTED BY IDOCK:   -0.52 KCAL/MOL
REMARK 927      BINDING AFFINITY PREDICTED BY RF-SCORE:    0.00 PKD
ROOT
HETATM    1  C   UNL     1      -5.907  10.163  71.936  1.00  0.00     0.344 C  
HETATM    2  N   UNL     1      -6.319   8.844  71.456  1.00  0.00    -0.071 NA 
HETATM    3  C   UNL     1      -6.340   7.849  72.536  1.00  0.00    -0.065 C  
HETATM    4  C   UNL     1      -7.530   7.980  73.487  1.00  0.00    -0.191 C  
HETATM    5  C   UNL     1      -8.852   8.033  72.733  1.00  0.00    -0.277 C  
HETATM    6  C   UNL     1      -8.806   9.080  71.625  1.00  0.00    -0.113 C  
HETATM    7  C   UNL     1      -7.593   8.904  70.694  1.00  0.00    -0.099 C  
ENDROOT
BRANCH   7   8
HETATM    8  C   UNL     1      -7.694   7.648  69.805  1.00  0.00    -0.098 C  
BRANCH   8   9
HETATM    9  C   UNL     1      -6.545   7.427  68.798  1.00  0.00    -0.048 C  
BRANCH   9  10
HETATM   10  N   UNL     1      -6.705   6.250  67.898  1.00  0.00    -0.062 NA 
HETATM   11  C   UNL     1      -6.670   4.939  68.468  1.00  0.00    -0.050 A  
HETATM   12  C   UNL     1      -6.984   3.791  67.709  1.00  0.00    -0.055 A  
HETATM   13  S   UNL     1      -7.383   3.815  65.981  1.00  0.00    -0.073 SA 
HETATM   14  C   UNL     1      -6.998   2.500  68.288  1.00  0.00    -0.047 A  
HETATM   15  C   UNL     1      -6.692   2.307  69.627  1.00  0.00    -0.033 A  
HETATM   16  C   UNL     1      -7.273   5.537  65.583  1.00  0.00    -0.068 A  
HETATM   17  C   UNL     1      -6.341   3.405  70.389  1.00  0.00    -0.027 A  
HETATM   18  C   UNL     1      -6.949   6.542  66.514  1.00  0.00    -0.067 A  
HETATM   19  C   UNL     1      -6.901   7.858  65.996  1.00  0.00    -0.057 A  
HETATM   20  C   UNL     1      -6.315   4.685  69.814  1.00  0.00    -0.027 A  
HETATM   21  C   UNL     1      -7.278   8.184  64.684  1.00  0.00    -0.083 A  
HETATM   22  C   UNL     1      -7.562   5.851  64.238  1.00  0.00    -0.088 A  
HETATM   23  C   UNL     1      -7.589   7.169  63.794  1.00  0.00    -0.109 A  
BRANCH  21  24
HETATM   24  S   UNL     1      -7.398   9.910  64.155  1.00  0.00    -0.133 S  
HETATM   25  O   UNL     1      -7.517  10.720  65.414  1.00  0.00    -0.075 OA 
HETATM   26  C   UNL     1      -9.063   9.807  63.434  1.00  0.00    -0.229 C  
ENDBRANCH  21  24
ENDBRANCH   9  10
ENDBRANCH   8   9
ENDBRANCH   7   8
TORSDOF 4
ENDMDL
MODEL      203
REMARK 921   NORMALIZED FREE ENERGY PREDICTED BY IDOCK:   -1.18 KCAL/MOL
REMARK 922        TOTAL FREE ENERGY PREDICTED BY IDOCK:   -2.23 KCAL/MOL
REMARK 923 INTER-LIGAND FREE ENERGY PREDICTED BY IDOCK:   -1.73 KCAL/MOL
REMARK 924 INTRA-LIGAND FREE ENERGY PREDICTED BY IDOCK:   -0.51 KCAL/MOL
REMARK 927      BINDING AFFINITY PREDICTED BY RF-SCORE:    0.00 PKD
ROOT
HETATM    1  C   UNL     1     -11.523  17.859  72.529  1.00  0.00     2.486 C  
HETATM    2  N   UNL     1     -11.291  16.426  72.346  1.00  0.00     0.096 NA 
HETATM    3  C   UNL     1     -11.431  15.683  73.606  1.00  0.00     0.476 C  
HETATM    4  C   UNL     1     -12.878  15.488  74.061  1.00  0.00    -0.562 C  
HETATM    5  C   UNL     1     -13.745  14.905  72.953  1.00  0.00    -0.427 C  
HETATM    6  C   UNL     1     -13.587  15.700  71.662  1.00  0.00    -0.491 C  
HETATM    7  C   UNL     1     -12.116  15.866  71.245  1.00  0.00    -0.438 C  
ENDROOT
BRANCH   7   8
HETATM    8  C   UNL     1     -11.472  14.548  70.770  1.00  0.00    -0.188 C  
BRANCH   8   9
HETATM    9  C   UNL     1     -10.016  14.638  70.267  1.00  0.00     0.693 C  
BRANCH   9  10
HETATM   10  N   UNL     1      -9.810  14.264  68.840  1.00  0.00    -0.184 NA 
HETATM   11  C   UNL     1     -10.105  12.925  68.430  1.00  0.00    -0.227 A  
HETATM   12  C   UNL     1     -10.099  12.547  67.071  1.00  0.00    -0.216 A  
HETATM   13  S   UNL     1      -9.670  13.630  65.733  1.00  0.00    -0.068 SA 
HETATM   14  C   UNL     1     -10.441  11.235  66.665  1.00  0.00    -0.292 A  
HETATM   15  C   UNL     1     -10.786  10.261  67.590  1.00  0.00    -0.363 A  
HETATM   16  C   UNL     1      -9.303  15.147  66.570  1.00  0.00    -0.280 A  
HETATM   17  C   UNL     1     -10.762  10.587  68.933  1.00  0.00    -0.253 A  
HETATM   18  C   UNL     1      -9.385  15.319  67.964  1.00  0.00    -0.197 A  
HETATM   19  C   UNL     1      -9.040  16.606  68.440  1.00  0.00    -0.226 A  
HETATM   20  C   UNL     1     -10.412  11.884  69.338  1.00  0.00     0.157 A  
HETATM   21  C   UNL     1      -8.763  17.692  67.595  1.00  0.00    -0.232 A  
HETATM   22  C   UNL     1      -8.934  16.214  65.722  1.00  0.00    -0.086 A  
HETATM   23  C   UNL     1      -8.689  17.486  66.227  1.00  0.00    -0.226 A  
BRANCH  21  24
HETATM   24  S   UNL     1      -8.541  19.358  68.266  1.00  0.00    -0.343 S  
HETATM   25  O   UNL     1      -7.208  19.350  68.956  1.00  0.00    -0.345 OA 
HETATM   26  C   UNL     1      -9.808  19.244  69.564  1.00  0.00     0.008 C  
ENDBRANCH  21  24
ENDBRANCH   9  10
ENDBRANCH   8   9
ENDBRANCH   7   8
TORSDOF 4
ENDMDL
MODEL      204
REMARK 921   NORMALIZED FREE ENERGY PREDICTED BY IDOCK:   -1.16 KCAL/MOL
REMARK 922        TOTAL FREE ENERGY PREDICTED BY IDOCK:   -2.21 KCAL/MOL
REMARK 923 INTER-LIGAND FREE ENERGY PREDICTED BY IDOCK:   -1.65 KCAL/MOL
REMARK 924 INTRA-LIGAND FREE ENERGY PREDICTED BY IDOCK:   -0.56 KCAL/MOL
REMARK 927      BINDING AFFINITY PREDICTED BY RF-SCORE:    0.00 PKD
ROOT
HETATM    1  C   UNL     1      -5.905  10.275  72.434  1.00  0.00     0.726 C  
HETATM    2  N   UNL     1      -6.156   8.919  71.946  1.00  0.00    -0.075 NA 
HETATM    3  C   UNL     1      -5.360   7.919  72.670  1.00  0.00    -0.036 C  
HETATM    4  C   UNL     1      -5.873   7.610  74.078  1.00  0.00    -0.071 C  
HETATM    5  C   UNL     1      -7.357   7.268  74.075  1.00  0.00    -0.117 C  
HETATM    6  C   UNL     1      -8.158   8.327  73.326  1.00  0.00    -0.223 C  
HETATM    7  C   UNL     1      -7.606   8.599  71.916  1.00  0.00    -0.064 C  
ENDROOT
BRANCH   7   8
HETATM    8  C   UNL     1      -7.831   7.425  70.943  1.00  0.00    -0.096 C  
BRANCH   8   9
HETATM    9  C   UNL     1      -7.172   7.549  69.553  1.00  0.00    -0.082 C  
BRANCH   9  10
HETATM   10  N   UNL     1      -8.054   8.078  68.475  1.00  0.00    -0.124 NA 
HETATM   11  C   UNL     1      -8.028   9.480  68.191  1.00  0.00    -0.094 A  
HETATM   12  C   UNL     1      -8.703  10.023  67.077  1.00  0.00    -0.132 A  
HETATM   13  S   UNL     1      -9.701   9.080  65.955  1.00  0.00    -0.228 SA 
HETATM   14  C   UNL     1      -8.633  11.403  66.770  1.00  0.00    -0.166 A  
HETATM   15  C   UNL     1      -7.906  12.282  67.558  1.00  0.00    -0.166 A  
HETATM   16  C   UNL     1      -9.579   7.442  66.615  1.00  0.00    -0.190 A  
HETATM   17  C   UNL     1      -7.266  11.789  68.680  1.00  0.00    -0.112 A  
HETATM   18  C   UNL     1      -8.825   7.105  67.755  1.00  0.00    -0.124 A  
HETATM   19  C   UNL     1      -8.865   5.741  68.129  1.00  0.00    -0.105 A  
HETATM   20  C   UNL     1      -7.344  10.423  68.993  1.00  0.00    -0.097 A  
HETATM   21  C   UNL     1      -9.491   4.748  67.359  1.00  0.00    -0.146 A  
HETATM   22  C   UNL     1     -10.287   6.459  65.890  1.00  0.00     0.687 A  
HETATM   23  C   UNL     1     -10.225   5.116  66.244  1.00  0.00    -0.289 A  
BRANCH  21  24
HETATM   24  S   UNL     1      -9.318   2.997  67.784  1.00  0.00    -0.157 S  
HETATM   25  O   UNL     1      -8.020   2.880  68.530  1.00  0.00    -0.057 OA 
HETATM   26  C   UNL     1      -9.014   2.389  66.099  1.00  0.00    -0.114 C  
ENDBRANCH  21  24
ENDBRANCH   9  10
ENDBRANCH   8   9
ENDBRANCH   7   8
TORSDOF 4
ENDMDL
MODEL      205
REMARK 921   NORMALIZED FREE ENERGY PREDICTED BY IDOCK:   -1.07 KCAL/MOL
REMARK 922        TOTAL FREE ENERGY PREDICTED BY IDOCK:   -2.10 KCAL/MOL
REMARK 923 INTER-LIGAND FREE ENERGY PREDICTED BY IDOCK:   -1.80 KCAL/MOL
REMARK 924 INTRA-LIGAND FREE ENERGY PREDICTED BY IDOCK:   -0.30 KCAL/MOL
REMARK 927      BINDING AFFINITY PREDICTED BY RF-SCORE:    0.00 PKD
ROOT
HETATM    1  C   UNL     1      -6.650  14.762  71.123  1.00  0.00     0.574 C  
HETATM    2  N   UNL     1      -7.233  15.283  69.887  1.00  0.00    -0.137 NA 
HETATM    3  C   UNL     1      -6.686  16.601  69.535  1.00  0.00    -0.189 C  
HETATM    4  C   UNL     1      -5.269  16.558  68.962  1.00  0.00    -0.119 C  
HETATM    5  C   UNL     1      -5.155  15.566  67.812  1.00  0.00    -0.101 C  
HETATM    6  C   UNL     1      -5.721  14.207  68.207  1.00  0.00    -0.117 C  
HETATM    7  C   UNL     1      -7.148  14.302  68.775  1.00  0.00    -0.105 C  
ENDROOT
BRANCH   7   8
HETATM    8  C   UNL     1      -8.197  14.674  67.708  1.00  0.00    -0.169 C  
BRANCH   8   9
HETATM    9  C   UNL     1      -9.494  15.334  68.222  1.00  0.00    -0.205 C  
BRANCH   9  10
HETATM   10  N   UNL     1     -10.129  16.304  67.287  1.00  0.00    -0.259 NA 
HETATM   11  C   UNL     1      -9.997  17.703  67.554  1.00  0.00    -0.322 A  
HETATM   12  C   UNL     1     -10.421  18.679  66.627  1.00  0.00    -0.413 A  
HETATM   13  S   UNL     1     -11.216  18.312  65.084  1.00  0.00     2.073 SA 
HETATM   14  C   UNL     1     -10.242  20.061  66.871  1.00  0.00    -0.595 A  
HETATM   15  C   UNL     1      -9.651  20.517  68.040  1.00  0.00    -0.250 A  
HETATM   16  C   UNL     1     -11.284  16.543  65.097  1.00  0.00    -0.027 A  
HETATM   17  C   UNL     1      -9.261  19.589  68.987  1.00  0.00    -0.298 A  
HETATM   18  C   UNL     1     -10.780  15.742  66.138  1.00  0.00    -0.290 A  
HETATM   19  C   UNL     1     -10.942  14.347  65.965  1.00  0.00    -0.316 A  
HETATM   20  C   UNL     1      -9.448  18.218  68.753  1.00  0.00    -0.298 A  
HETATM   21  C   UNL     1     -11.441  13.769  64.788  1.00  0.00    -0.356 A  
HETATM   22  C   UNL     1     -11.873  15.967  63.950  1.00  0.00     0.498 A  
HETATM   23  C   UNL     1     -11.930  14.588  63.784  1.00  0.00     0.083 A  
BRANCH  21  24
HETATM   24  S   UNL     1     -11.419  11.974  64.553  1.00  0.00    -0.299 S  
HETATM   25  O   UNL     1     -12.857  11.550  64.482  1.00  0.00     0.121 OA 
HETATM   26  C   UNL     1     -10.821  11.541  66.214  1.00  0.00    -0.282 C  
ENDBRANCH  21  24
ENDBRANCH   9  10
ENDBRANCH   8   9
ENDBRANCH   7   8
TORSDOF 4
ENDMDL
MODEL      206
REMARK 921   NORMALIZED FREE ENERGY PREDICTED BY IDOCK:   -1.04 KCAL/MOL
REMARK 922        TOTAL FREE ENERGY PREDICTED BY IDOCK:   -2.06 KCAL/MOL
REMARK 923 INTER-LIGAND FREE ENERGY PREDICTED BY IDOCK:   -3.88 KCAL/MOL
REMARK 924 INTRA-LIGAND FREE ENERGY PREDICTED BY IDOCK:    1.83 KCAL/MOL
REMARK 927      BINDING AFFINITY PREDICTED BY RF-SCORE:    0.00 PKD
ROOT
HETATM    1  C   UNL     1      -6.399  17.642  66.189  1.00  0.00    -0.239 C  
HETATM    2  N   UNL     1      -6.183  16.598  67.191  1.00  0.00    -0.164 NA 
HETATM    3  C   UNL     1      -5.492  17.112  68.380  1.00  0.00    -0.129 C  
HETATM    4  C   UNL     1      -6.374  17.951  69.305  1.00  0.00    -0.244 C  
HETATM    5  C   UNL     1      -7.665  17.226  69.663  1.00  0.00     0.647 C  
HETATM    6  C   UNL     1      -8.366  16.712  68.410  1.00  0.00    -0.208 C  
HETATM    7  C   UNL     1      -7.438  15.872  67.515  1.00  0.00    -0.168 C  
ENDROOT
BRANCH   7   8
HETATM    8  C   UNL     1      -7.072  14.509  68.137  1.00  0.00    -0.125 C  
BRANCH   8   9
HETATM    9  C   UNL     1      -8.246  13.658  68.664  1.00  0.00    -0.058 C  
BRANCH   9  10
HETATM   10  N   UNL     1      -9.097  13.028  67.617  1.00  0.00    -0.187 NA 
HETATM   11  C   UNL     1      -9.894  13.872  66.780  1.00  0.00    -0.274 A  
HETATM   12  C   UNL     1     -10.589  13.364  65.662  1.00  0.00    -0.282 A  
HETATM   13  S   UNL     1     -10.623  11.652  65.199  1.00  0.00    -0.299 SA 
HETATM   14  C   UNL     1     -11.335  14.209  64.806  1.00  0.00    -0.371 A  
HETATM   15  C   UNL     1     -11.424  15.574  65.038  1.00  0.00    -0.218 A  
HETATM   16  C   UNL     1      -9.621  10.896  66.447  1.00  0.00    -0.197 A  
HETATM   17  C   UNL     1     -10.788  16.097  66.148  1.00  0.00    -0.138 A  
HETATM   18  C   UNL     1      -8.995  11.602  67.492  1.00  0.00    -0.165 A  
HETATM   19  C   UNL     1      -8.245  10.813  68.396  1.00  0.00    -0.129 A  
HETATM   20  C   UNL     1     -10.058  15.259  67.004  1.00  0.00    -0.248 A  
HETATM   21  C   UNL     1      -8.011   9.442  68.211  1.00  0.00    -0.094 A  
HETATM   22  C   UNL     1      -9.463   9.500  66.312  1.00  0.00    -0.267 A  
HETATM   23  C   UNL     1      -8.644   8.778  67.173  1.00  0.00    -0.119 A  
BRANCH  21  24
HETATM   24  S   UNL     1      -6.866   8.543  69.287  1.00  0.00    -0.051 S  
HETATM   25  O   UNL     1      -5.775   8.030  68.392  1.00  0.00    -0.031 OA 
HETATM   26  C   UNL     1      -7.959   7.136  69.647  1.00  0.00    -0.124 C  
ENDBRANCH  21  24
ENDBRANCH   9  10
ENDBRANCH   8   9
ENDBRANCH   7   8
TORSDOF 4
ENDMDL
MODEL      207
REMARK 921   NORMALIZED FREE ENERGY PREDICTED BY IDOCK:   -0.96 KCAL/MOL
REMARK 922        TOTAL FREE ENERGY PREDICTED BY IDOCK:   -1.95 KCAL/MOL
REMARK 923 INTER-LIGAND FREE ENERGY PREDICTED BY IDOCK:   -4.69 KCAL/MOL
REMARK 924 INTRA-LIGAND FREE ENERGY PREDICTED BY IDOCK:    2.73 KCAL/MOL
REMARK 927      BINDING AFFINITY PREDICTED BY RF-SCORE:    0.00 PKD
ROOT
HETATM    1  C   UNL     1     -10.326  14.344  69.313  1.00  0.00    -0.102 C  
HETATM    2  N   UNL     1     -11.111  13.273  68.699  1.00  0.00    -0.256 NA 
HETATM    3  C   UNL     1     -12.312  13.789  68.028  1.00  0.00     0.048 C  
HETATM    4  C   UNL     1     -12.035  14.482  66.693  1.00  0.00    -0.358 C  
HETATM    5  C   UNL     1     -11.193  13.612  65.769  1.00  0.00    -0.302 C  
HETATM    6  C   UNL     1      -9.950  13.099  66.488  1.00  0.00    -0.268 C  
HETATM    7  C   UNL     1     -10.281  12.408  67.822  1.00  0.00    -0.211 C  
ENDROOT
BRANCH   7   8
HETATM    8  C   UNL     1     -11.001  11.057  67.640  1.00  0.00    -0.332 C  
BRANCH   8   9
HETATM    9  C   UNL     1     -10.109   9.842  67.312  1.00  0.00    -0.207 C  
BRANCH   9  10
HETATM   10  N   UNL     1      -9.335   9.291  68.460  1.00  0.00    -0.141 NA 
HETATM   11  C   UNL     1      -9.621   7.963  68.908  1.00  0.00    -0.155 A  
HETATM   12  C   UNL     1      -8.818   7.317  69.872  1.00  0.00    -0.142 A  
HETATM   13  S   UNL     1      -7.430   8.067  70.683  1.00  0.00    -0.070 SA 
HETATM   14  C   UNL     1      -9.073   5.984  70.275  1.00  0.00    -0.159 A  
HETATM   15  C   UNL     1     -10.132   5.261  69.748  1.00  0.00    -0.334 A  
HETATM   16  C   UNL     1      -7.396   9.687  69.968  1.00  0.00    -0.130 A  
HETATM   17  C   UNL     1     -10.962   5.878  68.832  1.00  0.00    -0.337 A  
HETATM   18  C   UNL     1      -8.303  10.136  68.990  1.00  0.00    -0.138 A  
HETATM   19  C   UNL     1      -8.115  11.469  68.553  1.00  0.00    -0.146 A  
HETATM   20  C   UNL     1     -10.719   7.203  68.439  1.00  0.00    -0.192 A  
HETATM   21  C   UNL     1      -7.027  12.263  68.947  1.00  0.00    -0.098 A  
HETATM   22  C   UNL     1      -6.355  10.516  70.436  1.00  0.00    -0.126 A  
HETATM   23  C   UNL     1      -6.155  11.789  69.913  1.00  0.00    -0.151 A  
BRANCH  21  24
HETATM   24  S   UNL     1      -6.732  13.877  68.184  1.00  0.00    -0.144 S  
HETATM   25  O   UNL     1      -5.292  14.206  68.457  1.00  0.00    -0.086 OA 
HETATM   26  C   UNL     1      -7.726  14.858  69.348  1.00  0.00    -0.150 C  
ENDBRANCH  21  24
ENDBRANCH   9  10
ENDBRANCH   8   9
ENDBRANCH   7   8
TORSDOF 4
ENDMDL
MODEL      208
REMARK 921   NORMALIZED FREE ENERGY PREDICTED BY IDOCK:   -0.93 KCAL/MOL
REMARK 922        TOTAL FREE ENERGY PREDICTED BY IDOCK:   -1.92 KCAL/MOL
REMARK 923 INTER-LIGAND FREE ENERGY PREDICTED BY IDOCK:   -2.97 KCAL/MOL
REMARK 924 INTRA-LIGAND FREE ENERGY PREDICTED BY IDOCK:    1.05 KCAL/MOL
REMARK 927      BINDING AFFINITY PREDICTED BY RF-SCORE:    0.00 PKD
ROOT
HETATM    1  C   UNL     1      -8.819  15.634  66.464  1.00  0.00    -0.310 C  
HETATM    2  N   UNL     1      -7.746  14.743  66.904  1.00  0.00     0.013 NA 
HETATM    3  C   UNL     1      -6.565  15.488  67.359  1.00  0.00    -0.139 C  
HETATM    4  C   UNL     1      -6.723  16.134  68.736  1.00  0.00    -0.136 C  
HETATM    5  C   UNL     1      -7.203  15.132  69.778  1.00  0.00    -0.155 C  
HETATM    6  C   UNL     1      -8.434  14.380  69.284  1.00  0.00     0.171 C  
HETATM    7  C   UNL     1      -8.224  13.747  67.898  1.00  0.00    -0.166 C  
ENDROOT
BRANCH   7   8
HETATM    8  C   UNL     1      -7.238  12.561  67.919  1.00  0.00    -0.115 C  
BRANCH   8   9
HETATM    9  C   UNL     1      -7.092  11.814  69.262  1.00  0.00    -0.032 C  
BRANCH   9  10
HETATM   10  N   UNL     1      -7.388  10.355  69.214  1.00  0.00    -0.093 NA 
HETATM   11  C   UNL     1      -6.807   9.503  70.204  1.00  0.00    -0.085 A  
HETATM   12  C   UNL     1      -7.177   8.146  70.325  1.00  0.00    -0.052 A  
HETATM   13  S   UNL     1      -8.325   7.324  69.252  1.00  0.00    -0.133 SA 
HETATM   14  C   UNL     1      -6.637   7.319  71.339  1.00  0.00    -0.050 A  
HETATM   15  C   UNL     1      -5.713   7.804  72.251  1.00  0.00    -0.036 A  
HETATM   16  C   UNL     1      -8.792   8.611  68.129  1.00  0.00    -0.142 A  
HETATM   17  C   UNL     1      -5.298   9.118  72.135  1.00  0.00    -0.070 A  
HETATM   18  C   UNL     1      -8.303   9.929  68.193  1.00  0.00    -0.110 A  
HETATM   19  C   UNL     1      -8.790  10.808  67.196  1.00  0.00    -0.135 A  
HETATM   20  C   UNL     1      -5.822   9.937  71.124  1.00  0.00    -0.058 A  
HETATM   21  C   UNL     1      -9.793  10.454  66.280  1.00  0.00    -0.218 A  
HETATM   22  C   UNL     1      -9.732   8.227  67.150  1.00  0.00    -0.255 A  
HETATM   23  C   UNL     1     -10.250   9.147  66.244  1.00  0.00    -0.257 A  
BRANCH  21  24
HETATM   24  S   UNL     1     -10.519  11.690  65.176  1.00  0.00    -0.291 S  
HETATM   25  O   UNL     1      -9.385  12.574  64.744  1.00  0.00     0.239 OA 
HETATM   26  C   UNL     1     -11.446  12.603  66.445  1.00  0.00    -0.356 C  
ENDBRANCH  21  24
ENDBRANCH   9  10
ENDBRANCH   8   9
ENDBRANCH   7   8
TORSDOF 4
ENDMDL
MODEL      209
REMARK 921   NORMALIZED FREE ENERGY PREDICTED BY IDOCK:   -0.78 KCAL/MOL
REMARK 922        TOTAL FREE ENERGY PREDICTED BY IDOCK:   -1.74 KCAL/MOL
REMARK 923 INTER-LIGAND FREE ENERGY PREDICTED BY IDOCK:   -4.33 KCAL/MOL
REMARK 924 INTRA-LIGAND FREE ENERGY PREDICTED BY IDOCK:    2.59 KCAL/MOL
REMARK 927      BINDING AFFINITY PREDICTED BY RF-SCORE:    0.00 PKD
ROOT
HETATM    1  C   UNL     1     -10.512   4.171  73.981  1.00  0.00    -0.217 C  
HETATM    2  N   UNL     1      -9.854   5.335  73.388  1.00  0.00    -0.156 NA 
HETATM    3  C   UNL     1      -8.852   4.947  72.386  1.00  0.00    -0.123 C  
HETATM    4  C   UNL     1      -9.443   4.483  71.055  1.00  0.00    -0.229 C  
HETATM    5  C   UNL     1     -10.446   5.487  70.501  1.00  0.00    -0.347 C  
HETATM    6  C   UNL     1     -11.478   5.864  71.558  1.00  0.00    -0.216 C  
HETATM    7  C   UNL     1     -10.835   6.327  72.876  1.00  0.00    -0.256 C  
ENDROOT
BRANCH   7   8
HETATM    8  C   UNL     1     -10.134   7.695  72.757  1.00  0.00    -0.311 C  
BRANCH   8   9
HETATM    9  C   UNL     1      -8.615   7.667  72.489  1.00  0.00    -0.124 C  
BRANCH   9  10
HETATM   10  N   UNL     1      -8.221   7.711  71.053  1.00  0.00    -0.106 NA 
HETATM   11  C   UNL     1      -7.179   6.842  70.599  1.00  0.00    -0.070 A  
HETATM   12  C   UNL     1      -6.872   6.705  69.229  1.00  0.00    -0.065 A  
HETATM   13  S   UNL     1      -7.665   7.617  67.931  1.00  0.00    -0.117 SA 
HETATM   14  C   UNL     1      -5.876   5.805  68.779  1.00  0.00    -0.019 A  
HETATM   15  C   UNL     1      -5.151   5.027  69.669  1.00  0.00     0.000 A  
HETATM   16  C   UNL     1      -8.821   8.623  68.818  1.00  0.00    -0.139 A  
HETATM   17  C   UNL     1      -5.399   5.167  71.021  1.00  0.00    -0.005 A  
HETATM   18  C   UNL     1      -8.979   8.596  70.216  1.00  0.00    -0.154 A  
HETATM   19  C   UNL     1      -9.950   9.485  70.735  1.00  0.00    -0.334 A  
HETATM   20  C   UNL     1      -6.378   6.066  71.471  1.00  0.00    -0.048 A  
HETATM   21  C   UNL     1     -10.804  10.252  69.927  1.00  0.00    -0.302 A  
HETATM   22  C   UNL     1      -9.615   9.463  68.008  1.00  0.00    -0.156 A  
HETATM   23  C   UNL     1     -10.618  10.255  68.555  1.00  0.00    -0.240 A  
BRANCH  21  24
HETATM   24  S   UNL     1     -12.163  11.201  70.653  1.00  0.00    -0.400 S  
HETATM   25  O   UNL     1     -13.417  10.443  70.327  1.00  0.00    -0.006 OA 
HETATM   26  C   UNL     1     -12.085  12.610  69.507  1.00  0.00    -0.192 C  
ENDBRANCH  21  24
ENDBRANCH   9  10
ENDBRANCH   8   9
ENDBRANCH   7   8
TORSDOF 4
ENDMDL
MODEL      210
REMARK 921   NORMALIZED FREE ENERGY PREDICTED BY IDOCK:   -0.77 KCAL/MOL
REMARK 922        TOTAL FREE ENERGY PREDICTED BY IDOCK:   -1.73 KCAL/MOL
REMARK 923 INTER-LIGAND FREE ENERGY PREDICTED BY IDOCK:   -2.74 KCAL/MOL
REMARK 924 INTRA-LIGAND FREE ENERGY PREDICTED BY IDOCK:    1.01 KCAL/MOL
REMARK 927      BINDING AFFINITY PREDICTED BY RF-SCORE:    0.00 PKD
ROOT
HETATM    1  C   UNL     1      -9.734   4.048  65.929  1.00  0.00    -0.188 C  
HETATM    2  N   UNL     1      -8.970   4.938  66.803  1.00  0.00    -0.110 NA 
HETATM    3  C   UNL     1      -9.718   6.157  67.135  1.00  0.00    -0.135 C  
HETATM    4  C   UNL     1     -10.832   5.949  68.162  1.00  0.00    -0.323 C  
HETATM    5  C   UNL     1     -10.325   5.233  69.407  1.00  0.00    -0.313 C  
HETATM    6  C   UNL     1      -9.562   3.967  69.033  1.00  0.00    -0.209 C  
HETATM    7  C   UNL     1      -8.451   4.228  68.001  1.00  0.00    -0.094 C  
ENDROOT
BRANCH   7   8
HETATM    8  C   UNL     1      -7.270   5.035  68.577  1.00  0.00    -0.062 C  
BRANCH   8   9
HETATM    9  C   UNL     1      -7.101   6.475  68.051  1.00  0.00    -0.086 C  
BRANCH   9  10
HETATM   10  N   UNL     1      -6.995   7.528  69.099  1.00  0.00    -0.070 NA 
HETATM   11  C   UNL     1      -6.438   7.180  70.370  1.00  0.00    -0.046 A  
HETATM   12  C   UNL     1      -6.150   8.158  71.346  1.00  0.00    -0.036 A  
HETATM   13  S   UNL     1      -6.495   9.888  71.161  1.00  0.00     0.189 SA 
HETATM   14  C   UNL     1      -5.550   7.816  72.582  1.00  0.00    -0.036 A  
HETATM   15  C   UNL     1      -5.231   6.503  72.890  1.00  0.00    -0.036 A  
HETATM   16  C   UNL     1      -7.224   9.965  69.550  1.00  0.00    -0.095 A  
HETATM   17  C   UNL     1      -5.537   5.516  71.973  1.00  0.00    -0.018 A  
HETATM   18  C   UNL     1      -7.414   8.847  68.715  1.00  0.00    -0.083 A  
HETATM   19  C   UNL     1      -8.025   9.115  67.468  1.00  0.00    -0.100 A  
HETATM   20  C   UNL     1      -6.142   5.850  70.751  1.00  0.00    -0.030 A  
HETATM   21  C   UNL     1      -8.308  10.412  67.011  1.00  0.00    -0.127 A  
HETATM   22  C   UNL     1      -7.594  11.261  69.131  1.00  0.00    -0.070 A  
HETATM   23  C   UNL     1      -8.111  11.489  67.860  1.00  0.00    -0.132 A  
BRANCH  21  24
HETATM   24  S   UNL     1      -8.889  10.695  65.321  1.00  0.00    -0.186 S  
HETATM   25  O   UNL     1     -10.324  11.120  65.444  1.00  0.00    -0.255 OA 
HETATM   26  C   UNL     1      -8.897   8.955  64.796  1.00  0.00    -0.086 C  
ENDBRANCH  21  24
ENDBRANCH   9  10
ENDBRANCH   8   9
ENDBRANCH   7   8
TORSDOF 4
ENDMDL
MODEL      211
REMARK 921   NORMALIZED FREE ENERGY PREDICTED BY IDOCK:   -0.64 KCAL/MOL
REMARK 922        TOTAL FREE ENERGY PREDICTED BY IDOCK:   -1.56 KCAL/MOL
REMARK 923 INTER-LIGAND FREE ENERGY PREDICTED BY IDOCK:   -4.19 KCAL/MOL
REMARK 924 INTRA-LIGAND FREE ENERGY PREDICTED BY IDOCK:    2.63 KCAL/MOL
REMARK 927      BINDING AFFINITY PREDICTED BY RF-SCORE:    0.00 PKD
ROOT
HETATM    1  C   UNL     1      -9.583  10.668  64.014  1.00  0.00    -0.299 C  
HETATM    2  N   UNL     1      -8.985  10.637  65.349  1.00  0.00    -0.183 NA 
HETATM    3  C   UNL     1      -9.267   9.376  66.047  1.00  0.00    -0.200 C  
HETATM    4  C   UNL     1      -8.447   8.186  65.548  1.00  0.00    -0.174 C  
HETATM    5  C   UNL     1      -6.957   8.502  65.516  1.00  0.00    -0.074 C  
HETATM    6  C   UNL     1      -6.693   9.809  64.778  1.00  0.00    -0.114 C  
HETATM    7  C   UNL     1      -7.539  10.975  65.318  1.00  0.00     0.310 C  
ENDROOT
BRANCH   7   8
HETATM    8  C   UNL     1      -7.110  11.429  66.728  1.00  0.00    -0.132 C  
BRANCH   8   9
HETATM    9  C   UNL     1      -7.433  10.464  67.888  1.00  0.00    -0.087 C  
BRANCH   9  10
HETATM   10  N   UNL     1      -8.747  10.687  68.554  1.00  0.00    -0.134 NA 
HETATM   11  C   UNL     1      -9.377  11.964  68.422  1.00  0.00    -0.184 A  
HETATM   12  C   UNL     1     -10.694  12.192  68.878  1.00  0.00    -0.175 A  
HETATM   13  S   UNL     1     -11.685  10.982  69.714  1.00  0.00    -0.367 SA 
HETATM   14  C   UNL     1     -11.333  13.441  68.700  1.00  0.00    -0.322 A  
HETATM   15  C   UNL     1     -10.689  14.500  68.077  1.00  0.00    -0.243 A  
HETATM   16  C   UNL     1     -10.610   9.577  69.773  1.00  0.00    -0.236 A  
HETATM   17  C   UNL     1      -9.385  14.322  67.655  1.00  0.00    -0.201 A  
HETATM   18  C   UNL     1      -9.310   9.555  69.235  1.00  0.00    -0.169 A  
HETATM   19  C   UNL     1      -8.606   8.338  69.394  1.00  0.00    -0.134 A  
HETATM   20  C   UNL     1      -8.744  13.088  67.842  1.00  0.00    -0.189 A  
HETATM   21  C   UNL     1      -9.186   7.175  69.924  1.00  0.00    -0.141 A  
HETATM   22  C   UNL     1     -11.165   8.435  70.391  1.00  0.00    -0.220 A  
HETATM   23  C   UNL     1     -10.468   7.233  70.446  1.00  0.00    -0.232 A  
BRANCH  21  24
HETATM   24  S   UNL     1      -8.296   5.600  69.899  1.00  0.00    -0.119 S  
HETATM   25  O   UNL     1      -6.901   5.921  69.447  1.00  0.00    -0.057 OA 
HETATM   26  C   UNL     1      -9.161   4.879  68.471  1.00  0.00    -0.114 C  
ENDBRANCH  21  24
ENDBRANCH   9  10
ENDBRANCH   8   9
ENDBRANCH   7   8
TORSDOF 4
ENDMDL
MODEL      212
REMARK 921   NORMALIZED FREE ENERGY PREDICTED BY IDOCK:   -0.32 KCAL/MOL
REMARK 922        TOTAL FREE ENERGY PREDICTED BY IDOCK:   -1.17 KCAL/MOL
REMARK 923 INTER-LIGAND FREE ENERGY PREDICTED BY IDOCK:   -3.75 KCAL/MOL
REMARK 924 INTRA-LIGAND FREE ENERGY PREDICTED BY IDOCK:    2.57 KCAL/MOL
REMARK 927      BINDING AFFINITY PREDICTED BY RF-SCORE:    0.00 PKD
ROOT
HETATM    1  C   UNL     1      -6.720   6.015  70.324  1.00  0.00    -0.049 C  
HETATM    2  N   UNL     1      -7.986   6.560  70.813  1.00  0.00    -0.113 NA 
HETATM    3  C   UNL     1      -7.788   7.493  71.930  1.00  0.00    -0.090 C  
HETATM    4  C   UNL     1      -7.249   8.863  71.514  1.00  0.00    -0.079 C  
HETATM    5  C   UNL     1      -8.077   9.479  70.395  1.00  0.00    -0.209 C  
HETATM    6  C   UNL     1      -8.259   8.493  69.246  1.00  0.00    -0.115 C  
HETATM    7  C   UNL     1      -8.805   7.133  69.714  1.00  0.00    -0.142 C  
ENDROOT
BRANCH   7   8
HETATM    8  C   UNL     1     -10.274   7.201  70.179  1.00  0.00    -0.204 C  
BRANCH   8   9
HETATM    9  C   UNL     1     -11.290   7.766  69.164  1.00  0.00     0.457 C  
BRANCH   9  10
HETATM   10  N   UNL     1     -10.783   8.872  68.305  1.00  0.00    -0.139 NA 
HETATM   11  C   UNL     1     -11.097  10.221  68.663  1.00  0.00    -0.239 A  
HETATM   12  C   UNL     1     -10.511  11.320  67.999  1.00  0.00    -0.188 A  
HETATM   13  S   UNL     1      -9.397  11.182  66.626  1.00  0.00    -0.181 SA 
HETATM   14  C   UNL     1     -10.784  12.653  68.391  1.00  0.00    -0.260 A  
HETATM   15  C   UNL     1     -11.648  12.935  69.438  1.00  0.00    -0.363 A  
HETATM   16  C   UNL     1      -9.280   9.429  66.401  1.00  0.00    -0.169 A  
HETATM   17  C   UNL     1     -12.269  11.882  70.083  1.00  0.00    -0.319 A  
HETATM   18  C   UNL     1      -9.952   8.485  67.200  1.00  0.00    -0.238 A  
HETATM   19  C   UNL     1      -9.736   7.130  66.852  1.00  0.00    -0.242 A  
HETATM   20  C   UNL     1     -12.010  10.561  69.690  1.00  0.00    -0.279 A  
HETATM   21  C   UNL     1      -8.816   6.723  65.873  1.00  0.00    -0.110 A  
HETATM   22  C   UNL     1      -8.425   9.025  65.354  1.00  0.00    -0.175 A  
HETATM   23  C   UNL     1      -8.174   7.680  65.105  1.00  0.00    -0.130 A  
BRANCH  21  24
HETATM   24  S   UNL     1      -8.434   4.971  65.631  1.00  0.00    -0.133 S  
HETATM   25  O   UNL     1      -7.274   4.929  64.678  1.00  0.00    -0.060 OA 
HETATM   26  C   UNL     1      -9.920   4.550  64.673  1.00  0.00     0.021 C  
ENDBRANCH  21  24
ENDBRANCH   9  10
ENDBRANCH   8   9
ENDBRANCH   7   8
TORSDOF 4
ENDMDL
MODEL      213
REMARK 921   NORMALIZED FREE ENERGY PREDICTED BY IDOCK:    0.30 KCAL/MOL
REMARK 922        TOTAL FREE ENERGY PREDICTED BY IDOCK:   -0.41 KCAL/MOL
REMARK 923 INTER-LIGAND FREE ENERGY PREDICTED BY IDOCK:   -2.06 KCAL/MOL
REMARK 924 INTRA-LIGAND FREE ENERGY PREDICTED BY IDOCK:    1.65 KCAL/MOL
REMARK 927      BINDING AFFINITY PREDICTED BY RF-SCORE:    0.00 PKD
ROOT
HETATM    1  C   UNL     1      -6.999  17.442  69.619  1.00  0.00     0.130 C  
HETATM    2  N   UNL     1      -7.602  16.995  68.364  1.00  0.00    -0.210 NA 
HETATM    3  C   UNL     1      -8.509  18.004  67.800  1.00  0.00    -0.247 C  
HETATM    4  C   UNL     1      -7.799  19.190  67.148  1.00  0.00    -0.269 C  
HETATM    5  C   UNL     1      -6.751  18.736  66.140  1.00  0.00    -0.264 C  
HETATM    6  C   UNL     1      -5.819  17.698  66.754  1.00  0.00    -0.203 C  
HETATM    7  C   UNL     1      -6.580  16.524  67.394  1.00  0.00    -0.164 C  
ENDROOT
BRANCH   7   8
HETATM    8  C   UNL     1      -7.269  15.614  66.357  1.00  0.00     0.965 C  
BRANCH   8   9
HETATM    9  C   UNL     1      -8.799  15.762  66.222  1.00  0.00    -0.343 C  
BRANCH   9  10
HETATM   10  N   UNL     1      -9.576  14.499  66.363  1.00  0.00    -0.290 NA 
HETATM   11  C   UNL     1     -10.735  14.310  65.546  1.00  0.00    -0.331 A  
HETATM   12  C   UNL     1     -11.417  13.075  65.501  1.00  0.00    -0.321 A  
HETATM   13  S   UNL     1     -10.983  11.657  66.475  1.00  0.00    -0.295 SA 
HETATM   14  C   UNL     1     -12.532  12.876  64.653  1.00  0.00    -0.499 A  
HETATM   15  C   UNL     1     -13.009  13.890  63.837  1.00  0.00     0.751 A  
HETATM   16  C   UNL     1      -9.588  12.237  67.398  1.00  0.00    -0.179 A  
HETATM   17  C   UNL     1     -12.389  15.124  63.888  1.00  0.00     0.156 A  
HETATM   18  C   UNL     1      -9.047  13.531  67.282  1.00  0.00    -0.225 A  
HETATM   19  C   UNL     1      -7.937  13.804  68.116  1.00  0.00    -0.150 A  
HETATM   20  C   UNL     1     -11.290  15.329  64.736  1.00  0.00    -0.396 A  
HETATM   21  C   UNL     1      -7.314  12.830  68.912  1.00  0.00    -0.008 A  
HETATM   22  C   UNL     1      -9.020  11.282  68.269  1.00  0.00    -0.172 A  
HETATM   23  C   UNL     1      -7.874  11.567  69.005  1.00  0.00    -0.005 A  
BRANCH  21  24
HETATM   24  S   UNL     1      -5.771  13.195  69.785  1.00  0.00    -0.126 S  
HETATM   25  O   UNL     1      -5.191  11.865  70.170  1.00  0.00    -0.074 OA 
HETATM   26  C   UNL     1      -6.525  13.896  71.283  1.00  0.00     0.708 C  
ENDBRANCH  21  24
ENDBRANCH   9  10
ENDBRANCH   8   9
ENDBRANCH   7   8
TORSDOF 4
ENDMDL
MODEL      214
REMARK 921   NORMALIZED FREE ENERGY PREDICTED BY IDOCK:    0.44 KCAL/MOL
REMARK 922        TOTAL FREE ENERGY PREDICTED BY IDOCK:   -0.23 KCAL/MOL
REMARK 923 INTER-LIGAND FREE ENERGY PREDICTED BY IDOCK:   -0.40 KCAL/MOL
REMARK 924 INTRA-LIGAND FREE ENERGY PREDICTED BY IDOCK:    0.16 KCAL/MOL
REMARK 927      BINDING AFFINITY PREDICTED BY RF-SCORE:    0.00 PKD
ROOT
HETATM    1  C   UNL     1      -6.758  19.016  65.029  1.00  0.00     0.009 C  
HETATM    2  N   UNL     1      -7.123  18.204  66.190  1.00  0.00    -0.260 NA 
HETATM    3  C   UNL     1      -8.249  18.785  66.934  1.00  0.00    -0.265 C  
HETATM    4  C   UNL     1      -9.608  18.602  66.257  1.00  0.00    -0.295 C  
HETATM    5  C   UNL     1      -9.861  17.148  65.882  1.00  0.00    -0.178 C  
HETATM    6  C   UNL     1      -8.682  16.575  65.103  1.00  0.00     2.367 C  
HETATM    7  C   UNL     1      -7.339  16.780  65.825  1.00  0.00     0.775 C  
ENDROOT
BRANCH   7   8
HETATM    8  C   UNL     1      -7.201  15.920  67.097  1.00  0.00    -0.254 C  
BRANCH   8   9
HETATM    9  C   UNL     1      -7.429  14.403  66.928  1.00  0.00     0.514 C  
BRANCH   9  10
HETATM   10  N   UNL     1      -8.803  13.926  67.250  1.00  0.00    -0.211 NA 
HETATM   11  C   UNL     1      -9.613  14.707  68.131  1.00  0.00    -0.213 A  
HETATM   12  C   UNL     1     -10.977  14.410  68.345  1.00  0.00    -0.248 A  
HETATM   13  S   UNL     1     -11.823  13.027  67.625  1.00  0.00    -0.318 SA 
HETATM   14  C   UNL     1     -11.789  15.216  69.178  1.00  0.00    -0.340 A  
HETATM   15  C   UNL     1     -11.276  16.328  69.829  1.00  0.00    -0.314 A  
HETATM   16  C   UNL     1     -10.549  12.250  66.672  1.00  0.00    -0.229 A  
HETATM   17  C   UNL     1      -9.935  16.623  69.673  1.00  0.00    -0.005 A  
HETATM   18  C   UNL     1      -9.228  12.727  66.583  1.00  0.00    -0.212 A  
HETATM   19  C   UNL     1      -8.356  11.957  65.777  1.00  0.00     0.479 A  
HETATM   20  C   UNL     1      -9.124  15.819  68.858  1.00  0.00    -0.225 A  
HETATM   21  C   UNL     1      -8.783  10.869  65.001  1.00  0.00    -0.101 A  
HETATM   22  C   UNL     1     -10.960  11.100  65.965  1.00  0.00    -0.189 A  
HETATM   23  C   UNL     1     -10.090  10.425  65.115  1.00  0.00    -0.379 A  
BRANCH  21  24
HETATM   24  S   UNL     1      -7.660  10.066  63.831  1.00  0.00    -0.126 S  
HETATM   25  O   UNL     1      -6.273  10.364  64.321  1.00  0.00    -0.128 OA 
HETATM   26  C   UNL     1      -7.974  11.175  62.426  1.00  0.00    -0.051 C  
ENDBRANCH  21  24
ENDBRANCH   9  10
ENDBRANCH   8   9
ENDBRANCH   7   8
TORSDOF 4
ENDMDL
MODEL      215
REMARK 921   NORMALIZED FREE ENERGY PREDICTED BY IDOCK:    1.79 KCAL/MOL
REMARK 922        TOTAL FREE ENERGY PREDICTED BY IDOCK:    1.43 KCAL/MOL
REMARK 923 INTER-LIGAND FREE ENERGY PREDICTED BY IDOCK:    0.08 KCAL/MOL
REMARK 924 INTRA-LIGAND FREE ENERGY PREDICTED BY IDOCK:    1.35 KCAL/MOL
REMARK 927      BINDING AFFINITY PREDICTED BY RF-SCORE:    0.00 PKD
ROOT
HETATM    1  C   UNL     1     -13.456  14.543  66.928  1.00  0.00     3.900 C  
HETATM    2  N   UNL     1     -12.117  14.043  66.619  1.00  0.00    -0.450 NA 
HETATM    3  C   UNL     1     -12.161  12.749  65.924  1.00  0.00    -0.359 C  
HETATM    4  C   UNL     1     -12.571  12.841  64.453  1.00  0.00    -0.431 C  
HETATM    5  C   UNL     1     -11.736  13.867  63.699  1.00  0.00    -0.009 C  
HETATM    6  C   UNL     1     -11.715  15.202  64.437  1.00  0.00    -0.301 C  
HETATM    7  C   UNL     1     -11.295  15.057  65.909  1.00  0.00    -0.273 C  
ENDROOT
BRANCH   7   8
HETATM    8  C   UNL     1      -9.807  14.690  66.079  1.00  0.00    -0.347 C  
BRANCH   8   9
HETATM    9  C   UNL     1      -9.128  15.161  67.382  1.00  0.00    -0.191 C  
BRANCH   9  10
HETATM   10  N   UNL     1      -7.943  14.364  67.807  1.00  0.00    -0.143 NA 
HETATM   11  C   UNL     1      -7.041  14.929  68.762  1.00  0.00    -0.115 A  
HETATM   12  C   UNL     1      -5.999  14.170  69.337  1.00  0.00    -0.095 A  
HETATM   13  S   UNL     1      -5.636  12.487  68.912  1.00  0.00    -0.065 SA 
HETATM   14  C   UNL     1      -5.140  14.717  70.320  1.00  0.00    -0.097 A  
HETATM   15  C   UNL     1      -5.280  16.027  70.753  1.00  0.00    -0.161 A  
HETATM   16  C   UNL     1      -6.862  12.126  67.687  1.00  0.00    -0.119 A  
HETATM   17  C   UNL     1      -6.265  16.809  70.181  1.00  0.00     0.045 A  
HETATM   18  C   UNL     1      -7.840  13.042  67.256  1.00  0.00    -0.127 A  
HETATM   19  C   UNL     1      -8.724  12.565  66.259  1.00  0.00     0.139 A  
HETATM   20  C   UNL     1      -7.110  16.274  69.197  1.00  0.00    -0.214 A  
HETATM   21  C   UNL     1      -8.735  11.234  65.812  1.00  0.00    -0.109 A  
HETATM   22  C   UNL     1      -6.813  10.813  67.171  1.00  0.00    -0.086 A  
HETATM   23  C   UNL     1      -7.757  10.360  66.256  1.00  0.00    -0.129 A  
BRANCH  21  24
HETATM   24  S   UNL     1     -10.030  10.642  64.696  1.00  0.00    -0.351 S  
HETATM   25  O   UNL     1     -10.006   9.144  64.793  1.00  0.00     0.466 OA 
HETATM   26  C   UNL     1      -9.201  11.083  63.140  1.00  0.00    -0.302 C  
ENDBRANCH  21  24
ENDBRANCH   9  10
ENDBRANCH   8   9
ENDBRANCH   7   8
TORSDOF 4
ENDMDL
MODEL      216
REMARK 921   NORMALIZED FREE ENERGY PREDICTED BY IDOCK:    2.20 KCAL/MOL
REMARK 922        TOTAL FREE ENERGY PREDICTED BY IDOCK:    1.94 KCAL/MOL
REMARK 923 INTER-LIGAND FREE ENERGY PREDICTED BY IDOCK:   -0.65 KCAL/MOL
REMARK 924 INTRA-LIGAND FREE ENERGY PREDICTED BY IDOCK:    2.60 KCAL/MOL
REMARK 927      BINDING AFFINITY PREDICTED BY RF-SCORE:    0.00 PKD
ROOT
HETATM    1  C   UNL     1      -6.660  18.027  66.897  1.00  0.00    -0.182 C  
HETATM    2  N   UNL     1      -6.963  17.226  68.083  1.00  0.00    -0.176 NA 
HETATM    3  C   UNL     1      -6.243  17.709  69.269  1.00  0.00    -0.239 C  
HETATM    4  C   UNL     1      -6.815  18.993  69.871  1.00  0.00     0.071 C  
HETATM    5  C   UNL     1      -8.313  18.881  70.119  1.00  0.00     1.669 C  
HETATM    6  C   UNL     1      -9.036  18.388  68.870  1.00  0.00    -0.185 C  
HETATM    7  C   UNL     1      -8.426  17.094  68.304  1.00  0.00    -0.236 C  
ENDROOT
BRANCH   7   8
HETATM    8  C   UNL     1      -8.679  15.866  69.202  1.00  0.00    -0.256 C  
BRANCH   8   9
HETATM    9  C   UNL     1     -10.131  15.348  69.264  1.00  0.00    -0.253 C  
BRANCH   9  10
HETATM   10  N   UNL     1     -10.661  14.785  67.990  1.00  0.00    -0.242 NA 
HETATM   11  C   UNL     1     -10.668  15.613  66.824  1.00  0.00    -0.300 A  
HETATM   12  C   UNL     1     -10.993  15.097  65.551  1.00  0.00    -0.365 A  
HETATM   13  S   UNL     1     -11.489  13.421  65.248  1.00  0.00    -0.307 SA 
HETATM   14  C   UNL     1     -10.950  15.907  64.391  1.00  0.00    -0.034 A  
HETATM   15  C   UNL     1     -10.596  17.246  64.458  1.00  0.00     1.753 A  
HETATM   16  C   UNL     1     -11.442  12.707  66.867  1.00  0.00    -0.343 A  
HETATM   17  C   UNL     1     -10.311  17.792  65.695  1.00  0.00    -0.098 A  
HETATM   18  C   UNL     1     -11.070  13.410  68.029  1.00  0.00    -0.255 A  
HETATM   19  C   UNL     1     -11.107  12.663  69.230  1.00  0.00    -0.193 A  
HETATM   20  C   UNL     1     -10.365  16.995  66.848  1.00  0.00    -0.303 A  
HETATM   21  C   UNL     1     -11.361  11.283  69.272  1.00  0.00    -0.287 A  
HETATM   22  C   UNL     1     -11.789  11.340  66.920  1.00  0.00     0.416 A  
HETATM   23  C   UNL     1     -11.726  10.624  68.110  1.00  0.00    -0.092 A  
BRANCH  21  24
HETATM   24  S   UNL     1     -11.181  10.353  70.814  1.00  0.00    -0.076 S  
HETATM   25  O   UNL     1     -10.075   9.367  70.574  1.00  0.00    -0.235 OA 
HETATM   26  C   UNL     1     -12.744   9.432  70.701  1.00  0.00     0.098 C  
ENDBRANCH  21  24
ENDBRANCH   9  10
ENDBRANCH   8   9
ENDBRANCH   7   8
TORSDOF 4
ENDMDL
MODEL      217
REMARK 921   NORMALIZED FREE ENERGY PREDICTED BY IDOCK:    2.88 KCAL/MOL
REMARK 922        TOTAL FREE ENERGY PREDICTED BY IDOCK:    2.77 KCAL/MOL
REMARK 923 INTER-LIGAND FREE ENERGY PREDICTED BY IDOCK:    0.40 KCAL/MOL
REMARK 924 INTRA-LIGAND FREE ENERGY PREDICTED BY IDOCK:    2.37 KCAL/MOL
REMARK 927      BINDING AFFINITY PREDICTED BY RF-SCORE:    0.00 PKD
ROOT
HETATM    1  C   UNL     1      -5.831  19.650  65.118  1.00  0.00    -0.210 C  
HETATM    2  N   UNL     1      -6.393  19.106  66.354  1.00  0.00    -0.185 NA 
HETATM    3  C   UNL     1      -7.628  19.799  66.747  1.00  0.00    -0.254 C  
HETATM    4  C   UNL     1      -8.851  19.421  65.911  1.00  0.00    -0.016 C  
HETATM    5  C   UNL     1      -9.041  17.912  65.838  1.00  0.00     0.142 C  
HETATM    6  C   UNL     1      -7.748  17.220  65.419  1.00  0.00     1.431 C  
HETATM    7  C   UNL     1      -6.549  17.630  66.291  1.00  0.00    -0.265 C  
ENDROOT
BRANCH   7   8
HETATM    8  C   UNL     1      -6.634  17.082  67.730  1.00  0.00    -0.160 C  
BRANCH   8   9
HETATM    9  C   UNL     1      -7.364  15.735  67.909  1.00  0.00    -0.136 C  
BRANCH   9  10
HETATM   10  N   UNL     1      -8.692  15.814  68.579  1.00  0.00    -0.176 NA 
HETATM   11  C   UNL     1      -9.158  17.088  69.034  1.00  0.00    -0.146 A  
HETATM   12  C   UNL     1     -10.471  17.267  69.520  1.00  0.00    -0.054 A  
HETATM   13  S   UNL     1     -11.660  15.962  69.693  1.00  0.00    -0.317 SA 
HETATM   14  C   UNL     1     -10.945  18.539  69.920  1.00  0.00     2.304 A  
HETATM   15  C   UNL     1     -10.135  19.663  69.862  1.00  0.00     0.288 A  
HETATM   16  C   UNL     1     -10.763  14.546  69.122  1.00  0.00    -0.252 A  
HETATM   17  C   UNL     1      -8.831  19.514  69.429  1.00  0.00     0.132 A  
HETATM   18  C   UNL     1      -9.435  14.588  68.658  1.00  0.00    -0.205 A  
HETATM   19  C   UNL     1      -8.891  13.345  68.256  1.00  0.00    -0.172 A  
HETATM   20  C   UNL     1      -8.354  18.252  69.043  1.00  0.00    -0.062 A  
HETATM   21  C   UNL     1      -9.643  12.162  68.185  1.00  0.00    -0.208 A  
HETATM   22  C   UNL     1     -11.493  13.339  69.140  1.00  0.00    -0.357 A  
HETATM   23  C   UNL     1     -10.947  12.156  68.653  1.00  0.00    -0.284 A  
BRANCH  21  24
HETATM   24  S   UNL     1      -8.943  10.659  67.459  1.00  0.00    -0.135 S  
HETATM   25  O   UNL     1      -7.474  10.698  67.767  1.00  0.00    -0.089 OA 
HETATM   26  C   UNL     1      -9.130  11.146  65.718  1.00  0.00    -0.206 C  
ENDBRANCH  21  24
ENDBRANCH   9  10
ENDBRANCH   8   9
ENDBRANCH   7   8
TORSDOF 4
ENDMDL
MODEL      218
REMARK 921   NORMALIZED FREE ENERGY PREDICTED BY IDOCK:    3.26 KCAL/MOL
REMARK 922        TOTAL FREE ENERGY PREDICTED BY IDOCK:    3.25 KCAL/MOL
REMARK 923 INTER-LIGAND FREE ENERGY PREDICTED BY IDOCK:    1.78 KCAL/MOL
REMARK 924 INTRA-LIGAND FREE ENERGY PREDICTED BY IDOCK:    1.47 KCAL/MOL
REMARK 927      BINDING AFFINITY PREDICTED BY RF-SCORE:    0.00 PKD
ROOT
HETATM    1  C   UNL     1      -7.629   8.161  67.317  1.00  0.00    -0.097 C  
HETATM    2  N   UNL     1      -8.943   8.622  66.869  1.00  0.00    -0.134 NA 
HETATM    3  C   UNL     1      -9.671   7.577  66.136  1.00  0.00     0.069 C  
HETATM    4  C   UNL     1     -10.254   6.478  67.025  1.00  0.00    -0.277 C  
HETATM    5  C   UNL     1     -11.079   7.055  68.168  1.00  0.00    -0.097 C  
HETATM    6  C   UNL     1     -10.296   8.129  68.917  1.00  0.00    -0.225 C  
HETATM    7  C   UNL     1      -9.733   9.212  67.980  1.00  0.00    -0.154 C  
ENDROOT
BRANCH   7   8
HETATM    8  C   UNL     1     -10.827  10.117  67.379  1.00  0.00    -0.323 C  
BRANCH   8   9
HETATM    9  C   UNL     1     -11.539  11.076  68.357  1.00  0.00    -0.302 C  
BRANCH   9  10
HETATM   10  N   UNL     1     -11.107  12.500  68.280  1.00  0.00    -0.240 NA 
HETATM   11  C   UNL     1     -11.629  13.429  69.235  1.00  0.00    -0.310 A  
HETATM   12  C   UNL     1     -11.137  14.748  69.330  1.00  0.00    -0.281 A  
HETATM   13  S   UNL     1      -9.895  15.432  68.265  1.00  0.00    -0.216 SA 
HETATM   14  C   UNL     1     -11.619  15.649  70.310  1.00  0.00    -0.370 A  
HETATM   15  C   UNL     1     -12.604  15.276  71.211  1.00  0.00    -0.449 A  
HETATM   16  C   UNL     1      -9.525  14.077  67.186  1.00  0.00    -0.241 A  
HETATM   17  C   UNL     1     -13.136  14.003  71.119  1.00  0.00    -0.373 A  
HETATM   18  C   UNL     1     -10.135  12.812  67.271  1.00  0.00    -0.226 A  
HETATM   19  C   UNL     1      -9.711  11.866  66.309  1.00  0.00    -0.247 A  
HETATM   20  C   UNL     1     -12.669  13.112  70.141  1.00  0.00     0.060 A  
HETATM   21  C   UNL     1      -8.660  12.101  65.408  1.00  0.00     0.875 A  
HETATM   22  C   UNL     1      -8.532  14.347  66.220  1.00  0.00     0.561 A  
HETATM   23  C   UNL     1      -8.083  13.359  65.351  1.00  0.00     4.103 A  
BRANCH  21  24
HETATM   24  S   UNL     1      -8.028  10.773  64.353  1.00  0.00     0.310 S  
HETATM   25  O   UNL     1      -6.620  11.160  64.002  1.00  0.00     0.670 OA 
HETATM   26  C   UNL     1      -9.055  11.138  62.899  1.00  0.00    -0.302 C  
ENDBRANCH  21  24
ENDBRANCH   9  10
ENDBRANCH   8   9
ENDBRANCH   7   8
TORSDOF 4
ENDMDL
MODEL      219
REMARK 921   NORMALIZED FREE ENERGY PREDICTED BY IDOCK:    3.39 KCAL/MOL
REMARK 922        TOTAL FREE ENERGY PREDICTED BY IDOCK:    3.40 KCAL/MOL
REMARK 923 INTER-LIGAND FREE ENERGY PREDICTED BY IDOCK:    2.13 KCAL/MOL
REMARK 924 INTRA-LIGAND FREE ENERGY PREDICTED BY IDOCK:    1.28 KCAL/MOL
REMARK 927      BINDING AFFINITY PREDICTED BY RF-SCORE:    0.00 PKD
ROOT
HETATM    1  C   UNL     1     -10.119  13.399  70.983  1.00  0.00     6.077 C  
HETATM    2  N   UNL     1     -10.826  13.346  69.704  1.00  0.00     0.128 NA 
HETATM    3  C   UNL     1     -10.815  14.644  69.017  1.00  0.00    -0.245 C  
HETATM    4  C   UNL     1      -9.475  15.000  68.370  1.00  0.00    -0.201 C  
HETATM    5  C   UNL     1      -8.963  13.876  67.479  1.00  0.00    -0.197 C  
HETATM    6  C   UNL     1      -8.976  12.544  68.221  1.00  0.00    -0.178 C  
HETATM    7  C   UNL     1     -10.345  12.230  68.849  1.00  0.00    -0.059 C  
ENDROOT
BRANCH   7   8
HETATM    8  C   UNL     1     -11.430  11.909  67.802  1.00  0.00    -0.389 C  
BRANCH   8   9
HETATM    9  C   UNL     1     -11.207  10.644  66.948  1.00  0.00     0.027 C  
BRANCH   9  10
HETATM   10  N   UNL     1     -10.721   9.449  67.693  1.00  0.00    -0.268 NA 
HETATM   11  C   UNL     1     -11.224   9.209  69.010  1.00  0.00     0.216 A  
HETATM   12  C   UNL     1     -10.943   8.013  69.705  1.00  0.00    -0.137 A  
HETATM   13  S   UNL     1      -9.902   6.718  69.086  1.00  0.00    -0.160 SA 
HETATM   14  C   UNL     1     -11.485   7.757  70.987  1.00  0.00    -0.298 A  
HETATM   15  C   UNL     1     -12.308   8.676  71.620  1.00  0.00    -0.384 A  
HETATM   16  C   UNL     1      -9.402   7.348  67.508  1.00  0.00    -0.130 A  
HETATM   17  C   UNL     1     -12.570   9.875  70.985  1.00  0.00    -0.431 A  
HETATM   18  C   UNL     1      -9.817   8.587  66.986  1.00  0.00    -0.224 A  
HETATM   19  C   UNL     1      -9.298   8.915  65.711  1.00  0.00    -0.286 A  
HETATM   20  C   UNL     1     -12.025  10.137  69.719  1.00  0.00    -0.106 A  
HETATM   21  C   UNL     1      -8.532   8.027  64.939  1.00  0.00    -0.048 A  
HETATM   22  C   UNL     1      -8.556   6.491  66.772  1.00  0.00    -0.117 A  
HETATM   23  C   UNL     1      -8.141   6.816  65.485  1.00  0.00    -0.128 A  
BRANCH  21  24
HETATM   24  S   UNL     1      -8.084   8.431  63.233  1.00  0.00    -0.121 S  
HETATM   25  O   UNL     1      -8.262   7.163  62.449  1.00  0.00    -0.131 OA 
HETATM   26  C   UNL     1      -6.300   8.631  63.513  1.00  0.00    -0.085 C  
ENDBRANCH  21  24
ENDBRANCH   9  10
ENDBRANCH   8   9
ENDBRANCH   7   8
TORSDOF 4
ENDMDL
MODEL      220
REMARK 921   NORMALIZED FREE ENERGY PREDICTED BY IDOCK:    4.35 KCAL/MOL
REMARK 922        TOTAL FREE ENERGY PREDICTED BY IDOCK:    4.60 KCAL/MOL
REMARK 923 INTER-LIGAND FREE ENERGY PREDICTED BY IDOCK:    3.79 KCAL/MOL
REMARK 924 INTRA-LIGAND FREE ENERGY PREDICTED BY IDOCK:    0.80 KCAL/MOL
REMARK 927      BINDING AFFINITY PREDICTED BY RF-SCORE:    0.00 PKD
ROOT
HETATM    1  C   UNL     1      -5.625  12.376  68.622  1.00  0.00    -0.054 C  
HETATM    2  N   UNL     1      -6.619  13.109  69.406  1.00  0.00    -0.095 NA 
HETATM    3  C   UNL     1      -7.220  12.270  70.452  1.00  0.00     2.225 C  
HETATM    4  C   UNL     1      -6.311  12.024  71.657  1.00  0.00     2.685 C  
HETATM    5  C   UNL     1      -5.753  13.325  72.218  1.00  0.00     0.497 C  
HETATM    6  C   UNL     1      -5.127  14.170  71.113  1.00  0.00    -0.131 C  
HETATM    7  C   UNL     1      -6.081  14.392  69.926  1.00  0.00    -0.141 C  
ENDROOT
BRANCH   7   8
HETATM    8  C   UNL     1      -7.264  15.320  70.268  1.00  0.00     0.266 C  
BRANCH   8   9
HETATM    9  C   UNL     1      -8.667  14.819  69.866  1.00  0.00     0.479 C  
BRANCH   9  10
HETATM   10  N   UNL     1      -8.989  14.925  68.415  1.00  0.00    -0.177 NA 
HETATM   11  C   UNL     1      -8.546  16.078  67.694  1.00  0.00    -0.166 A  
HETATM   12  C   UNL     1      -8.664  16.166  66.291  1.00  0.00    -0.337 A  
HETATM   13  S   UNL     1      -9.418  14.926  65.271  1.00  0.00     0.544 SA 
HETATM   14  C   UNL     1      -8.177  17.286  65.575  1.00  0.00     0.948 A  
HETATM   15  C   UNL     1      -7.573  18.351  66.226  1.00  0.00    -0.289 A  
HETATM   16  C   UNL     1      -9.907  13.701  66.453  1.00  0.00    -0.296 A  
HETATM   17  C   UNL     1      -7.479  18.315  67.604  1.00  0.00    -0.216 A  
HETATM   18  C   UNL     1      -9.678  13.805  67.838  1.00  0.00    -0.229 A  
HETATM   19  C   UNL     1     -10.155  12.724  68.617  1.00  0.00    -0.132 A  
HETATM   20  C   UNL     1      -7.971  17.211  68.317  1.00  0.00    -0.236 A  
HETATM   21  C   UNL     1     -10.699  11.555  68.061  1.00  0.00    -0.202 A  
HETATM   22  C   UNL     1     -10.538  12.566  65.900  1.00  0.00    -0.292 A  
HETATM   23  C   UNL     1     -10.911  11.488  66.694  1.00  0.00    -0.349 A  
BRANCH  21  24
HETATM   24  S   UNL     1     -11.089  10.128  69.103  1.00  0.00    -0.186 S  
HETATM   25  O   UNL     1     -12.152  10.591  70.056  1.00  0.00    -0.287 OA 
HETATM   26  C   UNL     1      -9.526  10.097  70.031  1.00  0.00    -0.036 C  
ENDBRANCH  21  24
ENDBRANCH   9  10
ENDBRANCH   8   9
ENDBRANCH   7   8
TORSDOF 4
ENDMDL
MODEL      221
REMARK 921   NORMALIZED FREE ENERGY PREDICTED BY IDOCK:    4.49 KCAL/MOL
REMARK 922        TOTAL FREE ENERGY PREDICTED BY IDOCK:    4.77 KCAL/MOL
REMARK 923 INTER-LIGAND FREE ENERGY PREDICTED BY IDOCK:    2.99 KCAL/MOL
REMARK 924 INTRA-LIGAND FREE ENERGY PREDICTED BY IDOCK:    1.78 KCAL/MOL
REMARK 927      BINDING AFFINITY PREDICTED BY RF-SCORE:    0.00 PKD
ROOT
HETATM    1  C   UNL     1      -5.618  12.376  68.610  1.00  0.00    -0.054 C  
HETATM    2  N   UNL     1      -6.617  13.128  69.370  1.00  0.00    -0.095 NA 
HETATM    3  C   UNL     1      -7.205  12.323  70.450  1.00  0.00     2.225 C  
HETATM    4  C   UNL     1      -6.289  12.132  71.659  1.00  0.00     2.700 C  
HETATM    5  C   UNL     1      -5.742  13.459  72.168  1.00  0.00     0.314 C  
HETATM    6  C   UNL     1      -5.130  14.268  71.029  1.00  0.00    -0.124 C  
HETATM    7  C   UNL     1      -6.090  14.435  69.839  1.00  0.00    -0.141 C  
ENDROOT
BRANCH   7   8
HETATM    8  C   UNL     1      -7.282  15.363  70.151  1.00  0.00     0.158 C  
BRANCH   8   9
HETATM    9  C   UNL     1      -8.681  14.831  69.778  1.00  0.00     0.342 C  
BRANCH   9  10
HETATM   10  N   UNL     1      -9.010  14.864  68.326  1.00  0.00    -0.172 NA 
HETATM   11  C   UNL     1      -9.290  13.632  67.655  1.00  0.00    -0.215 A  
HETATM   12  C   UNL     1      -9.774  13.602  66.330  1.00  0.00    -0.283 A  
HETATM   13  S   UNL     1     -10.024  15.042  65.324  1.00  0.00    -0.210 SA 
HETATM   14  C   UNL     1     -10.099  12.384  65.687  1.00  0.00    -0.277 A  
HETATM   15  C   UNL     1      -9.945  11.165  66.330  1.00  0.00    -0.257 A  
HETATM   16  C   UNL     1      -9.531  16.356  66.404  1.00  0.00    -0.293 A  
HETATM   17  C   UNL     1      -9.435  11.156  67.615  1.00  0.00    -0.173 A  
HETATM   18  C   UNL     1      -9.080  16.165  67.723  1.00  0.00    -0.197 A  
HETATM   19  C   UNL     1      -8.722  17.344  68.420  1.00  0.00    -0.271 A  
HETATM   20  C   UNL     1      -9.100  12.362  68.250  1.00  0.00    -0.183 A  
HETATM   21  C   UNL     1      -8.920  18.634  67.905  1.00  0.00    -0.287 A  
HETATM   22  C   UNL     1      -9.644  17.649  65.849  1.00  0.00    -0.003 A  
HETATM   23  C   UNL     1      -9.364  18.784  66.601  1.00  0.00    -0.339 A  
BRANCH  21  24
HETATM   24  S   UNL     1      -8.640  20.097  68.933  1.00  0.00     0.448 S  
HETATM   25  O   UNL     1      -9.945  20.838  68.960  1.00  0.00     0.363 OA 
HETATM   26  C   UNL     1      -7.555  20.980  67.772  1.00  0.00     0.012 C  
ENDBRANCH  21  24
ENDBRANCH   9  10
ENDBRANCH   8   9
ENDBRANCH   7   8
TORSDOF 4
ENDMDL
MODEL      222
REMARK 921   NORMALIZED FREE ENERGY PREDICTED BY IDOCK:    5.07 KCAL/MOL
REMARK 922        TOTAL FREE ENERGY PREDICTED BY IDOCK:    5.49 KCAL/MOL
REMARK 923 INTER-LIGAND FREE ENERGY PREDICTED BY IDOCK:    4.26 KCAL/MOL
REMARK 924 INTRA-LIGAND FREE ENERGY PREDICTED BY IDOCK:    1.23 KCAL/MOL
REMARK 927      BINDING AFFINITY PREDICTED BY RF-SCORE:    0.00 PKD
ROOT
HETATM    1  C   UNL     1     -12.964  19.896  67.511  1.00  0.00     5.434 C  
HETATM    2  N   UNL     1     -11.979  19.041  66.848  1.00  0.00     2.078 NA 
HETATM    3  C   UNL     1     -11.377  19.700  65.682  1.00  0.00     0.676 C  
HETATM    4  C   UNL     1     -10.349  20.776  66.030  1.00  0.00     0.611 C  
HETATM    5  C   UNL     1      -9.296  20.258  67.000  1.00  0.00    -0.526 C  
HETATM    6  C   UNL     1      -9.948  19.588  68.205  1.00  0.00    -0.533 C  
HETATM    7  C   UNL     1     -10.971  18.512  67.803  1.00  0.00    -0.107 C  
ENDROOT
BRANCH   7   8
HETATM    8  C   UNL     1     -10.317  17.260  67.184  1.00  0.00    -0.321 C  
BRANCH   8   9
HETATM    9  C   UNL     1      -8.843  17.400  66.749  1.00  0.00    -0.251 C  
BRANCH   9  10
HETATM   10  N   UNL     1      -7.842  16.845  67.702  1.00  0.00    -0.171 NA 
HETATM   11  C   UNL     1      -6.976  17.749  68.393  1.00  0.00    -0.228 A  
HETATM   12  C   UNL     1      -6.126  17.314  69.432  1.00  0.00    -0.236 A  
HETATM   13  S   UNL     1      -5.971  15.626  69.956  1.00  0.00    -0.136 SA 
HETATM   14  C   UNL     1      -5.307  18.220  70.148  1.00  0.00    -0.240 A  
HETATM   15  C   UNL     1      -5.299  19.574  69.852  1.00  0.00    -0.228 A  
HETATM   16  C   UNL     1      -7.097  14.784  68.880  1.00  0.00    -0.118 A  
HETATM   17  C   UNL     1      -6.089  20.027  68.813  1.00  0.00    -0.315 A  
HETATM   18  C   UNL     1      -7.876  15.423  67.898  1.00  0.00    -0.133 A  
HETATM   19  C   UNL     1      -8.707  14.571  67.132  1.00  0.00    -0.237 A  
HETATM   20  C   UNL     1      -6.893  19.129  68.093  1.00  0.00    -0.276 A  
HETATM   21  C   UNL     1      -8.866  13.203  67.401  1.00  0.00    -0.204 A  
HETATM   22  C   UNL     1      -7.185  13.391  69.092  1.00  0.00     0.041 A  
HETATM   23  C   UNL     1      -8.081  12.607  68.375  1.00  0.00    -0.137 A  
BRANCH  21  24
HETATM   24  S   UNL     1     -10.105  12.222  66.520  1.00  0.00    -0.219 S  
HETATM   25  O   UNL     1      -9.686  10.789  66.678  1.00  0.00    -0.181 OA 
HETATM   26  C   UNL     1      -9.635  12.728  64.839  1.00  0.00     0.216 C  
ENDBRANCH  21  24
ENDBRANCH   9  10
ENDBRANCH   8   9
ENDBRANCH   7   8
TORSDOF 4
ENDMDL
MODEL      223
REMARK 921   NORMALIZED FREE ENERGY PREDICTED BY IDOCK:    6.73 KCAL/MOL
REMARK 922        TOTAL FREE ENERGY PREDICTED BY IDOCK:    7.53 KCAL/MOL
REMARK 923 INTER-LIGAND FREE ENERGY PREDICTED BY IDOCK:   -1.41 KCAL/MOL
REMARK 924 INTRA-LIGAND FREE ENERGY PREDICTED BY IDOCK:    8.94 KCAL/MOL
REMARK 927      BINDING AFFINITY PREDICTED BY RF-SCORE:    0.00 PKD
ROOT
HETATM    1  C   UNL     1      -7.025   4.783  71.843  1.00  0.00    -0.060 C  
HETATM    2  N   UNL     1      -8.094   4.875  70.849  1.00  0.00    -0.093 NA 
HETATM    3  C   UNL     1      -8.234   3.633  70.077  1.00  0.00    -0.052 C  
HETATM    4  C   UNL     1      -8.912   2.494  70.840  1.00  0.00    -0.157 C  
HETATM    5  C   UNL     1     -10.232   2.935  71.458  1.00  0.00     0.165 C  
HETATM    6  C   UNL     1     -10.055   4.220  72.260  1.00  0.00    -0.249 C  
HETATM    7  C   UNL     1      -9.373   5.335  71.449  1.00  0.00    -0.148 C  
ENDROOT
BRANCH   7   8
HETATM    8  C   UNL     1     -10.268   5.899  70.327  1.00  0.00    -0.279 C  
BRANCH   8   9
HETATM    9  C   UNL     1     -10.142   7.410  70.043  1.00  0.00    -0.191 C  
BRANCH   9  10
HETATM   10  N   UNL     1      -9.464   7.763  68.764  1.00  0.00    -0.149 NA 
HETATM   11  C   UNL     1      -9.054   9.117  68.554  1.00  0.00    -0.132 A  
HETATM   12  C   UNL     1      -8.259   9.488  67.448  1.00  0.00    -0.114 A  
HETATM   13  S   UNL     1      -7.737   8.371  66.172  1.00  0.00    -0.099 SA 
HETATM   14  C   UNL     1      -7.811  10.819  67.271  1.00  0.00    -0.113 A  
HETATM   15  C   UNL     1      -8.145  11.818  68.172  1.00  0.00    -0.150 A  
HETATM   16  C   UNL     1      -8.454   6.836  66.688  1.00  0.00    -0.120 A  
HETATM   17  C   UNL     1      -8.956  11.497  69.244  1.00  0.00     0.422 A  
HETATM   18  C   UNL     1      -9.220   6.677  67.857  1.00  0.00    -0.111 A  
HETATM   19  C   UNL     1      -9.714   5.371  68.088  1.00  0.00    -0.174 A  
HETATM   20  C   UNL     1      -9.411  10.181  69.416  1.00  0.00    -0.240 A  
HETATM   21  C   UNL     1      -9.367   4.265  67.296  1.00  0.00    -0.164 A  
HETATM   22  C   UNL     1      -8.180   5.743  65.838  1.00  0.00    -0.121 A  
HETATM   23  C   UNL     1      -8.613   4.459  66.151  1.00  0.00    -0.113 A  
BRANCH  21  24
HETATM   24  S   UNL     1      -9.861   2.591  67.774  1.00  0.00     0.860 S  
HETATM   25  O   UNL     1      -9.940   2.596  69.273  1.00  0.00     0.252 OA 
HETATM   26  C   UNL     1      -8.304   1.765  67.331  1.00  0.00    -0.076 C  
ENDBRANCH  21  24
ENDBRANCH   9  10
ENDBRANCH   8   9
ENDBRANCH   7   8
TORSDOF 4
ENDMDL
MODEL      224
REMARK 921   NORMALIZED FREE ENERGY PREDICTED BY IDOCK:    7.38 KCAL/MOL
REMARK 922        TOTAL FREE ENERGY PREDICTED BY IDOCK:    8.34 KCAL/MOL
REMARK 923 INTER-LIGAND FREE ENERGY PREDICTED BY IDOCK:   -1.60 KCAL/MOL
REMARK 924 INTRA-LIGAND FREE ENERGY PREDICTED BY IDOCK:    9.94 KCAL/MOL
REMARK 927      BINDING AFFINITY PREDICTED BY RF-SCORE:    0.00 PKD
ROOT
HETATM    1  C   UNL     1      -8.550  16.426  68.599  1.00  0.00    -0.237 C  
HETATM    2  N   UNL     1      -9.309  15.316  69.176  1.00  0.00    -0.223 NA 
HETATM    3  C   UNL     1     -10.035  15.720  70.387  1.00  0.00     0.335 C  
HETATM    4  C   UNL     1     -11.285  16.560  70.119  1.00  0.00    -0.151 C  
HETATM    5  C   UNL     1     -12.200  15.899  69.096  1.00  0.00    -0.013 C  
HETATM    6  C   UNL     1     -11.422  15.500  67.847  1.00  0.00    -0.276 C  
HETATM    7  C   UNL     1     -10.178  14.655  68.169  1.00  0.00    -0.231 C  
ENDROOT
BRANCH   7   8
HETATM    8  C   UNL     1     -10.525  13.239  68.673  1.00  0.00    -0.242 C  
BRANCH   8   9
HETATM    9  C   UNL     1      -9.695  12.079  68.083  1.00  0.00    -0.199 C  
BRANCH   9  10
HETATM   10  N   UNL     1      -8.296  11.977  68.585  1.00  0.00    -0.090 NA 
HETATM   11  C   UNL     1      -7.917  10.819  69.335  1.00  0.00    -0.067 A  
HETATM   12  C   UNL     1      -6.574  10.574  69.693  1.00  0.00    -0.098 A  
HETATM   13  S   UNL     1      -5.228  11.671  69.332  1.00  0.00    -0.053 SA 
HETATM   14  C   UNL     1      -6.195   9.402  70.390  1.00  0.00    -0.061 A  
HETATM   15  C   UNL     1      -7.131   8.449  70.761  1.00  0.00    -0.050 A  
HETATM   16  C   UNL     1      -6.031  13.000  68.482  1.00  0.00    -0.075 A  
HETATM   17  C   UNL     1      -8.461   8.677  70.462  1.00  0.00    -0.160 A  
HETATM   18  C   UNL     1      -7.412  13.043  68.211  1.00  0.00    -0.128 A  
HETATM   19  C   UNL     1      -7.862  14.199  67.530  1.00  0.00    -0.207 A  
HETATM   20  C   UNL     1      -8.841   9.844  69.781  1.00  0.00    -0.229 A  
HETATM   21  C   UNL     1      -6.997  15.183  67.026  1.00  0.00     0.258 A  
HETATM   22  C   UNL     1      -5.170  14.035  68.058  1.00  0.00    -0.098 A  
HETATM   23  C   UNL     1      -5.644  15.109  67.313  1.00  0.00     0.397 A  
BRANCH  21  24
HETATM   24  S   UNL     1      -7.622  16.520  65.979  1.00  0.00     0.587 S  
HETATM   25  O   UNL     1      -7.854  17.687  66.895  1.00  0.00    -0.204 OA 
HETATM   26  C   UNL     1      -9.250  15.788  65.633  1.00  0.00    -0.087 C  
ENDBRANCH  21  24
ENDBRANCH   9  10
ENDBRANCH   8   9
ENDBRANCH   7   8
TORSDOF 4
ENDMDL
MODEL      225
REMARK 921   NORMALIZED FREE ENERGY PREDICTED BY IDOCK:   12.65 KCAL/MOL
REMARK 922        TOTAL FREE ENERGY PREDICTED BY IDOCK:   14.83 KCAL/MOL
REMARK 923 INTER-LIGAND FREE ENERGY PREDICTED BY IDOCK:   -1.31 KCAL/MOL
REMARK 924 INTRA-LIGAND FREE ENERGY PREDICTED BY IDOCK:   16.14 KCAL/MOL
REMARK 927      BINDING AFFINITY PREDICTED BY RF-SCORE:    0.00 PKD
ROOT
HETATM    1  C   UNL     1      -6.756   5.319  70.559  1.00  0.00    -0.040 C  
HETATM    2  N   UNL     1      -6.955   6.668  70.031  1.00  0.00    -0.061 NA 
HETATM    3  C   UNL     1      -5.705   7.248  69.522  1.00  0.00    -0.023 C  
HETATM    4  C   UNL     1      -5.256   6.684  68.174  1.00  0.00    -0.008 C  
HETATM    5  C   UNL     1      -6.373   6.734  67.140  1.00  0.00    -0.041 C  
HETATM    6  C   UNL     1      -7.653   6.117  67.691  1.00  0.00    -0.097 C  
HETATM    7  C   UNL     1      -8.065   6.720  69.045  1.00  0.00    -0.117 C  
ENDROOT
BRANCH   7   8
HETATM    8  C   UNL     1      -8.555   8.178  68.932  1.00  0.00    -0.130 C  
BRANCH   8   9
HETATM    9  C   UNL     1      -7.678   9.134  68.097  1.00  0.00    -0.092 C  
BRANCH   9  10
HETATM   10  N   UNL     1      -8.083   9.287  66.671  1.00  0.00    -0.107 NA 
HETATM   11  C   UNL     1      -8.057   8.137  65.822  1.00  0.00    -0.115 A  
HETATM   12  C   UNL     1      -8.586   8.169  64.514  1.00  0.00     0.100 A  
HETATM   13  S   UNL     1      -9.270   9.614  63.747  1.00  0.00     0.004 SA 
HETATM   14  C   UNL     1      -8.605   7.015  63.695  1.00  0.00     0.514 A  
HETATM   15  C   UNL     1      -8.094   5.805  64.139  1.00  0.00    -0.120 A  
HETATM   16  C   UNL     1      -9.090  10.842  65.011  1.00  0.00    -0.203 A  
HETATM   17  C   UNL     1      -7.531   5.750  65.400  1.00  0.00    -0.078 A  
HETATM   18  C   UNL     1      -8.534  10.592  66.279  1.00  0.00    -0.155 A  
HETATM   19  C   UNL     1      -8.468  11.709  67.145  1.00  0.00    -0.162 A  
HETATM   20  C   UNL     1      -7.500   6.895  66.211  1.00  0.00    -0.077 A  
HETATM   21  C   UNL     1      -9.035  12.957  66.838  1.00  0.00    -0.210 A  
HETATM   22  C   UNL     1      -9.577  12.120  64.664  1.00  0.00     0.042 A  
HETATM   23  C   UNL     1      -9.573  13.167  65.580  1.00  0.00     0.034 A  
BRANCH  21  24
HETATM   24  S   UNL     1      -9.103  14.274  68.077  1.00  0.00    -0.199 S  
HETATM   25  O   UNL     1      -8.434  13.723  69.303  1.00  0.00     0.286 OA 
HETATM   26  C   UNL     1     -10.895  14.204  68.377  1.00  0.00    -0.254 C  
ENDBRANCH  21  24
ENDBRANCH   9  10
ENDBRANCH   8   9
ENDBRANCH   7   8
TORSDOF 4
ENDMDL
MODEL      226
REMARK 921   NORMALIZED FREE ENERGY PREDICTED BY IDOCK:   13.21 KCAL/MOL
REMARK 922        TOTAL FREE ENERGY PREDICTED BY IDOCK:   15.52 KCAL/MOL
REMARK 923 INTER-LIGAND FREE ENERGY PREDICTED BY IDOCK:   14.48 KCAL/MOL
REMARK 924 INTRA-LIGAND FREE ENERGY PREDICTED BY IDOCK:    1.04 KCAL/MOL
REMARK 927      BINDING AFFINITY PREDICTED BY RF-SCORE:    0.00 PKD
ROOT
HETATM    1  C   UNL     1      -8.715  14.288  65.358  1.00  0.00     2.225 C  
HETATM    2  N   UNL     1      -9.319  14.163  66.684  1.00  0.00    -0.283 NA 
HETATM    3  C   UNL     1     -10.679  14.717  66.721  1.00  0.00    -0.301 C  
HETATM    4  C   UNL     1     -11.734  13.835  66.053  1.00  0.00    -0.383 C  
HETATM    5  C   UNL     1     -11.685  12.404  66.572  1.00  0.00    -0.443 C  
HETATM    6  C   UNL     1     -10.265  11.851  66.512  1.00  0.00    -0.232 C  
HETATM    7  C   UNL     1      -9.242  12.772  67.200  1.00  0.00    -0.219 C  
ENDROOT
BRANCH   7   8
HETATM    8  C   UNL     1      -9.399  12.808  68.734  1.00  0.00     0.137 C  
BRANCH   8   9
HETATM    9  C   UNL     1      -9.298  11.453  69.466  1.00  0.00     0.715 C  
BRANCH   9  10
HETATM   10  N   UNL     1     -10.315  10.438  69.071  1.00  0.00    -0.201 NA 
HETATM   11  C   UNL     1     -11.597  10.466  69.705  1.00  0.00    -0.239 A  
HETATM   12  C   UNL     1     -12.661   9.651  69.263  1.00  0.00     1.906 A  
HETATM   13  S   UNL     1     -12.534   8.468  67.947  1.00  0.00     8.628 SA 
HETATM   14  C   UNL     1     -13.942   9.718  69.859  1.00  0.00     2.137 A  
HETATM   15  C   UNL     1     -14.204  10.582  70.912  1.00  0.00     1.844 A  
HETATM   16  C   UNL     1     -10.846   8.635  67.441  1.00  0.00    -0.013 A  
HETATM   17  C   UNL     1     -13.173  11.364  71.396  1.00  0.00    -0.245 A  
HETATM   18  C   UNL     1      -9.934   9.538  68.019  1.00  0.00    -0.167 A  
HETATM   19  C   UNL     1      -8.626   9.512  67.480  1.00  0.00    -0.126 A  
HETATM   20  C   UNL     1     -11.898  11.291  70.814  1.00  0.00    -0.288 A  
HETATM   21  C   UNL     1      -8.270   8.748  66.357  1.00  0.00    -0.111 A  
HETATM   22  C   UNL     1     -10.465   7.797  66.371  1.00  0.00     0.214 A  
HETATM   23  C   UNL     1      -9.192   7.868  65.815  1.00  0.00    -0.033 A  
BRANCH  21  24
HETATM   24  S   UNL     1      -6.640   8.926  65.592  1.00  0.00    -0.064 S  
HETATM   25  O   UNL     1      -5.649   8.883  66.719  1.00  0.00    -0.039 OA 
HETATM   26  C   UNL     1      -6.812  10.669  65.107  1.00  0.00     0.057 C  
ENDBRANCH  21  24
ENDBRANCH   9  10
ENDBRANCH   8   9
ENDBRANCH   7   8
TORSDOF 4
ENDMDL
MODEL      227
REMARK 921   NORMALIZED FREE ENERGY PREDICTED BY IDOCK:   13.90 KCAL/MOL
REMARK 922        TOTAL FREE ENERGY PREDICTED BY IDOCK:   16.38 KCAL/MOL
REMARK 923 INTER-LIGAND FREE ENERGY PREDICTED BY IDOCK:   12.81 KCAL/MOL
REMARK 924 INTRA-LIGAND FREE ENERGY PREDICTED BY IDOCK:    3.57 KCAL/MOL
REMARK 927      BINDING AFFINITY PREDICTED BY RF-SCORE:    0.00 PKD
ROOT
HETATM    1  C   UNL     1      -8.602  14.951  66.114  1.00  0.00     0.346 C  
HETATM    2  N   UNL     1      -7.771  13.802  66.473  1.00  0.00     0.835 NA 
HETATM    3  C   UNL     1      -6.982  14.054  67.687  1.00  0.00    -0.183 C  
HETATM    4  C   UNL     1      -7.791  13.996  68.983  1.00  0.00     0.023 C  
HETATM    5  C   UNL     1      -8.603  12.711  69.085  1.00  0.00     0.678 C  
HETATM    6  C   UNL     1      -9.418  12.481  67.818  1.00  0.00    -0.197 C  
HETATM    7  C   UNL     1      -8.560  12.545  66.542  1.00  0.00     0.028 C  
ENDROOT
BRANCH   7   8
HETATM    8  C   UNL     1      -7.596  11.350  66.403  1.00  0.00    -0.024 C  
BRANCH   8   9
HETATM    9  C   UNL     1      -7.437  10.448  67.644  1.00  0.00    -0.089 C  
BRANCH   9  10
HETATM   10  N   UNL     1      -8.031   9.087  67.522  1.00  0.00    -0.101 NA 
HETATM   11  C   UNL     1      -7.295   7.968  68.025  1.00  0.00    -0.096 A  
HETATM   12  C   UNL     1      -7.864   6.679  68.099  1.00  0.00    -0.110 A  
HETATM   13  S   UNL     1      -9.494   6.271  67.530  1.00  0.00    -0.113 SA 
HETATM   14  C   UNL     1      -7.151   5.584  68.644  1.00  0.00    -0.065 A  
HETATM   15  C   UNL     1      -5.857   5.731  69.120  1.00  0.00    -0.016 A  
HETATM   16  C   UNL     1     -10.089   7.824  66.921  1.00  0.00    -0.286 A  
HETATM   17  C   UNL     1      -5.255   6.972  69.025  1.00  0.00    -0.014 A  
HETATM   18  C   UNL     1      -9.348   9.020  66.954  1.00  0.00    -0.158 A  
HETATM   19  C   UNL     1      -9.996  10.153  66.408  1.00  0.00    -0.295 A  
HETATM   20  C   UNL     1      -5.956   8.056  68.473  1.00  0.00    -0.040 A  
HETATM   21  C   UNL     1     -11.334  10.144  65.982  1.00  0.00     1.269 A  
HETATM   22  C   UNL     1     -11.403   7.792  66.408  1.00  0.00     2.544 A  
HETATM   23  C   UNL     1     -12.033   8.949  65.962  1.00  0.00     8.115 A  
BRANCH  21  24
HETATM   24  S   UNL     1     -12.162  11.678  65.496  1.00  0.00     1.268 S  
HETATM   25  O   UNL     1     -11.233  12.362  64.536  1.00  0.00    -0.298 OA 
HETATM   26  C   UNL     1     -11.997  12.534  67.091  1.00  0.00    -0.215 C  
ENDBRANCH  21  24
ENDBRANCH   9  10
ENDBRANCH   8   9
ENDBRANCH   7   8
TORSDOF 4
ENDMDL
MODEL      228
REMARK 921   NORMALIZED FREE ENERGY PREDICTED BY IDOCK:   14.91 KCAL/MOL
REMARK 922        TOTAL FREE ENERGY PREDICTED BY IDOCK:   17.63 KCAL/MOL
REMARK 923 INTER-LIGAND FREE ENERGY PREDICTED BY IDOCK:   11.59 KCAL/MOL
REMARK 924 INTRA-LIGAND FREE ENERGY PREDICTED BY IDOCK:    6.04 KCAL/MOL
REMARK 927      BINDING AFFINITY PREDICTED BY RF-SCORE:    0.00 PKD
ROOT
HETATM    1  C   UNL     1     -10.962  16.195  66.956  1.00  0.00    -0.123 C  
HETATM    2  N   UNL     1     -10.196  15.692  65.816  1.00  0.00    -0.339 NA 
HETATM    3  C   UNL     1      -9.479  16.768  65.119  1.00  0.00     1.356 C  
HETATM    4  C   UNL     1      -8.236  17.272  65.854  1.00  0.00    -0.027 C  
HETATM    5  C   UNL     1      -7.311  16.128  66.246  1.00  0.00     0.387 C  
HETATM    6  C   UNL     1      -8.079  15.031  66.975  1.00  0.00    -0.225 C  
HETATM    7  C   UNL     1      -9.317  14.557  66.195  1.00  0.00    -0.209 C  
ENDROOT
BRANCH   7   8
HETATM    8  C   UNL     1      -8.960  13.764  64.922  1.00  0.00     2.433 C  
BRANCH   8   9
HETATM    9  C   UNL     1      -8.942  12.227  65.053  1.00  0.00     0.778 C  
BRANCH   9  10
HETATM   10  N   UNL     1      -8.896  11.707  66.448  1.00  0.00    -0.191 NA 
HETATM   11  C   UNL     1      -7.774  10.916  66.851  1.00  0.00    -0.135 A  
HETATM   12  C   UNL     1      -7.579  10.536  68.196  1.00  0.00    -0.091 A  
HETATM   13  S   UNL     1      -8.702  10.917  69.515  1.00  0.00     0.422 SA 
HETATM   14  C   UNL     1      -6.441   9.798  68.600  1.00  0.00    -0.047 A  
HETATM   15  C   UNL     1      -5.474   9.406  67.687  1.00  0.00    -0.037 A  
HETATM   16  C   UNL     1      -9.980  11.819  68.685  1.00  0.00    -0.172 A  
HETATM   17  C   UNL     1      -5.655   9.727  66.355  1.00  0.00    -0.052 A  
HETATM   18  C   UNL     1      -9.975  12.105  67.307  1.00  0.00    -0.203 A  
HETATM   19  C   UNL     1     -11.094  12.829  66.832  1.00  0.00    -0.308 A  
HETATM   20  C   UNL     1      -6.788  10.449  65.950  1.00  0.00    -0.131 A  
HETATM   21  C   UNL     1     -12.086  13.355  67.675  1.00  0.00    -0.269 A  
HETATM   22  C   UNL     1     -11.024  12.267  69.521  1.00  0.00    -0.007 A  
HETATM   23  C   UNL     1     -12.061  13.051  69.026  1.00  0.00    -0.220 A  
BRANCH  21  24
HETATM   24  S   UNL     1     -13.371  14.451  67.024  1.00  0.00     4.199 S  
HETATM   25  O   UNL     1     -12.733  15.210  65.897  1.00  0.00     0.469 OA 
HETATM   26  C   UNL     1     -13.442  15.579  68.447  1.00  0.00     4.333 C  
ENDBRANCH  21  24
ENDBRANCH   9  10
ENDBRANCH   8   9
ENDBRANCH   7   8
TORSDOF 4
ENDMDL
MODEL      229
REMARK 921   NORMALIZED FREE ENERGY PREDICTED BY IDOCK:   17.79 KCAL/MOL
REMARK 922        TOTAL FREE ENERGY PREDICTED BY IDOCK:   21.17 KCAL/MOL
REMARK 923 INTER-LIGAND FREE ENERGY PREDICTED BY IDOCK:   19.35 KCAL/MOL
REMARK 924 INTRA-LIGAND FREE ENERGY PREDICTED BY IDOCK:    1.82 KCAL/MOL
REMARK 927      BINDING AFFINITY PREDICTED BY RF-SCORE:    0.00 PKD
ROOT
HETATM    1  C   UNL     1     -13.561  20.112  66.554  1.00  0.00     8.031 C  
HETATM    2  N   UNL     1     -12.648  19.190  65.878  1.00  0.00     6.436 NA 
HETATM    3  C   UNL     1     -11.987  19.819  64.727  1.00  0.00     4.735 C  
HETATM    4  C   UNL     1     -10.874  20.799  65.101  1.00  0.00     1.238 C  
HETATM    5  C   UNL     1      -9.873  20.175  66.064  1.00  0.00    -0.460 C  
HETATM    6  C   UNL     1     -10.585  19.540  67.253  1.00  0.00    -0.610 C  
HETATM    7  C   UNL     1     -11.692  18.561  66.825  1.00  0.00     2.106 C  
ENDROOT
BRANCH   7   8
HETATM    8  C   UNL     1     -11.142  17.271  66.184  1.00  0.00     0.437 C  
BRANCH   8   9
HETATM    9  C   UNL     1      -9.698  17.334  65.646  1.00  0.00     0.160 C  
BRANCH   9  10
HETATM   10  N   UNL     1      -8.629  17.126  66.662  1.00  0.00    -0.236 NA 
HETATM   11  C   UNL     1      -7.507  18.012  66.672  1.00  0.00    -0.224 A  
HETATM   12  C   UNL     1      -6.547  17.983  67.707  1.00  0.00    -0.187 A  
HETATM   13  S   UNL     1      -6.566  16.831  69.055  1.00  0.00    -0.217 SA 
HETATM   14  C   UNL     1      -5.466  18.896  67.741  1.00  0.00    -0.176 A  
HETATM   15  C   UNL     1      -5.298  19.852  66.751  1.00  0.00    -0.164 A  
HETATM   16  C   UNL     1      -8.006  15.859  68.712  1.00  0.00    -0.188 A  
HETATM   17  C   UNL     1      -6.197  19.882  65.702  1.00  0.00    -0.232 A  
HETATM   18  C   UNL     1      -8.852  16.068  67.607  1.00  0.00    -0.185 A  
HETATM   19  C   UNL     1      -9.947  15.177  67.502  1.00  0.00    -0.225 A  
HETATM   20  C   UNL     1      -7.263  18.970  65.659  1.00  0.00    -0.207 A  
HETATM   21  C   UNL     1     -10.268  14.232  68.489  1.00  0.00    -0.245 A  
HETATM   22  C   UNL     1      -8.275  14.847  69.658  1.00  0.00     0.039 A  
HETATM   23  C   UNL     1      -9.411  14.052  69.562  1.00  0.00     0.688 A  
BRANCH  21  24
HETATM   24  S   UNL     1     -11.801  13.275  68.393  1.00  0.00    -0.332 S  
HETATM   25  O   UNL     1     -11.944  12.590  69.721  1.00  0.00    -0.314 OA 
HETATM   26  C   UNL     1     -11.210  12.025  67.215  1.00  0.00    -0.311 C  
ENDBRANCH  21  24
ENDBRANCH   9  10
ENDBRANCH   8   9
ENDBRANCH   7   8
TORSDOF 4
ENDMDL
MODEL      230
REMARK 921   NORMALIZED FREE ENERGY PREDICTED BY IDOCK:   32.98 KCAL/MOL
REMARK 922        TOTAL FREE ENERGY PREDICTED BY IDOCK:   39.92 KCAL/MOL
REMARK 923 INTER-LIGAND FREE ENERGY PREDICTED BY IDOCK:   40.62 KCAL/MOL
REMARK 924 INTRA-LIGAND FREE ENERGY PREDICTED BY IDOCK:   -0.69 KCAL/MOL
REMARK 927      BINDING AFFINITY PREDICTED BY RF-SCORE:    0.00 PKD
ROOT
HETATM    1  C   UNL     1     -10.055  13.787  71.319  1.00  0.00     5.672 C  
HETATM    2  N   UNL     1      -9.594  13.599  69.944  1.00  0.00     1.597 NA 
HETATM    3  C   UNL     1      -8.760  14.719  69.487  1.00  0.00     0.117 C  
HETATM    4  C   UNL     1      -7.343  14.721  70.062  1.00  0.00     0.104 C  
HETATM    5  C   UNL     1      -6.653  13.378  69.868  1.00  0.00     0.081 C  
HETATM    6  C   UNL     1      -7.536  12.236  70.360  1.00  0.00     2.887 C  
HETATM    7  C   UNL     1      -8.948  12.275  69.750  1.00  0.00     2.394 C  
ENDROOT
BRANCH   7   8
HETATM    8  C   UNL     1      -8.965  11.934  68.247  1.00  0.00    -0.178 C  
BRANCH   8   9
HETATM    9  C   UNL     1      -9.177  10.450  67.882  1.00  0.00    -0.139 C  
BRANCH   9  10
HETATM   10  N   UNL     1     -10.090   9.696  68.786  1.00  0.00    -0.172 NA 
HETATM   11  C   UNL     1     -11.497   9.943  68.704  1.00  0.00     0.111 A  
HETATM   12  C   UNL     1     -12.431   9.148  69.403  1.00  0.00     2.161 A  
HETATM   13  S   UNL     1     -11.995   7.822  70.497  1.00  0.00     0.120 SA 
HETATM   14  C   UNL     1     -13.824   9.363  69.280  1.00  0.00     5.560 A  
HETATM   15  C   UNL     1     -14.331  10.372  68.474  1.00  0.00    11.730 A  
HETATM   16  C   UNL     1     -10.226   7.829  70.425  1.00  0.00    -0.197 A  
HETATM   17  C   UNL     1     -13.442  11.194  67.809  1.00  0.00     9.155 A  
HETATM   18  C   UNL     1      -9.472   8.719  69.636  1.00  0.00    -0.170 A  
HETATM   19  C   UNL     1      -8.068   8.570  69.725  1.00  0.00    -0.116 A  
HETATM   20  C   UNL     1     -12.059  10.991  67.938  1.00  0.00     0.356 A  
HETATM   21  C   UNL     1      -7.446   7.530  70.434  1.00  0.00    -0.081 A  
HETATM   22  C   UNL     1      -9.599   6.840  71.213  1.00  0.00    -0.172 A  
HETATM   23  C   UNL     1      -8.219   6.674  71.201  1.00  0.00    -0.120 A  
BRANCH  21  24
HETATM   24  S   UNL     1      -5.658   7.274  70.327  1.00  0.00    -0.024 S  
HETATM   25  O   UNL     1      -5.179   7.113  71.741  1.00  0.00    -0.031 OA 
HETATM   26  C   UNL     1      -5.223   8.962  69.813  1.00  0.00    -0.030 C  
ENDBRANCH  21  24
ENDBRANCH   9  10
ENDBRANCH   8   9
ENDBRANCH   7   8
TORSDOF 4
ENDMDL
MODEL      231
REMARK 921   NORMALIZED FREE ENERGY PREDICTED BY IDOCK:   38.35 KCAL/MOL
REMARK 922        TOTAL FREE ENERGY PREDICTED BY IDOCK:   46.54 KCAL/MOL
REMARK 923 INTER-LIGAND FREE ENERGY PREDICTED BY IDOCK:   11.91 KCAL/MOL
REMARK 924 INTRA-LIGAND FREE ENERGY PREDICTED BY IDOCK:   34.63 KCAL/MOL
REMARK 927      BINDING AFFINITY PREDICTED BY RF-SCORE:    0.00 PKD
ROOT
HETATM    1  C   UNL     1      -6.733  16.237  70.134  1.00  0.00     0.350 C  
HETATM    2  N   UNL     1      -7.659  16.547  69.044  1.00  0.00    -0.232 NA 
HETATM    3  C   UNL     1      -8.954  17.026  69.544  1.00  0.00     0.457 C  
HETATM    4  C   UNL     1      -8.933  18.464  70.062  1.00  0.00     1.783 C  
HETATM    5  C   UNL     1      -8.323  19.421  69.047  1.00  0.00    -0.258 C  
HETATM    6  C   UNL     1      -6.976  18.904  68.553  1.00  0.00    -0.299 C  
HETATM    7  C   UNL     1      -7.050  17.456  68.039  1.00  0.00    -0.184 C  
ENDROOT
BRANCH   7   8
HETATM    8  C   UNL     1      -7.833  17.324  66.718  1.00  0.00    -0.278 C  
BRANCH   8   9
HETATM    9  C   UNL     1      -9.371  17.304  66.830  1.00  0.00    -0.255 C  
BRANCH   9  10
HETATM   10  N   UNL     1      -9.996  15.952  66.777  1.00  0.00    -0.240 NA 
HETATM   11  C   UNL     1     -10.845  15.630  65.671  1.00  0.00    -0.327 A  
HETATM   12  C   UNL     1     -11.330  14.321  65.466  1.00  0.00    -0.325 A  
HETATM   13  S   UNL     1     -11.020  12.957  66.557  1.00  0.00    -0.282 SA 
HETATM   14  C   UNL     1     -12.127  13.994  64.343  1.00  0.00    -0.486 A  
HETATM   15  C   UNL     1     -12.474  14.951  63.401  1.00  0.00     1.130 A  
HETATM   16  C   UNL     1     -10.025  13.695  67.822  1.00  0.00    -0.235 A  
HETATM   17  C   UNL     1     -12.049  16.252  63.594  1.00  0.00     1.959 A  
HETATM   18  C   UNL     1      -9.635  15.047  67.831  1.00  0.00    -0.203 A  
HETATM   19  C   UNL     1      -8.848  15.446  68.937  1.00  0.00    -0.211 A  
HETATM   20  C   UNL     1     -11.268  16.581  64.713  1.00  0.00    -0.150 A  
HETATM   21  C   UNL     1      -8.362  14.549  69.901  1.00  0.00     0.659 A  
HETATM   22  C   UNL     1      -9.614  12.809  68.841  1.00  0.00     0.220 A  
HETATM   23  C   UNL     1      -8.767  13.225  69.862  1.00  0.00     2.627 A  
BRANCH  21  24
HETATM   24  S   UNL     1      -7.186  15.092  71.164  1.00  0.00     2.127 S  
HETATM   25  O   UNL     1      -7.514  16.531  71.442  1.00  0.00     4.700 OA 
HETATM   26  C   UNL     1      -5.706  15.082  70.110  1.00  0.00    -0.133 C  
ENDBRANCH  21  24
ENDBRANCH   9  10
ENDBRANCH   8   9
ENDBRANCH   7   8
TORSDOF 4
ENDMDL
MODEL      232
REMARK 921   NORMALIZED FREE ENERGY PREDICTED BY IDOCK:   47.87 KCAL/MOL
REMARK 922        TOTAL FREE ENERGY PREDICTED BY IDOCK:   58.29 KCAL/MOL
REMARK 923 INTER-LIGAND FREE ENERGY PREDICTED BY IDOCK:   57.67 KCAL/MOL
REMARK 924 INTRA-LIGAND FREE ENERGY PREDICTED BY IDOCK:    0.61 KCAL/MOL
REMARK 927      BINDING AFFINITY PREDICTED BY RF-SCORE:    0.00 PKD
ROOT
HETATM    1  C   UNL     1      -8.769   6.293  66.624  1.00  0.00    -0.126 C  
HETATM    2  N   UNL     1      -8.961   7.534  67.374  1.00  0.00    -0.126 NA 
HETATM    3  C   UNL     1     -10.202   8.220  66.991  1.00  0.00    -0.310 C  
HETATM    4  C   UNL     1     -11.472   7.575  67.546  1.00  0.00     0.855 C  
HETATM    5  C   UNL     1     -11.382   7.355  69.050  1.00  0.00     0.292 C  
HETATM    6  C   UNL     1     -10.090   6.632  69.418  1.00  0.00    -0.192 C  
HETATM    7  C   UNL     1      -8.842   7.320  68.839  1.00  0.00    -0.127 C  
ENDROOT
BRANCH   7   8
HETATM    8  C   UNL     1      -8.534   8.674  69.510  1.00  0.00    -0.129 C  
BRANCH   8   9
HETATM    9  C   UNL     1      -9.422   9.865  69.092  1.00  0.00    -0.196 C  
BRANCH   9  10
HETATM   10  N   UNL     1      -9.092  11.165  69.740  1.00  0.00     0.729 NA 
HETATM   11  C   UNL     1      -8.025  11.950  69.201  1.00  0.00     0.257 A  
HETATM   12  C   UNL     1      -7.768  13.263  69.653  1.00  0.00     0.968 A  
HETATM   13  S   UNL     1      -8.663  14.063  70.959  1.00  0.00     6.327 SA 
HETATM   14  C   UNL     1      -6.745  14.056  69.082  1.00  0.00    -0.112 A  
HETATM   15  C   UNL     1      -5.942  13.572  68.060  1.00  0.00    -0.131 A  
HETATM   16  C   UNL     1      -9.833  12.824  71.439  1.00  0.00    11.674 A  
HETATM   17  C   UNL     1      -6.140  12.276  67.622  1.00  0.00    -0.120 A  
HETATM   18  C   UNL     1      -9.932  11.556  70.836  1.00  0.00     5.346 A  
HETATM   19  C   UNL     1     -10.926  10.704  71.371  1.00  0.00     1.440 A  
HETATM   20  C   UNL     1      -7.146  11.483  68.194  1.00  0.00    -0.076 A  
HETATM   21  C   UNL     1     -11.854  11.116  72.341  1.00  0.00     3.426 A  
HETATM   22  C   UNL     1     -10.706  13.209  72.480  1.00  0.00     9.651 A  
HETATM   23  C   UNL     1     -11.726  12.370  72.914  1.00  0.00     6.832 A  
BRANCH  21  24
HETATM   24  S   UNL     1     -13.231  10.044  72.822  1.00  0.00     0.947 S  
HETATM   25  O   UNL     1     -14.164  10.020  71.647  1.00  0.00     0.197 OA 
HETATM   26  C   UNL     1     -13.962  11.162  74.055  1.00  0.00    10.377 C  
ENDBRANCH  21  24
ENDBRANCH   9  10
ENDBRANCH   8   9
ENDBRANCH   7   8
TORSDOF 4
ENDMDL
MODEL      233
REMARK 921   NORMALIZED FREE ENERGY PREDICTED BY IDOCK:   55.66 KCAL/MOL
REMARK 922        TOTAL FREE ENERGY PREDICTED BY IDOCK:   67.90 KCAL/MOL
REMARK 923 INTER-LIGAND FREE ENERGY PREDICTED BY IDOCK:    8.59 KCAL/MOL
REMARK 924 INTRA-LIGAND FREE ENERGY PREDICTED BY IDOCK:   59.31 KCAL/MOL
REMARK 927      BINDING AFFINITY PREDICTED BY RF-SCORE:    0.00 PKD
ROOT
HETATM    1  C   UNL     1     -13.342  14.287  71.028  1.00  0.00    -0.265 C  
HETATM    2  N   UNL     1     -13.092  15.077  69.823  1.00  0.00     0.226 NA 
HETATM    3  C   UNL     1     -12.495  16.382  70.137  1.00  0.00     1.117 C  
HETATM    4  C   UNL     1     -11.015  16.319  70.518  1.00  0.00    -0.233 C  
HETATM    5  C   UNL     1     -10.199  15.549  69.488  1.00  0.00    -0.279 C  
HETATM    6  C   UNL     1     -10.837  14.196  69.189  1.00  0.00    -0.254 C  
HETATM    7  C   UNL     1     -12.322  14.313  68.808  1.00  0.00    -0.051 C  
ENDROOT
BRANCH   7   8
HETATM    8  C   UNL     1     -12.542  14.968  67.429  1.00  0.00     1.024 C  
BRANCH   8   9
HETATM    9  C   UNL     1     -12.718  14.008  66.234  1.00  0.00    -0.183 C  
BRANCH   9  10
HETATM   10  N   UNL     1     -12.028  12.694  66.365  1.00  0.00    -0.540 NA 
HETATM   11  C   UNL     1     -11.814  11.909  65.189  1.00  0.00    -0.121 A  
HETATM   12  C   UNL     1     -11.021  10.742  65.210  1.00  0.00     0.122 A  
HETATM   13  S   UNL     1     -10.264  10.074  66.668  1.00  0.00    -0.208 SA 
HETATM   14  C   UNL     1     -10.769   9.996  64.034  1.00  0.00     2.009 A  
HETATM   15  C   UNL     1     -11.301  10.376  62.811  1.00  0.00     2.782 A  
HETATM   16  C   UNL     1     -10.771  11.217  67.923  1.00  0.00    -0.216 A  
HETATM   17  C   UNL     1     -12.116  11.491  62.763  1.00  0.00     0.702 A  
HETATM   18  C   UNL     1     -11.571  12.349  67.681  1.00  0.00    -0.357 A  
HETATM   19  C   UNL     1     -11.876  13.132  68.820  1.00  0.00    -0.361 A  
HETATM   20  C   UNL     1     -12.377  12.226  63.929  1.00  0.00    -0.606 A  
HETATM   21  C   UNL     1     -11.321  12.898  70.088  1.00  0.00     0.245 A  
HETATM   22  C   UNL     1     -10.287  10.925  69.216  1.00  0.00    -0.211 A  
HETATM   23  C   UNL     1     -10.539  11.772  70.289  1.00  0.00     1.520 A  
BRANCH  21  24
HETATM   24  S   UNL     1     -11.585  14.064  71.446  1.00  0.00     0.889 S  
HETATM   25  O   UNL     1     -11.713  13.230  72.687  1.00  0.00     2.195 OA 
HETATM   26  C   UNL     1     -13.265  14.575  70.977  1.00  0.00    -0.354 C  
ENDBRANCH  21  24
ENDBRANCH   9  10
ENDBRANCH   8   9
ENDBRANCH   7   8
TORSDOF 4
ENDMDL
MODEL      234
REMARK 921   NORMALIZED FREE ENERGY PREDICTED BY IDOCK:   56.07 KCAL/MOL
REMARK 922        TOTAL FREE ENERGY PREDICTED BY IDOCK:   68.40 KCAL/MOL
REMARK 923 INTER-LIGAND FREE ENERGY PREDICTED BY IDOCK:   41.47 KCAL/MOL
REMARK 924 INTRA-LIGAND FREE ENERGY PREDICTED BY IDOCK:   26.93 KCAL/MOL
REMARK 927      BINDING AFFINITY PREDICTED BY RF-SCORE:    0.00 PKD
ROOT
HETATM    1  C   UNL     1     -10.256  14.525  64.009  1.00  0.00     1.915 C  
HETATM    2  N   UNL     1     -10.411  14.596  65.462  1.00  0.00    -0.337 NA 
HETATM    3  C   UNL     1     -11.698  15.188  65.848  1.00  0.00    -0.007 C  
HETATM    4  C   UNL     1     -12.896  14.255  65.670  1.00  0.00    -0.321 C  
HETATM    5  C   UNL     1     -12.664  12.905  66.337  1.00  0.00     0.620 C  
HETATM    6  C   UNL     1     -11.327  12.310  65.910  1.00  0.00    -0.406 C  
HETATM    7  C   UNL     1     -10.154  13.285  66.112  1.00  0.00    -0.293 C  
ENDROOT
BRANCH   7   8
HETATM    8  C   UNL     1      -9.821  13.530  67.597  1.00  0.00    -0.228 C  
BRANCH   8   9
HETATM    9  C   UNL     1      -9.395  12.294  68.418  1.00  0.00    -0.162 C  
BRANCH   9  10
HETATM   10  N   UNL     1      -8.988  11.107  67.616  1.00  0.00    -0.139 NA 
HETATM   11  C   UNL     1      -9.050   9.813  68.222  1.00  0.00    -0.122 A  
HETATM   12  C   UNL     1      -8.845   8.633  67.475  1.00  0.00    -0.135 A  
HETATM   13  S   UNL     1      -8.426   8.601  65.752  1.00  0.00    -0.160 SA 
HETATM   14  C   UNL     1      -8.958   7.353  68.067  1.00  0.00    -0.132 A  
HETATM   15  C   UNL     1      -9.265   7.203  69.411  1.00  0.00    -0.148 A  
HETATM   16  C   UNL     1      -8.363  10.322  65.339  1.00  0.00    -0.162 A  
HETATM   17  C   UNL     1      -9.432   8.339  70.180  1.00  0.00    -0.167 A  
HETATM   18  C   UNL     1      -8.618  11.362  66.252  1.00  0.00    -0.156 A  
HETATM   19  C   UNL     1      -8.506  12.672  65.729  1.00  0.00     1.109 A  
HETATM   20  C   UNL     1      -9.309   9.610  69.598  1.00  0.00    -0.226 A  
HETATM   21  C   UNL     1      -8.291  12.943  64.368  1.00  0.00     4.781 A  
HETATM   22  C   UNL     1      -8.054  10.593  63.989  1.00  0.00     0.066 A  
HETATM   23  C   UNL     1      -8.041  11.895  63.498  1.00  0.00     2.058 A  
BRANCH  21  24
HETATM   24  S   UNL     1      -8.373  14.636  63.736  1.00  0.00    16.596 S  
HETATM   25  O   UNL     1      -9.127  15.425  64.766  1.00  0.00     1.135 OA 
HETATM   26  C   UNL     1      -9.528  14.308  62.372  1.00  0.00    16.495 C  
ENDBRANCH  21  24
ENDBRANCH   9  10
ENDBRANCH   8   9
ENDBRANCH   7   8
TORSDOF 4
ENDMDL
MODEL      235
REMARK 921   NORMALIZED FREE ENERGY PREDICTED BY IDOCK:   69.98 KCAL/MOL
REMARK 922        TOTAL FREE ENERGY PREDICTED BY IDOCK:   85.57 KCAL/MOL
REMARK 923 INTER-LIGAND FREE ENERGY PREDICTED BY IDOCK:   74.64 KCAL/MOL
REMARK 924 INTRA-LIGAND FREE ENERGY PREDICTED BY IDOCK:   10.93 KCAL/MOL
REMARK 927      BINDING AFFINITY PREDICTED BY RF-SCORE:    0.00 PKD
ROOT
HETATM    1  C   UNL     1     -10.944  12.275  73.781  1.00  0.00    17.711 C  
HETATM    2  N   UNL     1     -11.073  13.193  72.650  1.00  0.00     6.482 NA 
HETATM    3  C   UNL     1     -10.451  14.495  72.926  1.00  0.00     4.178 C  
HETATM    4  C   UNL     1      -8.923  14.484  72.867  1.00  0.00     8.840 C  
HETATM    5  C   UNL     1      -8.412  13.870  71.570  1.00  0.00     8.021 C  
HETATM    6  C   UNL     1      -9.067  12.517  71.314  1.00  0.00    14.062 C  
HETATM    7  C   UNL     1     -10.602  12.580  71.381  1.00  0.00     7.103 C  
ENDROOT
BRANCH   7   8
HETATM    8  C   UNL     1     -11.227  13.352  70.201  1.00  0.00     0.232 C  
BRANCH   8   9
HETATM    9  C   UNL     1     -10.467  14.608  69.724  1.00  0.00     0.007 C  
BRANCH   9  10
HETATM   10  N   UNL     1      -9.460  14.375  68.652  1.00  0.00    -0.204 NA 
HETATM   11  C   UNL     1      -8.745  13.136  68.638  1.00  0.00     0.045 A  
HETATM   12  C   UNL     1      -7.906  12.776  67.561  1.00  0.00    -0.171 A  
HETATM   13  S   UNL     1      -7.581  13.811  66.158  1.00  0.00     3.440 SA 
HETATM   14  C   UNL     1      -7.241  11.528  67.526  1.00  0.00    -0.111 A  
HETATM   15  C   UNL     1      -7.377  10.608  68.555  1.00  0.00    -0.090 A  
HETATM   16  C   UNL     1      -8.540  15.256  66.515  1.00  0.00    -0.229 A  
HETATM   17  C   UNL     1      -8.159  10.946  69.643  1.00  0.00     0.214 A  
HETATM   18  C   UNL     1      -9.336  15.410  67.666  1.00  0.00    -0.203 A  
HETATM   19  C   UNL     1     -10.018  16.646  67.773  1.00  0.00    -0.262 A  
HETATM   20  C   UNL     1      -8.810  12.188  69.686  1.00  0.00     1.824 A  
HETATM   21  C   UNL     1     -10.028  17.611  66.754  1.00  0.00    -0.320 A  
HETATM   22  C   UNL     1      -8.474  16.266  65.531  1.00  0.00     1.152 A  
HETATM   23  C   UNL     1      -9.231  17.427  65.636  1.00  0.00     0.402 A  
BRANCH  21  24
HETATM   24  S   UNL     1     -11.093  19.070  66.869  1.00  0.00     0.226 S  
HETATM   25  O   UNL     1     -10.177  20.257  66.793  1.00  0.00    -0.440 OA 
HETATM   26  C   UNL     1     -11.556  18.869  68.615  1.00  0.00     2.732 C  
ENDBRANCH  21  24
ENDBRANCH   9  10
ENDBRANCH   8   9
ENDBRANCH   7   8
TORSDOF 4
ENDMDL
MODEL      236
REMARK 921   NORMALIZED FREE ENERGY PREDICTED BY IDOCK:   70.37 KCAL/MOL
REMARK 922        TOTAL FREE ENERGY PREDICTED BY IDOCK:   86.05 KCAL/MOL
REMARK 923 INTER-LIGAND FREE ENERGY PREDICTED BY IDOCK:   85.73 KCAL/MOL
REMARK 924 INTRA-LIGAND FREE ENERGY PREDICTED BY IDOCK:    0.31 KCAL/MOL
REMARK 927      BINDING AFFINITY PREDICTED BY RF-SCORE:    0.00 PKD
ROOT
HETATM    1  C   UNL     1     -14.159  20.699  66.845  1.00  0.00     6.346 C  
HETATM    2  N   UNL     1     -13.494  19.464  66.428  1.00  0.00     9.474 NA 
HETATM    3  C   UNL     1     -13.945  19.019  65.103  1.00  0.00    23.101 C  
HETATM    4  C   UNL     1     -13.374  19.832  63.941  1.00  0.00    20.673 C  
HETATM    5  C   UNL     1     -11.857  19.942  64.022  1.00  0.00     7.167 C  
HETATM    6  C   UNL     1     -11.418  20.415  65.403  1.00  0.00     1.321 C  
HETATM    7  C   UNL     1     -12.016  19.565  66.537  1.00  0.00     2.460 C  
ENDROOT
BRANCH   7   8
HETATM    8  C   UNL     1     -11.429  18.140  66.596  1.00  0.00     1.375 C  
BRANCH   8   9
HETATM    9  C   UNL     1      -9.977  17.975  66.103  1.00  0.00    -0.285 C  
BRANCH   9  10
HETATM   10  N   UNL     1      -8.971  18.838  66.783  1.00  0.00    -0.298 NA 
HETATM   11  C   UNL     1      -8.036  19.566  65.983  1.00  0.00    -0.303 A  
HETATM   12  C   UNL     1      -7.172  20.530  66.545  1.00  0.00    -0.226 A  
HETATM   13  S   UNL     1      -7.083  20.905  68.276  1.00  0.00     0.259 SA 
HETATM   14  C   UNL     1      -6.284  21.286  65.743  1.00  0.00    -0.133 A  
HETATM   15  C   UNL     1      -6.218  21.103  64.370  1.00  0.00    -0.223 A  
HETATM   16  C   UNL     1      -8.287  19.808  68.970  1.00  0.00    -0.039 A  
HETATM   17  C   UNL     1      -7.022  20.138  63.793  1.00  0.00     1.106 A  
HETATM   18  C   UNL     1      -9.069  18.915  68.214  1.00  0.00    -0.323 A  
HETATM   19  C   UNL     1      -9.968  18.114  68.956  1.00  0.00    -0.294 A  
HETATM   20  C   UNL     1      -7.895  19.379  64.587  1.00  0.00     2.521 A  
HETATM   21  C   UNL     1     -10.186  18.275  70.334  1.00  0.00     1.748 A  
HETATM   22  C   UNL     1      -8.438  19.906  70.370  1.00  0.00     1.473 A  
HETATM   23  C   UNL     1      -9.397  19.162  71.047  1.00  0.00     3.318 A  
BRANCH  21  24
HETATM   24  S   UNL     1     -11.504  17.365  71.177  1.00  0.00     2.637 S  
HETATM   25  O   UNL     1     -11.692  18.046  72.502  1.00  0.00     1.974 OA 
HETATM   26  C   UNL     1     -10.558  15.846  71.493  1.00  0.00     0.906 C  
ENDBRANCH  21  24
ENDBRANCH   9  10
ENDBRANCH   8   9
ENDBRANCH   7   8
TORSDOF 4
ENDMDL
MODEL      237
REMARK 921   NORMALIZED FREE ENERGY PREDICTED BY IDOCK:   83.19 KCAL/MOL
REMARK 922        TOTAL FREE ENERGY PREDICTED BY IDOCK:  101.86 KCAL/MOL
REMARK 923 INTER-LIGAND FREE ENERGY PREDICTED BY IDOCK:   99.77 KCAL/MOL
REMARK 924 INTRA-LIGAND FREE ENERGY PREDICTED BY IDOCK:    2.10 KCAL/MOL
REMARK 927      BINDING AFFINITY PREDICTED BY RF-SCORE:    0.00 PKD
ROOT
HETATM    1  C   UNL     1     -13.406  15.465  68.019  1.00  0.00     4.235 C  
HETATM    2  N   UNL     1     -12.170  14.774  67.652  1.00  0.00    -0.104 NA 
HETATM    3  C   UNL     1     -12.433  13.564  66.862  1.00  0.00    -0.110 C  
HETATM    4  C   UNL     1     -12.825  13.837  65.409  1.00  0.00    -0.455 C  
HETATM    5  C   UNL     1     -11.832  14.765  64.721  1.00  0.00    -0.425 C  
HETATM    6  C   UNL     1     -11.586  16.015  65.558  1.00  0.00     0.451 C  
HETATM    7  C   UNL     1     -11.192  15.689  67.009  1.00  0.00    -0.127 C  
ENDROOT
BRANCH   7   8
HETATM    8  C   UNL     1      -9.786  15.067  67.127  1.00  0.00    -0.233 C  
BRANCH   8   9
HETATM    9  C   UNL     1      -9.057  15.268  68.471  1.00  0.00    -0.192 C  
BRANCH   9  10
HETATM   10  N   UNL     1      -8.531  16.642  68.711  1.00  0.00    -0.249 NA 
HETATM   11  C   UNL     1      -8.243  17.043  70.053  1.00  0.00     1.841 A  
HETATM   12  C   UNL     1      -7.585  18.259  70.339  1.00  0.00     2.540 A  
HETATM   13  S   UNL     1      -7.106  19.448  69.113  1.00  0.00    -0.324 SA 
HETATM   14  C   UNL     1      -7.255  18.629  71.665  1.00  0.00     4.853 A  
HETATM   15  C   UNL     1      -7.575  17.816  72.742  1.00  0.00    12.050 A  
HETATM   16  C   UNL     1      -7.656  18.693  67.609  1.00  0.00    -0.230 A  
HETATM   17  C   UNL     1      -8.255  16.637  72.500  1.00  0.00    15.881 A  
HETATM   18  C   UNL     1      -8.294  17.441  67.542  1.00  0.00    -0.206 A  
HETATM   19  C   UNL     1      -8.667  17.016  66.245  1.00  0.00    -0.285 A  
HETATM   20  C   UNL     1      -8.594  16.273  71.188  1.00  0.00     5.258 A  
HETATM   21  C   UNL     1      -8.316  17.710  65.076  1.00  0.00     3.402 A  
HETATM   22  C   UNL     1      -7.384  19.438  66.442  1.00  0.00    -0.264 A  
HETATM   23  C   UNL     1      -7.690  18.941  65.180  1.00  0.00     1.184 A  
BRANCH  21  24
HETATM   24  S   UNL     1      -8.639  17.000  63.444  1.00  0.00    21.639 S  
HETATM   25  O   UNL     1      -7.755  17.746  62.487  1.00  0.00    16.894 OA 
HETATM   26  C   UNL     1     -10.318  17.665  63.240  1.00  0.00    12.743 C  
ENDBRANCH  21  24
ENDBRANCH   9  10
ENDBRANCH   8   9
ENDBRANCH   7   8
TORSDOF 4
ENDMDL
