MODEL        1
REMARK 921   NORMALIZED FREE ENERGY PREDICTED BY IDOCK:   -6.79 KCAL/MOL
REMARK 922        TOTAL FREE ENERGY PREDICTED BY IDOCK:   -7.64 KCAL/MOL
REMARK 923 INTER-LIGAND FREE ENERGY PREDICTED BY IDOCK:   -7.58 KCAL/MOL
REMARK 924 INTRA-LIGAND FREE ENERGY PREDICTED BY IDOCK:   -0.06 KCAL/MOL
REMARK 927      BINDING AFFINITY PREDICTED BY RF-SCORE:    0.00 PKD
ROOT
HETATM    1  C   UNL     1      -9.735  14.562  66.449  1.00  0.00    -0.314 C  
HETATM    2  C   UNL     1     -10.746  14.826  65.493  1.00  0.00    -0.369 C  
HETATM    3  C   UNL     1     -10.880  15.531  66.790  1.00  0.00    -0.291 C  
HETATM    4  C   UNL     1      -9.254  15.381  68.041  1.00  0.00    -0.184 C  
HETATM    5  C   UNL     1      -9.554  16.373  67.149  1.00  0.00    -0.239 C  
HETATM    6  C   UNL     1     -10.437  13.427  67.725  1.00  0.00    -0.246 C  
HETATM    7  O   UNL     1      -8.949  16.072  69.254  1.00  0.00    -0.244 OA 
HETATM    8  C   UNL     1     -10.815  16.961  68.414  1.00  0.00    -0.347 C  
HETATM    9  C   UNL     1      -8.697  17.392  66.456  1.00  0.00    -0.290 C  
HETATM   10  C   UNL     1     -12.643  13.314  70.999  1.00  0.00    -0.408 A  
HETATM   11  H   UNL     1      -8.198  16.003  69.832  1.00  0.00     0.000 HD 
HETATM   12  C   UNL     1     -11.415  15.619  69.381  1.00  0.00    -0.354 C  
HETATM   13  C   UNL     1     -11.575  14.057  68.791  1.00  0.00    -0.366 C  
HETATM   14  C   UNL     1     -11.991  12.979  69.801  1.00  0.00    -0.377 A  
HETATM   15  C   UNL     1     -11.907  11.612  69.451  1.00  0.00    -0.408 A  
HETATM   16  C   UNL     1     -12.399  10.628  70.334  1.00  0.00    -0.428 A  
HETATM   17  C   UNL     1     -11.296  11.119  68.156  1.00  0.00    -0.377 C  
HETATM   18  C   UNL     1     -11.060  12.185  67.091  1.00  0.00    -0.345 C  
HETATM   19  C   UNL     1     -13.014  10.976  71.533  1.00  0.00    -0.448 A  
HETATM   20  C   UNL     1     -13.145  12.324  71.852  1.00  0.00    -0.469 A  
ENDROOT
BRANCH   4  21
HETATM   21  C   UNL     1      -7.817  14.916  67.693  1.00  0.00    -0.189 C  
HETATM   22  C   UNL     1      -6.686  14.544  67.461  1.00  0.00    -0.141 C  
ENDBRANCH   4  21
BRANCH  19  23
HETATM   23  O   UNL     1     -13.531  10.104  72.452  1.00  0.00    -0.338 OA 
HETATM   24  C   UNL     1     -13.229   8.726  72.265  1.00  0.00    -0.412 C  
ENDBRANCH  19  23
TORSDOF 2
ENDMDL
MODEL        2
REMARK 921   NORMALIZED FREE ENERGY PREDICTED BY IDOCK:   -6.69 KCAL/MOL
REMARK 922        TOTAL FREE ENERGY PREDICTED BY IDOCK:   -7.53 KCAL/MOL
REMARK 923 INTER-LIGAND FREE ENERGY PREDICTED BY IDOCK:   -7.47 KCAL/MOL
REMARK 924 INTRA-LIGAND FREE ENERGY PREDICTED BY IDOCK:   -0.07 KCAL/MOL
REMARK 927      BINDING AFFINITY PREDICTED BY RF-SCORE:    0.00 PKD
ROOT
HETATM    1  C   UNL     1      -9.689  18.678  65.838  1.00  0.00     0.022 C  
HETATM    2  C   UNL     1     -10.894  19.387  65.603  1.00  0.00    -0.323 C  
HETATM    3  C   UNL     1     -10.583  19.087  67.022  1.00  0.00    -0.543 C  
HETATM    4  C   UNL     1      -8.697  18.341  67.368  1.00  0.00    -0.256 C  
HETATM    5  C   UNL     1      -9.127  19.637  67.441  1.00  0.00    -0.392 C  
HETATM    6  C   UNL     1     -10.123  16.928  66.233  1.00  0.00    -0.335 C  
HETATM    7  O   UNL     1      -7.993  18.129  68.594  1.00  0.00    -0.300 OA 
HETATM    8  C   UNL     1      -9.913  19.155  69.080  1.00  0.00    -0.422 C  
HETATM    9  C   UNL     1      -8.394  20.944  67.349  1.00  0.00    -0.124 C  
HETATM   10  C   UNL     1     -11.324  14.536  69.137  1.00  0.00    -0.305 A  
HETATM   11  H   UNL     1      -7.123  17.784  68.753  1.00  0.00     0.000 HD 
HETATM   12  C   UNL     1     -10.359  17.452  69.092  1.00  0.00    -0.271 C  
HETATM   13  C   UNL     1     -10.844  16.616  67.721  1.00  0.00    -0.292 C  
HETATM   14  C   UNL     1     -11.073  15.108  67.879  1.00  0.00    -0.322 A  
HETATM   15  C   UNL     1     -11.236  14.293  66.736  1.00  0.00    -0.337 A  
HETATM   16  C   UNL     1     -11.563  12.929  66.884  1.00  0.00    -0.425 A  
HETATM   17  C   UNL     1     -11.068  14.801  65.319  1.00  0.00    -0.374 C  
HETATM   18  C   UNL     1     -11.027  16.318  65.163  1.00  0.00    -0.285 C  
HETATM   19  C   UNL     1     -11.777  12.370  68.141  1.00  0.00    -0.353 A  
HETATM   20  C   UNL     1     -11.670  13.186  69.263  1.00  0.00    -0.376 A  
ENDROOT
BRANCH   4  21
HETATM   21  C   UNL     1      -7.473  18.352  66.417  1.00  0.00    -0.278 C  
HETATM   22  C   UNL     1      -6.499  18.329  65.695  1.00  0.00    -0.309 C  
ENDBRANCH   4  21
BRANCH  19  23
HETATM   23  O   UNL     1     -12.107  11.066  68.394  1.00  0.00    -0.594 OA 
HETATM   24  C   UNL     1     -11.533  10.477  69.555  1.00  0.00    -0.272 C  
ENDBRANCH  19  23
TORSDOF 2
ENDMDL
MODEL        3
REMARK 921   NORMALIZED FREE ENERGY PREDICTED BY IDOCK:   -6.66 KCAL/MOL
REMARK 922        TOTAL FREE ENERGY PREDICTED BY IDOCK:   -7.50 KCAL/MOL
REMARK 923 INTER-LIGAND FREE ENERGY PREDICTED BY IDOCK:   -7.46 KCAL/MOL
REMARK 924 INTRA-LIGAND FREE ENERGY PREDICTED BY IDOCK:   -0.04 KCAL/MOL
REMARK 927      BINDING AFFINITY PREDICTED BY RF-SCORE:    0.00 PKD
ROOT
HETATM    1  C   UNL     1      -9.351  13.186  66.586  1.00  0.00    -0.242 C  
HETATM    2  C   UNL     1      -8.170  12.583  67.084  1.00  0.00    -0.168 C  
HETATM    3  C   UNL     1      -9.436  11.869  67.378  1.00  0.00    -0.175 C  
HETATM    4  C   UNL     1     -11.094  12.584  66.392  1.00  0.00    -0.290 C  
HETATM    5  C   UNL     1     -10.267  11.556  66.034  1.00  0.00    -0.283 C  
HETATM    6  C   UNL     1     -10.225  13.988  68.002  1.00  0.00    -0.238 C  
HETATM    7  O   UNL     1     -12.411  12.040  66.275  1.00  0.00    -0.432 OA 
HETATM    8  C   UNL     1     -11.151  10.548  67.353  1.00  0.00    -0.322 C  
HETATM    9  C   UNL     1      -9.980  10.914  64.707  1.00  0.00    -0.366 C  
HETATM   10  C   UNL     1     -12.650  13.286  71.038  1.00  0.00    -0.408 A  
HETATM   11  H   UNL     1     -13.176  12.371  65.820  1.00  0.00     0.000 HD 
HETATM   12  C   UNL     1     -11.739  11.581  68.651  1.00  0.00    -0.389 C  
HETATM   13  C   UNL     1     -10.961  12.987  69.135  1.00  0.00    -0.190 C  
HETATM   14  C   UNL     1     -11.675  13.838  70.192  1.00  0.00    -0.303 A  
HETATM   15  C   UNL     1     -11.219  15.147  70.472  1.00  0.00    -0.313 A  
HETATM   16  C   UNL     1     -11.800  15.886  71.524  1.00  0.00    -0.536 A  
HETATM   17  C   UNL     1     -10.123  15.834  69.685  1.00  0.00    -0.289 C  
HETATM   18  C   UNL     1      -9.301  14.929  68.772  1.00  0.00    -0.203 C  
HETATM   19  C   UNL     1     -12.789  15.334  72.333  1.00  0.00    -0.363 A  
HETATM   20  C   UNL     1     -13.199  14.026  72.092  1.00  0.00    -0.526 A  
ENDROOT
BRANCH   4  21
HETATM   21  C   UNL     1     -11.146  13.534  65.168  1.00  0.00    -0.326 C  
HETATM   22  C   UNL     1     -11.199  14.307  64.235  1.00  0.00    -0.149 C  
ENDBRANCH   4  21
BRANCH  19  23
HETATM   23  O   UNL     1     -13.409  15.958  73.381  1.00  0.00    -0.567 OA 
HETATM   24  C   UNL     1     -12.613  16.215  74.532  1.00  0.00    -0.383 C  
ENDBRANCH  19  23
TORSDOF 2
ENDMDL
MODEL        4
REMARK 921   NORMALIZED FREE ENERGY PREDICTED BY IDOCK:   -6.64 KCAL/MOL
REMARK 922        TOTAL FREE ENERGY PREDICTED BY IDOCK:   -7.47 KCAL/MOL
REMARK 923 INTER-LIGAND FREE ENERGY PREDICTED BY IDOCK:   -7.43 KCAL/MOL
REMARK 924 INTRA-LIGAND FREE ENERGY PREDICTED BY IDOCK:   -0.04 KCAL/MOL
REMARK 927      BINDING AFFINITY PREDICTED BY RF-SCORE:    0.00 PKD
ROOT
HETATM    1  C   UNL     1     -10.449  14.262  67.682  1.00  0.00    -0.248 C  
HETATM    2  C   UNL     1     -11.440  14.284  66.669  1.00  0.00    -0.374 C  
HETATM    3  C   UNL     1     -11.910  14.585  68.043  1.00  0.00    -0.350 C  
HETATM    4  C   UNL     1     -10.422  14.853  69.439  1.00  0.00    -0.222 C  
HETATM    5  C   UNL     1     -11.080  15.799  68.703  1.00  0.00    -0.327 C  
HETATM    6  C   UNL     1     -10.651  12.700  68.645  1.00  0.00    -0.245 C  
HETATM    7  O   UNL     1     -10.486  15.339  70.782  1.00  0.00    -0.490 OA 
HETATM    8  C   UNL     1     -12.519  15.543  69.886  1.00  0.00    -0.243 C  
HETATM    9  C   UNL     1     -10.712  17.200  68.308  1.00  0.00    -0.363 C  
HETATM   10  C   UNL     1     -12.723  11.015  71.555  1.00  0.00    -0.521 A  
HETATM   11  H   UNL     1      -9.799  15.462  71.426  1.00  0.00     0.000 HD 
HETATM   12  C   UNL     1     -12.530  13.903  70.524  1.00  0.00    -0.422 C  
HETATM   13  C   UNL     1     -11.989  12.572  69.657  1.00  0.00    -0.339 C  
HETATM   14  C   UNL     1     -11.946  11.234  70.405  1.00  0.00    -0.471 A  
HETATM   15  C   UNL     1     -11.276  10.127  69.837  1.00  0.00    -0.343 A  
HETATM   16  C   UNL     1     -11.336   8.867  70.468  1.00  0.00    -0.268 A  
HETATM   17  C   UNL     1     -10.464  10.208  68.561  1.00  0.00    -0.221 C  
HETATM   18  C   UNL     1     -10.663  11.475  67.734  1.00  0.00    -0.249 C  
HETATM   19  C   UNL     1     -12.086   8.674  71.625  1.00  0.00    -0.326 A  
HETATM   20  C   UNL     1     -12.790   9.752  72.154  1.00  0.00    -0.448 A  
ENDROOT
BRANCH   4  21
HETATM   21  C   UNL     1      -8.912  15.100  69.194  1.00  0.00    -0.219 C  
HETATM   22  C   UNL     1      -7.721  15.257  69.021  1.00  0.00    -0.183 C  
ENDBRANCH   4  21
BRANCH  19  23
HETATM   23  O   UNL     1     -12.219   7.496  72.308  1.00  0.00    -0.274 OA 
HETATM   24  C   UNL     1     -11.015   6.853  72.712  1.00  0.00    -0.280 C  
ENDBRANCH  19  23
TORSDOF 2
ENDMDL
MODEL        5
REMARK 921   NORMALIZED FREE ENERGY PREDICTED BY IDOCK:   -6.62 KCAL/MOL
REMARK 922        TOTAL FREE ENERGY PREDICTED BY IDOCK:   -7.45 KCAL/MOL
REMARK 923 INTER-LIGAND FREE ENERGY PREDICTED BY IDOCK:   -7.39 KCAL/MOL
REMARK 924 INTRA-LIGAND FREE ENERGY PREDICTED BY IDOCK:   -0.07 KCAL/MOL
REMARK 927      BINDING AFFINITY PREDICTED BY RF-SCORE:    0.00 PKD
ROOT
HETATM    1  C   UNL     1     -10.693  14.132  67.012  1.00  0.00    -0.285 C  
HETATM    2  C   UNL     1     -11.918  14.216  66.305  1.00  0.00    -0.448 C  
HETATM    3  C   UNL     1     -11.997  14.442  67.768  1.00  0.00    -0.368 C  
HETATM    4  C   UNL     1     -10.185  14.624  68.726  1.00  0.00    -0.242 C  
HETATM    5  C   UNL     1     -10.997  15.613  68.244  1.00  0.00    -0.315 C  
HETATM    6  C   UNL     1     -10.661  12.520  67.910  1.00  0.00    -0.239 C  
HETATM    7  O   UNL     1      -9.877  15.033  70.060  1.00  0.00    -0.477 OA 
HETATM    8  C   UNL     1     -12.071  15.298  69.755  1.00  0.00    -0.357 C  
HETATM    9  C   UNL     1     -10.719  17.032  67.839  1.00  0.00    -0.348 C  
HETATM   10  C   UNL     1     -11.913  10.686  71.176  1.00  0.00    -0.401 A  
HETATM   11  H   UNL     1      -9.041  15.117  70.502  1.00  0.00     0.000 HD 
HETATM   12  C   UNL     1     -11.944  13.625  70.285  1.00  0.00    -0.397 C  
HETATM   13  C   UNL     1     -11.681  12.342  69.236  1.00  0.00    -0.386 C  
HETATM   14  C   UNL     1     -11.467  10.964  69.874  1.00  0.00    -0.402 A  
HETATM   15  C   UNL     1     -10.996   9.887  69.089  1.00  0.00    -0.233 A  
HETATM   16  C   UNL     1     -10.911   8.594  69.646  1.00  0.00    -0.163 A  
HETATM   17  C   UNL     1     -10.555  10.036  67.648  1.00  0.00    -0.323 C  
HETATM   18  C   UNL     1     -10.942  11.348  66.972  1.00  0.00    -0.347 C  
HETATM   19  C   UNL     1     -11.327   8.341  70.950  1.00  0.00    -0.268 A  
HETATM   20  C   UNL     1     -11.842   9.391  71.704  1.00  0.00    -0.464 A  
ENDROOT
BRANCH   4  21
HETATM   21  C   UNL     1      -8.790  14.876  68.098  1.00  0.00    -0.174 C  
HETATM   22  C   UNL     1      -7.683  15.077  67.645  1.00  0.00    -0.186 C  
ENDBRANCH   4  21
BRANCH  19  23
HETATM   23  O   UNL     1     -11.296   7.127  71.581  1.00  0.00    -0.240 OA 
HETATM   24  C   UNL     1     -10.887   7.126  72.943  1.00  0.00    -0.323 C  
ENDBRANCH  19  23
TORSDOF 2
ENDMDL
MODEL        6
REMARK 921   NORMALIZED FREE ENERGY PREDICTED BY IDOCK:   -6.60 KCAL/MOL
REMARK 922        TOTAL FREE ENERGY PREDICTED BY IDOCK:   -7.43 KCAL/MOL
REMARK 923 INTER-LIGAND FREE ENERGY PREDICTED BY IDOCK:   -7.37 KCAL/MOL
REMARK 924 INTRA-LIGAND FREE ENERGY PREDICTED BY IDOCK:   -0.06 KCAL/MOL
REMARK 927      BINDING AFFINITY PREDICTED BY RF-SCORE:    0.00 PKD
ROOT
HETATM    1  C   UNL     1     -11.857   7.726  72.005  1.00  0.00    -0.351 C  
HETATM    2  C   UNL     1     -13.032   7.129  71.484  1.00  0.00    -0.431 C  
HETATM    3  C   UNL     1     -11.980   7.464  70.494  1.00  0.00    -0.140 C  
HETATM    4  C   UNL     1     -10.174   8.038  71.294  1.00  0.00    -0.192 C  
HETATM    5  C   UNL     1     -10.565   6.796  70.879  1.00  0.00    -0.252 C  
HETATM    6  C   UNL     1     -11.906   9.528  71.605  1.00  0.00    -0.468 C  
HETATM    7  O   UNL     1      -8.904   8.239  70.669  1.00  0.00    -0.134 OA 
HETATM    8  C   UNL     1     -10.300   7.431  69.129  1.00  0.00    -0.208 C  
HETATM    9  C   UNL     1     -10.077   5.420  71.230  1.00  0.00    -0.270 C  
HETATM   10  C   UNL     1     -11.189  12.162  68.751  1.00  0.00    -0.314 A  
HETATM   11  H   UNL     1      -8.070   8.504  71.039  1.00  0.00     0.000 HD 
HETATM   12  C   UNL     1     -10.571   9.167  69.037  1.00  0.00    -0.219 C  
HETATM   13  C   UNL     1     -11.678   9.980  70.000  1.00  0.00    -0.242 C  
HETATM   14  C   UNL     1     -11.699  11.509  69.885  1.00  0.00    -0.420 A  
HETATM   15  C   UNL     1     -12.414  12.280  70.829  1.00  0.00    -0.356 A  
HETATM   16  C   UNL     1     -12.531  13.676  70.656  1.00  0.00    -0.417 A  
HETATM   17  C   UNL     1     -13.076  11.691  72.057  1.00  0.00    -0.433 C  
HETATM   18  C   UNL     1     -13.212  10.171  72.067  1.00  0.00    -0.534 C  
HETATM   19  C   UNL     1     -11.992  14.312  69.542  1.00  0.00    -0.336 A  
HETATM   20  C   UNL     1     -11.334  13.545  68.585  1.00  0.00    -0.323 A  
ENDROOT
BRANCH   4  21
HETATM   21  C   UNL     1      -9.670   7.862  72.749  1.00  0.00    -0.322 C  
HETATM   22  C   UNL     1      -9.242   7.706  73.873  1.00  0.00    -0.303 C  
ENDBRANCH   4  21
BRANCH  19  23
HETATM   23  O   UNL     1     -12.056  15.653  69.275  1.00  0.00    -0.347 OA 
HETATM   24  C   UNL     1     -11.094  16.168  68.361  1.00  0.00    -0.359 C  
ENDBRANCH  19  23
TORSDOF 2
ENDMDL
MODEL        7
REMARK 921   NORMALIZED FREE ENERGY PREDICTED BY IDOCK:   -6.52 KCAL/MOL
REMARK 922        TOTAL FREE ENERGY PREDICTED BY IDOCK:   -7.34 KCAL/MOL
REMARK 923 INTER-LIGAND FREE ENERGY PREDICTED BY IDOCK:   -7.29 KCAL/MOL
REMARK 924 INTRA-LIGAND FREE ENERGY PREDICTED BY IDOCK:   -0.05 KCAL/MOL
REMARK 927      BINDING AFFINITY PREDICTED BY RF-SCORE:    0.00 PKD
ROOT
HETATM    1  C   UNL     1     -10.502  14.130  66.931  1.00  0.00    -0.272 C  
HETATM    2  C   UNL     1     -11.660  14.225  66.119  1.00  0.00    -0.374 C  
HETATM    3  C   UNL     1     -11.843  14.561  67.552  1.00  0.00    -0.404 C  
HETATM    4  C   UNL     1     -10.107  14.719  68.644  1.00  0.00    -0.238 C  
HETATM    5  C   UNL     1     -10.819  15.710  68.029  1.00  0.00    -0.308 C  
HETATM    6  C   UNL     1     -10.635  12.588  67.938  1.00  0.00    -0.233 C  
HETATM    7  O   UNL     1      -9.884  15.208  69.969  1.00  0.00    -0.471 OA 
HETATM    8  C   UNL     1     -12.028  15.562  69.462  1.00  0.00    -0.372 C  
HETATM    9  C   UNL     1     -10.429  17.079  67.553  1.00  0.00    -0.334 C  
HETATM   10  C   UNL     1     -12.249  11.064  71.204  1.00  0.00    -0.415 A  
HETATM   11  H   UNL     1      -9.082  15.280  70.473  1.00  0.00     0.000 HD 
HETATM   12  C   UNL     1     -12.039  13.928  70.115  1.00  0.00    -0.418 C  
HETATM   13  C   UNL     1     -11.768  12.561  69.182  1.00  0.00    -0.375 C  
HETATM   14  C   UNL     1     -11.684  11.223  69.928  1.00  0.00    -0.430 A  
HETATM   15  C   UNL     1     -11.215  10.069  69.262  1.00  0.00    -0.213 A  
HETATM   16  C   UNL     1     -11.249   8.817  69.911  1.00  0.00    -0.059 A  
HETATM   17  C   UNL     1     -10.651  10.089  67.856  1.00  0.00    -0.298 C  
HETATM   18  C   UNL     1     -10.906  11.366  67.062  1.00  0.00    -0.331 C  
HETATM   19  C   UNL     1     -11.783   8.682  71.189  1.00  0.00    -0.288 A  
HETATM   20  C   UNL     1     -12.295   9.809  71.824  1.00  0.00    -0.470 A  
ENDROOT
BRANCH   4  21
HETATM   21  C   UNL     1      -8.654  14.852  68.121  1.00  0.00    -0.159 C  
HETATM   22  C   UNL     1      -7.508  14.920  67.728  1.00  0.00    -0.179 C  
ENDBRANCH   4  21
BRANCH  19  23
HETATM   23  O   UNL     1     -11.872   7.517  71.902  1.00  0.00    -0.278 OA 
HETATM   24  C   UNL     1     -11.029   7.401  73.042  1.00  0.00    -0.374 C  
ENDBRANCH  19  23
TORSDOF 2
ENDMDL
MODEL        8
REMARK 921   NORMALIZED FREE ENERGY PREDICTED BY IDOCK:   -6.46 KCAL/MOL
REMARK 922        TOTAL FREE ENERGY PREDICTED BY IDOCK:   -7.27 KCAL/MOL
REMARK 923 INTER-LIGAND FREE ENERGY PREDICTED BY IDOCK:   -7.21 KCAL/MOL
REMARK 924 INTRA-LIGAND FREE ENERGY PREDICTED BY IDOCK:   -0.06 KCAL/MOL
REMARK 927      BINDING AFFINITY PREDICTED BY RF-SCORE:    0.00 PKD
ROOT
HETATM    1  C   UNL     1     -10.301  14.223  67.082  1.00  0.00    -0.262 C  
HETATM    2  C   UNL     1     -11.343  14.304  66.125  1.00  0.00    -0.342 C  
HETATM    3  C   UNL     1     -11.694  14.720  67.504  1.00  0.00    -0.370 C  
HETATM    4  C   UNL     1     -10.105  14.892  68.799  1.00  0.00    -0.241 C  
HETATM    5  C   UNL     1     -10.702  15.867  68.050  1.00  0.00    -0.301 C  
HETATM    6  C   UNL     1     -10.609  12.741  68.139  1.00  0.00    -0.242 C  
HETATM    7  O   UNL     1     -10.035  15.446  70.115  1.00  0.00    -0.440 OA 
HETATM    8  C   UNL     1     -12.085  15.828  69.323  1.00  0.00    -0.226 C  
HETATM    9  C   UNL     1     -10.210  17.198  67.559  1.00  0.00    -0.323 C  
HETATM   10  C   UNL     1     -12.669  11.437  71.246  1.00  0.00    -0.498 A  
HETATM   11  H   UNL     1      -9.301  15.525  70.713  1.00  0.00     0.000 HD 
HETATM   12  C   UNL     1     -12.232  14.232  70.050  1.00  0.00    -0.417 C  
HETATM   13  C   UNL     1     -11.889  12.810  69.229  1.00  0.00    -0.358 C  
HETATM   14  C   UNL     1     -11.944  11.513  70.046  1.00  0.00    -0.435 A  
HETATM   15  C   UNL     1     -11.432  10.312  69.503  1.00  0.00    -0.273 A  
HETATM   16  C   UNL     1     -11.588   9.099  70.205  1.00  0.00    -0.116 A  
HETATM   17  C   UNL     1     -10.695  10.243  68.182  1.00  0.00    -0.287 C  
HETATM   18  C   UNL     1     -10.807  11.481  67.298  1.00  0.00    -0.301 C  
HETATM   19  C   UNL     1     -12.282   9.046  71.410  1.00  0.00    -0.323 A  
HETATM   20  C   UNL     1     -12.833  10.219  71.917  1.00  0.00    -0.528 A  
ENDROOT
BRANCH   4  21
HETATM   21  C   UNL     1      -8.594  14.960  68.459  1.00  0.00    -0.162 C  
HETATM   22  C   UNL     1      -7.403  15.005  68.232  1.00  0.00    -0.111 C  
ENDBRANCH   4  21
BRANCH  19  23
HETATM   23  O   UNL     1     -12.498   7.924  72.164  1.00  0.00    -0.303 OA 
HETATM   24  C   UNL     1     -12.149   6.680  71.569  1.00  0.00    -0.355 C  
ENDBRANCH  19  23
TORSDOF 2
ENDMDL
MODEL        9
REMARK 921   NORMALIZED FREE ENERGY PREDICTED BY IDOCK:   -6.41 KCAL/MOL
REMARK 922        TOTAL FREE ENERGY PREDICTED BY IDOCK:   -7.22 KCAL/MOL
REMARK 923 INTER-LIGAND FREE ENERGY PREDICTED BY IDOCK:   -7.19 KCAL/MOL
REMARK 924 INTRA-LIGAND FREE ENERGY PREDICTED BY IDOCK:   -0.03 KCAL/MOL
REMARK 927      BINDING AFFINITY PREDICTED BY RF-SCORE:    0.00 PKD
ROOT
HETATM    1  C   UNL     1     -11.706   7.549  72.187  1.00  0.00    -0.344 C  
HETATM    2  C   UNL     1     -12.921   6.921  71.817  1.00  0.00    -0.326 C  
HETATM    3  C   UNL     1     -11.912   7.067  70.740  1.00  0.00    -0.392 C  
HETATM    4  C   UNL     1     -10.052   7.692  71.361  1.00  0.00    -0.182 C  
HETATM    5  C   UNL     1     -10.498   6.416  71.158  1.00  0.00    -0.265 C  
HETATM    6  C   UNL     1     -11.726   9.271  71.520  1.00  0.00    -0.450 C  
HETATM    7  O   UNL     1      -8.810   7.752  70.656  1.00  0.00    -0.141 OA 
HETATM    8  C   UNL     1     -10.304   6.770  69.322  1.00  0.00    -0.221 C  
HETATM    9  C   UNL     1     -10.030   5.092  71.691  1.00  0.00    -0.243 C  
HETATM   10  C   UNL     1     -11.081  11.418  68.269  1.00  0.00    -0.300 A  
HETATM   11  H   UNL     1      -7.952   8.041  70.942  1.00  0.00     0.000 HD 
HETATM   12  C   UNL     1     -10.531   8.481  68.979  1.00  0.00    -0.216 C  
HETATM   13  C   UNL     1     -11.566   9.468  69.857  1.00  0.00    -0.026 C  
HETATM   14  C   UNL     1     -11.551  10.962  69.511  1.00  0.00    -0.384 A  
HETATM   15  C   UNL     1     -12.197  11.891  70.358  1.00  0.00    -0.399 A  
HETATM   16  C   UNL     1     -12.283  13.247  69.981  1.00  0.00    -0.345 A  
HETATM   17  C   UNL     1     -12.812  11.516  71.691  1.00  0.00    -0.475 C  
HETATM   18  C   UNL     1     -12.989  10.021  71.938  1.00  0.00    -0.547 C  
HETATM   19  C   UNL     1     -11.784  13.690  68.759  1.00  0.00    -0.348 A  
HETATM   20  C   UNL     1     -11.196  12.765  67.902  1.00  0.00    -0.315 A  
ENDROOT
BRANCH   4  21
HETATM   21  C   UNL     1      -9.481   7.720  72.802  1.00  0.00    -0.274 C  
HETATM   22  C   UNL     1      -9.018   7.704  73.922  1.00  0.00    -0.321 C  
ENDBRANCH   4  21
BRANCH  19  23
HETATM   23  O   UNL     1     -11.825  14.976  68.294  1.00  0.00    -0.327 OA 
HETATM   24  C   UNL     1     -11.495  16.001  69.224  1.00  0.00    -0.350 C  
ENDBRANCH  19  23
TORSDOF 2
ENDMDL
MODEL       10
REMARK 921   NORMALIZED FREE ENERGY PREDICTED BY IDOCK:   -6.40 KCAL/MOL
REMARK 922        TOTAL FREE ENERGY PREDICTED BY IDOCK:   -7.21 KCAL/MOL
REMARK 923 INTER-LIGAND FREE ENERGY PREDICTED BY IDOCK:   -7.16 KCAL/MOL
REMARK 924 INTRA-LIGAND FREE ENERGY PREDICTED BY IDOCK:   -0.05 KCAL/MOL
REMARK 927      BINDING AFFINITY PREDICTED BY RF-SCORE:    0.00 PKD
ROOT
HETATM    1  C   UNL     1     -10.142   7.984  70.454  1.00  0.00    -0.194 C  
HETATM    2  C   UNL     1     -10.907   7.320  69.463  1.00  0.00    -0.224 C  
HETATM    3  C   UNL     1     -10.206   8.552  69.026  1.00  0.00    -0.218 C  
HETATM    4  C   UNL     1      -8.864   9.324  70.380  1.00  0.00    -0.234 C  
HETATM    5  C   UNL     1      -8.626   8.478  69.333  1.00  0.00    -0.128 C  
HETATM    6  C   UNL     1     -11.081   9.480  70.994  1.00  0.00    -0.433 C  
HETATM    7  O   UNL     1      -7.887  10.358  70.233  1.00  0.00    -0.416 OA 
HETATM    8  C   UNL     1      -8.799   9.992  68.230  1.00  0.00    -0.116 C  
HETATM    9  C   UNL     1      -7.513   7.509  69.058  1.00  0.00    -0.096 C  
HETATM   10  C   UNL     1     -11.890  13.227  70.046  1.00  0.00    -0.365 A  
HETATM   11  H   UNL     1      -7.267  10.714  70.858  1.00  0.00     0.000 HD 
HETATM   12  C   UNL     1      -9.882  11.178  68.948  1.00  0.00    -0.176 C  
HETATM   13  C   UNL     1     -11.190  10.767  69.916  1.00  0.00    -0.371 C  
HETATM   14  C   UNL     1     -11.955  11.925  70.567  1.00  0.00    -0.360 A  
HETATM   15  C   UNL     1     -12.902  11.664  71.584  1.00  0.00    -0.454 A  
HETATM   16  C   UNL     1     -13.689  12.714  72.100  1.00  0.00    -0.406 A  
HETATM   17  C   UNL     1     -13.126  10.291  72.182  1.00  0.00    -0.444 C  
HETATM   18  C   UNL     1     -12.507   9.128  71.412  1.00  0.00    -0.396 C  
HETATM   19  C   UNL     1     -13.589  14.007  71.594  1.00  0.00    -0.350 A  
HETATM   20  C   UNL     1     -12.696  14.253  70.555  1.00  0.00    -0.391 A  
ENDROOT
BRANCH   4  21
HETATM   21  C   UNL     1      -8.258   8.635  71.629  1.00  0.00    -0.199 C  
HETATM   22  C   UNL     1      -7.794   8.129  72.629  1.00  0.00    -0.190 C  
ENDBRANCH   4  21
BRANCH  19  23
HETATM   23  O   UNL     1     -14.310  15.092  72.015  1.00  0.00    -0.488 OA 
HETATM   24  C   UNL     1     -13.671  15.962  72.942  1.00  0.00    -0.511 C  
ENDBRANCH  19  23
TORSDOF 2
ENDMDL
MODEL       11
REMARK 921   NORMALIZED FREE ENERGY PREDICTED BY IDOCK:   -6.35 KCAL/MOL
REMARK 922        TOTAL FREE ENERGY PREDICTED BY IDOCK:   -7.15 KCAL/MOL
REMARK 923 INTER-LIGAND FREE ENERGY PREDICTED BY IDOCK:   -7.11 KCAL/MOL
REMARK 924 INTRA-LIGAND FREE ENERGY PREDICTED BY IDOCK:   -0.05 KCAL/MOL
REMARK 927      BINDING AFFINITY PREDICTED BY RF-SCORE:    0.00 PKD
ROOT
HETATM    1  C   UNL     1      -9.449   7.710  71.415  1.00  0.00    -0.166 C  
HETATM    2  C   UNL     1      -8.932   8.285  72.602  1.00  0.00    -0.316 C  
HETATM    3  C   UNL     1     -10.360   8.564  72.315  1.00  0.00    -0.402 C  
HETATM    4  C   UNL     1     -11.171   7.477  70.767  1.00  0.00    -0.270 C  
HETATM    5  C   UNL     1     -11.201   7.205  72.107  1.00  0.00    -0.290 C  
HETATM    6  C   UNL     1      -9.598   9.047  70.150  1.00  0.00    -0.217 C  
HETATM    7  O   UNL     1     -12.529   7.336  70.344  1.00  0.00    -0.574 OA 
HETATM    8  C   UNL     1     -12.522   8.537  72.223  1.00  0.00    -0.448 C  
HETATM    9  C   UNL     1     -11.397   5.925  72.867  1.00  0.00    -0.266 C  
HETATM   10  C   UNL     1     -11.900  12.016  68.932  1.00  0.00    -0.356 A  
HETATM   11  H   UNL     1     -12.903   6.834  69.629  1.00  0.00     0.000 HD 
HETATM   12  C   UNL     1     -12.305   9.756  70.973  1.00  0.00    -0.422 C  
HETATM   13  C   UNL     1     -10.804  10.199  70.368  1.00  0.00    -0.365 C  
HETATM   14  C   UNL     1     -10.799  11.183  69.191  1.00  0.00    -0.284 A  
HETATM   15  C   UNL     1      -9.608  11.413  68.466  1.00  0.00    -0.190 A  
HETATM   16  C   UNL     1      -9.574  12.402  67.461  1.00  0.00    -0.185 A  
HETATM   17  C   UNL     1      -8.328  10.637  68.697  1.00  0.00    -0.137 C  
HETATM   18  C   UNL     1      -8.284   9.805  69.976  1.00  0.00    -0.207 C  
HETATM   19  C   UNL     1     -10.684  13.198  67.195  1.00  0.00    -0.255 A  
HETATM   20  C   UNL     1     -11.840  13.008  67.946  1.00  0.00    -0.389 A  
ENDROOT
BRANCH   4  21
HETATM   21  C   UNL     1     -10.602   6.205  70.088  1.00  0.00    -0.321 C  
HETATM   22  C   UNL     1     -10.165   5.227  69.519  1.00  0.00    -0.338 C  
ENDBRANCH   4  21
BRANCH  19  23
HETATM   23  O   UNL     1     -10.754  14.188  66.252  1.00  0.00    -0.287 OA 
HETATM   24  C   UNL     1     -10.514  13.803  64.904  1.00  0.00    -0.418 C  
ENDBRANCH  19  23
TORSDOF 2
ENDMDL
MODEL       12
REMARK 921   NORMALIZED FREE ENERGY PREDICTED BY IDOCK:   -6.25 KCAL/MOL
REMARK 922        TOTAL FREE ENERGY PREDICTED BY IDOCK:   -7.04 KCAL/MOL
REMARK 923 INTER-LIGAND FREE ENERGY PREDICTED BY IDOCK:   -6.99 KCAL/MOL
REMARK 924 INTRA-LIGAND FREE ENERGY PREDICTED BY IDOCK:   -0.05 KCAL/MOL
REMARK 927      BINDING AFFINITY PREDICTED BY RF-SCORE:    0.00 PKD
ROOT
HETATM    1  C   UNL     1     -11.557   7.872  72.114  1.00  0.00    -0.380 C  
HETATM    2  C   UNL     1     -12.818   7.270  71.879  1.00  0.00    -0.299 C  
HETATM    3  C   UNL     1     -11.843   7.190  70.765  1.00  0.00    -0.367 C  
HETATM    4  C   UNL     1      -9.930   7.788  71.229  1.00  0.00    -0.175 C  
HETATM    5  C   UNL     1     -10.453   6.525  71.237  1.00  0.00    -0.250 C  
HETATM    6  C   UNL     1     -11.507   9.471  71.192  1.00  0.00    -0.430 C  
HETATM    7  O   UNL     1      -8.714   7.666  70.488  1.00  0.00    -0.136 OA 
HETATM    8  C   UNL     1     -10.308   6.585  69.363  1.00  0.00    -0.241 C  
HETATM    9  C   UNL     1     -10.040   5.272  71.953  1.00  0.00    -0.252 C  
HETATM   10  C   UNL     1     -10.865  11.059  67.633  1.00  0.00    -0.306 A  
HETATM   11  H   UNL     1      -7.831   7.942  70.703  1.00  0.00     0.000 HD 
HETATM   12  C   UNL     1     -10.453   8.235  68.769  1.00  0.00    -0.200 C  
HETATM   13  C   UNL     1     -11.398   9.404  69.514  1.00  0.00     0.026 C  
HETATM   14  C   UNL     1     -11.313  10.825  68.944  1.00  0.00    -0.349 A  
HETATM   15  C   UNL     1     -11.875  11.908  69.656  1.00  0.00    -0.406 A  
HETATM   16  C   UNL     1     -11.900  13.195  69.078  1.00  0.00    -0.358 A  
HETATM   17  C   UNL     1     -12.460  11.778  71.047  1.00  0.00    -0.411 C  
HETATM   18  C   UNL     1     -12.710  10.351  71.526  1.00  0.00    -0.564 C  
HETATM   19  C   UNL     1     -11.422  13.417  67.790  1.00  0.00    -0.316 A  
HETATM   20  C   UNL     1     -10.919  12.339  67.067  1.00  0.00    -0.314 A  
ENDROOT
BRANCH   4  21
HETATM   21  C   UNL     1      -9.306   7.999  72.632  1.00  0.00    -0.314 C  
HETATM   22  C   UNL     1      -8.827   8.203  73.728  1.00  0.00    -0.265 C  
ENDBRANCH   4  21
BRANCH  19  23
HETATM   23  O   UNL     1     -11.409  14.618  67.134  1.00  0.00    -0.332 OA 
HETATM   24  C   UNL     1     -11.632  14.581  65.729  1.00  0.00    -0.347 C  
ENDBRANCH  19  23
TORSDOF 2
ENDMDL
MODEL       13
REMARK 921   NORMALIZED FREE ENERGY PREDICTED BY IDOCK:   -6.14 KCAL/MOL
REMARK 922        TOTAL FREE ENERGY PREDICTED BY IDOCK:   -6.92 KCAL/MOL
REMARK 923 INTER-LIGAND FREE ENERGY PREDICTED BY IDOCK:   -6.88 KCAL/MOL
REMARK 924 INTRA-LIGAND FREE ENERGY PREDICTED BY IDOCK:   -0.04 KCAL/MOL
REMARK 927      BINDING AFFINITY PREDICTED BY RF-SCORE:    0.00 PKD
ROOT
HETATM    1  C   UNL     1     -10.630  11.806  68.486  1.00  0.00    -0.242 C  
HETATM    2  C   UNL     1     -12.020  11.535  68.495  1.00  0.00    -0.293 C  
HETATM    3  C   UNL     1     -11.446  11.935  67.188  1.00  0.00    -0.386 C  
HETATM    4  C   UNL     1      -9.391  12.021  67.124  1.00  0.00    -0.187 C  
HETATM    5  C   UNL     1     -10.212  10.988  66.766  1.00  0.00    -0.272 C  
HETATM    6  C   UNL     1     -10.405  13.637  68.420  1.00  0.00    -0.248 C  
HETATM    7  O   UNL     1      -8.502  12.172  66.015  1.00  0.00    -0.384 OA 
HETATM    8  C   UNL     1     -10.573  11.976  65.208  1.00  0.00    -0.328 C  
HETATM    9  C   UNL     1      -9.972   9.511  66.645  1.00  0.00    -0.314 C  
HETATM   10  C   UNL     1     -10.355  16.739  65.976  1.00  0.00    -0.346 A  
HETATM   11  H   UNL     1      -7.554  12.212  65.985  1.00  0.00     0.000 HD 
HETATM   12  C   UNL     1     -10.425  13.705  65.505  1.00  0.00    -0.314 C  
HETATM   13  C   UNL     1     -10.780  14.420  66.980  1.00  0.00    -0.285 C  
HETATM   14  C   UNL     1     -10.475  15.918  67.110  1.00  0.00    -0.313 A  
HETATM   15  C   UNL     1     -10.508  16.539  68.379  1.00  0.00    -0.307 A  
HETATM   16  C   UNL     1     -10.343  17.936  68.484  1.00  0.00    -0.365 A  
HETATM   17  C   UNL     1     -10.704  15.779  69.674  1.00  0.00    -0.292 C  
HETATM   18  C   UNL     1     -11.188  14.340  69.527  1.00  0.00    -0.286 C  
HETATM   19  C   UNL     1     -10.193  18.733  67.352  1.00  0.00    -0.395 A  
HETATM   20  C   UNL     1     -10.216  18.127  66.099  1.00  0.00    -0.372 A  
ENDROOT
BRANCH   4  21
HETATM   21  C   UNL     1      -8.375  11.427  68.132  1.00  0.00    -0.149 C  
HETATM   22  C   UNL     1      -7.562  10.941  68.891  1.00  0.00    -0.128 C  
ENDBRANCH   4  21
BRANCH  19  23
HETATM   23  O   UNL     1     -10.037  20.092  67.342  1.00  0.00    -0.389 OA 
HETATM   24  C   UNL     1      -8.701  20.580  67.311  1.00  0.00    -0.285 C  
ENDBRANCH  19  23
TORSDOF 2
ENDMDL
MODEL       14
REMARK 921   NORMALIZED FREE ENERGY PREDICTED BY IDOCK:   -6.12 KCAL/MOL
REMARK 922        TOTAL FREE ENERGY PREDICTED BY IDOCK:   -6.89 KCAL/MOL
REMARK 923 INTER-LIGAND FREE ENERGY PREDICTED BY IDOCK:   -6.87 KCAL/MOL
REMARK 924 INTRA-LIGAND FREE ENERGY PREDICTED BY IDOCK:   -0.02 KCAL/MOL
REMARK 927      BINDING AFFINITY PREDICTED BY RF-SCORE:    0.00 PKD
ROOT
HETATM    1  C   UNL     1     -11.157  13.044  67.064  1.00  0.00    -0.311 C  
HETATM    2  C   UNL     1     -12.403  13.260  67.704  1.00  0.00     0.005 C  
HETATM    3  C   UNL     1     -12.164  14.044  66.468  1.00  0.00    -0.485 C  
HETATM    4  C   UNL     1     -10.499  13.494  65.391  1.00  0.00    -0.315 C  
HETATM    5  C   UNL     1     -11.794  13.091  65.222  1.00  0.00    -0.413 C  
HETATM    6  C   UNL     1     -10.071  14.492  67.425  1.00  0.00    -0.235 C  
HETATM    7  O   UNL     1     -10.072  13.879  64.082  1.00  0.00    -0.681 OA 
HETATM    8  C   UNL     1     -12.087  14.771  64.431  1.00  0.00    -0.457 C  
HETATM    9  C   UNL     1     -12.391  11.875  64.574  1.00  0.00    -0.183 C  
HETATM   10  C   UNL     1      -9.250  18.193  66.319  1.00  0.00    -0.213 A  
HETATM   11  H   UNL     1      -9.303  13.625  63.585  1.00  0.00     0.000 HD 
HETATM   12  C   UNL     1     -10.996  15.982  65.095  1.00  0.00    -0.360 C  
HETATM   13  C   UNL     1     -10.440  15.953  66.678  1.00  0.00    -0.306 C  
HETATM   14  C   UNL     1      -9.395  17.009  67.059  1.00  0.00    -0.249 A  
HETATM   15  C   UNL     1      -8.695  16.902  68.283  1.00  0.00    -0.235 A  
HETATM   16  C   UNL     1      -7.821  17.933  68.688  1.00  0.00    -0.294 A  
HETATM   17  C   UNL     1      -8.818  15.712  69.212  1.00  0.00    -0.264 C  
HETATM   18  C   UNL     1      -9.982  14.769  68.925  1.00  0.00    -0.233 C  
HETATM   19  C   UNL     1      -7.665  19.087  67.926  1.00  0.00    -0.266 A  
HETATM   20  C   UNL     1      -8.395  19.216  66.748  1.00  0.00    -0.305 A  
ENDROOT
BRANCH   4  21
HETATM   21  C   UNL     1      -9.662  12.196  65.516  1.00  0.00    -0.197 C  
HETATM   22  C   UNL     1      -9.041  11.160  65.625  1.00  0.00    -0.221 C  
ENDBRANCH   4  21
BRANCH  19  23
HETATM   23  O   UNL     1      -6.854  20.146  68.231  1.00  0.00    -0.291 OA 
HETATM   24  C   UNL     1      -6.564  21.053  67.173  1.00  0.00    -0.356 C  
ENDBRANCH  19  23
TORSDOF 2
ENDMDL
MODEL       15
REMARK 921   NORMALIZED FREE ENERGY PREDICTED BY IDOCK:   -6.10 KCAL/MOL
REMARK 922        TOTAL FREE ENERGY PREDICTED BY IDOCK:   -6.87 KCAL/MOL
REMARK 923 INTER-LIGAND FREE ENERGY PREDICTED BY IDOCK:   -6.82 KCAL/MOL
REMARK 924 INTRA-LIGAND FREE ENERGY PREDICTED BY IDOCK:   -0.05 KCAL/MOL
REMARK 927      BINDING AFFINITY PREDICTED BY RF-SCORE:    0.00 PKD
ROOT
HETATM    1  C   UNL     1     -11.035  14.134  66.325  1.00  0.00    -0.303 C  
HETATM    2  C   UNL     1     -12.386  14.171  65.900  1.00  0.00    -0.486 C  
HETATM    3  C   UNL     1     -12.159  13.757  67.306  1.00  0.00    -0.393 C  
HETATM    4  C   UNL     1     -10.236  14.006  67.993  1.00  0.00    -0.238 C  
HETATM    5  C   UNL     1     -11.302  14.854  68.118  1.00  0.00    -0.326 C  
HETATM    6  C   UNL     1     -10.506  12.367  66.394  1.00  0.00    -0.267 C  
HETATM    7  O   UNL     1      -9.703  13.907  69.316  1.00  0.00    -0.403 OA 
HETATM    8  C   UNL     1     -11.918  13.685  69.456  1.00  0.00    -0.397 C  
HETATM    9  C   UNL     1     -11.385  16.333  68.357  1.00  0.00    -0.312 C  
HETATM   10  C   UNL     1     -10.608   9.111  68.628  1.00  0.00    -0.207 A  
HETATM   11  H   UNL     1      -8.815  14.022  69.633  1.00  0.00     0.000 HD 
HETATM   12  C   UNL     1     -11.373  12.038  69.159  1.00  0.00    -0.338 C  
HETATM   13  C   UNL     1     -11.138  11.407  67.623  1.00  0.00    -0.325 C  
HETATM   14  C   UNL     1     -10.537   9.999  67.541  1.00  0.00    -0.336 A  
HETATM   15  C   UNL     1     -10.079   9.495  66.303  1.00  0.00    -0.327 A  
HETATM   16  C   UNL     1      -9.635   8.160  66.205  1.00  0.00    -0.248 A  
HETATM   17  C   UNL     1     -10.020  10.324  65.036  1.00  0.00    -0.393 C  
HETATM   18  C   UNL     1     -10.783  11.644  65.077  1.00  0.00    -0.351 C  
HETATM   19  C   UNL     1      -9.683   7.302  67.301  1.00  0.00    -0.158 A  
HETATM   20  C   UNL     1     -10.185   7.782  68.506  1.00  0.00    -0.227 A  
ENDROOT
BRANCH   4  21
HETATM   21  C   UNL     1      -9.095  14.847  67.366  1.00  0.00    -0.196 C  
HETATM   22  C   UNL     1      -8.190  15.515  66.913  1.00  0.00    -0.287 C  
ENDBRANCH   4  21
BRANCH  19  23
HETATM   23  O   UNL     1      -9.288   5.992  67.311  1.00  0.00    -0.113 OA 
HETATM   24  C   UNL     1      -9.849   5.148  66.313  1.00  0.00    -0.192 C  
ENDBRANCH  19  23
TORSDOF 2
ENDMDL
MODEL       16
REMARK 921   NORMALIZED FREE ENERGY PREDICTED BY IDOCK:   -6.08 KCAL/MOL
REMARK 922        TOTAL FREE ENERGY PREDICTED BY IDOCK:   -6.85 KCAL/MOL
REMARK 923 INTER-LIGAND FREE ENERGY PREDICTED BY IDOCK:   -6.82 KCAL/MOL
REMARK 924 INTRA-LIGAND FREE ENERGY PREDICTED BY IDOCK:   -0.03 KCAL/MOL
REMARK 927      BINDING AFFINITY PREDICTED BY RF-SCORE:    0.00 PKD
ROOT
HETATM    1  C   UNL     1      -9.231   8.030  70.715  1.00  0.00    -0.165 C  
HETATM    2  C   UNL     1      -8.376   8.775  71.564  1.00  0.00    -0.212 C  
HETATM    3  C   UNL     1      -9.793   9.210  71.527  1.00  0.00    -0.335 C  
HETATM    4  C   UNL     1     -11.074   7.938  70.541  1.00  0.00    -0.256 C  
HETATM    5  C   UNL     1     -10.795   7.998  71.878  1.00  0.00    -0.316 C  
HETATM    6  C   UNL     1      -9.553   9.037  69.201  1.00  0.00    -0.161 C  
HETATM    7  O   UNL     1     -12.502   7.926  70.475  1.00  0.00    -0.479 OA 
HETATM    8  C   UNL     1     -11.900   9.519  71.915  1.00  0.00    -0.349 C  
HETATM    9  C   UNL     1     -10.927   6.984  72.978  1.00  0.00    -0.327 C  
HETATM   10  C   UNL     1     -11.766  11.972  67.758  1.00  0.00    -0.379 A  
HETATM   11  H   UNL     1     -13.093   7.339  70.019  1.00  0.00     0.000 HD 
HETATM   12  C   UNL     1     -11.878  10.356  70.367  1.00  0.00    -0.418 C  
HETATM   13  C   UNL     1     -10.539  10.391  69.357  1.00  0.00    -0.267 C  
HETATM   14  C   UNL     1     -10.728  11.054  67.987  1.00  0.00    -0.260 A  
HETATM   15  C   UNL     1      -9.739  10.908  66.988  1.00  0.00    -0.203 A  
HETATM   16  C   UNL     1      -9.857  11.613  65.771  1.00  0.00    -0.268 A  
HETATM   17  C   UNL     1      -8.530  10.008  67.136  1.00  0.00    -0.125 C  
HETATM   18  C   UNL     1      -8.253   9.505  68.550  1.00  0.00    -0.113 C  
HETATM   19  C   UNL     1     -10.910  12.495  65.547  1.00  0.00    -0.278 A  
HETATM   20  C   UNL     1     -11.854  12.680  66.553  1.00  0.00    -0.463 A  
ENDROOT
BRANCH   4  21
HETATM   21  C   UNL     1     -10.829   6.466  70.121  1.00  0.00    -0.355 C  
HETATM   22  C   UNL     1     -10.598   5.323  69.786  1.00  0.00    -0.283 C  
ENDBRANCH   4  21
BRANCH  19  23
HETATM   23  O   UNL     1     -11.111  13.232  64.412  1.00  0.00    -0.351 OA 
HETATM   24  C   UNL     1     -12.020  14.323  64.513  1.00  0.00    -0.462 C  
ENDBRANCH  19  23
TORSDOF 2
ENDMDL
MODEL       17
REMARK 921   NORMALIZED FREE ENERGY PREDICTED BY IDOCK:   -6.03 KCAL/MOL
REMARK 922        TOTAL FREE ENERGY PREDICTED BY IDOCK:   -6.79 KCAL/MOL
REMARK 923 INTER-LIGAND FREE ENERGY PREDICTED BY IDOCK:   -6.73 KCAL/MOL
REMARK 924 INTRA-LIGAND FREE ENERGY PREDICTED BY IDOCK:   -0.06 KCAL/MOL
REMARK 927      BINDING AFFINITY PREDICTED BY RF-SCORE:    0.00 PKD
ROOT
HETATM    1  C   UNL     1     -11.301  14.082  65.657  1.00  0.00    -0.313 C  
HETATM    2  C   UNL     1     -12.686  13.833  65.486  1.00  0.00    -0.530 C  
HETATM    3  C   UNL     1     -12.032  13.119  66.609  1.00  0.00    -0.451 C  
HETATM    4  C   UNL     1     -10.111  13.724  67.032  1.00  0.00    -0.256 C  
HETATM    5  C   UNL     1     -11.281  14.139  67.606  1.00  0.00    -0.315 C  
HETATM    6  C   UNL     1     -10.376  12.613  65.029  1.00  0.00    -0.320 C  
HETATM    7  O   UNL     1      -9.262  13.412  68.139  1.00  0.00    -0.205 OA 
HETATM    8  C   UNL     1     -11.262  12.506  68.537  1.00  0.00    -0.322 C  
HETATM    9  C   UNL     1     -11.644  15.391  68.351  1.00  0.00    -0.368 C  
HETATM   10  C   UNL     1      -9.169   8.977  65.990  1.00  0.00    -0.284 A  
HETATM   11  H   UNL     1      -8.376  13.691  68.334  1.00  0.00     0.000 HD 
HETATM   12  C   UNL     1     -10.438  11.257  67.610  1.00  0.00    -0.225 C  
HETATM   13  C   UNL     1     -10.448  11.197  65.934  1.00  0.00    -0.310 C  
HETATM   14  C   UNL     1      -9.574  10.119  65.279  1.00  0.00    -0.338 A  
HETATM   15  C   UNL     1      -9.329  10.156  63.887  1.00  0.00    -0.336 A  
HETATM   16  C   UNL     1      -8.625   9.102  63.268  1.00  0.00    -0.182 A  
HETATM   17  C   UNL     1      -9.777  11.292  62.992  1.00  0.00    -0.389 C  
HETATM   18  C   UNL     1     -10.792  12.253  63.604  1.00  0.00    -0.522 C  
HETATM   19  C   UNL     1      -8.203   7.992  63.993  1.00  0.00    -0.046 A  
HETATM   20  C   UNL     1      -8.492   7.930  65.353  1.00  0.00    -0.134 A  
ENDROOT
BRANCH   4  21
HETATM   21  C   UNL     1      -9.386  15.011  66.564  1.00  0.00    -0.309 C  
HETATM   22  C   UNL     1      -8.796  16.017  66.231  1.00  0.00    -0.379 C  
ENDBRANCH   4  21
BRANCH  19  23
HETATM   23  O   UNL     1      -7.524   6.915  63.489  1.00  0.00    -0.074 OA 
HETATM   24  C   UNL     1      -7.961   5.630  63.915  1.00  0.00    -0.120 C  
ENDBRANCH  19  23
TORSDOF 2
ENDMDL
MODEL       18
REMARK 921   NORMALIZED FREE ENERGY PREDICTED BY IDOCK:   -6.02 KCAL/MOL
REMARK 922        TOTAL FREE ENERGY PREDICTED BY IDOCK:   -6.78 KCAL/MOL
REMARK 923 INTER-LIGAND FREE ENERGY PREDICTED BY IDOCK:   -6.77 KCAL/MOL
REMARK 924 INTRA-LIGAND FREE ENERGY PREDICTED BY IDOCK:   -0.00 KCAL/MOL
REMARK 927      BINDING AFFINITY PREDICTED BY RF-SCORE:    0.00 PKD
ROOT
HETATM    1  C   UNL     1      -9.220   7.856  69.120  1.00  0.00    -0.144 C  
HETATM    2  C   UNL     1      -8.011   8.012  69.843  1.00  0.00    -0.111 C  
HETATM    3  C   UNL     1      -9.221   7.730  70.654  1.00  0.00    -0.161 C  
HETATM    4  C   UNL     1     -10.893   7.202  69.578  1.00  0.00    -0.225 C  
HETATM    5  C   UNL     1      -9.965   6.387  70.163  1.00  0.00    -0.201 C  
HETATM    6  C   UNL     1     -10.218   9.394  69.337  1.00  0.00    -0.214 C  
HETATM    7  O   UNL     1     -12.151   6.681  70.013  1.00  0.00    -0.633 OA 
HETATM    8  C   UNL     1     -10.809   6.799  71.792  1.00  0.00    -0.257 C  
HETATM    9  C   UNL     1      -9.568   4.964  69.896  1.00  0.00    -0.252 C  
HETATM   10  C   UNL     1     -12.696  11.245  71.793  1.00  0.00    -0.379 A  
HETATM   11  H   UNL     1     -12.923   6.438  69.516  1.00  0.00     0.000 HD 
HETATM   12  C   UNL     1     -11.540   8.400  71.739  1.00  0.00    -0.372 C  
HETATM   13  C   UNL     1     -10.910   9.672  70.845  1.00  0.00    -0.409 C  
HETATM   14  C   UNL     1     -11.739  10.961  70.805  1.00  0.00    -0.355 A  
HETATM   15  C   UNL     1     -11.412  11.984  69.885  1.00  0.00    -0.239 A  
HETATM   16  C   UNL     1     -12.099  13.216  69.928  1.00  0.00    -0.357 A  
HETATM   17  C   UNL     1     -10.349  11.836  68.817  1.00  0.00    -0.198 C  
HETATM   18  C   UNL     1      -9.413  10.642  68.980  1.00  0.00    -0.202 C  
HETATM   19  C   UNL     1     -13.068  13.469  70.894  1.00  0.00    -0.075 A  
HETATM   20  C   UNL     1     -13.351  12.482  71.834  1.00  0.00    -0.467 A  
ENDROOT
BRANCH   4  21
HETATM   21  C   UNL     1     -10.978   6.754  68.096  1.00  0.00    -0.277 C  
HETATM   22  C   UNL     1     -11.006   6.417  66.931  1.00  0.00    -0.413 C  
ENDBRANCH   4  21
BRANCH  19  23
HETATM   23  O   UNL     1     -13.783  14.628  71.029  1.00  0.00    -0.357 OA 
HETATM   24  C   UNL     1     -13.136  15.703  71.699  1.00  0.00    -0.475 C  
ENDBRANCH  19  23
TORSDOF 2
ENDMDL
MODEL       19
REMARK 921   NORMALIZED FREE ENERGY PREDICTED BY IDOCK:   -5.96 KCAL/MOL
REMARK 922        TOTAL FREE ENERGY PREDICTED BY IDOCK:   -6.71 KCAL/MOL
REMARK 923 INTER-LIGAND FREE ENERGY PREDICTED BY IDOCK:   -6.67 KCAL/MOL
REMARK 924 INTRA-LIGAND FREE ENERGY PREDICTED BY IDOCK:   -0.05 KCAL/MOL
REMARK 927      BINDING AFFINITY PREDICTED BY RF-SCORE:    0.00 PKD
ROOT
HETATM    1  C   UNL     1     -11.290  14.256  68.182  1.00  0.00    -0.313 C  
HETATM    2  C   UNL     1     -10.495  15.054  69.042  1.00  0.00    -0.245 C  
HETATM    3  C   UNL     1      -9.802  13.921  68.382  1.00  0.00    -0.229 C  
HETATM    4  C   UNL     1     -10.881  12.971  66.910  1.00  0.00    -0.264 C  
HETATM    5  C   UNL     1      -9.964  13.977  66.780  1.00  0.00    -0.268 C  
HETATM    6  C   UNL     1     -11.671  12.676  69.057  1.00  0.00    -0.367 C  
HETATM    7  O   UNL     1     -10.478  11.994  65.948  1.00  0.00    -0.240 OA 
HETATM    8  C   UNL     1      -8.655  12.655  67.052  1.00  0.00    -0.181 C  
HETATM    9  C   UNL     1      -9.743  15.000  65.703  1.00  0.00    -0.344 C  
HETATM   10  C   UNL     1     -10.217   9.111  69.937  1.00  0.00    -0.222 A  
HETATM   11  H   UNL     1     -10.976  11.555  65.269  1.00  0.00     0.000 HD 
HETATM   12  C   UNL     1      -9.275  11.348  68.055  1.00  0.00    -0.171 C  
HETATM   13  C   UNL     1     -10.416  11.574  69.264  1.00  0.00    -0.066 C  
HETATM   14  C   UNL     1     -10.944  10.312  69.957  1.00  0.00    -0.371 A  
HETATM   15  C   UNL     1     -12.075  10.389  70.801  1.00  0.00    -0.463 A  
HETATM   16  C   UNL     1     -12.489   9.255  71.530  1.00  0.00    -0.435 A  
HETATM   17  C   UNL     1     -12.904  11.646  70.972  1.00  0.00    -0.339 C  
HETATM   18  C   UNL     1     -12.274  12.928  70.437  1.00  0.00    -0.381 C  
HETATM   19  C   UNL     1     -11.776   8.061  71.474  1.00  0.00    -0.284 A  
HETATM   20  C   UNL     1     -10.631   8.002  70.685  1.00  0.00    -0.227 A  
ENDROOT
BRANCH   4  21
HETATM   21  C   UNL     1     -12.161  13.465  66.189  1.00  0.00    -0.481 C  
HETATM   22  C   UNL     1     -13.139  13.864  65.593  1.00  0.00    -0.205 C  
ENDBRANCH   4  21
BRANCH  19  23
HETATM   23  O   UNL     1     -12.085   6.909  72.145  1.00  0.00    -0.291 OA 
HETATM   24  C   UNL     1     -11.038   5.957  72.294  1.00  0.00    -0.280 C  
ENDBRANCH  19  23
TORSDOF 2
ENDMDL
MODEL       20
REMARK 921   NORMALIZED FREE ENERGY PREDICTED BY IDOCK:   -5.95 KCAL/MOL
REMARK 922        TOTAL FREE ENERGY PREDICTED BY IDOCK:   -6.71 KCAL/MOL
REMARK 923 INTER-LIGAND FREE ENERGY PREDICTED BY IDOCK:   -6.68 KCAL/MOL
REMARK 924 INTRA-LIGAND FREE ENERGY PREDICTED BY IDOCK:   -0.03 KCAL/MOL
REMARK 927      BINDING AFFINITY PREDICTED BY RF-SCORE:    0.00 PKD
ROOT
HETATM    1  C   UNL     1      -8.647  19.628  67.024  1.00  0.00    -0.358 C  
HETATM    2  C   UNL     1      -9.580  20.008  68.021  1.00  0.00    -0.460 C  
HETATM    3  C   UNL     1      -8.617  18.947  68.404  1.00  0.00    -0.381 C  
HETATM    4  C   UNL     1      -7.085  18.630  67.068  1.00  0.00    -0.201 C  
HETATM    5  C   UNL     1      -7.092  19.421  68.183  1.00  0.00    -0.310 C  
HETATM    6  C   UNL     1      -9.179  18.000  66.334  1.00  0.00    -0.256 C  
HETATM    7  O   UNL     1      -5.893  17.851  67.191  1.00  0.00    -0.129 OA 
HETATM    8  C   UNL     1      -6.930  17.826  69.166  1.00  0.00    -0.209 C  
HETATM    9  C   UNL     1      -6.256  20.602  68.582  1.00  0.00    -0.341 C  
HETATM   10  C   UNL     1      -9.087  14.104  66.973  1.00  0.00    -0.255 A  
HETATM   11  H   UNL     1      -5.186  17.704  66.574  1.00  0.00     0.000 HD 
HETATM   12  C   UNL     1      -7.671  16.477  68.312  1.00  0.00    -0.176 C  
HETATM   13  C   UNL     1      -9.007  16.642  67.312  1.00  0.00    -0.211 C  
HETATM   14  C   UNL     1      -9.449  15.391  66.542  1.00  0.00    -0.298 A  
HETATM   15  C   UNL     1     -10.398  15.499  65.500  1.00  0.00    -0.419 A  
HETATM   16  C   UNL     1     -10.891  14.337  64.872  1.00  0.00    -0.429 A  
HETATM   17  C   UNL     1     -10.928  16.823  64.990  1.00  0.00    -0.118 C  
HETATM   18  C   UNL     1     -10.633  18.034  65.870  1.00  0.00    -0.225 C  
HETATM   19  C   UNL     1     -10.498  13.068  65.290  1.00  0.00    -0.304 A  
HETATM   20  C   UNL     1      -9.605  12.960  66.352  1.00  0.00    -0.252 A  
ENDROOT
BRANCH   4  21
HETATM   21  C   UNL     1      -6.625  19.542  65.903  1.00  0.00    -0.248 C  
HETATM   22  C   UNL     1      -6.297  20.244  64.969  1.00  0.00    -0.324 C  
ENDBRANCH   4  21
BRANCH  19  23
HETATM   23  O   UNL     1     -10.921  11.881  64.758  1.00  0.00    -0.295 OA 
HETATM   24  C   UNL     1     -11.762  11.959  63.612  1.00  0.00    -0.474 C  
ENDBRANCH  19  23
TORSDOF 2
ENDMDL
MODEL       21
REMARK 921   NORMALIZED FREE ENERGY PREDICTED BY IDOCK:   -5.90 KCAL/MOL
REMARK 922        TOTAL FREE ENERGY PREDICTED BY IDOCK:   -6.64 KCAL/MOL
REMARK 923 INTER-LIGAND FREE ENERGY PREDICTED BY IDOCK:   -6.61 KCAL/MOL
REMARK 924 INTRA-LIGAND FREE ENERGY PREDICTED BY IDOCK:   -0.04 KCAL/MOL
REMARK 927      BINDING AFFINITY PREDICTED BY RF-SCORE:    0.00 PKD
ROOT
HETATM    1  C   UNL     1      -8.514   7.313  66.543  1.00  0.00    -0.125 C  
HETATM    2  C   UNL     1      -7.226   7.764  66.924  1.00  0.00    -0.089 C  
HETATM    3  C   UNL     1      -8.353   8.234  67.765  1.00  0.00    -0.128 C  
HETATM    4  C   UNL     1     -10.162   7.328  67.391  1.00  0.00    -0.236 C  
HETATM    5  C   UNL     1      -9.225   7.003  68.332  1.00  0.00    -0.129 C  
HETATM    6  C   UNL     1      -9.389   8.712  65.716  1.00  0.00    -0.227 C  
HETATM    7  O   UNL     1     -11.393   7.379  68.116  1.00  0.00    -0.352 OA 
HETATM    8  C   UNL     1      -9.860   8.486  69.299  1.00  0.00    -0.185 C  
HETATM    9  C   UNL     1      -8.945   5.727  69.071  1.00  0.00    -0.117 C  
HETATM   10  C   UNL     1     -11.468  11.999  66.401  1.00  0.00    -0.417 A  
HETATM   11  H   UNL     1     -12.228   6.961  67.943  1.00  0.00     0.000 HD 
HETATM   12  C   UNL     1     -10.496   9.722  68.219  1.00  0.00    -0.255 C  
HETATM   13  C   UNL     1      -9.893   9.997  66.677  1.00  0.00    -0.259 C  
HETATM   14  C   UNL     1     -10.643  11.023  65.818  1.00  0.00    -0.260 A  
HETATM   15  C   UNL     1     -10.360  11.132  64.438  1.00  0.00    -0.407 A  
HETATM   16  C   UNL     1     -10.964  12.152  63.673  1.00  0.00    -0.527 A  
HETATM   17  C   UNL     1      -9.431  10.190  63.700  1.00  0.00    -0.320 C  
HETATM   18  C   UNL     1      -8.556   9.304  64.581  1.00  0.00    -0.209 C  
HETATM   19  C   UNL     1     -11.804  13.094  64.261  1.00  0.00    -0.406 A  
HETATM   20  C   UNL     1     -12.039  13.019  65.631  1.00  0.00    -0.507 A  
ENDROOT
BRANCH   4  21
HETATM   21  C   UNL     1     -10.436   6.026  66.597  1.00  0.00    -0.291 C  
HETATM   22  C   UNL     1     -10.652   4.986  66.011  1.00  0.00    -0.286 C  
ENDBRANCH   4  21
BRANCH  19  23
HETATM   23  O   UNL     1     -12.430  14.125  63.615  1.00  0.00    -0.819 OA 
HETATM   24  C   UNL     1     -12.275  15.421  64.181  1.00  0.00    -0.057 C  
ENDBRANCH  19  23
TORSDOF 2
ENDMDL
MODEL       22
REMARK 921   NORMALIZED FREE ENERGY PREDICTED BY IDOCK:   -5.82 KCAL/MOL
REMARK 922        TOTAL FREE ENERGY PREDICTED BY IDOCK:   -6.55 KCAL/MOL
REMARK 923 INTER-LIGAND FREE ENERGY PREDICTED BY IDOCK:   -6.50 KCAL/MOL
REMARK 924 INTRA-LIGAND FREE ENERGY PREDICTED BY IDOCK:   -0.05 KCAL/MOL
REMARK 927      BINDING AFFINITY PREDICTED BY RF-SCORE:    0.00 PKD
ROOT
HETATM    1  C   UNL     1     -11.077  12.196  66.444  1.00  0.00    -0.358 C  
HETATM    2  C   UNL     1     -12.135  12.504  67.334  1.00  0.00    -0.121 C  
HETATM    3  C   UNL     1     -11.923  13.462  66.222  1.00  0.00    -0.460 C  
HETATM    4  C   UNL     1     -10.600  12.844  64.774  1.00  0.00    -0.342 C  
HETATM    5  C   UNL     1     -11.962  12.726  64.789  1.00  0.00    -0.455 C  
HETATM    6  C   UNL     1      -9.662  13.318  66.827  1.00  0.00    -0.258 C  
HETATM    7  O   UNL     1     -10.303  13.397  63.490  1.00  0.00    -0.371 OA 
HETATM    8  C   UNL     1     -12.001  14.556  64.356  1.00  0.00    -0.467 C  
HETATM    9  C   UNL     1     -12.897  11.795  64.073  1.00  0.00    -0.181 C  
HETATM   10  C   UNL     1      -8.241  16.951  66.213  1.00  0.00    -0.344 A  
HETATM   11  H   UNL     1      -9.692  13.112  62.821  1.00  0.00     0.000 HD 
HETATM   12  C   UNL     1     -10.588  15.388  64.993  1.00  0.00    -0.445 C  
HETATM   13  C   UNL     1      -9.817  14.941  66.415  1.00  0.00    -0.292 C  
HETATM   14  C   UNL     1      -8.524  15.689  66.761  1.00  0.00    -0.307 A  
HETATM   15  C   UNL     1      -7.686  15.212  67.795  1.00  0.00    -0.164 A  
HETATM   16  C   UNL     1      -6.559  15.963  68.192  1.00  0.00    -0.133 A  
HETATM   17  C   UNL     1      -7.920  13.904  68.521  1.00  0.00    -0.137 C  
HETATM   18  C   UNL     1      -9.289  13.267  68.307  1.00  0.00    -0.205 C  
HETATM   19  C   UNL     1      -6.275  17.198  67.616  1.00  0.00    -0.144 A  
HETATM   20  C   UNL     1      -7.131  17.692  66.635  1.00  0.00    -0.258 A  
ENDROOT
BRANCH   4  21
HETATM   21  C   UNL     1     -10.053  11.415  64.521  1.00  0.00    -0.337 C  
HETATM   22  C   UNL     1      -9.594  10.314  64.303  1.00  0.00    -0.375 C  
ENDBRANCH   4  21
BRANCH  19  23
HETATM   23  O   UNL     1      -5.218  18.007  67.932  1.00  0.00    -0.147 OA 
HETATM   24  C   UNL     1      -5.437  18.971  68.956  1.00  0.00    -0.201 C  
ENDBRANCH  19  23
TORSDOF 2
ENDMDL
MODEL       23
REMARK 921   NORMALIZED FREE ENERGY PREDICTED BY IDOCK:   -5.79 KCAL/MOL
REMARK 922        TOTAL FREE ENERGY PREDICTED BY IDOCK:   -6.53 KCAL/MOL
REMARK 923 INTER-LIGAND FREE ENERGY PREDICTED BY IDOCK:   -6.47 KCAL/MOL
REMARK 924 INTRA-LIGAND FREE ENERGY PREDICTED BY IDOCK:   -0.05 KCAL/MOL
REMARK 927      BINDING AFFINITY PREDICTED BY RF-SCORE:    0.00 PKD
ROOT
HETATM    1  C   UNL     1     -11.236  14.827  67.041  1.00  0.00    -0.347 C  
HETATM    2  C   UNL     1     -11.284  15.010  65.637  1.00  0.00    -0.327 C  
HETATM    3  C   UNL     1     -10.029  14.431  66.173  1.00  0.00    -0.328 C  
HETATM    4  C   UNL     1     -10.091  13.887  68.156  1.00  0.00    -0.250 C  
HETATM    5  C   UNL     1     -10.311  13.110  67.052  1.00  0.00    -0.249 C  
HETATM    6  C   UNL     1     -10.171  16.156  67.754  1.00  0.00    -0.267 C  
HETATM    7  O   UNL     1      -9.164  13.135  68.942  1.00  0.00    -0.387 OA 
HETATM    8  C   UNL     1      -8.444  13.111  66.830  1.00  0.00    -0.081 C  
HETATM    9  C   UNL     1     -11.060  11.823  66.864  1.00  0.00    -0.361 C  
HETATM   10  C   UNL     1      -6.420  17.197  68.422  1.00  0.00    -0.158 A  
HETATM   11  H   UNL     1      -9.193  12.885  69.857  1.00  0.00     0.000 HD 
HETATM   12  C   UNL     1      -7.730  14.585  67.476  1.00  0.00    -0.208 C  
HETATM   13  C   UNL     1      -8.515  16.067  67.473  1.00  0.00    -0.178 C  
HETATM   14  C   UNL     1      -7.805  17.223  68.190  1.00  0.00    -0.220 A  
HETATM   15  C   UNL     1      -8.499  18.427  68.450  1.00  0.00    -0.345 A  
HETATM   16  C   UNL     1      -7.814  19.529  69.003  1.00  0.00    -0.310 A  
HETATM   17  C   UNL     1      -9.977  18.613  68.177  1.00  0.00    -0.397 C  
HETATM   18  C   UNL     1     -10.625  17.543  67.303  1.00  0.00    -0.287 C  
HETATM   19  C   UNL     1      -6.447  19.476  69.257  1.00  0.00    -0.324 A  
HETATM   20  C   UNL     1      -5.753  18.309  68.950  1.00  0.00    -0.206 A  
ENDROOT
BRANCH   4  21
HETATM   21  C   UNL     1     -11.336  13.703  69.060  1.00  0.00    -0.333 C  
HETATM   22  C   UNL     1     -12.286  13.553  69.801  1.00  0.00    -0.330 C  
ENDBRANCH   4  21
BRANCH  19  23
HETATM   23  O   UNL     1      -5.688  20.488  69.780  1.00  0.00    -0.323 OA 
HETATM   24  C   UNL     1      -5.431  20.435  71.178  1.00  0.00    -0.253 C  
ENDBRANCH  19  23
TORSDOF 2
ENDMDL
MODEL       24
REMARK 921   NORMALIZED FREE ENERGY PREDICTED BY IDOCK:   -5.77 KCAL/MOL
REMARK 922        TOTAL FREE ENERGY PREDICTED BY IDOCK:   -6.51 KCAL/MOL
REMARK 923 INTER-LIGAND FREE ENERGY PREDICTED BY IDOCK:   -6.43 KCAL/MOL
REMARK 924 INTRA-LIGAND FREE ENERGY PREDICTED BY IDOCK:   -0.07 KCAL/MOL
REMARK 927      BINDING AFFINITY PREDICTED BY RF-SCORE:    0.00 PKD
ROOT
HETATM    1  C   UNL     1     -11.592  12.221  67.293  1.00  0.00    -0.427 C  
HETATM    2  C   UNL     1     -11.741  12.220  65.884  1.00  0.00    -0.451 C  
HETATM    3  C   UNL     1     -10.355  12.075  66.390  1.00  0.00    -0.246 C  
HETATM    4  C   UNL     1     -10.189  11.768  68.417  1.00  0.00    -0.206 C  
HETATM    5  C   UNL     1     -10.222  10.839  67.415  1.00  0.00    -0.241 C  
HETATM    6  C   UNL     1     -10.919  13.865  67.796  1.00  0.00    -0.271 C  
HETATM    7  O   UNL     1      -9.060  11.396  69.211  1.00  0.00    -0.389 OA 
HETATM    8  C   UNL     1      -8.440  11.329  67.069  1.00  0.00    -0.150 C  
HETATM    9  C   UNL     1     -10.584   9.382  67.408  1.00  0.00    -0.326 C  
HETATM   10  C   UNL     1      -7.590  15.969  68.103  1.00  0.00    -0.139 A  
HETATM   11  H   UNL     1      -8.983  11.255  70.147  1.00  0.00     0.000 HD 
HETATM   12  C   UNL     1      -8.146  13.006  67.514  1.00  0.00    -0.179 C  
HETATM   13  C   UNL     1      -9.315  14.204  67.415  1.00  0.00    -0.215 C  
HETATM   14  C   UNL     1      -8.934  15.585  67.963  1.00  0.00    -0.174 A  
HETATM   15  C   UNL     1      -9.928  16.573  68.147  1.00  0.00    -0.248 A  
HETATM   16  C   UNL     1      -9.562  17.878  68.538  1.00  0.00    -0.327 A  
HETATM   17  C   UNL     1     -11.408  16.312  67.956  1.00  0.00    -0.205 C  
HETATM   18  C   UNL     1     -11.761  15.012  67.240  1.00  0.00    -0.238 C  
HETATM   19  C   UNL     1      -8.226  18.233  68.704  1.00  0.00    -0.283 A  
HETATM   20  C   UNL     1      -7.244  17.275  68.469  1.00  0.00    -0.224 A  
ENDROOT
BRANCH   4  21
HETATM   21  C   UNL     1     -11.298  11.353  69.418  1.00  0.00    -0.365 C  
HETATM   22  C   UNL     1     -12.146  11.048  70.231  1.00  0.00    -0.448 C  
ENDBRANCH   4  21
BRANCH  19  23
HETATM   23  O   UNL     1      -7.764  19.468  69.070  1.00  0.00    -0.362 OA 
HETATM   24  C   UNL     1      -6.377  19.566  69.371  1.00  0.00    -0.320 C  
ENDBRANCH  19  23
TORSDOF 2
ENDMDL
MODEL       25
REMARK 921   NORMALIZED FREE ENERGY PREDICTED BY IDOCK:   -5.73 KCAL/MOL
REMARK 922        TOTAL FREE ENERGY PREDICTED BY IDOCK:   -6.46 KCAL/MOL
REMARK 923 INTER-LIGAND FREE ENERGY PREDICTED BY IDOCK:   -6.41 KCAL/MOL
REMARK 924 INTRA-LIGAND FREE ENERGY PREDICTED BY IDOCK:   -0.05 KCAL/MOL
REMARK 927      BINDING AFFINITY PREDICTED BY RF-SCORE:    0.00 PKD
ROOT
HETATM    1  C   UNL     1     -11.727  14.564  66.934  1.00  0.00    -0.399 C  
HETATM    2  C   UNL     1     -11.972  14.145  65.603  1.00  0.00    -0.401 C  
HETATM    3  C   UNL     1     -10.665  13.745  66.180  1.00  0.00    -0.283 C  
HETATM    4  C   UNL     1     -10.456  14.089  68.197  1.00  0.00    -0.243 C  
HETATM    5  C   UNL     1     -10.848  12.942  67.565  1.00  0.00    -0.256 C  
HETATM    6  C   UNL     1     -10.544  15.979  66.880  1.00  0.00    -0.300 C  
HETATM    7  O   UNL     1      -9.443  13.664  69.112  1.00  0.00    -0.387 OA 
HETATM    8  C   UNL     1      -9.032  12.700  67.142  1.00  0.00    -0.205 C  
HETATM    9  C   UNL     1     -11.643  11.758  68.035  1.00  0.00    -0.386 C  
HETATM   10  C   UNL     1      -6.714  16.900  66.586  1.00  0.00    -0.264 A  
HETATM   11  H   UNL     1      -9.346  13.823  70.043  1.00  0.00     0.000 HD 
HETATM   12  C   UNL     1      -8.202  14.246  67.008  1.00  0.00    -0.116 C  
HETATM   13  C   UNL     1      -8.946  15.649  66.468  1.00  0.00    -0.343 C  
HETATM   14  C   UNL     1      -8.117  16.937  66.533  1.00  0.00    -0.327 A  
HETATM   15  C   UNL     1      -8.741  18.190  66.337  1.00  0.00    -0.252 A  
HETATM   16  C   UNL     1      -7.961  19.364  66.280  1.00  0.00    -0.330 A  
HETATM   17  C   UNL     1     -10.238  18.363  66.189  1.00  0.00    -0.408 C  
HETATM   18  C   UNL     1     -11.027  17.081  65.939  1.00  0.00     0.125 C  
HETATM   19  C   UNL     1      -6.572  19.313  66.367  1.00  0.00    -0.191 A  
HETATM   20  C   UNL     1      -5.955  18.074  66.505  1.00  0.00    -0.206 A  
ENDROOT
BRANCH   4  21
HETATM   21  C   UNL     1     -11.563  14.401  69.237  1.00  0.00    -0.345 C  
HETATM   22  C   UNL     1     -12.405  14.673  70.067  1.00  0.00    -0.365 C  
ENDBRANCH   4  21
BRANCH  19  23
HETATM   23  O   UNL     1      -5.725  20.387  66.314  1.00  0.00    -0.171 OA 
HETATM   24  C   UNL     1      -5.847  21.348  67.355  1.00  0.00    -0.355 C  
ENDBRANCH  19  23
TORSDOF 2
ENDMDL
MODEL       26
REMARK 921   NORMALIZED FREE ENERGY PREDICTED BY IDOCK:   -5.72 KCAL/MOL
REMARK 922        TOTAL FREE ENERGY PREDICTED BY IDOCK:   -6.45 KCAL/MOL
REMARK 923 INTER-LIGAND FREE ENERGY PREDICTED BY IDOCK:   -6.39 KCAL/MOL
REMARK 924 INTRA-LIGAND FREE ENERGY PREDICTED BY IDOCK:   -0.05 KCAL/MOL
REMARK 927      BINDING AFFINITY PREDICTED BY RF-SCORE:    0.00 PKD
ROOT
HETATM    1  C   UNL     1     -10.333   9.960  67.390  1.00  0.00    -0.301 C  
HETATM    2  C   UNL     1     -10.128   9.360  66.123  1.00  0.00    -0.324 C  
HETATM    3  C   UNL     1      -8.966  10.083  66.693  1.00  0.00    -0.156 C  
HETATM    4  C   UNL     1      -9.178  10.678  68.651  1.00  0.00    -0.181 C  
HETATM    5  C   UNL     1      -8.593   9.542  68.165  1.00  0.00    -0.120 C  
HETATM    6  C   UNL     1     -10.524  11.779  67.137  1.00  0.00    -0.250 C  
HETATM    7  O   UNL     1      -8.220  11.208  69.570  1.00  0.00    -0.372 OA 
HETATM    8  C   UNL     1      -7.135  10.638  67.705  1.00  0.00    -0.083 C  
HETATM    9  C   UNL     1      -8.321   8.205  68.791  1.00  0.00    -0.126 C  
HETATM   10  C   UNL     1      -8.510  15.134  66.604  1.00  0.00    -0.230 A  
HETATM   11  H   UNL     1      -8.318  11.483  70.473  1.00  0.00     0.000 HD 
HETATM   12  C   UNL     1      -7.661  12.284  67.371  1.00  0.00    -0.159 C  
HETATM   13  C   UNL     1      -9.155  12.657  66.706  1.00  0.00    -0.214 C  
HETATM   14  C   UNL     1      -9.508  14.146  66.598  1.00  0.00    -0.303 A  
HETATM   15  C   UNL     1     -10.829  14.539  66.287  1.00  0.00    -0.317 A  
HETATM   16  C   UNL     1     -11.127  15.901  66.072  1.00  0.00    -0.037 A  
HETATM   17  C   UNL     1     -11.984  13.566  66.175  1.00  0.00    -0.454 C  
HETATM   18  C   UNL     1     -11.599  12.092  66.098  1.00  0.00    -0.418 C  
HETATM   19  C   UNL     1     -10.131  16.873  66.113  1.00  0.00    -0.333 A  
HETATM   20  C   UNL     1      -8.821  16.479  66.366  1.00  0.00    -0.345 A  
ENDROOT
BRANCH   4  21
HETATM   21  C   UNL     1     -10.228  10.203  69.689  1.00  0.00    -0.272 C  
HETATM   22  C   UNL     1     -11.044   9.868  70.521  1.00  0.00    -0.398 C  
ENDBRANCH   4  21
BRANCH  19  23
HETATM   23  O   UNL     1     -10.310  18.215  65.911  1.00  0.00    -0.540 OA 
HETATM   24  C   UNL     1     -10.657  18.991  67.052  1.00  0.00    -0.461 C  
ENDBRANCH  19  23
TORSDOF 2
ENDMDL
MODEL       27
REMARK 921   NORMALIZED FREE ENERGY PREDICTED BY IDOCK:   -5.68 KCAL/MOL
REMARK 922        TOTAL FREE ENERGY PREDICTED BY IDOCK:   -6.41 KCAL/MOL
REMARK 923 INTER-LIGAND FREE ENERGY PREDICTED BY IDOCK:   -6.35 KCAL/MOL
REMARK 924 INTRA-LIGAND FREE ENERGY PREDICTED BY IDOCK:   -0.05 KCAL/MOL
REMARK 927      BINDING AFFINITY PREDICTED BY RF-SCORE:    0.00 PKD
ROOT
HETATM    1  C   UNL     1     -11.516  13.783  67.762  1.00  0.00    -0.354 C  
HETATM    2  C   UNL     1     -11.130  14.823  68.642  1.00  0.00    -0.274 C  
HETATM    3  C   UNL     1     -10.044  13.921  68.188  1.00  0.00    -0.250 C  
HETATM    4  C   UNL     1     -10.560  12.619  66.680  1.00  0.00    -0.248 C  
HETATM    5  C   UNL     1      -9.966  13.847  66.580  1.00  0.00    -0.279 C  
HETATM    6  C   UNL     1     -11.552  12.206  68.720  1.00  0.00    -0.380 C  
HETATM    7  O   UNL     1      -9.747  11.763  65.875  1.00  0.00    -0.227 OA 
HETATM    8  C   UNL     1      -8.389  12.994  67.146  1.00  0.00    -0.153 C  
HETATM    9  C   UNL     1      -9.888  14.835  65.453  1.00  0.00    -0.295 C  
HETATM   10  C   UNL     1      -9.282   9.289  70.112  1.00  0.00    -0.254 A  
HETATM   11  H   UNL     1      -9.986  11.162  65.179  1.00  0.00     0.000 HD 
HETATM   12  C   UNL     1      -8.750  11.612  68.174  1.00  0.00    -0.159 C  
HETATM   13  C   UNL     1     -10.080  11.544  69.194  1.00  0.00     0.006 C  
HETATM   14  C   UNL     1     -10.320  10.217  69.924  1.00  0.00    -0.308 A  
HETATM   15  C   UNL     1     -11.541   9.991  70.600  1.00  0.00    -0.422 A  
HETATM   16  C   UNL     1     -11.716   8.822  71.369  1.00  0.00    -0.369 A  
HETATM   17  C   UNL     1     -12.714  10.947  70.542  1.00  0.00    -0.363 C  
HETATM   18  C   UNL     1     -12.409  12.332  69.979  1.00  0.00    -0.159 C  
HETATM   19  C   UNL     1     -10.687   7.896  71.519  1.00  0.00    -0.227 A  
HETATM   20  C   UNL     1      -9.466   8.145  70.898  1.00  0.00    -0.186 A  
ENDROOT
BRANCH   4  21
HETATM   21  C   UNL     1     -11.801  12.671  65.753  1.00  0.00    -0.497 C  
HETATM   22  C   UNL     1     -12.752  12.687  65.000  1.00  0.00    -0.403 C  
ENDBRANCH   4  21
BRANCH  19  23
HETATM   23  O   UNL     1     -10.748   6.739  72.247  1.00  0.00    -0.210 OA 
HETATM   24  C   UNL     1     -10.289   6.806  73.592  1.00  0.00    -0.344 C  
ENDBRANCH  19  23
TORSDOF 2
ENDMDL
MODEL       28
REMARK 921   NORMALIZED FREE ENERGY PREDICTED BY IDOCK:   -5.64 KCAL/MOL
REMARK 922        TOTAL FREE ENERGY PREDICTED BY IDOCK:   -6.35 KCAL/MOL
REMARK 923 INTER-LIGAND FREE ENERGY PREDICTED BY IDOCK:   -6.31 KCAL/MOL
REMARK 924 INTRA-LIGAND FREE ENERGY PREDICTED BY IDOCK:   -0.05 KCAL/MOL
REMARK 927      BINDING AFFINITY PREDICTED BY RF-SCORE:    0.00 PKD
ROOT
HETATM    1  C   UNL     1      -9.688   9.140  69.642  1.00  0.00    -0.183 C  
HETATM    2  C   UNL     1     -10.793   8.292  69.903  1.00  0.00    -0.213 C  
HETATM    3  C   UNL     1     -10.202   8.188  68.547  1.00  0.00    -0.233 C  
HETATM    4  C   UNL     1      -8.422   9.188  68.288  1.00  0.00    -0.125 C  
HETATM    5  C   UNL     1      -8.622   7.874  68.610  1.00  0.00    -0.128 C  
HETATM    6  C   UNL     1     -10.273  10.532  68.580  1.00  0.00    -0.190 C  
HETATM    7  O   UNL     1      -7.485   9.152  67.209  1.00  0.00    -0.087 OA 
HETATM    8  C   UNL     1      -9.058   7.624  66.798  1.00  0.00    -0.181 C  
HETATM    9  C   UNL     1      -7.745   6.861  69.288  1.00  0.00    -0.105 C  
HETATM   10  C   UNL     1     -11.091  11.549  64.853  1.00  0.00    -0.282 A  
HETATM   11  H   UNL     1      -6.664   9.614  67.090  1.00  0.00     0.000 HD 
HETATM   12  C   UNL     1      -9.738   9.090  66.102  1.00  0.00    -0.354 C  
HETATM   13  C   UNL     1     -10.656  10.187  66.979  1.00  0.00    -0.290 C  
HETATM   14  C   UNL     1     -11.064  11.476  66.255  1.00  0.00    -0.321 A  
HETATM   15  C   UNL     1     -11.617  12.553  66.985  1.00  0.00    -0.437 A  
HETATM   16  C   UNL     1     -12.100  13.691  66.306  1.00  0.00    -0.477 A  
HETATM   17  C   UNL     1     -11.717  12.571  68.496  1.00  0.00    -0.369 C  
HETATM   18  C   UNL     1     -11.487  11.231  69.188  1.00  0.00    -0.364 C  
HETATM   19  C   UNL     1     -12.089  13.760  64.916  1.00  0.00    -0.403 A  
HETATM   20  C   UNL     1     -11.596  12.677  64.195  1.00  0.00    -0.458 A  
ENDROOT
BRANCH   4  21
HETATM   21  C   UNL     1      -7.472   9.752  69.376  1.00  0.00    -0.099 C  
HETATM   22  C   UNL     1      -6.730  10.229  70.208  1.00  0.00    -0.143 C  
ENDBRANCH   4  21
BRANCH  19  23
HETATM   23  O   UNL     1     -12.541  14.809  64.161  1.00  0.00    -0.784 OA 
HETATM   24  C   UNL     1     -11.781  16.011  64.219  1.00  0.00    -0.081 C  
ENDBRANCH  19  23
TORSDOF 2
ENDMDL
MODEL       29
REMARK 921   NORMALIZED FREE ENERGY PREDICTED BY IDOCK:   -5.62 KCAL/MOL
REMARK 922        TOTAL FREE ENERGY PREDICTED BY IDOCK:   -6.33 KCAL/MOL
REMARK 923 INTER-LIGAND FREE ENERGY PREDICTED BY IDOCK:   -6.28 KCAL/MOL
REMARK 924 INTRA-LIGAND FREE ENERGY PREDICTED BY IDOCK:   -0.05 KCAL/MOL
REMARK 927      BINDING AFFINITY PREDICTED BY RF-SCORE:    0.00 PKD
ROOT
HETATM    1  C   UNL     1      -8.341  11.196  66.224  1.00  0.00    -0.163 C  
HETATM    2  C   UNL     1      -7.076  11.309  66.852  1.00  0.00    -0.139 C  
HETATM    3  C   UNL     1      -7.914  10.164  67.281  1.00  0.00    -0.110 C  
HETATM    4  C   UNL     1      -9.599   9.837  66.148  1.00  0.00    -0.227 C  
HETATM    5  C   UNL     1      -8.367   9.256  66.029  1.00  0.00    -0.117 C  
HETATM    6  C   UNL     1      -9.627  11.758  67.423  1.00  0.00    -0.173 C  
HETATM    7  O   UNL     1     -10.514   8.738  66.139  1.00  0.00    -0.274 OA 
HETATM    8  C   UNL     1      -8.845   8.225  67.527  1.00  0.00    -0.138 C  
HETATM    9  C   UNL     1      -7.682   8.581  64.876  1.00  0.00    -0.105 C  
HETATM   10  C   UNL     1     -11.797  10.607  70.515  1.00  0.00    -0.453 A  
HETATM   11  H   UNL     1     -11.292   8.588  65.615  1.00  0.00     0.000 HD 
HETATM   12  C   UNL     1      -9.969   9.096  68.564  1.00  0.00    -0.192 C  
HETATM   13  C   UNL     1      -9.957  10.764  68.739  1.00  0.00    -0.201 C  
HETATM   14  C   UNL     1     -11.085  11.376  69.579  1.00  0.00    -0.274 A  
HETATM   15  C   UNL     1     -11.295  12.773  69.573  1.00  0.00    -0.223 A  
HETATM   16  C   UNL     1     -12.254  13.346  70.434  1.00  0.00    -0.415 A  
HETATM   17  C   UNL     1     -10.542  13.725  68.666  1.00  0.00    -0.263 C  
HETATM   18  C   UNL     1      -9.310  13.144  67.980  1.00  0.00    -0.219 C  
HETATM   19  C   UNL     1     -12.974  12.566  71.334  1.00  0.00    -0.251 A  
HETATM   20  C   UNL     1     -12.728  11.197  71.378  1.00  0.00    -0.524 A  
ENDROOT
BRANCH   4  21
HETATM   21  C   UNL     1      -9.937  10.407  64.746  1.00  0.00    -0.409 C  
HETATM   22  C   UNL     1     -10.240  10.859  63.662  1.00  0.00    -0.395 C  
ENDBRANCH   4  21
BRANCH  19  23
HETATM   23  O   UNL     1     -13.917  13.021  72.215  1.00  0.00    -0.476 OA 
HETATM   24  C   UNL     1     -14.244  14.403  72.142  1.00  0.00    -0.538 C  
ENDBRANCH  19  23
TORSDOF 2
ENDMDL
MODEL       30
REMARK 921   NORMALIZED FREE ENERGY PREDICTED BY IDOCK:   -5.61 KCAL/MOL
REMARK 922        TOTAL FREE ENERGY PREDICTED BY IDOCK:   -6.33 KCAL/MOL
REMARK 923 INTER-LIGAND FREE ENERGY PREDICTED BY IDOCK:   -6.28 KCAL/MOL
REMARK 924 INTRA-LIGAND FREE ENERGY PREDICTED BY IDOCK:   -0.05 KCAL/MOL
REMARK 927      BINDING AFFINITY PREDICTED BY RF-SCORE:    0.00 PKD
ROOT
HETATM    1  C   UNL     1      -8.719  11.115  67.294  1.00  0.00    -0.139 C  
HETATM    2  C   UNL     1      -8.064  10.744  68.494  1.00  0.00    -0.133 C  
HETATM    3  C   UNL     1      -9.479  11.164  68.631  1.00  0.00    -0.196 C  
HETATM    4  C   UNL     1     -10.499  11.398  66.860  1.00  0.00    -0.240 C  
HETATM    5  C   UNL     1     -10.450  10.302  67.676  1.00  0.00    -0.285 C  
HETATM    6  C   UNL     1      -8.848  12.957  67.259  1.00  0.00    -0.206 C  
HETATM    7  O   UNL     1     -11.893  11.594  66.610  1.00  0.00    -0.533 OA 
HETATM    8  C   UNL     1     -11.636  11.235  68.797  1.00  0.00    -0.383 C  
HETATM    9  C   UNL     1     -10.699   8.844  67.415  1.00  0.00    -0.225 C  
HETATM   10  C   UNL     1     -10.967  16.013  68.586  1.00  0.00    -0.323 A  
HETATM   11  H   UNL     1     -12.363  11.702  65.792  1.00  0.00     0.000 HD 
HETATM   12  C   UNL     1     -11.410  12.974  68.651  1.00  0.00    -0.329 C  
HETATM   13  C   UNL     1      -9.927  13.687  68.322  1.00  0.00    -0.236 C  
HETATM   14  C   UNL     1      -9.927  15.204  68.100  1.00  0.00    -0.221 A  
HETATM   15  C   UNL     1      -8.779  15.843  67.577  1.00  0.00    -0.189 A  
HETATM   16  C   UNL     1      -8.737  17.250  67.483  1.00  0.00    -0.212 A  
HETATM   17  C   UNL     1      -7.559  15.092  67.087  1.00  0.00    -0.204 C  
HETATM   18  C   UNL     1      -7.489  13.619  67.478  1.00  0.00    -0.181 C  
HETATM   19  C   UNL     1      -9.790  18.036  67.941  1.00  0.00    -0.308 A  
HETATM   20  C   UNL     1     -10.897  17.409  68.506  1.00  0.00    -0.190 A  
ENDROOT
BRANCH   4  21
HETATM   21  C   UNL     1     -10.098  10.896  65.449  1.00  0.00    -0.336 C  
HETATM   22  C   UNL     1      -9.824  10.506  64.334  1.00  0.00    -0.405 C  
ENDBRANCH   4  21
BRANCH  19  23
HETATM   23  O   UNL     1      -9.846  19.403  67.905  1.00  0.00    -0.322 OA 
HETATM   24  C   UNL     1     -10.153  19.996  66.649  1.00  0.00    -0.479 C  
ENDBRANCH  19  23
TORSDOF 2
ENDMDL
MODEL       31
REMARK 921   NORMALIZED FREE ENERGY PREDICTED BY IDOCK:   -5.60 KCAL/MOL
REMARK 922        TOTAL FREE ENERGY PREDICTED BY IDOCK:   -6.32 KCAL/MOL
REMARK 923 INTER-LIGAND FREE ENERGY PREDICTED BY IDOCK:   -6.29 KCAL/MOL
REMARK 924 INTRA-LIGAND FREE ENERGY PREDICTED BY IDOCK:   -0.03 KCAL/MOL
REMARK 927      BINDING AFFINITY PREDICTED BY RF-SCORE:    0.00 PKD
ROOT
HETATM    1  C   UNL     1     -11.417   7.655  71.938  1.00  0.00    -0.313 C  
HETATM    2  C   UNL     1     -12.769   7.259  71.787  1.00  0.00    -0.370 C  
HETATM    3  C   UNL     1     -11.839   6.814  70.721  1.00  0.00    -0.446 C  
HETATM    4  C   UNL     1      -9.844   7.128  71.111  1.00  0.00    -0.179 C  
HETATM    5  C   UNL     1     -10.586   6.000  71.325  1.00  0.00    -0.302 C  
HETATM    6  C   UNL     1     -11.090   9.036  70.758  1.00  0.00    -0.328 C  
HETATM    7  O   UNL     1      -8.679   6.663  70.424  1.00  0.00    -0.147 OA 
HETATM    8  C   UNL     1     -10.458   5.711  69.471  1.00  0.00    -0.372 C  
HETATM    9  C   UNL     1     -10.397   4.835  72.252  1.00  0.00    -0.264 C  
HETATM   10  C   UNL     1     -10.218   9.849  66.993  1.00  0.00    -0.294 A  
HETATM   11  H   UNL     1      -7.758   6.809  70.604  1.00  0.00     0.000 HD 
HETATM   12  C   UNL     1     -10.309   7.234  68.601  1.00  0.00    -0.208 C  
HETATM   13  C   UNL     1     -11.018   8.664  69.119  1.00  0.00     0.041 C  
HETATM   14  C   UNL     1     -10.684   9.927  68.316  1.00  0.00    -0.276 A  
HETATM   15  C   UNL     1     -11.031  11.200  68.822  1.00  0.00    -0.268 A  
HETATM   16  C   UNL     1     -10.831  12.352  68.032  1.00  0.00    -0.251 A  
HETATM   17  C   UNL     1     -11.612  11.418  70.204  1.00  0.00    -0.368 C  
HETATM   18  C   UNL     1     -12.109  10.163  70.914  1.00  0.00    -0.453 C  
HETATM   19  C   UNL     1     -10.338  12.260  66.734  1.00  0.00    -0.217 A  
HETATM   20  C   UNL     1     -10.048  11.001  66.216  1.00  0.00    -0.282 A  
ENDROOT
BRANCH   4  21
HETATM   21  C   UNL     1      -9.173   7.460  72.468  1.00  0.00    -0.179 C  
HETATM   22  C   UNL     1      -8.681   7.740  73.541  1.00  0.00    -0.296 C  
ENDBRANCH   4  21
BRANCH  19  23
HETATM   23  O   UNL     1     -10.116  13.309  65.883  1.00  0.00    -0.285 OA 
HETATM   24  C   UNL     1     -10.067  13.004  64.494  1.00  0.00    -0.230 C  
ENDBRANCH  19  23
TORSDOF 2
ENDMDL
MODEL       32
REMARK 921   NORMALIZED FREE ENERGY PREDICTED BY IDOCK:   -5.60 KCAL/MOL
REMARK 922        TOTAL FREE ENERGY PREDICTED BY IDOCK:   -6.31 KCAL/MOL
REMARK 923 INTER-LIGAND FREE ENERGY PREDICTED BY IDOCK:   -6.25 KCAL/MOL
REMARK 924 INTRA-LIGAND FREE ENERGY PREDICTED BY IDOCK:   -0.06 KCAL/MOL
REMARK 927      BINDING AFFINITY PREDICTED BY RF-SCORE:    0.00 PKD
ROOT
HETATM    1  C   UNL     1     -11.091   7.586  71.600  1.00  0.00    -0.270 C  
HETATM    2  C   UNL     1     -12.437   7.149  71.535  1.00  0.00    -0.418 C  
HETATM    3  C   UNL     1     -11.523   6.588  70.512  1.00  0.00    -0.448 C  
HETATM    4  C   UNL     1      -9.526   6.986  70.808  1.00  0.00    -0.161 C  
HETATM    5  C   UNL     1     -10.240   5.882  71.185  1.00  0.00    -0.266 C  
HETATM    6  C   UNL     1     -10.821   8.809  70.243  1.00  0.00    -0.252 C  
HETATM    7  O   UNL     1      -8.368   6.457  70.158  1.00  0.00    -0.129 OA 
HETATM    8  C   UNL     1     -10.147   5.357  69.382  1.00  0.00    -0.304 C  
HETATM    9  C   UNL     1     -10.005   4.850  72.250  1.00  0.00    -0.232 C  
HETATM   10  C   UNL     1     -10.052   9.143  66.384  1.00  0.00    -0.345 A  
HETATM   11  H   UNL     1      -7.446   6.641  70.295  1.00  0.00     0.000 HD 
HETATM   12  C   UNL     1     -10.051   6.757  68.319  1.00  0.00    -0.173 C  
HETATM   13  C   UNL     1     -10.777   8.229  68.665  1.00  0.00    -0.068 C  
HETATM   14  C   UNL     1     -10.489   9.383  67.697  1.00  0.00    -0.328 A  
HETATM   15  C   UNL     1     -10.852  10.705  68.044  1.00  0.00    -0.309 A  
HETATM   16  C   UNL     1     -10.694  11.748  67.107  1.00  0.00    -0.283 A  
HETATM   17  C   UNL     1     -11.405  11.089  69.400  1.00  0.00    -0.352 C  
HETATM   18  C   UNL     1     -11.860   9.927  70.279  1.00  0.00    -0.255 C  
HETATM   19  C   UNL     1     -10.229  11.497  65.819  1.00  0.00    -0.249 A  
HETATM   20  C   UNL     1      -9.924  10.187  65.461  1.00  0.00    -0.363 A  
ENDROOT
BRANCH   4  21
HETATM   21  C   UNL     1      -8.832   7.503  72.094  1.00  0.00    -0.153 C  
HETATM   22  C   UNL     1      -8.279   7.942  73.081  1.00  0.00    -0.221 C  
ENDBRANCH   4  21
BRANCH  19  23
HETATM   23  O   UNL     1     -10.049  12.431  64.835  1.00  0.00    -0.274 OA 
HETATM   24  C   UNL     1     -10.003  11.947  63.498  1.00  0.00    -0.400 C  
ENDBRANCH  19  23
TORSDOF 2
ENDMDL
MODEL       33
REMARK 921   NORMALIZED FREE ENERGY PREDICTED BY IDOCK:   -5.60 KCAL/MOL
REMARK 922        TOTAL FREE ENERGY PREDICTED BY IDOCK:   -6.31 KCAL/MOL
REMARK 923 INTER-LIGAND FREE ENERGY PREDICTED BY IDOCK:   -6.28 KCAL/MOL
REMARK 924 INTRA-LIGAND FREE ENERGY PREDICTED BY IDOCK:   -0.03 KCAL/MOL
REMARK 927      BINDING AFFINITY PREDICTED BY RF-SCORE:    0.00 PKD
ROOT
HETATM    1  C   UNL     1     -11.432  14.227  68.016  1.00  0.00    -0.342 C  
HETATM    2  C   UNL     1     -11.067  15.069  69.097  1.00  0.00    -0.278 C  
HETATM    3  C   UNL     1      -9.950  14.391  68.396  1.00  0.00    -0.241 C  
HETATM    4  C   UNL     1     -10.464  13.429  66.652  1.00  0.00    -0.280 C  
HETATM    5  C   UNL     1      -9.970  14.694  66.813  1.00  0.00    -0.265 C  
HETATM    6  C   UNL     1     -11.290  12.476  68.582  1.00  0.00    -0.329 C  
HETATM    7  O   UNL     1      -9.644  12.853  65.633  1.00  0.00    -0.443 OA 
HETATM    8  C   UNL     1      -8.301  13.874  67.093  1.00  0.00    -0.171 C  
HETATM    9  C   UNL     1     -10.037  15.917  65.945  1.00  0.00    -0.376 C  
HETATM   10  C   UNL     1      -8.726   9.527  69.152  1.00  0.00    -0.146 A  
HETATM   11  H   UNL     1      -9.881  12.409  64.828  1.00  0.00     0.000 HD 
HETATM   12  C   UNL     1      -8.492  12.268  67.786  1.00  0.00    -0.163 C  
HETATM   13  C   UNL     1      -9.745  11.854  68.821  1.00  0.00    -0.051 C  
HETATM   14  C   UNL     1      -9.839  10.379  69.233  1.00  0.00    -0.243 A  
HETATM   15  C   UNL     1     -10.994   9.901  69.892  1.00  0.00    -0.321 A  
HETATM   16  C   UNL     1     -11.033   8.576  70.374  1.00  0.00    -0.254 A  
HETATM   17  C   UNL     1     -12.236  10.739  70.112  1.00  0.00    -0.425 C  
HETATM   18  C   UNL     1     -12.071  12.237  69.873  1.00  0.00    -0.319 C  
HETATM   19  C   UNL     1      -9.931   7.733  70.258  1.00  0.00    -0.189 A  
HETATM   20  C   UNL     1      -8.775   8.222  69.657  1.00  0.00    -0.138 A  
ENDROOT
BRANCH   4  21
HETATM   21  C   UNL     1     -11.762  13.583  65.819  1.00  0.00    -0.371 C  
HETATM   22  C   UNL     1     -12.758  13.728  65.141  1.00  0.00    -0.439 C  
ENDBRANCH   4  21
BRANCH  19  23
HETATM   23  O   UNL     1      -9.860   6.439  70.698  1.00  0.00    -0.181 OA 
HETATM   24  C   UNL     1     -10.586   5.470  69.951  1.00  0.00    -0.317 C  
ENDBRANCH  19  23
TORSDOF 2
ENDMDL
MODEL       34
REMARK 921   NORMALIZED FREE ENERGY PREDICTED BY IDOCK:   -5.59 KCAL/MOL
REMARK 922        TOTAL FREE ENERGY PREDICTED BY IDOCK:   -6.30 KCAL/MOL
REMARK 923 INTER-LIGAND FREE ENERGY PREDICTED BY IDOCK:   -6.27 KCAL/MOL
REMARK 924 INTRA-LIGAND FREE ENERGY PREDICTED BY IDOCK:   -0.02 KCAL/MOL
REMARK 927      BINDING AFFINITY PREDICTED BY RF-SCORE:    0.00 PKD
ROOT
HETATM    1  C   UNL     1     -10.068  13.517  66.083  1.00  0.00    -0.307 C  
HETATM    2  C   UNL     1     -11.183  13.502  65.209  1.00  0.00    -0.304 C  
HETATM    3  C   UNL     1     -11.487  13.711  66.645  1.00  0.00    -0.365 C  
HETATM    4  C   UNL     1      -9.852  14.039  67.849  1.00  0.00    -0.233 C  
HETATM    5  C   UNL     1     -10.667  14.959  67.251  1.00  0.00    -0.294 C  
HETATM    6  C   UNL     1     -10.028  11.907  66.986  1.00  0.00    -0.219 C  
HETATM    7  O   UNL     1      -9.772  14.464  69.211  1.00  0.00    -0.408 OA 
HETATM    8  C   UNL     1     -11.915  14.545  68.596  1.00  0.00    -0.320 C  
HETATM    9  C   UNL     1     -10.455  16.399  66.882  1.00  0.00    -0.289 C  
HETATM   10  C   UNL     1     -11.573   9.953  70.051  1.00  0.00    -0.235 A  
HETATM   11  H   UNL     1      -9.017  14.615  69.767  1.00  0.00     0.000 HD 
HETATM   12  C   UNL     1     -11.724  12.885  69.149  1.00  0.00    -0.376 C  
HETATM   13  C   UNL     1     -11.208  11.636  68.154  1.00  0.00    -0.325 C  
HETATM   14  C   UNL     1     -10.971  10.277  68.824  1.00  0.00    -0.285 A  
HETATM   15  C   UNL     1     -10.305   9.248  68.120  1.00  0.00    -0.261 A  
HETATM   16  C   UNL     1     -10.191   7.963  68.691  1.00  0.00    -0.223 A  
HETATM   17  C   UNL     1      -9.677   9.443  66.756  1.00  0.00    -0.257 C  
HETATM   18  C   UNL     1     -10.073  10.722  66.024  1.00  0.00    -0.305 C  
HETATM   19  C   UNL     1     -10.766   7.667  69.924  1.00  0.00    -0.249 A  
HETATM   20  C   UNL     1     -11.469   8.666  70.592  1.00  0.00    -0.256 A  
ENDROOT
BRANCH   4  21
HETATM   21  C   UNL     1      -8.408  14.411  67.425  1.00  0.00    -0.216 C  
HETATM   22  C   UNL     1      -7.289  14.742  67.092  1.00  0.00    -0.020 C  
ENDBRANCH   4  21
BRANCH  19  23
HETATM   23  O   UNL     1     -10.723   6.456  70.560  1.00  0.00    -0.227 OA 
HETATM   24  C   UNL     1     -10.398   5.326  69.758  1.00  0.00    -0.299 C  
ENDBRANCH  19  23
TORSDOF 2
ENDMDL
MODEL       35
REMARK 921   NORMALIZED FREE ENERGY PREDICTED BY IDOCK:   -5.58 KCAL/MOL
REMARK 922        TOTAL FREE ENERGY PREDICTED BY IDOCK:   -6.29 KCAL/MOL
REMARK 923 INTER-LIGAND FREE ENERGY PREDICTED BY IDOCK:   -6.23 KCAL/MOL
REMARK 924 INTRA-LIGAND FREE ENERGY PREDICTED BY IDOCK:   -0.05 KCAL/MOL
REMARK 927      BINDING AFFINITY PREDICTED BY RF-SCORE:    0.00 PKD
ROOT
HETATM    1  C   UNL     1      -9.745   8.091  68.107  1.00  0.00    -0.179 C  
HETATM    2  C   UNL     1     -10.874   7.336  67.701  1.00  0.00    -0.251 C  
HETATM    3  C   UNL     1     -10.513   8.482  66.832  1.00  0.00    -0.345 C  
HETATM    4  C   UNL     1      -8.707   9.371  67.257  1.00  0.00    -0.128 C  
HETATM    5  C   UNL     1      -8.982   8.396  66.338  1.00  0.00    -0.207 C  
HETATM    6  C   UNL     1     -10.350   9.671  68.846  1.00  0.00    -0.220 C  
HETATM    7  O   UNL     1      -7.958  10.346  66.528  1.00  0.00    -0.115 OA 
HETATM    8  C   UNL     1      -9.717   9.768  65.283  1.00  0.00    -0.371 C  
HETATM    9  C   UNL     1      -8.112   7.365  65.678  1.00  0.00    -0.129 C  
HETATM   10  C   UNL     1     -11.636  13.299  67.961  1.00  0.00    -0.371 A  
HETATM   11  H   UNL     1      -7.125  10.756  66.725  1.00  0.00     0.000 HD 
HETATM   12  C   UNL     1     -10.351  11.067  66.286  1.00  0.00    -0.304 C  
HETATM   13  C   UNL     1     -11.010  10.819  67.809  1.00  0.00    -0.354 C  
HETATM   14  C   UNL     1     -11.399  12.072  68.603  1.00  0.00    -0.329 A  
HETATM   15  C   UNL     1     -11.723  11.968  69.975  1.00  0.00    -0.346 A  
HETATM   16  C   UNL     1     -12.193  13.099  70.676  1.00  0.00    -0.402 A  
HETATM   17  C   UNL     1     -11.585  10.686  70.769  1.00  0.00    -0.388 C  
HETATM   18  C   UNL     1     -11.381   9.419  69.945  1.00  0.00    -0.121 C  
HETATM   19  C   UNL     1     -12.392  14.316  70.031  1.00  0.00    -0.346 A  
HETATM   20  C   UNL     1     -12.125  14.404  68.668  1.00  0.00    -0.274 A  
ENDROOT
BRANCH   4  21
HETATM   21  C   UNL     1      -7.549   8.820  68.128  1.00  0.00    -0.097 C  
HETATM   22  C   UNL     1      -6.630   8.428  68.815  1.00  0.00    -0.054 C  
ENDBRANCH   4  21
BRANCH  19  23
HETATM   23  O   UNL     1     -12.852  15.466  70.613  1.00  0.00    -0.432 OA 
HETATM   24  C   UNL     1     -12.050  16.021  71.649  1.00  0.00    -0.472 C  
ENDBRANCH  19  23
TORSDOF 2
ENDMDL
MODEL       36
REMARK 921   NORMALIZED FREE ENERGY PREDICTED BY IDOCK:   -5.57 KCAL/MOL
REMARK 922        TOTAL FREE ENERGY PREDICTED BY IDOCK:   -6.27 KCAL/MOL
REMARK 923 INTER-LIGAND FREE ENERGY PREDICTED BY IDOCK:   -6.22 KCAL/MOL
REMARK 924 INTRA-LIGAND FREE ENERGY PREDICTED BY IDOCK:   -0.05 KCAL/MOL
REMARK 927      BINDING AFFINITY PREDICTED BY RF-SCORE:    0.00 PKD
ROOT
HETATM    1  C   UNL     1      -9.239  12.894  67.111  1.00  0.00    -0.225 C  
HETATM    2  C   UNL     1      -8.747  12.381  68.337  1.00  0.00    -0.132 C  
HETATM    3  C   UNL     1      -9.955  13.235  68.430  1.00  0.00    -0.226 C  
HETATM    4  C   UNL     1     -10.831  13.713  66.630  1.00  0.00    -0.283 C  
HETATM    5  C   UNL     1     -11.142  12.692  67.484  1.00  0.00    -0.313 C  
HETATM    6  C   UNL     1      -8.771  14.677  67.009  1.00  0.00    -0.258 C  
HETATM    7  O   UNL     1     -12.086  14.334  66.344  1.00  0.00    -0.422 OA 
HETATM    8  C   UNL     1     -11.977  13.999  68.547  1.00  0.00    -0.383 C  
HETATM    9  C   UNL     1     -11.842  11.381  67.270  1.00  0.00     0.032 C  
HETATM   10  C   UNL     1      -9.812  18.300  68.186  1.00  0.00    -0.356 A  
HETATM   11  H   UNL     1     -12.490  14.554  65.514  1.00  0.00     0.000 HD 
HETATM   12  C   UNL     1     -11.205  15.567  68.346  1.00  0.00    -0.341 C  
HETATM   13  C   UNL     1      -9.569  15.755  68.024  1.00  0.00    -0.210 C  
HETATM   14  C   UNL     1      -9.082  17.183  67.749  1.00  0.00    -0.233 A  
HETATM   15  C   UNL     1      -7.785  17.400  67.229  1.00  0.00    -0.221 A  
HETATM   16  C   UNL     1      -7.294  18.715  67.087  1.00  0.00    -0.218 A  
HETATM   17  C   UNL     1      -6.865  16.280  66.791  1.00  0.00    -0.123 C  
HETATM   18  C   UNL     1      -7.274  14.879  67.234  1.00  0.00    -0.142 C  
HETATM   19  C   UNL     1      -8.045  19.814  67.495  1.00  0.00    -0.302 A  
HETATM   20  C   UNL     1      -9.299  19.597  68.058  1.00  0.00    -0.425 A  
ENDROOT
BRANCH   4  21
HETATM   21  C   UNL     1     -10.599  13.054  65.246  1.00  0.00    -0.320 C  
HETATM   22  C   UNL     1     -10.457  12.546  64.154  1.00  0.00    -0.429 C  
ENDBRANCH   4  21
BRANCH  19  23
HETATM   23  O   UNL     1      -7.660  21.124  67.411  1.00  0.00    -0.380 OA 
HETATM   24  C   UNL     1      -6.297  21.369  67.083  1.00  0.00    -0.312 C  
ENDBRANCH  19  23
TORSDOF 2
ENDMDL
MODEL       37
REMARK 921   NORMALIZED FREE ENERGY PREDICTED BY IDOCK:   -5.56 KCAL/MOL
REMARK 922        TOTAL FREE ENERGY PREDICTED BY IDOCK:   -6.27 KCAL/MOL
REMARK 923 INTER-LIGAND FREE ENERGY PREDICTED BY IDOCK:   -6.25 KCAL/MOL
REMARK 924 INTRA-LIGAND FREE ENERGY PREDICTED BY IDOCK:   -0.01 KCAL/MOL
REMARK 927      BINDING AFFINITY PREDICTED BY RF-SCORE:    0.00 PKD
ROOT
HETATM    1  C   UNL     1      -8.976   8.097  69.704  1.00  0.00    -0.154 C  
HETATM    2  C   UNL     1      -7.901   8.627  70.460  1.00  0.00    -0.096 C  
HETATM    3  C   UNL     1      -9.257   9.084  70.851  1.00  0.00    -0.320 C  
HETATM    4  C   UNL     1     -10.813   8.076  69.958  1.00  0.00    -0.235 C  
HETATM    5  C   UNL     1     -10.233   7.843  71.174  1.00  0.00    -0.221 C  
HETATM    6  C   UNL     1      -9.566   9.410  68.549  1.00  0.00    -0.154 C  
HETATM    7  O   UNL     1     -12.215   8.104  70.231  1.00  0.00    -0.339 OA 
HETATM    8  C   UNL     1     -11.194   9.340  71.782  1.00  0.00    -0.413 C  
HETATM    9  C   UNL     1     -10.178   6.619  72.042  1.00  0.00    -0.206 C  
HETATM   10  C   UNL     1     -11.846  12.626  68.304  1.00  0.00    -0.354 A  
HETATM   11  H   UNL     1     -12.933   7.639  69.819  1.00  0.00     0.000 HD 
HETATM   12  C   UNL     1     -11.469  10.489  70.478  1.00  0.00    -0.433 C  
HETATM   13  C   UNL     1     -10.397  10.716  69.208  1.00  0.00    -0.240 C  
HETATM   14  C   UNL     1     -10.848  11.662  68.088  1.00  0.00    -0.260 A  
HETATM   15  C   UNL     1     -10.125  11.716  66.874  1.00  0.00    -0.238 A  
HETATM   16  C   UNL     1     -10.469  12.668  65.891  1.00  0.00    -0.295 A  
HETATM   17  C   UNL     1      -8.978  10.784  66.545  1.00  0.00    -0.168 C  
HETATM   18  C   UNL     1      -8.420   9.985  67.718  1.00  0.00    -0.114 C  
HETATM   19  C   UNL     1     -11.483  13.596  66.109  1.00  0.00    -0.325 A  
HETATM   20  C   UNL     1     -12.158  13.577  67.325  1.00  0.00    -0.367 A  
ENDROOT
BRANCH   4  21
HETATM   21  C   UNL     1     -10.770   6.724  69.200  1.00  0.00    -0.287 C  
HETATM   22  C   UNL     1     -10.703   5.680  68.587  1.00  0.00    -0.249 C  
ENDBRANCH   4  21
BRANCH  19  23
HETATM   23  O   UNL     1     -11.888  14.563  65.229  1.00  0.00    -0.356 OA 
HETATM   24  C   UNL     1     -10.956  15.601  64.949  1.00  0.00    -0.431 C  
ENDBRANCH  19  23
TORSDOF 2
ENDMDL
MODEL       38
REMARK 921   NORMALIZED FREE ENERGY PREDICTED BY IDOCK:   -5.53 KCAL/MOL
REMARK 922        TOTAL FREE ENERGY PREDICTED BY IDOCK:   -6.23 KCAL/MOL
REMARK 923 INTER-LIGAND FREE ENERGY PREDICTED BY IDOCK:   -6.21 KCAL/MOL
REMARK 924 INTRA-LIGAND FREE ENERGY PREDICTED BY IDOCK:   -0.03 KCAL/MOL
REMARK 927      BINDING AFFINITY PREDICTED BY RF-SCORE:    0.00 PKD
ROOT
HETATM    1  C   UNL     1      -9.878  11.977  66.767  1.00  0.00    -0.218 C  
HETATM    2  C   UNL     1     -10.858  11.591  65.819  1.00  0.00    -0.319 C  
HETATM    3  C   UNL     1     -11.371  12.151  67.093  1.00  0.00    -0.393 C  
HETATM    4  C   UNL     1      -9.948  12.988  68.320  1.00  0.00    -0.235 C  
HETATM    5  C   UNL     1     -10.746  13.605  67.398  1.00  0.00    -0.272 C  
HETATM    6  C   UNL     1      -9.830  10.696  68.095  1.00  0.00    -0.170 C  
HETATM    7  O   UNL     1     -10.089  13.779  69.502  1.00  0.00    -0.313 OA 
HETATM    8  C   UNL     1     -12.128  13.436  68.662  1.00  0.00    -0.281 C  
HETATM    9  C   UNL     1     -10.604  14.901  66.653  1.00  0.00    -0.305 C  
HETATM   10  C   UNL     1     -11.613   9.498  71.409  1.00  0.00    -0.466 A  
HETATM   11  H   UNL     1      -9.432  14.165  70.068  1.00  0.00     0.000 HD 
HETATM   12  C   UNL     1     -11.879  12.028  69.688  1.00  0.00    -0.401 C  
HETATM   13  C   UNL     1     -11.132  10.622  69.158  1.00  0.00    -0.309 C  
HETATM   14  C   UNL     1     -10.878   9.538  70.213  1.00  0.00    -0.319 A  
HETATM   15  C   UNL     1     -10.041   8.440  69.911  1.00  0.00    -0.195 A  
HETATM   16  C   UNL     1      -9.901   7.385  70.838  1.00  0.00    -0.177 A  
HETATM   17  C   UNL     1      -9.251   8.322  68.625  1.00  0.00    -0.143 C  
HETATM   18  C   UNL     1      -9.647   9.294  67.517  1.00  0.00    -0.184 C  
HETATM   19  C   UNL     1     -10.613   7.376  72.034  1.00  0.00    -0.208 A  
HETATM   20  C   UNL     1     -11.479   8.431  72.306  1.00  0.00    -0.454 A  
ENDROOT
BRANCH   4  21
HETATM   21  C   UNL     1      -8.495  13.395  67.963  1.00  0.00    -0.173 C  
HETATM   22  C   UNL     1      -7.371  13.752  67.679  1.00  0.00    -0.182 C  
ENDBRANCH   4  21
BRANCH  19  23
HETATM   23  O   UNL     1     -10.558   6.401  72.993  1.00  0.00    -0.216 OA 
HETATM   24  C   UNL     1     -11.534   5.370  72.911  1.00  0.00    -0.275 C  
ENDBRANCH  19  23
TORSDOF 2
ENDMDL
MODEL       39
REMARK 921   NORMALIZED FREE ENERGY PREDICTED BY IDOCK:   -5.52 KCAL/MOL
REMARK 922        TOTAL FREE ENERGY PREDICTED BY IDOCK:   -6.22 KCAL/MOL
REMARK 923 INTER-LIGAND FREE ENERGY PREDICTED BY IDOCK:   -6.20 KCAL/MOL
REMARK 924 INTRA-LIGAND FREE ENERGY PREDICTED BY IDOCK:   -0.03 KCAL/MOL
REMARK 927      BINDING AFFINITY PREDICTED BY RF-SCORE:    0.00 PKD
ROOT
HETATM    1  C   UNL     1      -8.365  17.592  69.196  1.00  0.00     0.096 C  
HETATM    2  C   UNL     1      -7.237  16.813  69.557  1.00  0.00     0.017 C  
HETATM    3  C   UNL     1      -7.343  17.177  68.123  1.00  0.00    -0.202 C  
HETATM    4  C   UNL     1      -8.802  18.556  67.674  1.00  0.00    -0.271 C  
HETATM    5  C   UNL     1      -7.475  18.770  67.922  1.00  0.00    -0.262 C  
HETATM    6  C   UNL     1      -9.574  16.489  68.343  1.00  0.00    -0.233 C  
HETATM    7  O   UNL     1      -9.060  19.275  66.466  1.00  0.00    -0.323 OA 
HETATM    8  C   UNL     1      -7.171  18.122  66.183  1.00  0.00    -0.316 C  
HETATM    9  C   UNL     1      -6.722  19.986  68.381  1.00  0.00    -0.337 C  
HETATM   10  C   UNL     1     -10.442  14.821  64.870  1.00  0.00    -0.398 A  
HETATM   11  H   UNL     1      -9.734  19.912  66.259  1.00  0.00     0.000 HD 
HETATM   12  C   UNL     1      -8.414  16.969  65.711  1.00  0.00     0.214 C  
HETATM   13  C   UNL     1      -9.187  15.951  66.797  1.00  0.00    -0.264 C  
HETATM   14  C   UNL     1     -10.336  15.099  66.243  1.00  0.00    -0.303 A  
HETATM   15  C   UNL     1     -11.195  14.408  67.128  1.00  0.00    -0.337 A  
HETATM   16  C   UNL     1     -12.177  13.533  66.617  1.00  0.00    -0.411 A  
HETATM   17  C   UNL     1     -11.138  14.559  68.634  1.00  0.00    -0.272 C  
HETATM   18  C   UNL     1      -9.892  15.250  69.179  1.00  0.00    -0.239 C  
HETATM   19  C   UNL     1     -12.290  13.293  65.251  1.00  0.00    -0.476 A  
HETATM   20  C   UNL     1     -11.407  13.931  64.384  1.00  0.00    -0.352 A  
ENDROOT
BRANCH   4  21
HETATM   21  C   UNL     1      -9.572  19.488  68.645  1.00  0.00    -0.483 C  
HETATM   22  C   UNL     1     -10.138  20.231  69.419  1.00  0.00     0.033 C  
ENDBRANCH   4  21
BRANCH  19  23
HETATM   23  O   UNL     1     -13.196  12.459  64.655  1.00  0.00    -0.822 OA 
HETATM   24  C   UNL     1     -12.819  11.898  63.402  1.00  0.00    -0.256 C  
ENDBRANCH  19  23
TORSDOF 2
ENDMDL
MODEL       40
REMARK 921   NORMALIZED FREE ENERGY PREDICTED BY IDOCK:   -5.51 KCAL/MOL
REMARK 922        TOTAL FREE ENERGY PREDICTED BY IDOCK:   -6.21 KCAL/MOL
REMARK 923 INTER-LIGAND FREE ENERGY PREDICTED BY IDOCK:   -6.16 KCAL/MOL
REMARK 924 INTRA-LIGAND FREE ENERGY PREDICTED BY IDOCK:   -0.05 KCAL/MOL
REMARK 927      BINDING AFFINITY PREDICTED BY RF-SCORE:    0.00 PKD
ROOT
HETATM    1  C   UNL     1     -11.815  13.846  67.660  1.00  0.00    -0.422 C  
HETATM    2  C   UNL     1     -11.721  14.845  68.660  1.00  0.00    -0.358 C  
HETATM    3  C   UNL     1     -10.435  14.367  68.098  1.00  0.00    -0.237 C  
HETATM    4  C   UNL     1     -10.598  13.155  66.444  1.00  0.00    -0.286 C  
HETATM    5  C   UNL     1     -10.399  14.507  66.493  1.00  0.00    -0.283 C  
HETATM    6  C   UNL     1     -11.345  12.230  68.419  1.00  0.00    -0.340 C  
HETATM    7  O   UNL     1      -9.598  12.680  65.539  1.00  0.00    -0.434 OA 
HETATM    8  C   UNL     1      -8.619  14.105  66.949  1.00  0.00    -0.157 C  
HETATM    9  C   UNL     1     -10.659  15.597  65.494  1.00  0.00    -0.422 C  
HETATM   10  C   UNL     1      -8.262   9.985  69.443  1.00  0.00    -0.158 A  
HETATM   11  H   UNL     1      -9.674  12.121  64.775  1.00  0.00     0.000 HD 
HETATM   12  C   UNL     1      -8.515  12.568  67.801  1.00  0.00    -0.171 C  
HETATM   13  C   UNL     1      -9.726  11.988  68.807  1.00  0.00    -0.029 C  
HETATM   14  C   UNL     1      -9.534  10.575  69.370  1.00  0.00    -0.158 A  
HETATM   15  C   UNL     1     -10.607   9.918  70.015  1.00  0.00    -0.335 A  
HETATM   16  C   UNL     1     -10.398   8.668  70.635  1.00  0.00    -0.241 A  
HETATM   17  C   UNL     1     -12.012  10.479  70.075  1.00  0.00    -0.367 C  
HETATM   18  C   UNL     1     -12.153  11.947  69.684  1.00  0.00    -0.304 C  
HETATM   19  C   UNL     1      -9.136   8.082  70.670  1.00  0.00    -0.153 A  
HETATM   20  C   UNL     1      -8.069   8.755  70.083  1.00  0.00    -0.114 A  
ENDROOT
BRANCH   4  21
HETATM   21  C   UNL     1     -11.832  12.940  65.531  1.00  0.00    -0.455 C  
HETATM   22  C   UNL     1     -12.772  12.760  64.786  1.00  0.00    -0.469 C  
ENDBRANCH   4  21
BRANCH  19  23
HETATM   23  O   UNL     1      -8.825   6.883  71.252  1.00  0.00    -0.134 OA 
HETATM   24  C   UNL     1      -8.598   5.787  70.373  1.00  0.00    -0.133 C  
ENDBRANCH  19  23
TORSDOF 2
ENDMDL
MODEL       41
REMARK 921   NORMALIZED FREE ENERGY PREDICTED BY IDOCK:   -5.45 KCAL/MOL
REMARK 922        TOTAL FREE ENERGY PREDICTED BY IDOCK:   -6.15 KCAL/MOL
REMARK 923 INTER-LIGAND FREE ENERGY PREDICTED BY IDOCK:   -6.09 KCAL/MOL
REMARK 924 INTRA-LIGAND FREE ENERGY PREDICTED BY IDOCK:   -0.06 KCAL/MOL
REMARK 927      BINDING AFFINITY PREDICTED BY RF-SCORE:    0.00 PKD
ROOT
HETATM    1  C   UNL     1     -10.232   7.031  70.031  1.00  0.00    -0.206 C  
HETATM    2  C   UNL     1     -11.476   6.353  69.989  1.00  0.00    -0.496 C  
HETATM    3  C   UNL     1     -10.881   6.698  68.676  1.00  0.00    -0.319 C  
HETATM    4  C   UNL     1      -8.947   7.396  68.746  1.00  0.00    -0.129 C  
HETATM    5  C   UNL     1      -9.384   6.118  68.531  1.00  0.00    -0.117 C  
HETATM    6  C   UNL     1     -10.537   8.809  69.636  1.00  0.00    -0.220 C  
HETATM    7  O   UNL     1      -8.007   7.633  67.695  1.00  0.00    -0.117 OA 
HETATM    8  C   UNL     1      -9.815   6.689  66.792  1.00  0.00    -0.227 C  
HETATM    9  C   UNL     1      -8.716   4.785  68.708  1.00  0.00    -0.109 C  
HETATM   10  C   UNL     1     -11.075  11.349  66.660  1.00  0.00    -0.333 A  
HETATM   11  H   UNL     1      -7.114   7.955  67.728  1.00  0.00     0.000 HD 
HETATM   12  C   UNL     1     -10.208   8.404  66.767  1.00  0.00    -0.376 C  
HETATM   13  C   UNL     1     -10.937   9.201  68.050  1.00  0.00    -0.032 C  
HETATM   14  C   UNL     1     -11.094  10.721  67.917  1.00  0.00    -0.369 A  
HETATM   15  C   UNL     1     -11.464  11.496  69.040  1.00  0.00    -0.355 A  
HETATM   16  C   UNL     1     -11.722  12.874  68.891  1.00  0.00    -0.370 A  
HETATM   17  C   UNL     1     -11.595  10.928  70.437  1.00  0.00    -0.418 C  
HETATM   18  C   UNL     1     -11.622   9.405  70.530  1.00  0.00    -0.291 C  
HETATM   19  C   UNL     1     -11.667  13.488  67.643  1.00  0.00    -0.363 A  
HETATM   20  C   UNL     1     -11.356  12.714  66.529  1.00  0.00    -0.377 A  
ENDROOT
BRANCH   4  21
HETATM   21  C   UNL     1      -7.938   7.308  69.919  1.00  0.00    -0.122 C  
HETATM   22  C   UNL     1      -7.118   7.250  70.811  1.00  0.00    -0.065 C  
ENDBRANCH   4  21
BRANCH  19  23
HETATM   23  O   UNL     1     -11.908  14.811  67.388  1.00  0.00    -0.377 OA 
HETATM   24  C   UNL     1     -10.816  15.574  66.888  1.00  0.00    -0.301 C  
ENDBRANCH  19  23
TORSDOF 2
ENDMDL
MODEL       42
REMARK 921   NORMALIZED FREE ENERGY PREDICTED BY IDOCK:   -5.35 KCAL/MOL
REMARK 922        TOTAL FREE ENERGY PREDICTED BY IDOCK:   -6.03 KCAL/MOL
REMARK 923 INTER-LIGAND FREE ENERGY PREDICTED BY IDOCK:   -5.98 KCAL/MOL
REMARK 924 INTRA-LIGAND FREE ENERGY PREDICTED BY IDOCK:   -0.05 KCAL/MOL
REMARK 927      BINDING AFFINITY PREDICTED BY RF-SCORE:    0.00 PKD
ROOT
HETATM    1  C   UNL     1      -9.205  18.408  68.300  1.00  0.00    -0.333 C  
HETATM    2  C   UNL     1      -8.233  18.602  69.313  1.00  0.00     0.131 C  
HETATM    3  C   UNL     1      -7.915  17.569  68.297  1.00  0.00    -0.259 C  
HETATM    4  C   UNL     1      -9.178  17.518  66.674  1.00  0.00    -0.262 C  
HETATM    5  C   UNL     1      -7.981  18.167  66.801  1.00  0.00    -0.262 C  
HETATM    6  C   UNL     1     -10.113  16.844  68.671  1.00  0.00    -0.291 C  
HETATM    7  O   UNL     1      -9.071  16.812  65.435  1.00  0.00    -0.216 OA 
HETATM    8  C   UNL     1      -7.183  16.479  66.576  1.00  0.00    -0.187 C  
HETATM    9  C   UNL     1      -7.395  19.344  66.078  1.00  0.00    -0.306 C  
HETATM   10  C   UNL     1      -9.929  12.914  68.327  1.00  0.00    -0.234 A  
HETATM   11  H   UNL     1      -9.654  16.788  64.687  1.00  0.00     0.000 HD 
HETATM   12  C   UNL     1      -8.234  15.197  67.167  1.00  0.00    -0.251 C  
HETATM   13  C   UNL     1      -9.292  15.392  68.454  1.00  0.00    -0.193 C  
HETATM   14  C   UNL     1     -10.229  14.217  68.759  1.00  0.00    -0.216 A  
HETATM   15  C   UNL     1     -11.310  14.387  69.653  1.00  0.00    -0.309 A  
HETATM   16  C   UNL     1     -12.100  13.278  70.024  1.00  0.00    -0.385 A  
HETATM   17  C   UNL     1     -11.695  15.724  70.251  1.00  0.00    -0.373 C  
HETATM   18  C   UNL     1     -10.662  16.837  70.096  1.00  0.00     0.016 C  
HETATM   19  C   UNL     1     -11.808  11.998  69.561  1.00  0.00    -0.326 A  
HETATM   20  C   UNL     1     -10.711  11.822  68.724  1.00  0.00    -0.255 A  
ENDROOT
BRANCH   4  21
HETATM   21  C   UNL     1     -10.197  18.594  66.218  1.00  0.00    -0.462 C  
HETATM   22  C   UNL     1     -11.018  19.405  65.845  1.00  0.00    -0.253 C  
ENDBRANCH   4  21
BRANCH  19  23
HETATM   23  O   UNL     1     -12.501  10.858  69.866  1.00  0.00    -0.319 OA 
HETATM   24  C   UNL     1     -12.882  10.686  71.226  1.00  0.00    -0.434 C  
ENDBRANCH  19  23
TORSDOF 2
ENDMDL
MODEL       43
REMARK 921   NORMALIZED FREE ENERGY PREDICTED BY IDOCK:   -5.32 KCAL/MOL
REMARK 922        TOTAL FREE ENERGY PREDICTED BY IDOCK:   -6.00 KCAL/MOL
REMARK 923 INTER-LIGAND FREE ENERGY PREDICTED BY IDOCK:   -5.96 KCAL/MOL
REMARK 924 INTRA-LIGAND FREE ENERGY PREDICTED BY IDOCK:   -0.05 KCAL/MOL
REMARK 927      BINDING AFFINITY PREDICTED BY RF-SCORE:    0.00 PKD
ROOT
HETATM    1  C   UNL     1     -10.434   9.438  68.140  1.00  0.00    -0.267 C  
HETATM    2  C   UNL     1     -10.324   8.795  66.882  1.00  0.00    -0.344 C  
HETATM    3  C   UNL     1      -9.093   9.450  67.386  1.00  0.00    -0.141 C  
HETATM    4  C   UNL     1      -9.182  10.103  69.335  1.00  0.00    -0.214 C  
HETATM    5  C   UNL     1      -8.695   8.919  68.855  1.00  0.00    -0.136 C  
HETATM    6  C   UNL     1     -10.511  11.259  67.847  1.00  0.00    -0.218 C  
HETATM    7  O   UNL     1      -8.152  10.587  70.200  1.00  0.00    -0.367 OA 
HETATM    8  C   UNL     1      -7.187   9.901  68.309  1.00  0.00    -0.078 C  
HETATM    9  C   UNL     1      -8.489   7.581  69.504  1.00  0.00    -0.132 C  
HETATM   10  C   UNL     1      -8.299  14.455  67.147  1.00  0.00    -0.214 A  
HETATM   11  H   UNL     1      -8.193  10.889  71.099  1.00  0.00     0.000 HD 
HETATM   12  C   UNL     1      -7.614  11.571  67.953  1.00  0.00    -0.113 C  
HETATM   13  C   UNL     1      -9.106  12.031  67.339  1.00  0.00    -0.178 C  
HETATM   14  C   UNL     1      -9.361  13.537  67.207  1.00  0.00    -0.233 A  
HETATM   15  C   UNL     1     -10.664  14.013  66.939  1.00  0.00    -0.285 A  
HETATM   16  C   UNL     1     -10.878  15.387  66.701  1.00  0.00    -0.302 A  
HETATM   17  C   UNL     1     -11.886  13.120  66.900  1.00  0.00    -0.444 C  
HETATM   18  C   UNL     1     -11.606  11.621  66.845  1.00  0.00    -0.246 C  
HETATM   19  C   UNL     1      -9.817  16.289  66.677  1.00  0.00    -0.253 A  
HETATM   20  C   UNL     1      -8.527  15.811  66.887  1.00  0.00    -0.281 A  
ENDROOT
BRANCH   4  21
HETATM   21  C   UNL     1     -10.216   9.726  70.426  1.00  0.00    -0.343 C  
HETATM   22  C   UNL     1     -11.025   9.470  71.293  1.00  0.00    -0.440 C  
ENDBRANCH   4  21
BRANCH  19  23
HETATM   23  O   UNL     1      -9.913  17.635  66.448  1.00  0.00    -0.309 OA 
HETATM   24  C   UNL     1     -10.502  18.418  67.479  1.00  0.00    -0.419 C  
ENDBRANCH  19  23
TORSDOF 2
ENDMDL
MODEL       44
REMARK 921   NORMALIZED FREE ENERGY PREDICTED BY IDOCK:   -5.32 KCAL/MOL
REMARK 922        TOTAL FREE ENERGY PREDICTED BY IDOCK:   -6.00 KCAL/MOL
REMARK 923 INTER-LIGAND FREE ENERGY PREDICTED BY IDOCK:   -5.98 KCAL/MOL
REMARK 924 INTRA-LIGAND FREE ENERGY PREDICTED BY IDOCK:   -0.02 KCAL/MOL
REMARK 927      BINDING AFFINITY PREDICTED BY RF-SCORE:    0.00 PKD
ROOT
HETATM    1  C   UNL     1     -10.571  10.921  67.243  1.00  0.00    -0.296 C  
HETATM    2  C   UNL     1     -10.535  10.802  65.831  1.00  0.00    -0.270 C  
HETATM    3  C   UNL     1      -9.257  11.177  66.483  1.00  0.00    -0.194 C  
HETATM    4  C   UNL     1      -9.248  11.043  68.536  1.00  0.00    -0.177 C  
HETATM    5  C   UNL     1      -8.836  10.116  67.620  1.00  0.00    -0.125 C  
HETATM    6  C   UNL     1     -10.571  12.718  67.664  1.00  0.00    -0.230 C  
HETATM    7  O   UNL     1      -8.167  11.130  69.467  1.00  0.00    -0.372 OA 
HETATM    8  C   UNL     1      -7.302  11.184  67.412  1.00  0.00    -0.108 C  
HETATM    9  C   UNL     1      -8.671   8.626  67.704  1.00  0.00    -0.136 C  
HETATM   10  C   UNL     1      -8.234  15.870  68.115  1.00  0.00    -0.149 A  
HETATM   11  H   UNL     1      -8.163  11.069  70.415  1.00  0.00     0.000 HD 
HETATM   12  C   UNL     1      -7.660  12.876  67.735  1.00  0.00    -0.141 C  
HETATM   13  C   UNL     1      -9.148  13.581  67.416  1.00  0.00    -0.219 C  
HETATM   14  C   UNL     1      -9.336  15.032  67.877  1.00  0.00    -0.183 A  
HETATM   15  C   UNL     1     -10.623  15.615  67.874  1.00  0.00    -0.278 A  
HETATM   16  C   UNL     1     -10.779  16.982  68.184  1.00  0.00    -0.374 A  
HETATM   17  C   UNL     1     -11.887  14.842  67.561  1.00  0.00    -0.326 C  
HETATM   18  C   UNL     1     -11.681  13.468  66.930  1.00  0.00    -0.424 C  
HETATM   19  C   UNL     1      -9.678  17.792  68.450  1.00  0.00    -0.333 A  
HETATM   20  C   UNL     1      -8.406  17.230  68.399  1.00  0.00    -0.261 A  
ENDROOT
BRANCH   4  21
HETATM   21  C   UNL     1     -10.262  10.312  69.454  1.00  0.00    -0.255 C  
HETATM   22  C   UNL     1     -11.084   9.766  70.159  1.00  0.00    -0.335 C  
ENDBRANCH   4  21
BRANCH  19  23
HETATM   23  O   UNL     1      -9.718  19.126  68.752  1.00  0.00    -0.390 OA 
HETATM   24  C   UNL     1     -10.259  19.989  67.758  1.00  0.00    -0.409 C  
ENDBRANCH  19  23
TORSDOF 2
ENDMDL
MODEL       45
REMARK 921   NORMALIZED FREE ENERGY PREDICTED BY IDOCK:   -5.31 KCAL/MOL
REMARK 922        TOTAL FREE ENERGY PREDICTED BY IDOCK:   -5.99 KCAL/MOL
REMARK 923 INTER-LIGAND FREE ENERGY PREDICTED BY IDOCK:   -5.95 KCAL/MOL
REMARK 924 INTRA-LIGAND FREE ENERGY PREDICTED BY IDOCK:   -0.04 KCAL/MOL
REMARK 927      BINDING AFFINITY PREDICTED BY RF-SCORE:    0.00 PKD
ROOT
HETATM    1  C   UNL     1      -8.804   7.004  69.299  1.00  0.00    -0.139 C  
HETATM    2  C   UNL     1      -7.778   7.126  70.267  1.00  0.00    -0.095 C  
HETATM    3  C   UNL     1      -9.160   7.351  70.755  1.00  0.00    -0.151 C  
HETATM    4  C   UNL     1     -10.649   6.868  69.420  1.00  0.00    -0.229 C  
HETATM    5  C   UNL     1     -10.119   6.100  70.420  1.00  0.00    -0.237 C  
HETATM    6  C   UNL     1      -9.373   8.702  68.850  1.00  0.00    -0.145 C  
HETATM    7  O   UNL     1     -12.063   6.766  69.604  1.00  0.00    -0.635 OA 
HETATM    8  C   UNL     1     -11.142   7.147  71.600  1.00  0.00    -0.264 C  
HETATM    9  C   UNL     1     -10.074   4.614  70.628  1.00  0.00    -0.261 C  
HETATM   10  C   UNL     1     -11.716  11.667  69.998  1.00  0.00    -0.402 A  
HETATM   11  H   UNL     1     -12.751   6.543  68.988  1.00  0.00     0.000 HD 
HETATM   12  C   UNL     1     -11.386   8.768  70.959  1.00  0.00    -0.332 C  
HETATM   13  C   UNL     1     -10.264   9.556  69.993  1.00  0.00    -0.281 C  
HETATM   14  C   UNL     1     -10.686  10.911  69.413  1.00  0.00    -0.265 A  
HETATM   15  C   UNL     1      -9.912  11.520  68.399  1.00  0.00    -0.206 A  
HETATM   16  C   UNL     1     -10.234  12.818  67.949  1.00  0.00    -0.229 A  
HETATM   17  C   UNL     1      -8.729  10.846  67.736  1.00  0.00    -0.129 C  
HETATM   18  C   UNL     1      -8.205   9.595  68.437  1.00  0.00    -0.106 C  
HETATM   19  C   UNL     1     -11.278  13.540  68.518  1.00  0.00    -0.278 A  
HETATM   20  C   UNL     1     -12.007  12.962  69.553  1.00  0.00    -0.346 A  
ENDROOT
BRANCH   4  21
HETATM   21  C   UNL     1     -10.540   6.018  68.128  1.00  0.00    -0.328 C  
HETATM   22  C   UNL     1     -10.489   5.333  67.129  1.00  0.00    -0.261 C  
ENDBRANCH   4  21
BRANCH  19  23
HETATM   23  O   UNL     1     -11.666  14.804  68.164  1.00  0.00    -0.324 OA 
HETATM   24  C   UNL     1     -10.679  15.627  67.554  1.00  0.00    -0.303 C  
ENDBRANCH  19  23
TORSDOF 2
ENDMDL
MODEL       46
REMARK 921   NORMALIZED FREE ENERGY PREDICTED BY IDOCK:   -5.29 KCAL/MOL
REMARK 922        TOTAL FREE ENERGY PREDICTED BY IDOCK:   -5.96 KCAL/MOL
REMARK 923 INTER-LIGAND FREE ENERGY PREDICTED BY IDOCK:   -5.92 KCAL/MOL
REMARK 924 INTRA-LIGAND FREE ENERGY PREDICTED BY IDOCK:   -0.04 KCAL/MOL
REMARK 927      BINDING AFFINITY PREDICTED BY RF-SCORE:    0.00 PKD
ROOT
HETATM    1  C   UNL     1      -9.434  13.067  67.613  1.00  0.00    -0.201 C  
HETATM    2  C   UNL     1      -8.116  13.150  67.100  1.00  0.00    -0.107 C  
HETATM    3  C   UNL     1      -9.103  12.446  66.244  1.00  0.00    -0.099 C  
HETATM    4  C   UNL     1     -11.061  12.605  66.854  1.00  0.00    -0.273 C  
HETATM    5  C   UNL     1     -10.389  13.368  65.940  1.00  0.00    -0.290 C  
HETATM    6  C   UNL     1      -9.702  11.346  68.226  1.00  0.00    -0.202 C  
HETATM    7  O   UNL     1     -12.273  12.237  66.190  1.00  0.00    -0.647 OA 
HETATM    8  C   UNL     1     -10.589  11.915  64.763  1.00  0.00    -0.346 C  
HETATM    9  C   UNL     1     -10.630  14.756  65.420  1.00  0.00    -0.395 C  
HETATM   10  C   UNL     1     -10.622   7.680  67.083  1.00  0.00    -0.410 A  
HETATM   11  H   UNL     1     -13.177  12.310  66.472  1.00  0.00     0.000 HD 
HETATM   12  C   UNL     1     -10.660  10.392  65.642  1.00  0.00    -0.096 C  
HETATM   13  C   UNL     1      -9.844  10.121  67.083  1.00  0.00    -0.231 C  
HETATM   14  C   UNL     1     -10.115   8.785  67.786  1.00  0.00    -0.261 A  
HETATM   15  C   UNL     1      -9.671   8.580  69.112  1.00  0.00    -0.170 A  
HETATM   16  C   UNL     1      -9.816   7.314  69.717  1.00  0.00    -0.177 A  
HETATM   17  C   UNL     1      -9.039   9.667  69.957  1.00  0.00    -0.269 C  
HETATM   18  C   UNL     1      -8.606  10.920  69.202  1.00  0.00    -0.060 C  
HETATM   19  C   UNL     1     -10.350   6.236  69.016  1.00  0.00    -0.206 A  
HETATM   20  C   UNL     1     -10.737   6.424  67.692  1.00  0.00    -0.387 A  
ENDROOT
BRANCH   4  21
HETATM   21  C   UNL     1     -11.671  13.601  67.873  1.00  0.00    -0.395 C  
HETATM   22  C   UNL     1     -12.146  14.351  68.700  1.00  0.00    -0.274 C  
ENDBRANCH   4  21
BRANCH  19  23
HETATM   23  O   UNL     1     -10.525   4.970  69.503  1.00  0.00    -0.223 OA 
HETATM   24  C   UNL     1      -9.634   4.553  70.532  1.00  0.00    -0.204 C  
ENDBRANCH  19  23
TORSDOF 2
ENDMDL
MODEL       47
REMARK 921   NORMALIZED FREE ENERGY PREDICTED BY IDOCK:   -5.25 KCAL/MOL
REMARK 922        TOTAL FREE ENERGY PREDICTED BY IDOCK:   -5.93 KCAL/MOL
REMARK 923 INTER-LIGAND FREE ENERGY PREDICTED BY IDOCK:   -5.87 KCAL/MOL
REMARK 924 INTRA-LIGAND FREE ENERGY PREDICTED BY IDOCK:   -0.06 KCAL/MOL
REMARK 927      BINDING AFFINITY PREDICTED BY RF-SCORE:    0.00 PKD
ROOT
HETATM    1  C   UNL     1     -10.824   5.986  70.817  1.00  0.00    -0.358 C  
HETATM    2  C   UNL     1      -9.722   5.096  70.811  1.00  0.00    -0.255 C  
HETATM    3  C   UNL     1      -9.435   6.481  71.255  1.00  0.00    -0.172 C  
HETATM    4  C   UNL     1     -11.090   7.666  71.555  1.00  0.00    -0.236 C  
HETATM    5  C   UNL     1     -10.395   6.926  72.471  1.00  0.00    -0.220 C  
HETATM    6  C   UNL     1     -10.664   7.106  69.359  1.00  0.00    -0.246 C  
HETATM    7  O   UNL     1     -11.211   8.957  72.156  1.00  0.00    -0.360 OA 
HETATM    8  C   UNL     1      -9.098   8.286  72.402  1.00  0.00    -0.307 C  
HETATM    9  C   UNL     1     -10.781   6.364  73.808  1.00  0.00    -0.184 C  
HETATM   10  C   UNL     1      -8.875  10.377  68.055  1.00  0.00    -0.130 A  
HETATM   11  H   UNL     1     -11.975   9.504  72.294  1.00  0.00     0.000 HD 
HETATM   12  C   UNL     1      -9.084   9.070  70.826  1.00  0.00    -0.297 C  
HETATM   13  C   UNL     1      -9.452   8.272  69.397  1.00  0.00    -0.159 C  
HETATM   14  C   UNL     1      -9.520   9.131  68.128  1.00  0.00    -0.155 A  
HETATM   15  C   UNL     1     -10.062   8.594  66.938  1.00  0.00    -0.355 A  
HETATM   16  C   UNL     1     -10.016   9.341  65.743  1.00  0.00    -0.215 A  
HETATM   17  C   UNL     1     -10.718   7.231  66.862  1.00  0.00    -0.346 C  
HETATM   18  C   UNL     1     -10.483   6.319  68.062  1.00  0.00    -0.278 C  
HETATM   19  C   UNL     1      -9.402  10.589  65.695  1.00  0.00    -0.200 A  
HETATM   20  C   UNL     1      -8.820  11.094  66.854  1.00  0.00    -0.157 A  
ENDROOT
BRANCH   4  21
HETATM   21  C   UNL     1     -12.571   7.228  71.690  1.00  0.00    -0.403 C  
HETATM   22  C   UNL     1     -13.741   6.925  71.794  1.00  0.00    -0.244 C  
ENDBRANCH   4  21
BRANCH  19  23
HETATM   23  O   UNL     1      -9.295  11.389  64.589  1.00  0.00    -0.185 OA 
HETATM   24  C   UNL     1     -10.296  11.234  63.590  1.00  0.00    -0.408 C  
ENDBRANCH  19  23
TORSDOF 2
ENDMDL
MODEL       48
REMARK 921   NORMALIZED FREE ENERGY PREDICTED BY IDOCK:   -5.23 KCAL/MOL
REMARK 922        TOTAL FREE ENERGY PREDICTED BY IDOCK:   -5.90 KCAL/MOL
REMARK 923 INTER-LIGAND FREE ENERGY PREDICTED BY IDOCK:   -5.83 KCAL/MOL
REMARK 924 INTRA-LIGAND FREE ENERGY PREDICTED BY IDOCK:   -0.07 KCAL/MOL
REMARK 927      BINDING AFFINITY PREDICTED BY RF-SCORE:    0.00 PKD
ROOT
HETATM    1  C   UNL     1     -10.092   6.348  70.280  1.00  0.00    -0.216 C  
HETATM    2  C   UNL     1     -10.856   5.775  69.233  1.00  0.00    -0.374 C  
HETATM    3  C   UNL     1     -10.116   7.014  68.893  1.00  0.00    -0.174 C  
HETATM    4  C   UNL     1      -8.778   7.654  70.319  1.00  0.00    -0.144 C  
HETATM    5  C   UNL     1      -8.544   6.876  69.219  1.00  0.00    -0.132 C  
HETATM    6  C   UNL     1     -11.001   7.827  70.907  1.00  0.00    -0.260 C  
HETATM    7  O   UNL     1      -7.772   8.668  70.259  1.00  0.00    -0.073 OA 
HETATM    8  C   UNL     1      -8.658   8.466  68.222  1.00  0.00    -0.139 C  
HETATM    9  C   UNL     1      -7.452   5.898  68.895  1.00  0.00    -0.085 C  
HETATM   10  C   UNL     1     -11.694  11.652  70.209  1.00  0.00    -0.355 A  
HETATM   11  H   UNL     1      -7.154   8.963  70.917  1.00  0.00     0.000 HD 
HETATM   12  C   UNL     1      -9.722   9.629  69.003  1.00  0.00    -0.169 C  
HETATM   13  C   UNL     1     -11.057   9.188  69.919  1.00  0.00    -0.175 C  
HETATM   14  C   UNL     1     -11.803  10.319  70.637  1.00  0.00    -0.439 A  
HETATM   15  C   UNL     1     -12.774  10.015  71.618  1.00  0.00    -0.535 A  
HETATM   16  C   UNL     1     -13.543  11.048  72.194  1.00  0.00    -0.084 A  
HETATM   17  C   UNL     1     -13.044   8.610  72.116  1.00  0.00    -0.423 C  
HETATM   18  C   UNL     1     -12.443   7.487  71.278  1.00  0.00    -0.354 C  
HETATM   19  C   UNL     1     -13.400  12.370  71.780  1.00  0.00    -0.270 A  
HETATM   20  C   UNL     1     -12.482  12.662  70.775  1.00  0.00    -0.357 A  
ENDROOT
BRANCH   4  21
HETATM   21  C   UNL     1      -8.213   6.864  71.527  1.00  0.00    -0.110 C  
HETATM   22  C   UNL     1      -7.762   6.281  72.491  1.00  0.00    -0.102 C  
ENDBRANCH   4  21
BRANCH  19  23
HETATM   23  O   UNL     1     -14.099  13.442  72.264  1.00  0.00    -0.519 OA 
HETATM   24  C   UNL     1     -14.208  14.572  71.406  1.00  0.00    -0.336 C  
ENDBRANCH  19  23
TORSDOF 2
ENDMDL
MODEL       49
REMARK 921   NORMALIZED FREE ENERGY PREDICTED BY IDOCK:   -5.18 KCAL/MOL
REMARK 922        TOTAL FREE ENERGY PREDICTED BY IDOCK:   -5.84 KCAL/MOL
REMARK 923 INTER-LIGAND FREE ENERGY PREDICTED BY IDOCK:   -5.77 KCAL/MOL
REMARK 924 INTRA-LIGAND FREE ENERGY PREDICTED BY IDOCK:   -0.07 KCAL/MOL
REMARK 927      BINDING AFFINITY PREDICTED BY RF-SCORE:    0.00 PKD
ROOT
HETATM    1  C   UNL     1     -10.186  12.666  65.935  1.00  0.00    -0.290 C  
HETATM    2  C   UNL     1     -11.339  12.684  65.112  1.00  0.00    -0.343 C  
HETATM    3  C   UNL     1     -11.560  12.311  66.530  1.00  0.00    -0.440 C  
HETATM    4  C   UNL     1      -9.943  12.590  67.771  1.00  0.00    -0.210 C  
HETATM    5  C   UNL     1     -10.991  13.435  67.536  1.00  0.00    -0.284 C  
HETATM    6  C   UNL     1      -9.711  10.904  66.215  1.00  0.00    -0.245 C  
HETATM    7  O   UNL     1      -9.845  12.531  69.196  1.00  0.00    -0.388 OA 
HETATM    8  C   UNL     1     -11.996  12.301  68.650  1.00  0.00    -0.276 C  
HETATM    9  C   UNL     1     -11.139  14.920  67.695  1.00  0.00    -0.315 C  
HETATM   10  C   UNL     1     -10.512   7.713  68.399  1.00  0.00    -0.208 A  
HETATM   11  H   UNL     1      -9.099  12.659  69.769  1.00  0.00     0.000 HD 
HETATM   12  C   UNL     1     -11.392  10.650  68.584  1.00  0.00    -0.345 C  
HETATM   13  C   UNL     1     -10.696   9.977  67.214  1.00  0.00    -0.309 C  
HETATM   14  C   UNL     1     -10.105   8.569  67.363  1.00  0.00    -0.298 A  
HETATM   15  C   UNL     1      -9.288   8.033  66.342  1.00  0.00    -0.259 A  
HETATM   16  C   UNL     1      -8.841   6.698  66.425  1.00  0.00    -0.151 A  
HETATM   17  C   UNL     1      -8.837   8.826  65.133  1.00  0.00    -0.177 C  
HETATM   18  C   UNL     1      -9.570  10.143  64.898  1.00  0.00    -0.369 C  
HETATM   19  C   UNL     1      -9.228   5.871  67.476  1.00  0.00    -0.108 A  
HETATM   20  C   UNL     1     -10.077   6.383  68.453  1.00  0.00    -0.173 A  
ENDROOT
BRANCH   4  21
HETATM   21  C   UNL     1      -8.661  13.418  67.504  1.00  0.00    -0.200 C  
HETATM   22  C   UNL     1      -7.651  14.069  67.335  1.00  0.00    -0.167 C  
ENDBRANCH   4  21
BRANCH  19  23
HETATM   23  O   UNL     1      -8.861   4.564  67.645  1.00  0.00    -0.103 OA 
HETATM   24  C   UNL     1      -9.006   4.025  68.954  1.00  0.00    -0.116 C  
ENDBRANCH  19  23
TORSDOF 2
ENDMDL
MODEL       50
REMARK 921   NORMALIZED FREE ENERGY PREDICTED BY IDOCK:   -5.18 KCAL/MOL
REMARK 922        TOTAL FREE ENERGY PREDICTED BY IDOCK:   -5.84 KCAL/MOL
REMARK 923 INTER-LIGAND FREE ENERGY PREDICTED BY IDOCK:   -5.83 KCAL/MOL
REMARK 924 INTRA-LIGAND FREE ENERGY PREDICTED BY IDOCK:   -0.02 KCAL/MOL
REMARK 927      BINDING AFFINITY PREDICTED BY RF-SCORE:    0.00 PKD
ROOT
HETATM    1  C   UNL     1      -9.340   6.836  68.637  1.00  0.00    -0.131 C  
HETATM    2  C   UNL     1     -10.244   6.251  67.716  1.00  0.00    -0.206 C  
HETATM    3  C   UNL     1      -9.790   7.625  67.395  1.00  0.00    -0.226 C  
HETATM    4  C   UNL     1      -8.253   8.336  68.563  1.00  0.00    -0.131 C  
HETATM    5  C   UNL     1      -8.182   7.723  67.343  1.00  0.00    -0.123 C  
HETATM    6  C   UNL     1     -10.271   8.070  69.646  1.00  0.00    -0.208 C  
HETATM    7  O   UNL     1      -7.444   9.506  68.422  1.00  0.00    -0.076 OA 
HETATM    8  C   UNL     1      -8.756   9.363  66.623  1.00  0.00    -0.143 C  
HETATM    9  C   UNL     1      -7.073   6.981  66.655  1.00  0.00    -0.078 C  
HETATM   10  C   UNL     1     -11.645  11.773  69.650  1.00  0.00    -0.393 A  
HETATM   11  H   UNL     1      -6.735   9.834  68.962  1.00  0.00     0.000 HD 
HETATM   12  C   UNL     1      -9.755  10.245  67.773  1.00  0.00    -0.178 C  
HETATM   13  C   UNL     1     -10.754   9.494  68.891  1.00  0.00    -0.220 C  
HETATM   14  C   UNL     1     -11.458  10.404  69.905  1.00  0.00    -0.368 A  
HETATM   15  C   UNL     1     -12.112   9.843  71.025  1.00  0.00    -0.450 A  
HETATM   16  C   UNL     1     -12.859  10.669  71.893  1.00  0.00    -0.487 A  
HETATM   17  C   UNL     1     -12.055   8.370  71.373  1.00  0.00    -0.337 C  
HETATM   18  C   UNL     1     -11.519   7.455  70.276  1.00  0.00    -0.206 C  
HETATM   19  C   UNL     1     -13.007  12.030  71.643  1.00  0.00    -0.334 A  
HETATM   20  C   UNL     1     -12.408  12.572  70.510  1.00  0.00    -0.345 A  
ENDROOT
BRANCH   4  21
HETATM   21  C   UNL     1      -7.309   7.535  69.496  1.00  0.00    -0.084 C  
HETATM   22  C   UNL     1      -6.579   6.875  70.205  1.00  0.00    -0.048 C  
ENDBRANCH   4  21
BRANCH  19  23
HETATM   23  O   UNL     1     -13.714  12.914  72.412  1.00  0.00    -0.565 OA 
HETATM   24  C   UNL     1     -13.166  14.220  72.550  1.00  0.00    -0.490 C  
ENDBRANCH  19  23
TORSDOF 2
ENDMDL
MODEL       51
REMARK 921   NORMALIZED FREE ENERGY PREDICTED BY IDOCK:   -5.17 KCAL/MOL
REMARK 922        TOTAL FREE ENERGY PREDICTED BY IDOCK:   -5.83 KCAL/MOL
REMARK 923 INTER-LIGAND FREE ENERGY PREDICTED BY IDOCK:   -5.82 KCAL/MOL
REMARK 924 INTRA-LIGAND FREE ENERGY PREDICTED BY IDOCK:   -0.01 KCAL/MOL
REMARK 927      BINDING AFFINITY PREDICTED BY RF-SCORE:    0.00 PKD
ROOT
HETATM    1  C   UNL     1     -10.167  10.728  69.367  1.00  0.00    -0.187 C  
HETATM    2  C   UNL     1     -11.493  10.257  69.533  1.00  0.00    -0.273 C  
HETATM    3  C   UNL     1     -10.949  10.193  68.155  1.00  0.00    -0.313 C  
HETATM    4  C   UNL     1      -8.937  10.585  67.987  1.00  0.00    -0.135 C  
HETATM    5  C   UNL     1      -9.562   9.375  68.100  1.00  0.00    -0.158 C  
HETATM    6  C   UNL     1     -10.247  12.391  68.570  1.00  0.00    -0.213 C  
HETATM    7  O   UNL     1      -8.049  10.427  66.878  1.00  0.00    -0.115 OA 
HETATM    8  C   UNL     1     -10.031   9.587  66.291  1.00  0.00    -0.344 C  
HETATM    9  C   UNL     1      -9.076   8.033  68.567  1.00  0.00    -0.136 C  
HETATM   10  C   UNL     1     -10.633  14.226  65.094  1.00  0.00    -0.423 A  
HETATM   11  H   UNL     1      -7.120  10.608  66.801  1.00  0.00     0.000 HD 
HETATM   12  C   UNL     1     -10.182  11.289  65.871  1.00  0.00    -0.298 C  
HETATM   13  C   UNL     1     -10.700  12.463  66.952  1.00  0.00    -0.269 C  
HETATM   14  C   UNL     1     -10.652  13.916  66.464  1.00  0.00    -0.279 A  
HETATM   15  C   UNL     1     -10.829  14.977  67.382  1.00  0.00    -0.305 A  
HETATM   16  C   UNL     1     -10.902  16.306  66.917  1.00  0.00    -0.151 A  
HETATM   17  C   UNL     1     -10.939  14.774  68.879  1.00  0.00    -0.262 C  
HETATM   18  C   UNL     1     -11.172  13.337  69.334  1.00  0.00    -0.220 C  
HETATM   19  C   UNL     1     -10.850  16.599  65.557  1.00  0.00    -0.163 A  
HETATM   20  C   UNL     1     -10.730  15.550  64.650  1.00  0.00    -0.192 A  
ENDROOT
BRANCH   4  21
HETATM   21  C   UNL     1      -7.870  10.619  69.111  1.00  0.00    -0.142 C  
HETATM   22  C   UNL     1      -7.065  10.648  70.018  1.00  0.00    -0.095 C  
ENDBRANCH   4  21
BRANCH  19  23
HETATM   23  O   UNL     1     -10.921  17.848  65.002  1.00  0.00    -0.776 OA 
HETATM   24  C   UNL     1     -10.637  18.946  65.861  1.00  0.00    -0.373 C  
ENDBRANCH  19  23
TORSDOF 2
ENDMDL
MODEL       52
REMARK 921   NORMALIZED FREE ENERGY PREDICTED BY IDOCK:   -5.12 KCAL/MOL
REMARK 922        TOTAL FREE ENERGY PREDICTED BY IDOCK:   -5.78 KCAL/MOL
REMARK 923 INTER-LIGAND FREE ENERGY PREDICTED BY IDOCK:   -5.75 KCAL/MOL
REMARK 924 INTRA-LIGAND FREE ENERGY PREDICTED BY IDOCK:   -0.03 KCAL/MOL
REMARK 927      BINDING AFFINITY PREDICTED BY RF-SCORE:    0.00 PKD
ROOT
HETATM    1  C   UNL     1     -10.892  16.525  68.299  1.00  0.00    -0.352 C  
HETATM    2  C   UNL     1     -11.194  16.269  69.659  1.00  0.00    -0.311 C  
HETATM    3  C   UNL     1      -9.781  16.069  69.259  1.00  0.00    -0.257 C  
HETATM    4  C   UNL     1      -9.299  16.738  67.375  1.00  0.00    -0.233 C  
HETATM    5  C   UNL     1      -9.165  17.389  68.569  1.00  0.00    -0.277 C  
HETATM    6  C   UNL     1     -10.693  14.902  67.441  1.00  0.00    -0.292 C  
HETATM    7  O   UNL     1      -8.028  16.891  66.740  1.00  0.00    -0.187 OA 
HETATM    8  C   UNL     1      -7.665  16.292  68.858  1.00  0.00    -0.219 C  
HETATM    9  C   UNL     1      -9.070  18.847  68.914  1.00  0.00    -0.278 C  
HETATM   10  C   UNL     1      -8.142  11.964  66.770  1.00  0.00    -0.108 A  
HETATM   11  H   UNL     1      -7.806  17.200  65.870  1.00  0.00     0.000 HD 
HETATM   12  C   UNL     1      -7.842  14.747  68.034  1.00  0.00    -0.134 C  
HETATM   13  C   UNL     1      -9.322  13.994  67.794  1.00  0.00    -0.205 C  
HETATM   14  C   UNL     1      -9.314  12.717  66.945  1.00  0.00    -0.234 A  
HETATM   15  C   UNL     1     -10.532  12.164  66.488  1.00  0.00    -0.254 A  
HETATM   16  C   UNL     1     -10.534  10.928  65.808  1.00  0.00    -0.275 A  
HETATM   17  C   UNL     1     -11.876  12.836  66.676  1.00  0.00    -0.462 C  
HETATM   18  C   UNL     1     -11.900  13.994  67.670  1.00  0.00    -0.430 C  
HETATM   19  C   UNL     1      -9.358  10.208  65.615  1.00  0.00    -0.199 A  
HETATM   20  C   UNL     1      -8.166  10.727  66.113  1.00  0.00    -0.163 A  
ENDROOT
BRANCH   4  21
HETATM   21  C   UNL     1     -10.110  17.692  66.460  1.00  0.00    -0.350 C  
HETATM   22  C   UNL     1     -10.731  18.470  65.767  1.00  0.00    -0.193 C  
ENDBRANCH   4  21
BRANCH  19  23
HETATM   23  O   UNL     1      -9.250   9.001  64.980  1.00  0.00    -0.178 OA 
HETATM   24  C   UNL     1      -8.380   8.946  63.857  1.00  0.00    -0.159 C  
ENDBRANCH  19  23
TORSDOF 2
ENDMDL
MODEL       53
REMARK 921   NORMALIZED FREE ENERGY PREDICTED BY IDOCK:   -5.10 KCAL/MOL
REMARK 922        TOTAL FREE ENERGY PREDICTED BY IDOCK:   -5.76 KCAL/MOL
REMARK 923 INTER-LIGAND FREE ENERGY PREDICTED BY IDOCK:   -5.69 KCAL/MOL
REMARK 924 INTRA-LIGAND FREE ENERGY PREDICTED BY IDOCK:   -0.07 KCAL/MOL
REMARK 927      BINDING AFFINITY PREDICTED BY RF-SCORE:    0.00 PKD
ROOT
HETATM    1  C   UNL     1     -10.075  18.538  68.214  1.00  0.00    -0.424 C  
HETATM    2  C   UNL     1      -9.780  18.647  69.596  1.00  0.00     0.396 C  
HETATM    3  C   UNL     1      -8.699  18.096  68.744  1.00  0.00    -0.227 C  
HETATM    4  C   UNL     1      -9.025  18.232  66.717  1.00  0.00    -0.284 C  
HETATM    5  C   UNL     1      -8.334  19.089  67.528  1.00  0.00    -0.303 C  
HETATM    6  C   UNL     1     -10.400  16.760  67.838  1.00  0.00    -0.319 C  
HETATM    7  O   UNL     1      -8.143  17.995  65.617  1.00  0.00    -0.500 OA 
HETATM    8  C   UNL     1      -6.954  17.813  67.495  1.00  0.00    -0.189 C  
HETATM    9  C   UNL     1      -7.979  20.541  67.385  1.00  0.00    -0.349 C  
HETATM   10  C   UNL     1      -8.642  13.309  67.064  1.00  0.00    -0.169 A  
HETATM   11  H   UNL     1      -8.294  18.058  64.681  1.00  0.00     0.000 HD 
HETATM   12  C   UNL     1      -7.596  16.190  67.275  1.00  0.00    -0.217 C  
HETATM   13  C   UNL     1      -9.092  15.703  67.858  1.00  0.00    -0.185 C  
HETATM   14  C   UNL     1      -9.558  14.295  67.469  1.00  0.00    -0.216 A  
HETATM   15  C   UNL     1     -10.895  13.901  67.704  1.00  0.00    -0.264 A  
HETATM   16  C   UNL     1     -11.292  12.571  67.455  1.00  0.00    -0.371 A  
HETATM   17  C   UNL     1     -11.965  14.845  68.212  1.00  0.00    -0.245 C  
HETATM   18  C   UNL     1     -11.461  16.174  68.768  1.00  0.00    -0.340 C  
HETATM   19  C   UNL     1     -10.379  11.614  67.023  1.00  0.00    -0.217 A  
HETATM   20  C   UNL     1      -9.051  11.988  66.843  1.00  0.00    -0.196 A  
ENDROOT
BRANCH   4  21
HETATM   21  C   UNL     1     -10.068  19.102  65.970  1.00  0.00    -0.437 C  
HETATM   22  C   UNL     1     -10.881  19.758  65.353  1.00  0.00    -0.121 C  
ENDBRANCH   4  21
BRANCH  19  23
HETATM   23  O   UNL     1     -10.657  10.299  66.761  1.00  0.00    -0.231 OA 
HETATM   24  C   UNL     1     -10.005   9.721  65.637  1.00  0.00    -0.282 C  
ENDBRANCH  19  23
TORSDOF 2
ENDMDL
MODEL       54
REMARK 921   NORMALIZED FREE ENERGY PREDICTED BY IDOCK:   -5.09 KCAL/MOL
REMARK 922        TOTAL FREE ENERGY PREDICTED BY IDOCK:   -5.74 KCAL/MOL
REMARK 923 INTER-LIGAND FREE ENERGY PREDICTED BY IDOCK:   -5.70 KCAL/MOL
REMARK 924 INTRA-LIGAND FREE ENERGY PREDICTED BY IDOCK:   -0.04 KCAL/MOL
REMARK 927      BINDING AFFINITY PREDICTED BY RF-SCORE:    0.00 PKD
ROOT
HETATM    1  C   UNL     1      -8.548  11.556  66.233  1.00  0.00    -0.133 C  
HETATM    2  C   UNL     1      -7.386  12.048  66.877  1.00  0.00    -0.042 C  
HETATM    3  C   UNL     1      -7.655  10.599  67.042  1.00  0.00    -0.110 C  
HETATM    4  C   UNL     1      -9.158   9.846  65.856  1.00  0.00    -0.162 C  
HETATM    5  C   UNL     1      -7.811   9.858  65.619  1.00  0.00    -0.127 C  
HETATM    6  C   UNL     1      -9.845  11.287  67.520  1.00  0.00    -0.195 C  
HETATM    7  O   UNL     1      -9.552   8.496  65.602  1.00  0.00    -0.447 OA 
HETATM    8  C   UNL     1      -7.706   8.443  66.853  1.00  0.00    -0.092 C  
HETATM    9  C   UNL     1      -7.014   9.770  64.350  1.00  0.00    -0.126 C  
HETATM   10  C   UNL     1     -11.098   8.751  70.276  1.00  0.00    -0.240 A  
HETATM   11  H   UNL     1     -10.247   8.148  65.055  1.00  0.00     0.000 HD 
HETATM   12  C   UNL     1      -8.992   8.548  68.050  1.00  0.00    -0.141 C  
HETATM   13  C   UNL     1      -9.635  10.002  68.586  1.00  0.00    -0.158 C  
HETATM   14  C   UNL     1     -10.837   9.915  69.534  1.00  0.00    -0.274 A  
HETATM   15  C   UNL     1     -11.590  11.074  69.832  1.00  0.00    -0.416 A  
HETATM   16  C   UNL     1     -12.621  11.017  70.793  1.00  0.00    -0.463 A  
HETATM   17  C   UNL     1     -11.362  12.411  69.159  1.00  0.00    -0.327 C  
HETATM   18  C   UNL     1     -10.063  12.538  68.368  1.00  0.00    -0.216 C  
HETATM   19  C   UNL     1     -12.888   9.846  71.497  1.00  0.00    -0.421 A  
HETATM   20  C   UNL     1     -12.111   8.720  71.242  1.00  0.00    -0.344 A  
ENDROOT
BRANCH   4  21
HETATM   21  C   UNL     1      -9.814  10.497  64.611  1.00  0.00    -0.404 C  
HETATM   22  C   UNL     1     -10.297  10.990  63.614  1.00  0.00    -0.415 C  
ENDBRANCH   4  21
BRANCH  19  23
HETATM   23  O   UNL     1     -13.854   9.687  72.452  1.00  0.00    -0.379 OA 
HETATM   24  C   UNL     1     -14.308   8.359  72.686  1.00  0.00    -0.068 C  
ENDBRANCH  19  23
TORSDOF 2
ENDMDL
MODEL       55
REMARK 921   NORMALIZED FREE ENERGY PREDICTED BY IDOCK:   -5.01 KCAL/MOL
REMARK 922        TOTAL FREE ENERGY PREDICTED BY IDOCK:   -5.66 KCAL/MOL
REMARK 923 INTER-LIGAND FREE ENERGY PREDICTED BY IDOCK:   -5.59 KCAL/MOL
REMARK 924 INTRA-LIGAND FREE ENERGY PREDICTED BY IDOCK:   -0.07 KCAL/MOL
REMARK 927      BINDING AFFINITY PREDICTED BY RF-SCORE:    0.00 PKD
ROOT
HETATM    1  C   UNL     1      -8.739  15.441  67.980  1.00  0.00    -0.160 C  
HETATM    2  C   UNL     1      -7.640  15.791  67.158  1.00  0.00    -0.259 C  
HETATM    3  C   UNL     1      -8.870  15.365  66.448  1.00  0.00    -0.340 C  
HETATM    4  C   UNL     1     -10.539  15.161  67.633  1.00  0.00    -0.263 C  
HETATM    5  C   UNL     1     -10.147  16.241  66.893  1.00  0.00    -0.278 C  
HETATM    6  C   UNL     1      -8.880  13.600  67.992  1.00  0.00    -0.187 C  
HETATM    7  O   UNL     1     -11.910  14.965  67.280  1.00  0.00    -0.345 OA 
HETATM    8  C   UNL     1     -10.760  15.283  65.396  1.00  0.00    -0.407 C  
HETATM    9  C   UNL     1     -10.474  17.703  66.998  1.00  0.00    -0.305 C  
HETATM   10  C   UNL     1     -10.264  10.512  65.955  1.00  0.00    -0.311 A  
HETATM   11  H   UNL     1     -12.681  14.871  67.827  1.00  0.00     0.000 HD 
HETATM   12  C   UNL     1     -10.624  13.548  65.655  1.00  0.00    -0.284 C  
HETATM   13  C   UNL     1      -9.419  12.847  66.587  1.00  0.00    -0.255 C  
HETATM   14  C   UNL     1      -9.519  11.334  66.817  1.00  0.00    -0.196 A  
HETATM   15  C   UNL     1      -8.699  10.709  67.784  1.00  0.00    -0.129 A  
HETATM   16  C   UNL     1      -8.707   9.304  67.914  1.00  0.00    -0.124 A  
HETATM   17  C   UNL     1      -7.793  11.472  68.727  1.00  0.00    -0.117 C  
HETATM   18  C   UNL     1      -7.558  12.937  68.374  1.00  0.00    -0.133 C  
HETATM   19  C   UNL     1      -9.476   8.506  67.071  1.00  0.00    -0.173 A  
HETATM   20  C   UNL     1     -10.242   9.118  66.083  1.00  0.00    -0.189 A  
ENDROOT
BRANCH   4  21
HETATM   21  C   UNL     1     -10.763  15.691  69.073  1.00  0.00    -0.236 C  
HETATM   22  C   UNL     1     -10.975  16.086  70.200  1.00  0.00    -0.369 C  
ENDBRANCH   4  21
BRANCH  19  23
HETATM   23  O   UNL     1      -9.549   7.140  67.105  1.00  0.00    -0.137 OA 
HETATM   24  C   UNL     1     -10.851   6.569  67.062  1.00  0.00    -0.395 C  
ENDBRANCH  19  23
TORSDOF 2
ENDMDL
MODEL       56
REMARK 921   NORMALIZED FREE ENERGY PREDICTED BY IDOCK:   -4.96 KCAL/MOL
REMARK 922        TOTAL FREE ENERGY PREDICTED BY IDOCK:   -5.59 KCAL/MOL
REMARK 923 INTER-LIGAND FREE ENERGY PREDICTED BY IDOCK:   -5.56 KCAL/MOL
REMARK 924 INTRA-LIGAND FREE ENERGY PREDICTED BY IDOCK:   -0.04 KCAL/MOL
REMARK 927      BINDING AFFINITY PREDICTED BY RF-SCORE:    0.00 PKD
ROOT
HETATM    1  C   UNL     1      -8.430  10.515  67.195  1.00  0.00    -0.127 C  
HETATM    2  C   UNL     1      -9.505   9.977  67.945  1.00  0.00    -0.159 C  
HETATM    3  C   UNL     1      -9.813  10.344  66.541  1.00  0.00    -0.256 C  
HETATM    4  C   UNL     1      -8.182  10.828  65.384  1.00  0.00    -0.077 C  
HETATM    5  C   UNL     1      -8.813   9.621  65.505  1.00  0.00    -0.204 C  
HETATM    6  C   UNL     1      -8.689  12.338  67.052  1.00  0.00    -0.199 C  
HETATM    7  O   UNL     1      -8.072  11.034  63.974  1.00  0.00    -0.353 OA 
HETATM    8  C   UNL     1     -10.152  10.349  64.403  1.00  0.00    -0.342 C  
HETATM    9  C   UNL     1      -8.351   8.216  65.246  1.00  0.00    -0.160 C  
HETATM   10  C   UNL     1     -10.630  15.115  65.022  1.00  0.00    -0.439 A  
HETATM   11  H   UNL     1      -7.320  11.257  63.440  1.00  0.00     0.000 HD 
HETATM   12  C   UNL     1     -10.259  12.094  64.606  1.00  0.00    -0.312 C  
HETATM   13  C   UNL     1      -9.932  12.876  66.054  1.00  0.00    -0.275 C  
HETATM   14  C   UNL     1      -9.947  14.409  66.026  1.00  0.00    -0.337 A  
HETATM   15  C   UNL     1      -9.443  15.142  67.125  1.00  0.00    -0.224 A  
HETATM   16  C   UNL     1      -9.564  16.547  67.151  1.00  0.00    -0.243 A  
HETATM   17  C   UNL     1      -8.751  14.498  68.309  1.00  0.00    -0.173 C  
HETATM   18  C   UNL     1      -8.904  12.984  68.419  1.00  0.00    -0.123 C  
HETATM   19  C   UNL     1     -10.216  17.234  66.131  1.00  0.00    -0.331 A  
HETATM   20  C   UNL     1     -10.760  16.508  65.076  1.00  0.00    -0.228 A  
ENDROOT
BRANCH   4  21
HETATM   21  C   UNL     1      -6.684  10.555  65.677  1.00  0.00    -0.110 C  
HETATM   22  C   UNL     1      -5.510  10.319  65.872  1.00  0.00    -0.071 C  
ENDBRANCH   4  21
BRANCH  19  23
HETATM   23  O   UNL     1     -10.396  18.589  66.064  1.00  0.00    -0.464 OA 
HETATM   24  C   UNL     1      -9.346  19.398  66.581  1.00  0.00    -0.349 C  
ENDBRANCH  19  23
TORSDOF 2
ENDMDL
MODEL       57
REMARK 921   NORMALIZED FREE ENERGY PREDICTED BY IDOCK:   -4.94 KCAL/MOL
REMARK 922        TOTAL FREE ENERGY PREDICTED BY IDOCK:   -5.58 KCAL/MOL
REMARK 923 INTER-LIGAND FREE ENERGY PREDICTED BY IDOCK:   -5.52 KCAL/MOL
REMARK 924 INTRA-LIGAND FREE ENERGY PREDICTED BY IDOCK:   -0.05 KCAL/MOL
REMARK 927      BINDING AFFINITY PREDICTED BY RF-SCORE:    0.00 PKD
ROOT
HETATM    1  C   UNL     1      -8.058   6.094  71.809  1.00  0.00    -0.110 C  
HETATM    2  C   UNL     1      -7.072   6.653  72.660  1.00  0.00    -0.080 C  
HETATM    3  C   UNL     1      -8.478   6.813  73.102  1.00  0.00    -0.130 C  
HETATM    4  C   UNL     1      -9.863   5.736  72.028  1.00  0.00    -0.155 C  
HETATM    5  C   UNL     1      -9.237   5.394  73.194  1.00  0.00    -0.133 C  
HETATM    6  C   UNL     1      -8.866   7.474  70.887  1.00  0.00    -0.144 C  
HETATM    7  O   UNL     1     -11.249   5.492  72.281  1.00  0.00    -0.257 OA 
HETATM    8  C   UNL     1     -10.419   6.592  74.036  1.00  0.00    -0.306 C  
HETATM    9  C   UNL     1      -8.975   4.065  73.841  1.00  0.00    -0.091 C  
HETATM   10  C   UNL     1     -11.636  10.276  71.161  1.00  0.00    -0.385 A  
HETATM   11  H   UNL     1     -11.888   4.995  71.785  1.00  0.00     0.000 HD 
HETATM   12  C   UNL     1     -10.892   7.888  72.943  1.00  0.00    -0.451 C  
HETATM   13  C   UNL     1      -9.887   8.498  71.747  1.00  0.00    -0.339 C  
HETATM   14  C   UNL     1     -10.498   9.536  70.798  1.00  0.00    -0.384 A  
HETATM   15  C   UNL     1      -9.810   9.913  69.622  1.00  0.00    -0.255 A  
HETATM   16  C   UNL     1     -10.315  10.951  68.812  1.00  0.00    -0.215 A  
HETATM   17  C   UNL     1      -8.532   9.247  69.155  1.00  0.00    -0.133 C  
HETATM   18  C   UNL     1      -7.838   8.359  70.183  1.00  0.00    -0.102 C  
HETATM   19  C   UNL     1     -11.462  11.653  69.170  1.00  0.00    -0.300 A  
HETATM   20  C   UNL     1     -12.109  11.319  70.356  1.00  0.00    -0.474 A  
ENDROOT
BRANCH   4  21
HETATM   21  C   UNL     1      -9.614   4.559  71.051  1.00  0.00    -0.248 C  
HETATM   22  C   UNL     1      -9.460   3.629  70.287  1.00  0.00    -0.257 C  
ENDBRANCH   4  21
BRANCH  19  23
HETATM   23  O   UNL     1     -12.028  12.679  68.463  1.00  0.00    -0.305 OA 
HETATM   24  C   UNL     1     -11.172  13.760  68.110  1.00  0.00    -0.271 C  
ENDBRANCH  19  23
TORSDOF 2
ENDMDL
MODEL       58
REMARK 921   NORMALIZED FREE ENERGY PREDICTED BY IDOCK:   -4.89 KCAL/MOL
REMARK 922        TOTAL FREE ENERGY PREDICTED BY IDOCK:   -5.52 KCAL/MOL
REMARK 923 INTER-LIGAND FREE ENERGY PREDICTED BY IDOCK:   -5.48 KCAL/MOL
REMARK 924 INTRA-LIGAND FREE ENERGY PREDICTED BY IDOCK:   -0.05 KCAL/MOL
REMARK 927      BINDING AFFINITY PREDICTED BY RF-SCORE:    0.00 PKD
ROOT
HETATM    1  C   UNL     1     -11.450  15.179  67.613  1.00  0.00    -0.319 C  
HETATM    2  C   UNL     1     -11.820  15.484  68.946  1.00  0.00    -0.357 C  
HETATM    3  C   UNL     1     -10.364  15.445  68.670  1.00  0.00    -0.234 C  
HETATM    4  C   UNL     1      -9.852  15.310  66.682  1.00  0.00    -0.250 C  
HETATM    5  C   UNL     1      -9.962  16.430  67.459  1.00  0.00    -0.250 C  
HETATM    6  C   UNL     1     -10.854  13.433  67.571  1.00  0.00    -0.276 C  
HETATM    7  O   UNL     1      -8.583  15.445  66.039  1.00  0.00    -0.397 OA 
HETATM    8  C   UNL     1      -8.307  15.928  68.199  1.00  0.00    -0.162 C  
HETATM    9  C   UNL     1     -10.191  17.873  67.115  1.00  0.00    -0.355 C  
HETATM   10  C   UNL     1      -7.718  11.136  68.269  1.00  0.00    -0.116 A  
HETATM   11  H   UNL     1      -8.347  15.383  65.121  1.00  0.00     0.000 HD 
HETATM   12  C   UNL     1      -8.096  14.182  68.154  1.00  0.00    -0.148 C  
HETATM   13  C   UNL     1      -9.368  13.095  68.284  1.00  0.00    -0.201 C  
HETATM   14  C   UNL     1      -9.028  11.612  68.095  1.00  0.00    -0.182 A  
HETATM   15  C   UNL     1     -10.063  10.662  67.941  1.00  0.00    -0.194 A  
HETATM   16  C   UNL     1      -9.756   9.287  67.885  1.00  0.00    -0.180 A  
HETATM   17  C   UNL     1     -11.526  11.037  67.816  1.00  0.00    -0.339 C  
HETATM   18  C   UNL     1     -11.871  12.475  68.188  1.00  0.00    -0.371 C  
HETATM   19  C   UNL     1      -8.448   8.833  68.027  1.00  0.00    -0.126 A  
HETATM   20  C   UNL     1      -7.435   9.765  68.234  1.00  0.00    -0.080 A  
ENDROOT
BRANCH   4  21
HETATM   21  C   UNL     1     -10.748  15.565  65.442  1.00  0.00    -0.422 C  
HETATM   22  C   UNL     1     -11.432  15.730  64.455  1.00  0.00    -0.268 C  
ENDBRANCH   4  21
BRANCH  19  23
HETATM   23  O   UNL     1      -8.044   7.526  67.999  1.00  0.00    -0.120 OA 
HETATM   24  C   UNL     1      -8.604   6.663  68.982  1.00  0.00    -0.130 C  
ENDBRANCH  19  23
TORSDOF 2
ENDMDL
MODEL       59
REMARK 921   NORMALIZED FREE ENERGY PREDICTED BY IDOCK:   -4.84 KCAL/MOL
REMARK 922        TOTAL FREE ENERGY PREDICTED BY IDOCK:   -5.47 KCAL/MOL
REMARK 923 INTER-LIGAND FREE ENERGY PREDICTED BY IDOCK:   -5.41 KCAL/MOL
REMARK 924 INTRA-LIGAND FREE ENERGY PREDICTED BY IDOCK:   -0.06 KCAL/MOL
REMARK 927      BINDING AFFINITY PREDICTED BY RF-SCORE:    0.00 PKD
ROOT
HETATM    1  C   UNL     1      -9.279   8.991  65.223  1.00  0.00    -0.205 C  
HETATM    2  C   UNL     1      -8.495   9.279  64.079  1.00  0.00    -0.202 C  
HETATM    3  C   UNL     1      -7.868   9.580  65.388  1.00  0.00    -0.109 C  
HETATM    4  C   UNL     1      -8.885   8.874  67.030  1.00  0.00    -0.126 C  
HETATM    5  C   UNL     1      -7.853   8.288  66.351  1.00  0.00    -0.095 C  
HETATM    6  C   UNL     1      -9.925  10.587  65.890  1.00  0.00    -0.313 C  
HETATM    7  O   UNL     1      -8.495   8.802  68.404  1.00  0.00    -0.128 OA 
HETATM    8  C   UNL     1      -6.737   9.519  67.233  1.00  0.00    -0.072 C  
HETATM    9  C   UNL     1      -7.406   6.859  66.241  1.00  0.00    -0.076 C  
HETATM   10  C   UNL     1      -8.982  13.699  68.131  1.00  0.00    -0.191 A  
HETATM   11  H   UNL     1      -8.965   8.476  69.162  1.00  0.00     0.000 HD 
HETATM   12  C   UNL     1      -7.601  11.007  67.602  1.00  0.00    -0.104 C  
HETATM   13  C   UNL     1      -8.830  11.622  66.640  1.00  0.00    -0.187 C  
HETATM   14  C   UNL     1      -9.567  12.858  67.171  1.00  0.00    -0.225 A  
HETATM   15  C   UNL     1     -10.765  13.287  66.555  1.00  0.00    -0.290 A  
HETATM   16  C   UNL     1     -11.378  14.488  66.967  1.00  0.00    -0.359 A  
HETATM   17  C   UNL     1     -11.460  12.512  65.455  1.00  0.00    -0.389 C  
HETATM   18  C   UNL     1     -10.638  11.400  64.811  1.00  0.00    -0.377 C  
HETATM   19  C   UNL     1     -10.801  15.295  67.944  1.00  0.00    -0.288 A  
HETATM   20  C   UNL     1      -9.593  14.900  68.511  1.00  0.00    -0.215 A  
ENDROOT
BRANCH   4  21
HETATM   21  C   UNL     1     -10.019   7.817  67.075  1.00  0.00    -0.314 C  
HETATM   22  C   UNL     1     -10.887   6.973  67.142  1.00  0.00    -0.427 C  
ENDBRANCH   4  21
BRANCH  19  23
HETATM   23  O   UNL     1     -11.306  16.479  68.408  1.00  0.00    -0.348 OA 
HETATM   24  C   UNL     1     -10.372  17.531  68.621  1.00  0.00    -0.369 C  
ENDBRANCH  19  23
TORSDOF 2
ENDMDL
MODEL       60
REMARK 921   NORMALIZED FREE ENERGY PREDICTED BY IDOCK:   -4.83 KCAL/MOL
REMARK 922        TOTAL FREE ENERGY PREDICTED BY IDOCK:   -5.45 KCAL/MOL
REMARK 923 INTER-LIGAND FREE ENERGY PREDICTED BY IDOCK:   -5.40 KCAL/MOL
REMARK 924 INTRA-LIGAND FREE ENERGY PREDICTED BY IDOCK:   -0.05 KCAL/MOL
REMARK 927      BINDING AFFINITY PREDICTED BY RF-SCORE:    0.00 PKD
ROOT
HETATM    1  C   UNL     1      -8.419   5.936  66.409  1.00  0.00    -0.120 C  
HETATM    2  C   UNL     1      -7.229   6.154  67.147  1.00  0.00    -0.075 C  
HETATM    3  C   UNL     1      -8.482   6.624  67.784  1.00  0.00    -0.122 C  
HETATM    4  C   UNL     1     -10.216   6.026  66.852  1.00  0.00    -0.210 C  
HETATM    5  C   UNL     1      -9.568   5.439  67.904  1.00  0.00    -0.152 C  
HETATM    6  C   UNL     1      -8.943   7.548  65.679  1.00  0.00    -0.012 C  
HETATM    7  O   UNL     1     -11.578   6.116  67.278  1.00  0.00    -0.498 OA 
HETATM    8  C   UNL     1     -10.290   6.818  68.959  1.00  0.00    -0.212 C  
HETATM    9  C   UNL     1      -9.587   4.036  68.439  1.00  0.00    -0.186 C  
HETATM   10  C   UNL     1     -10.836  10.922  66.472  1.00  0.00    -0.234 A  
HETATM   11  H   UNL     1     -12.378   5.840  66.847  1.00  0.00     0.000 HD 
HETATM   12  C   UNL     1     -10.535   8.280  68.010  1.00  0.00    -0.239 C  
HETATM   13  C   UNL     1      -9.554   8.718  66.721  1.00  0.00    -0.267 C  
HETATM   14  C   UNL     1      -9.981   9.954  65.920  1.00  0.00    -0.347 A  
HETATM   15  C   UNL     1      -9.362  10.244  64.683  1.00  0.00    -0.320 A  
HETATM   16  C   UNL     1      -9.671  11.441  64.003  1.00  0.00    -0.275 A  
HETATM   17  C   UNL     1      -8.365   9.321  64.013  1.00  0.00    -0.179 C  
HETATM   18  C   UNL     1      -7.810   8.202  64.889  1.00  0.00    -0.128 C  
HETATM   19  C   UNL     1     -10.545  12.376  64.550  1.00  0.00    -0.322 A  
HETATM   20  C   UNL     1     -11.113  12.115  65.793  1.00  0.00    -0.362 A  
ENDROOT
BRANCH   4  21
HETATM   21  C   UNL     1     -10.399   4.911  65.790  1.00  0.00    -0.219 C  
HETATM   22  C   UNL     1     -10.537   4.067  64.930  1.00  0.00    -0.148 C  
ENDBRANCH   4  21
BRANCH  19  23
HETATM   23  O   UNL     1     -10.904  13.567  63.981  1.00  0.00    -0.308 OA 
HETATM   24  C   UNL     1     -12.146  14.125  64.396  1.00  0.00    -0.463 C  
ENDBRANCH  19  23
TORSDOF 2
ENDMDL
MODEL       61
REMARK 921   NORMALIZED FREE ENERGY PREDICTED BY IDOCK:   -4.83 KCAL/MOL
REMARK 922        TOTAL FREE ENERGY PREDICTED BY IDOCK:   -5.45 KCAL/MOL
REMARK 923 INTER-LIGAND FREE ENERGY PREDICTED BY IDOCK:   -5.38 KCAL/MOL
REMARK 924 INTRA-LIGAND FREE ENERGY PREDICTED BY IDOCK:   -0.07 KCAL/MOL
REMARK 927      BINDING AFFINITY PREDICTED BY RF-SCORE:    0.00 PKD
ROOT
HETATM    1  C   UNL     1      -9.273  13.122  68.063  1.00  0.00    -0.211 C  
HETATM    2  C   UNL     1      -7.994  13.441  67.543  1.00  0.00    -0.186 C  
HETATM    3  C   UNL     1      -8.937  12.797  66.597  1.00  0.00    -0.152 C  
HETATM    4  C   UNL     1     -10.873  12.625  67.269  1.00  0.00    -0.248 C  
HETATM    5  C   UNL     1     -10.325  13.609  66.495  1.00  0.00    -0.282 C  
HETATM    6  C   UNL     1      -9.332  11.300  68.358  1.00  0.00    -0.181 C  
HETATM    7  O   UNL     1     -12.067  12.250  66.577  1.00  0.00    -0.616 OA 
HETATM    8  C   UNL     1     -10.420  12.378  65.077  1.00  0.00    -0.324 C  
HETATM    9  C   UNL     1     -10.732  15.032  66.243  1.00  0.00    -0.322 C  
HETATM   10  C   UNL     1      -9.909   7.818  66.585  1.00  0.00    -0.295 A  
HETATM   11  H   UNL     1     -12.960  12.170  66.888  1.00  0.00     0.000 HD 
HETATM   12  C   UNL     1     -10.293  10.724  65.665  1.00  0.00    -0.297 C  
HETATM   13  C   UNL     1      -9.393  10.291  67.013  1.00  0.00    -0.177 C  
HETATM   14  C   UNL     1      -9.492   8.829  67.467  1.00  0.00    -0.173 A  
HETATM   15  C   UNL     1      -8.972   8.441  68.723  1.00  0.00    -0.140 A  
HETATM   16  C   UNL     1      -8.958   7.079  69.089  1.00  0.00    -0.134 A  
HETATM   17  C   UNL     1      -8.423   9.423  69.737  1.00  0.00    -0.170 C  
HETATM   18  C   UNL     1      -8.157  10.831  69.214  1.00  0.00    -0.102 C  
HETATM   19  C   UNL     1      -9.405   6.092  68.216  1.00  0.00    -0.116 A  
HETATM   20  C   UNL     1      -9.866   6.469  66.958  1.00  0.00    -0.200 A  
ENDROOT
BRANCH   4  21
HETATM   21  C   UNL     1     -11.540  13.349  68.467  1.00  0.00    -0.368 C  
HETATM   22  C   UNL     1     -12.079  13.879  69.415  1.00  0.00    -0.384 C  
ENDBRANCH   4  21
BRANCH  19  23
HETATM   23  O   UNL     1      -9.425   4.747  68.467  1.00  0.00    -0.129 OA 
HETATM   24  C   UNL     1      -9.660   3.893  67.354  1.00  0.00    -0.172 C  
ENDBRANCH  19  23
TORSDOF 2
ENDMDL
MODEL       62
REMARK 921   NORMALIZED FREE ENERGY PREDICTED BY IDOCK:   -4.78 KCAL/MOL
REMARK 922        TOTAL FREE ENERGY PREDICTED BY IDOCK:   -5.40 KCAL/MOL
REMARK 923 INTER-LIGAND FREE ENERGY PREDICTED BY IDOCK:   -5.39 KCAL/MOL
REMARK 924 INTRA-LIGAND FREE ENERGY PREDICTED BY IDOCK:   -0.00 KCAL/MOL
REMARK 927      BINDING AFFINITY PREDICTED BY RF-SCORE:    0.00 PKD
ROOT
HETATM    1  C   UNL     1      -8.685  12.035  68.005  1.00  0.00    -0.175 C  
HETATM    2  C   UNL     1      -7.466  11.823  67.314  1.00  0.00    -0.151 C  
HETATM    3  C   UNL     1      -8.652  11.117  66.771  1.00  0.00    -0.157 C  
HETATM    4  C   UNL     1     -10.455  11.676  67.588  1.00  0.00    -0.191 C  
HETATM    5  C   UNL     1      -9.856  12.139  66.450  1.00  0.00    -0.242 C  
HETATM    6  C   UNL     1      -9.046  10.526  69.005  1.00  0.00    -0.188 C  
HETATM    7  O   UNL     1     -11.792  11.366  67.187  1.00  0.00    -0.566 OA 
HETATM    8  C   UNL     1     -10.408  10.528  65.651  1.00  0.00    -0.274 C  
HETATM    9  C   UNL     1     -10.016  13.418  65.680  1.00  0.00    -0.249 C  
HETATM   10  C   UNL     1     -10.554   6.881  68.813  1.00  0.00    -0.247 A  
HETATM   11  H   UNL     1     -12.624  11.624  67.565  1.00  0.00     0.000 HD 
HETATM   12  C   UNL     1     -10.511   9.235  66.840  1.00  0.00    -0.284 C  
HETATM   13  C   UNL     1      -9.511   9.134  68.182  1.00  0.00    -0.155 C  
HETATM   14  C   UNL     1      -9.817   8.017  69.187  1.00  0.00    -0.178 A  
HETATM   15  C   UNL     1      -9.191   8.013  70.454  1.00  0.00    -0.155 A  
HETATM   16  C   UNL     1      -9.381   6.925  71.331  1.00  0.00    -0.156 A  
HETATM   17  C   UNL     1      -8.310   9.140  70.952  1.00  0.00    -0.231 C  
HETATM   18  C   UNL     1      -7.864  10.144  69.894  1.00  0.00    -0.164 C  
HETATM   19  C   UNL     1     -10.141   5.820  70.957  1.00  0.00    -0.205 A  
HETATM   20  C   UNL     1     -10.713   5.800  69.688  1.00  0.00    -0.416 A  
ENDROOT
BRANCH   4  21
HETATM   21  C   UNL     1     -10.774  12.931  68.441  1.00  0.00    -0.273 C  
HETATM   22  C   UNL     1     -10.997  13.934  69.086  1.00  0.00    -0.253 C  
ENDBRANCH   4  21
BRANCH  19  23
HETATM   23  O   UNL     1     -10.380   4.713  71.725  1.00  0.00    -0.195 OA 
HETATM   24  C   UNL     1     -11.011   4.932  72.981  1.00  0.00    -0.288 C  
ENDBRANCH  19  23
TORSDOF 2
ENDMDL
MODEL       63
REMARK 921   NORMALIZED FREE ENERGY PREDICTED BY IDOCK:   -4.72 KCAL/MOL
REMARK 922        TOTAL FREE ENERGY PREDICTED BY IDOCK:   -5.33 KCAL/MOL
REMARK 923 INTER-LIGAND FREE ENERGY PREDICTED BY IDOCK:   -5.27 KCAL/MOL
REMARK 924 INTRA-LIGAND FREE ENERGY PREDICTED BY IDOCK:   -0.05 KCAL/MOL
REMARK 927      BINDING AFFINITY PREDICTED BY RF-SCORE:    0.00 PKD
ROOT
HETATM    1  C   UNL     1      -9.722  13.861  68.638  1.00  0.00    -0.160 C  
HETATM    2  C   UNL     1      -8.705  14.834  68.477  1.00  0.00    -0.174 C  
HETATM    3  C   UNL     1      -9.763  14.822  67.437  1.00  0.00    -0.214 C  
HETATM    4  C   UNL     1     -11.383  13.623  67.850  1.00  0.00    -0.295 C  
HETATM    5  C   UNL     1     -11.233  14.962  68.084  1.00  0.00    -0.310 C  
HETATM    6  C   UNL     1      -9.412  12.504  67.425  1.00  0.00    -0.184 C  
HETATM    7  O   UNL     1     -12.649  13.515  67.195  1.00  0.00    -0.244 OA 
HETATM    8  C   UNL     1     -11.528  15.192  66.241  1.00  0.00    -0.153 C  
HETATM    9  C   UNL     1     -11.909  15.895  69.045  1.00  0.00    -0.328 C  
HETATM   10  C   UNL     1      -9.915  11.448  63.653  1.00  0.00    -0.402 A  
HETATM   11  H   UNL     1     -13.396  12.961  67.385  1.00  0.00     0.000 HD 
HETATM   12  C   UNL     1     -10.987  13.786  65.332  1.00  0.00    -0.309 C  
HETATM   13  C   UNL     1      -9.690  12.830  65.798  1.00  0.00    -0.167 C  
HETATM   14  C   UNL     1      -9.430  11.569  64.965  1.00  0.00    -0.174 A  
HETATM   15  C   UNL     1      -8.526  10.587  65.431  1.00  0.00    -0.173 A  
HETATM   16  C   UNL     1      -8.198   9.486  64.613  1.00  0.00    -0.146 A  
HETATM   17  C   UNL     1      -7.873  10.636  66.797  1.00  0.00    -0.126 C  
HETATM   18  C   UNL     1      -7.986  11.967  67.534  1.00  0.00    -0.155 C  
HETATM   19  C   UNL     1      -8.713   9.365  63.325  1.00  0.00    -0.208 A  
HETATM   20  C   UNL     1      -9.560  10.360  62.847  1.00  0.00    -0.331 A  
ENDROOT
BRANCH   4  21
HETATM   21  C   UNL     1     -11.792  12.998  69.208  1.00  0.00    -0.370 C  
HETATM   22  C   UNL     1     -12.127  12.476  70.250  1.00  0.00    -0.373 C  
ENDBRANCH   4  21
BRANCH  19  23
HETATM   23  O   UNL     1      -8.453   8.346  62.450  1.00  0.00    -0.196 OA 
HETATM   24  C   UNL     1      -7.126   7.831  62.445  1.00  0.00    -0.082 C  
ENDBRANCH  19  23
TORSDOF 2
ENDMDL
MODEL       64
REMARK 921   NORMALIZED FREE ENERGY PREDICTED BY IDOCK:   -4.69 KCAL/MOL
REMARK 922        TOTAL FREE ENERGY PREDICTED BY IDOCK:   -5.30 KCAL/MOL
REMARK 923 INTER-LIGAND FREE ENERGY PREDICTED BY IDOCK:   -5.26 KCAL/MOL
REMARK 924 INTRA-LIGAND FREE ENERGY PREDICTED BY IDOCK:   -0.04 KCAL/MOL
REMARK 927      BINDING AFFINITY PREDICTED BY RF-SCORE:    0.00 PKD
ROOT
HETATM    1  C   UNL     1     -11.235  10.981  68.047  1.00  0.00    -0.372 C  
HETATM    2  C   UNL     1     -11.368  10.849  66.642  1.00  0.00     0.079 C  
HETATM    3  C   UNL     1      -9.994  10.703  67.180  1.00  0.00    -0.234 C  
HETATM    4  C   UNL     1      -9.864  10.589  69.230  1.00  0.00    -0.205 C  
HETATM    5  C   UNL     1      -9.920   9.568  68.322  1.00  0.00    -0.184 C  
HETATM    6  C   UNL     1     -10.506  12.641  68.397  1.00  0.00    -0.248 C  
HETATM    7  O   UNL     1      -8.758  10.255  70.073  1.00  0.00    -0.375 OA 
HETATM    8  C   UNL     1      -8.117   9.956  67.957  1.00  0.00    -0.108 C  
HETATM    9  C   UNL     1     -10.338   8.132  68.451  1.00  0.00    -0.236 C  
HETATM   10  C   UNL     1      -7.104  14.641  68.548  1.00  0.00    -0.112 A  
HETATM   11  H   UNL     1      -8.698  10.203  71.019  1.00  0.00     0.000 HD 
HETATM   12  C   UNL     1      -7.765  11.657  68.241  1.00  0.00    -0.128 C  
HETATM   13  C   UNL     1      -8.887  12.882  68.009  1.00  0.00    -0.195 C  
HETATM   14  C   UNL     1      -8.460  14.295  68.426  1.00  0.00    -0.166 A  
HETATM   15  C   UNL     1      -9.418  15.332  68.498  1.00  0.00    -0.200 A  
HETATM   16  C   UNL     1      -9.006  16.654  68.767  1.00  0.00    -0.253 A  
HETATM   17  C   UNL     1     -10.904  15.108  68.311  1.00  0.00    -0.262 C  
HETATM   18  C   UNL     1     -11.298  13.758  67.720  1.00  0.00    -0.331 C  
HETATM   19  C   UNL     1      -7.660  16.975  68.917  1.00  0.00    -0.233 A  
HETATM   20  C   UNL     1      -6.713  15.963  68.791  1.00  0.00    -0.125 A  
ENDROOT
BRANCH   4  21
HETATM   21  C   UNL     1     -10.999  10.314  70.250  1.00  0.00    -0.375 C  
HETATM   22  C   UNL     1     -11.888  10.140  71.056  1.00  0.00    -0.475 C  
ENDBRANCH   4  21
BRANCH  19  23
HETATM   23  O   UNL     1      -7.156  18.222  69.169  1.00  0.00    -0.260 OA 
HETATM   24  C   UNL     1      -7.149  19.139  68.081  1.00  0.00    -0.258 C  
ENDBRANCH  19  23
TORSDOF 2
ENDMDL
MODEL       65
REMARK 921   NORMALIZED FREE ENERGY PREDICTED BY IDOCK:   -4.68 KCAL/MOL
REMARK 922        TOTAL FREE ENERGY PREDICTED BY IDOCK:   -5.28 KCAL/MOL
REMARK 923 INTER-LIGAND FREE ENERGY PREDICTED BY IDOCK:   -5.27 KCAL/MOL
REMARK 924 INTRA-LIGAND FREE ENERGY PREDICTED BY IDOCK:   -0.02 KCAL/MOL
REMARK 927      BINDING AFFINITY PREDICTED BY RF-SCORE:    0.00 PKD
ROOT
HETATM    1  C   UNL     1     -11.580  12.050  67.630  1.00  0.00    -0.392 C  
HETATM    2  C   UNL     1     -11.599  11.999  69.046  1.00  0.00    -0.370 C  
HETATM    3  C   UNL     1     -10.377  12.573  68.434  1.00  0.00    -0.237 C  
HETATM    4  C   UNL     1     -10.492  12.925  66.410  1.00  0.00    -0.267 C  
HETATM    5  C   UNL     1     -10.726  13.793  67.440  1.00  0.00    -0.279 C  
HETATM    6  C   UNL     1     -10.473  10.702  67.024  1.00  0.00    -0.295 C  
HETATM    7  O   UNL     1      -9.608  13.634  65.539  1.00  0.00    -0.506 OA 
HETATM    8  C   UNL     1      -8.857  13.886  67.625  1.00  0.00    -0.191 C  
HETATM    9  C   UNL     1     -11.523  15.062  67.521  1.00  0.00    -0.339 C  
HETATM   10  C   UNL     1      -6.694   9.750  66.385  1.00  0.00    -0.080 A  
HETATM   11  H   UNL     1      -9.661  13.796  64.605  1.00  0.00     0.000 HD 
HETATM   12  C   UNL     1      -8.094  12.387  67.107  1.00  0.00    -0.167 C  
HETATM   13  C   UNL     1      -8.818  10.882  67.264  1.00  0.00    -0.134 C  
HETATM   14  C   UNL     1      -8.073   9.692  66.645  1.00  0.00    -0.119 A  
HETATM   15  C   UNL     1      -8.721   8.443  66.512  1.00  0.00    -0.151 A  
HETATM   16  C   UNL     1      -8.001   7.320  66.053  1.00  0.00    -0.115 A  
HETATM   17  C   UNL     1     -10.186   8.226  66.830  1.00  0.00    -0.388 C  
HETATM   18  C   UNL     1     -10.864   9.347  67.612  1.00  0.00    -0.222 C  
HETATM   19  C   UNL     1      -6.641   7.403  65.769  1.00  0.00    -0.045 A  
HETATM   20  C   UNL     1      -5.991   8.620  65.952  1.00  0.00    -0.048 A  
ENDROOT
BRANCH   4  21
HETATM   21  C   UNL     1     -11.757  12.974  65.516  1.00  0.00    -0.408 C  
HETATM   22  C   UNL     1     -12.760  12.977  64.833  1.00  0.00    -0.456 C  
ENDBRANCH   4  21
BRANCH  19  23
HETATM   23  O   UNL     1      -5.849   6.377  65.328  1.00  0.00    -0.021 OA 
HETATM   24  C   UNL     1      -6.492   5.127  65.102  1.00  0.00    -0.036 C  
ENDBRANCH  19  23
TORSDOF 2
ENDMDL
MODEL       66
REMARK 921   NORMALIZED FREE ENERGY PREDICTED BY IDOCK:   -4.57 KCAL/MOL
REMARK 922        TOTAL FREE ENERGY PREDICTED BY IDOCK:   -5.17 KCAL/MOL
REMARK 923 INTER-LIGAND FREE ENERGY PREDICTED BY IDOCK:   -5.13 KCAL/MOL
REMARK 924 INTRA-LIGAND FREE ENERGY PREDICTED BY IDOCK:   -0.03 KCAL/MOL
REMARK 927      BINDING AFFINITY PREDICTED BY RF-SCORE:    0.00 PKD
ROOT
HETATM    1  C   UNL     1     -12.258  13.169  66.241  1.00  0.00    -0.423 C  
HETATM    2  C   UNL     1     -12.646  14.016  67.308  1.00  0.00     0.209 C  
HETATM    3  C   UNL     1     -11.299  14.264  66.740  1.00  0.00    -0.357 C  
HETATM    4  C   UNL     1     -10.879  13.242  65.005  1.00  0.00    -0.322 C  
HETATM    5  C   UNL     1     -11.362  14.512  65.148  1.00  0.00    -0.366 C  
HETATM    6  C   UNL     1     -11.049  11.938  66.899  1.00  0.00    -0.356 C  
HETATM    7  O   UNL     1      -9.790  13.376  64.088  1.00  0.00    -0.735 OA 
HETATM    8  C   UNL     1      -9.605  14.997  65.609  1.00  0.00    -0.279 C  
HETATM    9  C   UNL     1     -12.137  15.403  64.221  1.00  0.00    -0.178 C  
HETATM   10  C   UNL     1      -7.246  11.414  67.827  1.00  0.00    -0.089 A  
HETATM   11  H   UNL     1      -9.596  12.903  63.288  1.00  0.00     0.000 HD 
HETATM   12  C   UNL     1      -8.752  13.652  66.358  1.00  0.00     0.219 C  
HETATM   13  C   UNL     1      -9.511  12.489  67.300  1.00  0.00    -0.193 C  
HETATM   14  C   UNL     1      -8.646  11.313  67.771  1.00  0.00    -0.126 A  
HETATM   15  C   UNL     1      -9.253  10.176  68.349  1.00  0.00    -0.133 A  
HETATM   16  C   UNL     1      -8.452   9.147  68.888  1.00  0.00    -0.129 A  
HETATM   17  C   UNL     1     -10.753   9.977  68.421  1.00  0.00    -0.271 C  
HETATM   18  C   UNL     1     -11.596  11.213  68.127  1.00  0.00    -0.350 C  
HETATM   19  C   UNL     1      -7.064   9.248  68.907  1.00  0.00    -0.068 A  
HETATM   20  C   UNL     1      -6.469  10.393  68.387  1.00  0.00    -0.055 A  
ENDROOT
BRANCH   4  21
HETATM   21  C   UNL     1     -11.867  12.516  64.056  1.00  0.00    -0.510 C  
HETATM   22  C   UNL     1     -12.634  11.913  63.335  1.00  0.00    -0.555 C  
ENDBRANCH   4  21
BRANCH  19  23
HETATM   23  O   UNL     1      -6.199   8.316  69.413  1.00  0.00    -0.036 OA 
HETATM   24  C   UNL     1      -5.981   7.152  68.623  1.00  0.00    -0.026 C  
ENDBRANCH  19  23
TORSDOF 2
ENDMDL
MODEL       67
REMARK 921   NORMALIZED FREE ENERGY PREDICTED BY IDOCK:   -4.55 KCAL/MOL
REMARK 922        TOTAL FREE ENERGY PREDICTED BY IDOCK:   -5.14 KCAL/MOL
REMARK 923 INTER-LIGAND FREE ENERGY PREDICTED BY IDOCK:   -5.14 KCAL/MOL
REMARK 924 INTRA-LIGAND FREE ENERGY PREDICTED BY IDOCK:   -0.01 KCAL/MOL
REMARK 927      BINDING AFFINITY PREDICTED BY RF-SCORE:    0.00 PKD
ROOT
HETATM    1  C   UNL     1     -10.414  12.893  65.699  1.00  0.00    -0.292 C  
HETATM    2  C   UNL     1      -9.285  13.656  66.091  1.00  0.00    -0.009 C  
HETATM    3  C   UNL     1      -9.113  12.184  66.113  1.00  0.00    -0.101 C  
HETATM    4  C   UNL     1     -10.641  11.109  65.252  1.00  0.00    -0.238 C  
HETATM    5  C   UNL     1      -9.467  11.522  64.687  1.00  0.00    -0.120 C  
HETATM    6  C   UNL     1     -11.179  12.182  67.221  1.00  0.00    -0.366 C  
HETATM    7  O   UNL     1     -10.728   9.721  64.920  1.00  0.00     0.289 OA 
HETATM    8  C   UNL     1      -8.655  10.121  65.643  1.00  0.00    -0.166 C  
HETATM    9  C   UNL     1      -9.065  11.748  63.258  1.00  0.00     0.152 C  
HETATM   10  C   UNL     1     -10.905   9.222  69.821  1.00  0.00    -0.239 A  
HETATM   11  H   UNL     1     -11.434   9.225  64.523  1.00  0.00     0.000 HD 
HETATM   12  C   UNL     1      -9.534   9.776  67.129  1.00  0.00    -0.189 C  
HETATM   13  C   UNL     1     -10.353  10.946  68.008  1.00  0.00    -0.212 C  
HETATM   14  C   UNL     1     -11.174  10.456  69.207  1.00  0.00    -0.304 A  
HETATM   15  C   UNL     1     -12.085  11.329  69.845  1.00  0.00    -0.414 A  
HETATM   16  C   UNL     1     -12.752  10.918  71.018  1.00  0.00    -0.505 A  
HETATM   17  C   UNL     1     -12.410  12.716  69.331  1.00  0.00     0.046 C  
HETATM   18  C   UNL     1     -11.466  13.261  68.263  1.00  0.00    -0.351 C  
HETATM   19  C   UNL     1     -12.498   9.677  71.595  1.00  0.00    -0.407 A  
HETATM   20  C   UNL     1     -11.560   8.840  70.998  1.00  0.00    -0.337 A  
ENDROOT
BRANCH   4  21
HETATM   21  C   UNL     1     -11.766  11.622  64.318  1.00  0.00    -0.262 C  
HETATM   22  C   UNL     1     -12.621  12.052  63.572  1.00  0.00    -0.625 C  
ENDBRANCH   4  21
BRANCH  19  23
HETATM   23  O   UNL     1     -13.081   9.186  72.732  1.00  0.00    -0.370 OA 
HETATM   24  C   UNL     1     -14.165   8.282  72.554  1.00  0.00    -0.118 C  
ENDBRANCH  19  23
TORSDOF 2
ENDMDL
MODEL       68
REMARK 921   NORMALIZED FREE ENERGY PREDICTED BY IDOCK:   -4.55 KCAL/MOL
REMARK 922        TOTAL FREE ENERGY PREDICTED BY IDOCK:   -5.14 KCAL/MOL
REMARK 923 INTER-LIGAND FREE ENERGY PREDICTED BY IDOCK:   -5.10 KCAL/MOL
REMARK 924 INTRA-LIGAND FREE ENERGY PREDICTED BY IDOCK:   -0.04 KCAL/MOL
REMARK 927      BINDING AFFINITY PREDICTED BY RF-SCORE:    0.00 PKD
ROOT
HETATM    1  C   UNL     1      -8.034  10.213  68.295  1.00  0.00    -0.101 C  
HETATM    2  C   UNL     1      -8.190  10.234  69.703  1.00  0.00    -0.146 C  
HETATM    3  C   UNL     1      -9.400  10.564  68.911  1.00  0.00    -0.192 C  
HETATM    4  C   UNL     1      -9.241  10.228  66.888  1.00  0.00    -0.150 C  
HETATM    5  C   UNL     1      -9.751   9.402  67.851  1.00  0.00    -0.177 C  
HETATM    6  C   UNL     1      -7.954  11.959  67.702  1.00  0.00    -0.146 C  
HETATM    7  O   UNL     1     -10.239  10.240  65.864  1.00  0.00    -0.254 OA 
HETATM    8  C   UNL     1     -11.270  10.511  67.823  1.00  0.00    -0.344 C  
HETATM    9  C   UNL     1      -9.945   7.914  67.899  1.00  0.00    -0.220 C  
HETATM   10  C   UNL     1     -10.168  15.088  66.749  1.00  0.00    -0.260 A  
HETATM   11  H   UNL     1     -10.165  10.085  64.930  1.00  0.00     0.000 HD 
HETATM   12  C   UNL     1     -10.845  12.157  67.368  1.00  0.00    -0.286 C  
HETATM   13  C   UNL     1      -9.371  12.865  67.743  1.00  0.00    -0.203 C  
HETATM   14  C   UNL     1      -9.110  14.260  67.161  1.00  0.00    -0.237 A  
HETATM   15  C   UNL     1      -7.813  14.819  67.217  1.00  0.00    -0.223 A  
HETATM   16  C   UNL     1      -7.599  16.146  66.789  1.00  0.00    -0.268 A  
HETATM   17  C   UNL     1      -6.599  14.061  67.710  1.00  0.00    -0.188 C  
HETATM   18  C   UNL     1      -6.892  12.760  68.452  1.00  0.00    -0.091 C  
HETATM   19  C   UNL     1      -8.653  16.944  66.353  1.00  0.00    -0.293 A  
HETATM   20  C   UNL     1      -9.939  16.411  66.350  1.00  0.00    -0.318 A  
ENDROOT
BRANCH   4  21
HETATM   21  C   UNL     1      -8.173   9.393  66.135  1.00  0.00    -0.111 C  
HETATM   22  C   UNL     1      -7.316   8.775  65.540  1.00  0.00    -0.085 C  
ENDBRANCH   4  21
BRANCH  19  23
HETATM   23  O   UNL     1      -8.556  18.241  65.927  1.00  0.00    -0.502 OA 
HETATM   24  C   UNL     1      -8.896  19.249  66.872  1.00  0.00    -0.303 C  
ENDBRANCH  19  23
TORSDOF 2
ENDMDL
MODEL       69
REMARK 921   NORMALIZED FREE ENERGY PREDICTED BY IDOCK:   -4.48 KCAL/MOL
REMARK 922        TOTAL FREE ENERGY PREDICTED BY IDOCK:   -5.06 KCAL/MOL
REMARK 923 INTER-LIGAND FREE ENERGY PREDICTED BY IDOCK:   -5.01 KCAL/MOL
REMARK 924 INTRA-LIGAND FREE ENERGY PREDICTED BY IDOCK:   -0.05 KCAL/MOL
REMARK 927      BINDING AFFINITY PREDICTED BY RF-SCORE:    0.00 PKD
ROOT
HETATM    1  C   UNL     1     -11.261  13.719  66.897  1.00  0.00    -0.326 C  
HETATM    2  C   UNL     1     -11.780  13.237  68.125  1.00  0.00    -0.397 C  
HETATM    3  C   UNL     1     -10.373  13.705  68.154  1.00  0.00    -0.245 C  
HETATM    4  C   UNL     1      -9.740  14.683  66.458  1.00  0.00    -0.280 C  
HETATM    5  C   UNL     1     -10.239  15.218  67.613  1.00  0.00    -0.242 C  
HETATM    6  C   UNL     1     -10.141  12.426  66.202  1.00  0.00    -0.265 C  
HETATM    7  O   UNL     1      -8.546  15.428  66.207  1.00  0.00    -0.397 OA 
HETATM    8  C   UNL     1      -8.553  14.858  68.364  1.00  0.00    -0.159 C  
HETATM    9  C   UNL     1     -10.894  16.536  67.908  1.00  0.00    -0.326 C  
HETATM   10  C   UNL     1      -6.482  10.956  66.412  1.00  0.00    -0.130 A  
HETATM   11  H   UNL     1      -8.253  15.878  65.424  1.00  0.00     0.000 HD 
HETATM   12  C   UNL     1      -7.798  13.469  67.590  1.00  0.00    -0.178 C  
HETATM   13  C   UNL     1      -8.665  12.175  66.969  1.00  0.00    -0.190 C  
HETATM   14  C   UNL     1      -7.864  11.108  66.213  1.00  0.00    -0.109 A  
HETATM   15  C   UNL     1      -8.536  10.125  65.451  1.00  0.00    -0.165 A  
HETATM   16  C   UNL     1      -7.807   9.077  64.852  1.00  0.00    -0.119 A  
HETATM   17  C   UNL     1     -10.033  10.130  65.220  1.00  0.00    -0.381 C  
HETATM   18  C   UNL     1     -10.836  11.069  66.115  1.00  0.00    -0.212 C  
HETATM   19  C   UNL     1      -6.432   8.958  65.034  1.00  0.00    -0.065 A  
HETATM   20  C   UNL     1      -5.778   9.895  65.829  1.00  0.00    -0.059 A  
ENDROOT
BRANCH   4  21
HETATM   21  C   UNL     1     -10.602  15.269  65.311  1.00  0.00    -0.438 C  
HETATM   22  C   UNL     1     -11.245  15.751  64.402  1.00  0.00    -0.249 C  
ENDBRANCH   4  21
BRANCH  19  23
HETATM   23  O   UNL     1      -5.635   7.979  64.508  1.00  0.00    -0.043 OA 
HETATM   24  C   UNL     1      -6.256   6.728  64.235  1.00  0.00    -0.035 C  
ENDBRANCH  19  23
TORSDOF 2
ENDMDL
MODEL       70
REMARK 921   NORMALIZED FREE ENERGY PREDICTED BY IDOCK:   -4.46 KCAL/MOL
REMARK 922        TOTAL FREE ENERGY PREDICTED BY IDOCK:   -5.03 KCAL/MOL
REMARK 923 INTER-LIGAND FREE ENERGY PREDICTED BY IDOCK:   -4.98 KCAL/MOL
REMARK 924 INTRA-LIGAND FREE ENERGY PREDICTED BY IDOCK:   -0.05 KCAL/MOL
REMARK 927      BINDING AFFINITY PREDICTED BY RF-SCORE:    0.00 PKD
ROOT
HETATM    1  C   UNL     1      -8.201  10.882  66.290  1.00  0.00    -0.165 C  
HETATM    2  C   UNL     1      -6.995  11.289  66.913  1.00  0.00    -0.137 C  
HETATM    3  C   UNL     1      -7.086   9.854  66.550  1.00  0.00    -0.094 C  
HETATM    4  C   UNL     1      -8.698   9.347  65.377  1.00  0.00    -0.166 C  
HETATM    5  C   UNL     1      -7.425   9.657  64.987  1.00  0.00    -0.116 C  
HETATM    6  C   UNL     1      -9.209   9.968  67.538  1.00  0.00    -0.151 C  
HETATM    7  O   UNL     1      -8.997   8.132  64.685  1.00  0.00    -0.379 OA 
HETATM    8  C   UNL     1      -6.957   7.930  65.566  1.00  0.00    -0.059 C  
HETATM    9  C   UNL     1      -6.867  10.157  63.685  1.00  0.00    -0.112 C  
HETATM   10  C   UNL     1      -9.684   6.449  69.267  1.00  0.00    -0.150 A  
HETATM   11  H   UNL     1      -9.742   7.898  64.144  1.00  0.00     0.000 HD 
HETATM   12  C   UNL     1      -8.008   7.394  66.873  1.00  0.00    -0.115 C  
HETATM   13  C   UNL     1      -8.683   8.438  68.000  1.00  0.00    -0.139 C  
HETATM   14  C   UNL     1      -9.678   7.826  68.994  1.00  0.00    -0.157 A  
HETATM   15  C   UNL     1     -10.474   8.667  69.805  1.00  0.00    -0.220 A  
HETATM   16  C   UNL     1     -11.303   8.106  70.801  1.00  0.00    -0.283 A  
HETATM   17  C   UNL     1     -10.505  10.174  69.666  1.00  0.00    -0.282 C  
HETATM   18  C   UNL     1      -9.391  10.781  68.818  1.00  0.00    -0.186 C  
HETATM   19  C   UNL     1     -11.320   6.735  71.037  1.00  0.00    -0.309 A  
HETATM   20  C   UNL     1     -10.496   5.913  70.274  1.00  0.00    -0.327 A  
ENDROOT
BRANCH   4  21
HETATM   21  C   UNL     1      -9.630  10.287  64.571  1.00  0.00    -0.378 C  
HETATM   22  C   UNL     1     -10.392  11.007  63.961  1.00  0.00    -0.436 C  
ENDBRANCH   4  21
BRANCH  19  23
HETATM   23  O   UNL     1     -12.077   6.093  71.979  1.00  0.00    -0.318 OA 
HETATM   24  C   UNL     1     -11.377   5.276  72.911  1.00  0.00    -0.301 C  
ENDBRANCH  19  23
TORSDOF 2
ENDMDL
MODEL       71
REMARK 921   NORMALIZED FREE ENERGY PREDICTED BY IDOCK:   -4.45 KCAL/MOL
REMARK 922        TOTAL FREE ENERGY PREDICTED BY IDOCK:   -5.02 KCAL/MOL
REMARK 923 INTER-LIGAND FREE ENERGY PREDICTED BY IDOCK:   -4.96 KCAL/MOL
REMARK 924 INTRA-LIGAND FREE ENERGY PREDICTED BY IDOCK:   -0.06 KCAL/MOL
REMARK 927      BINDING AFFINITY PREDICTED BY RF-SCORE:    0.00 PKD
ROOT
HETATM    1  C   UNL     1      -8.602   9.756  68.199  1.00  0.00    -0.118 C  
HETATM    2  C   UNL     1      -7.206   9.607  68.003  1.00  0.00    -0.081 C  
HETATM    3  C   UNL     1      -8.045   8.453  67.599  1.00  0.00    -0.118 C  
HETATM    4  C   UNL     1     -10.073   8.801  67.598  1.00  0.00    -0.216 C  
HETATM    5  C   UNL     1      -9.193   8.889  66.555  1.00  0.00    -0.231 C  
HETATM    6  C   UNL     1      -9.081   8.764  69.679  1.00  0.00    -0.149 C  
HETATM    7  O   UNL     1     -11.150   8.010  67.090  1.00  0.00    -0.447 OA 
HETATM    8  C   UNL     1      -9.240   7.009  66.517  1.00  0.00    -0.198 C  
HETATM    9  C   UNL     1      -9.247   9.639  65.256  1.00  0.00    -0.295 C  
HETATM   10  C   UNL     1      -9.968   5.113  70.898  1.00  0.00    -0.280 A  
HETATM   11  H   UNL     1     -12.086   8.171  67.089  1.00  0.00     0.000 HD 
HETATM   12  C   UNL     1      -9.569   6.351  68.115  1.00  0.00    -0.115 C  
HETATM   13  C   UNL     1      -9.067   7.088  69.537  1.00  0.00    -0.146 C  
HETATM   14  C   UNL     1      -9.546   6.452  70.847  1.00  0.00    -0.189 A  
HETATM   15  C   UNL     1      -9.382   7.142  72.070  1.00  0.00    -0.151 A  
HETATM   16  C   UNL     1      -9.715   6.510  73.287  1.00  0.00    -0.181 A  
HETATM   17  C   UNL     1      -8.866   8.563  72.162  1.00  0.00    -0.286 C  
HETATM   18  C   UNL     1      -8.223   9.115  70.894  1.00  0.00    -0.220 C  
HETATM   19  C   UNL     1     -10.161   5.192  73.316  1.00  0.00    -0.186 A  
HETATM   20  C   UNL     1     -10.271   4.495  72.117  1.00  0.00    -0.256 A  
ENDROOT
BRANCH   4  21
HETATM   21  C   UNL     1     -10.812  10.163  67.646  1.00  0.00    -0.346 C  
HETATM   22  C   UNL     1     -11.410  11.215  67.717  1.00  0.00    -0.364 C  
ENDBRANCH   4  21
BRANCH  19  23
HETATM   23  O   UNL     1     -10.500   4.485  74.438  1.00  0.00    -0.242 OA 
HETATM   24  C   UNL     1     -10.743   3.094  74.266  1.00  0.00    -0.145 C  
ENDBRANCH  19  23
TORSDOF 2
ENDMDL
MODEL       72
REMARK 921   NORMALIZED FREE ENERGY PREDICTED BY IDOCK:   -4.42 KCAL/MOL
REMARK 922        TOTAL FREE ENERGY PREDICTED BY IDOCK:   -5.00 KCAL/MOL
REMARK 923 INTER-LIGAND FREE ENERGY PREDICTED BY IDOCK:   -4.97 KCAL/MOL
REMARK 924 INTRA-LIGAND FREE ENERGY PREDICTED BY IDOCK:   -0.03 KCAL/MOL
REMARK 927      BINDING AFFINITY PREDICTED BY RF-SCORE:    0.00 PKD
ROOT
HETATM    1  C   UNL     1     -11.405   7.197  70.097  1.00  0.00    -0.277 C  
HETATM    2  C   UNL     1     -11.132   6.031  69.340  1.00  0.00    -0.445 C  
HETATM    3  C   UNL     1     -10.074   6.451  70.289  1.00  0.00    -0.216 C  
HETATM    4  C   UNL     1     -10.609   7.951  71.592  1.00  0.00    -0.221 C  
HETATM    5  C   UNL     1     -10.645   6.598  71.789  1.00  0.00    -0.242 C  
HETATM    6  C   UNL     1     -10.420   8.586  69.383  1.00  0.00    -0.223 C  
HETATM    7  O   UNL     1      -9.938   8.462  72.745  1.00  0.00    -0.284 OA 
HETATM    8  C   UNL     1      -8.780   6.705  72.006  1.00  0.00    -0.127 C  
HETATM    9  C   UNL     1     -11.434   5.742  72.737  1.00  0.00    -0.304 C  
HETATM   10  C   UNL     1      -6.834  10.241  69.354  1.00  0.00    -0.076 A  
HETATM   11  H   UNL     1     -10.185   9.155  73.346  1.00  0.00     0.000 HD 
HETATM   12  C   UNL     1      -8.109   8.040  71.077  1.00  0.00    -0.097 C  
HETATM   13  C   UNL     1      -8.754   8.566  69.620  1.00  0.00    -0.133 C  
HETATM   14  C   UNL     1      -8.129   9.824  69.004  1.00  0.00    -0.101 A  
HETATM   15  C   UNL     1      -8.765  10.473  67.922  1.00  0.00    -0.126 A  
HETATM   16  C   UNL     1      -8.132  11.558  67.280  1.00  0.00    -0.153 A  
HETATM   17  C   UNL     1     -10.128  10.075  67.396  1.00  0.00    -0.256 C  
HETATM   18  C   UNL     1     -10.654   8.727  67.880  1.00  0.00    -0.236 C  
HETATM   19  C   UNL     1      -6.861  11.980  67.660  1.00  0.00    -0.115 A  
HETATM   20  C   UNL     1      -6.212  11.305  68.690  1.00  0.00    -0.044 A  
ENDROOT
BRANCH   4  21
HETATM   21  C   UNL     1     -12.032   8.467  71.927  1.00  0.00    -0.397 C  
HETATM   22  C   UNL     1     -13.149   8.840  72.217  1.00  0.00    -0.458 C  
ENDBRANCH   4  21
BRANCH  19  23
HETATM   23  O   UNL     1      -6.156  13.011  67.101  1.00  0.00    -0.307 OA 
HETATM   24  C   UNL     1      -6.009  14.185  67.890  1.00  0.00    -0.135 C  
ENDBRANCH  19  23
TORSDOF 2
ENDMDL
MODEL       73
REMARK 921   NORMALIZED FREE ENERGY PREDICTED BY IDOCK:   -4.42 KCAL/MOL
REMARK 922        TOTAL FREE ENERGY PREDICTED BY IDOCK:   -4.99 KCAL/MOL
REMARK 923 INTER-LIGAND FREE ENERGY PREDICTED BY IDOCK:   -4.94 KCAL/MOL
REMARK 924 INTRA-LIGAND FREE ENERGY PREDICTED BY IDOCK:   -0.05 KCAL/MOL
REMARK 927      BINDING AFFINITY PREDICTED BY RF-SCORE:    0.00 PKD
ROOT
HETATM    1  C   UNL     1     -11.225   7.645  69.990  1.00  0.00    -0.146 C  
HETATM    2  C   UNL     1     -11.261   6.248  69.758  1.00  0.00    -0.499 C  
HETATM    3  C   UNL     1     -10.006   6.776  70.345  1.00  0.00    -0.193 C  
HETATM    4  C   UNL     1     -10.083   8.738  70.959  1.00  0.00    -0.237 C  
HETATM    5  C   UNL     1     -10.286   7.606  71.698  1.00  0.00    -0.217 C  
HETATM    6  C   UNL     1     -10.179   8.415  68.678  1.00  0.00    -0.220 C  
HETATM    7  O   UNL     1      -9.157   9.507  71.731  1.00  0.00    -0.178 OA 
HETATM    8  C   UNL     1      -8.416   7.403  71.674  1.00  0.00    -0.120 C  
HETATM    9  C   UNL     1     -11.021   7.364  72.985  1.00  0.00    -0.422 C  
HETATM   10  C   UNL     1      -6.444   9.158  67.631  1.00  0.00    -0.063 A  
HETATM   11  H   UNL     1      -9.193  10.412  72.014  1.00  0.00     0.000 HD 
HETATM   12  C   UNL     1      -7.721   8.107  70.219  1.00  0.00    -0.085 C  
HETATM   13  C   UNL     1      -8.519   8.148  68.743  1.00  0.00    -0.126 C  
HETATM   14  C   UNL     1      -7.827   8.913  67.608  1.00  0.00    -0.101 A  
HETATM   15  C   UNL     1      -8.533   9.208  66.420  1.00  0.00    -0.129 A  
HETATM   16  C   UNL     1      -7.864   9.806  65.332  1.00  0.00    -0.122 A  
HETATM   17  C   UNL     1     -10.010   8.926  66.236  1.00  0.00    -0.337 C  
HETATM   18  C   UNL     1     -10.641   8.009  67.280  1.00  0.00    -0.360 C  
HETATM   19  C   UNL     1      -6.498  10.072  65.382  1.00  0.00    -0.106 A  
HETATM   20  C   UNL     1      -5.792   9.731  66.532  1.00  0.00    -0.054 A  
ENDROOT
BRANCH   4  21
HETATM   21  C   UNL     1     -11.335   9.623  71.186  1.00  0.00    -0.456 C  
HETATM   22  C   UNL     1     -12.291  10.348  71.366  1.00  0.00    -0.500 C  
ENDBRANCH   4  21
BRANCH  19  23
HETATM   23  O   UNL     1      -5.754  10.638  64.383  1.00  0.00    -0.128 OA 
HETATM   24  C   UNL     1      -5.959  10.132  63.070  1.00  0.00    -0.136 C  
ENDBRANCH  19  23
TORSDOF 2
ENDMDL
MODEL       74
REMARK 921   NORMALIZED FREE ENERGY PREDICTED BY IDOCK:   -4.40 KCAL/MOL
REMARK 922        TOTAL FREE ENERGY PREDICTED BY IDOCK:   -4.97 KCAL/MOL
REMARK 923 INTER-LIGAND FREE ENERGY PREDICTED BY IDOCK:   -4.91 KCAL/MOL
REMARK 924 INTRA-LIGAND FREE ENERGY PREDICTED BY IDOCK:   -0.05 KCAL/MOL
REMARK 927      BINDING AFFINITY PREDICTED BY RF-SCORE:    0.00 PKD
ROOT
HETATM    1  C   UNL     1      -7.426  10.411  65.432  1.00  0.00    -0.127 C  
HETATM    2  C   UNL     1      -6.198  10.718  66.067  1.00  0.00    -0.134 C  
HETATM    3  C   UNL     1      -6.862   9.468  66.509  1.00  0.00    -0.083 C  
HETATM    4  C   UNL     1      -8.469   8.880  65.368  1.00  0.00    -0.160 C  
HETATM    5  C   UNL     1      -7.164   8.485  65.268  1.00  0.00    -0.083 C  
HETATM    6  C   UNL     1      -8.793  10.794  66.612  1.00  0.00    -0.151 C  
HETATM    7  O   UNL     1      -9.212   7.658  65.370  1.00  0.00    -0.375 OA 
HETATM    8  C   UNL     1      -7.499   7.417  66.779  1.00  0.00    -0.096 C  
HETATM    9  C   UNL     1      -6.376   7.901  64.131  1.00  0.00    -0.057 C  
HETATM   10  C   UNL     1     -10.798   9.382  69.707  1.00  0.00    -0.250 A  
HETATM   11  H   UNL     1      -9.955   7.387  64.844  1.00  0.00     0.000 HD 
HETATM   12  C   UNL     1      -8.749   8.128  67.793  1.00  0.00    -0.130 C  
HETATM   13  C   UNL     1      -8.985   9.782  67.942  1.00  0.00    -0.119 C  
HETATM   14  C   UNL     1     -10.199  10.233  68.764  1.00  0.00    -0.205 A  
HETATM   15  C   UNL     1     -10.612  11.584  68.733  1.00  0.00    -0.241 A  
HETATM   16  C   UNL     1     -11.654  12.022  69.578  1.00  0.00    -0.389 A  
HETATM   17  C   UNL     1      -9.999  12.623  67.817  1.00  0.00    -0.218 C  
HETATM   18  C   UNL     1      -8.688  12.221  67.149  1.00  0.00    -0.193 C  
HETATM   19  C   UNL     1     -12.259  11.157  70.485  1.00  0.00    -0.384 A  
HETATM   20  C   UNL     1     -11.815   9.840  70.554  1.00  0.00    -0.316 A  
ENDROOT
BRANCH   4  21
HETATM   21  C   UNL     1      -8.874   9.373  63.955  1.00  0.00    -0.210 C  
HETATM   22  C   UNL     1      -9.230   9.750  62.859  1.00  0.00    -0.241 C  
ENDBRANCH   4  21
BRANCH  19  23
HETATM   23  O   UNL     1     -13.267  11.481  71.353  1.00  0.00    -0.314 OA 
HETATM   24  C   UNL     1     -13.170  12.745  71.999  1.00  0.00    -0.436 C  
ENDBRANCH  19  23
TORSDOF 2
ENDMDL
MODEL       75
REMARK 921   NORMALIZED FREE ENERGY PREDICTED BY IDOCK:   -4.39 KCAL/MOL
REMARK 922        TOTAL FREE ENERGY PREDICTED BY IDOCK:   -4.96 KCAL/MOL
REMARK 923 INTER-LIGAND FREE ENERGY PREDICTED BY IDOCK:   -4.91 KCAL/MOL
REMARK 924 INTRA-LIGAND FREE ENERGY PREDICTED BY IDOCK:   -0.05 KCAL/MOL
REMARK 927      BINDING AFFINITY PREDICTED BY RF-SCORE:    0.00 PKD
ROOT
HETATM    1  C   UNL     1      -7.166   9.757  66.207  1.00  0.00    -0.099 C  
HETATM    2  C   UNL     1      -6.538   9.105  67.297  1.00  0.00    -0.065 C  
HETATM    3  C   UNL     1      -8.004   8.913  67.183  1.00  0.00    -0.096 C  
HETATM    4  C   UNL     1      -8.845   9.602  65.437  1.00  0.00    -0.171 C  
HETATM    5  C   UNL     1      -8.418   8.338  65.736  1.00  0.00    -0.164 C  
HETATM    6  C   UNL     1      -8.057  11.235  66.861  1.00  0.00    -0.155 C  
HETATM    7  O   UNL     1     -10.159   9.418  64.903  1.00  0.00    -0.253 OA 
HETATM    8  C   UNL     1      -9.993   8.178  66.750  1.00  0.00    -0.349 C  
HETATM    9  C   UNL     1      -7.999   7.188  64.866  1.00  0.00    -0.127 C  
HETATM   10  C   UNL     1     -11.392  12.402  68.627  1.00  0.00    -0.332 A  
HETATM   11  H   UNL     1     -10.547   9.737  64.097  1.00  0.00     0.000 HD 
HETATM   12  C   UNL     1     -10.511   9.742  67.368  1.00  0.00    -0.319 C  
HETATM   13  C   UNL     1      -9.444  10.971  67.776  1.00  0.00    -0.169 C  
HETATM   14  C   UNL     1     -10.064  12.316  68.176  1.00  0.00    -0.211 A  
HETATM   15  C   UNL     1      -9.249  13.465  68.291  1.00  0.00    -0.198 A  
HETATM   16  C   UNL     1      -9.797  14.672  68.772  1.00  0.00    -0.227 A  
HETATM   17  C   UNL     1      -7.783  13.488  67.910  1.00  0.00    -0.153 C  
HETATM   18  C   UNL     1      -7.136  12.124  67.695  1.00  0.00    -0.124 C  
HETATM   19  C   UNL     1     -11.124  14.749  69.186  1.00  0.00    -0.265 A  
HETATM   20  C   UNL     1     -11.911  13.603  69.123  1.00  0.00    -0.394 A  
ENDROOT
BRANCH   4  21
HETATM   21  C   UNL     1      -8.131   9.991  64.117  1.00  0.00    -0.153 C  
HETATM   22  C   UNL     1      -7.587  10.334  63.088  1.00  0.00    -0.132 C  
ENDBRANCH   4  21
BRANCH  19  23
HETATM   23  O   UNL     1     -11.749  15.864  69.675  1.00  0.00    -0.333 OA 
HETATM   24  C   UNL     1     -12.167  15.816  71.034  1.00  0.00    -0.418 C  
ENDBRANCH  19  23
TORSDOF 2
ENDMDL
MODEL       76
REMARK 921   NORMALIZED FREE ENERGY PREDICTED BY IDOCK:   -4.38 KCAL/MOL
REMARK 922        TOTAL FREE ENERGY PREDICTED BY IDOCK:   -4.95 KCAL/MOL
REMARK 923 INTER-LIGAND FREE ENERGY PREDICTED BY IDOCK:   -4.92 KCAL/MOL
REMARK 924 INTRA-LIGAND FREE ENERGY PREDICTED BY IDOCK:   -0.03 KCAL/MOL
REMARK 927      BINDING AFFINITY PREDICTED BY RF-SCORE:    0.00 PKD
ROOT
HETATM    1  C   UNL     1     -10.336  10.950  65.438  1.00  0.00    -0.326 C  
HETATM    2  C   UNL     1     -11.269  10.358  66.325  1.00  0.00     0.417 C  
HETATM    3  C   UNL     1     -11.380  11.826  66.152  1.00  0.00    -0.342 C  
HETATM    4  C   UNL     1     -10.235  12.620  64.639  1.00  0.00    -0.294 C  
HETATM    5  C   UNL     1     -11.545  12.231  64.601  1.00  0.00    -0.404 C  
HETATM    6  C   UNL     1      -9.054  11.812  66.448  1.00  0.00    -0.215 C  
HETATM    7  O   UNL     1     -10.233  13.928  64.063  1.00  0.00    -0.587 OA 
HETATM    8  C   UNL     1     -11.917  13.827  65.524  1.00  0.00    -0.404 C  
HETATM    9  C   UNL     1     -12.441  11.829  63.465  1.00  0.00    -0.504 C  
HETATM   10  C   UNL     1      -8.288  15.144  68.426  1.00  0.00    -0.154 A  
HETATM   11  H   UNL     1      -9.704  14.294  63.365  1.00  0.00     0.000 HD 
HETATM   12  C   UNL     1     -10.553  14.313  66.524  1.00  0.00    -0.286 C  
HETATM   13  C   UNL     1      -9.505  13.221  67.248  1.00  0.00    -0.233 C  
HETATM   14  C   UNL     1      -8.294  13.811  67.980  1.00  0.00    -0.171 A  
HETATM   15  C   UNL     1      -7.240  12.968  68.399  1.00  0.00    -0.110 A  
HETATM   16  C   UNL     1      -6.183  13.491  69.173  1.00  0.00    -0.097 A  
HETATM   17  C   UNL     1      -7.162  11.496  68.051  1.00  0.00    -0.085 C  
HETATM   18  C   UNL     1      -8.442  10.882  67.493  1.00  0.00    -0.123 C  
HETATM   19  C   UNL     1      -6.177  14.822  69.580  1.00  0.00    -0.133 A  
HETATM   20  C   UNL     1      -7.242  15.639  69.214  1.00  0.00    -0.198 A  
ENDROOT
BRANCH   4  21
HETATM   21  C   UNL     1      -9.537  11.874  63.473  1.00  0.00    -0.197 C  
HETATM   22  C   UNL     1      -8.961  11.278  62.586  1.00  0.00    -0.311 C  
ENDBRANCH   4  21
BRANCH  19  23
HETATM   23  O   UNL     1      -5.210  15.426  70.338  1.00  0.00    -0.122 OA 
HETATM   24  C   UNL     1      -5.276  15.213  71.743  1.00  0.00    -0.042 C  
ENDBRANCH  19  23
TORSDOF 2
ENDMDL
MODEL       77
REMARK 921   NORMALIZED FREE ENERGY PREDICTED BY IDOCK:   -4.36 KCAL/MOL
REMARK 922        TOTAL FREE ENERGY PREDICTED BY IDOCK:   -4.93 KCAL/MOL
REMARK 923 INTER-LIGAND FREE ENERGY PREDICTED BY IDOCK:   -4.88 KCAL/MOL
REMARK 924 INTRA-LIGAND FREE ENERGY PREDICTED BY IDOCK:   -0.05 KCAL/MOL
REMARK 927      BINDING AFFINITY PREDICTED BY RF-SCORE:    0.00 PKD
ROOT
HETATM    1  C   UNL     1      -9.264   8.129  67.662  1.00  0.00    -0.150 C  
HETATM    2  C   UNL     1     -10.340   7.938  66.761  1.00  0.00    -0.357 C  
HETATM    3  C   UNL     1     -10.677   8.602  68.043  1.00  0.00    -0.137 C  
HETATM    4  C   UNL     1      -9.065   9.148  69.197  1.00  0.00    -0.144 C  
HETATM    5  C   UNL     1      -9.762   9.904  68.296  1.00  0.00    -0.159 C  
HETATM    6  C   UNL     1      -9.418   6.877  69.010  1.00  0.00    -0.137 C  
HETATM    7  O   UNL     1      -8.996   9.964  70.369  1.00  0.00    -0.342 OA 
HETATM    8  C   UNL     1     -11.095  10.028  69.617  1.00  0.00    -0.300 C  
HETATM    9  C   UNL     1      -9.395  11.138  67.524  1.00  0.00    -0.174 C  
HETATM   10  C   UNL     1     -11.263   6.094  72.413  1.00  0.00    -0.329 A  
HETATM   11  H   UNL     1      -8.251  10.216  70.902  1.00  0.00     0.000 HD 
HETATM   12  C   UNL     1     -11.090   8.609  70.657  1.00  0.00    -0.282 C  
HETATM   13  C   UNL     1     -10.662   7.076  70.124  1.00  0.00    -0.265 C  
HETATM   14  C   UNL     1     -10.586   5.974  71.188  1.00  0.00    -0.303 A  
HETATM   15  C   UNL     1      -9.999   4.727  70.874  1.00  0.00    -0.283 A  
HETATM   16  C   UNL     1     -10.034   3.675  71.813  1.00  0.00    -0.210 A  
HETATM   17  C   UNL     1      -9.303   4.441  69.560  1.00  0.00    -0.226 C  
HETATM   18  C   UNL     1      -9.542   5.461  68.451  1.00  0.00    -0.166 C  
HETATM   19  C   UNL     1     -10.682   3.821  73.037  1.00  0.00    -0.145 A  
HETATM   20  C   UNL     1     -11.308   5.031  73.323  1.00  0.00    -0.393 A  
ENDROOT
BRANCH   4  21
HETATM   21  C   UNL     1      -7.576   9.252  68.777  1.00  0.00    -0.079 C  
HETATM   22  C   UNL     1      -6.407   9.366  68.473  1.00  0.00    -0.052 C  
ENDBRANCH   4  21
BRANCH  19  23
HETATM   23  O   UNL     1     -10.783   2.865  74.011  1.00  0.00    -0.173 OA 
HETATM   24  C   UNL     1      -9.615   2.095  74.272  1.00  0.00    -0.078 C  
ENDBRANCH  19  23
TORSDOF 2
ENDMDL
MODEL       78
REMARK 921   NORMALIZED FREE ENERGY PREDICTED BY IDOCK:   -4.33 KCAL/MOL
REMARK 922        TOTAL FREE ENERGY PREDICTED BY IDOCK:   -4.90 KCAL/MOL
REMARK 923 INTER-LIGAND FREE ENERGY PREDICTED BY IDOCK:   -4.85 KCAL/MOL
REMARK 924 INTRA-LIGAND FREE ENERGY PREDICTED BY IDOCK:   -0.05 KCAL/MOL
REMARK 927      BINDING AFFINITY PREDICTED BY RF-SCORE:    0.00 PKD
ROOT
HETATM    1  C   UNL     1     -10.042  14.118  66.946  1.00  0.00    -0.258 C  
HETATM    2  C   UNL     1      -9.417  14.742  65.838  1.00  0.00    -0.266 C  
HETATM    3  C   UNL     1     -10.079  13.444  65.563  1.00  0.00    -0.279 C  
HETATM    4  C   UNL     1     -11.237  12.709  67.097  1.00  0.00    -0.300 C  
HETATM    5  C   UNL     1     -11.624  13.456  66.019  1.00  0.00    -0.375 C  
HETATM    6  C   UNL     1      -8.966  12.723  67.497  1.00  0.00    -0.192 C  
HETATM    7  O   UNL     1     -12.158  11.616  67.123  1.00  0.00    -0.575 OA 
HETATM    8  C   UNL     1     -11.464  11.872  65.019  1.00  0.00    -0.306 C  
HETATM    9  C   UNL     1     -12.816  14.339  65.786  1.00  0.00    -0.282 C  
HETATM   10  C   UNL     1      -8.022   8.961  66.751  1.00  0.00    -0.107 A  
HETATM   11  H   UNL     1     -12.692  11.277  67.831  1.00  0.00     0.000 HD 
HETATM   12  C   UNL     1     -10.247  10.806  65.711  1.00  0.00    -0.319 C  
HETATM   13  C   UNL     1      -8.881  11.363  66.511  1.00  0.00    -0.187 C  
HETATM   14  C   UNL     1      -7.988  10.303  67.166  1.00  0.00    -0.114 A  
HETATM   15  C   UNL     1      -6.967  10.694  68.063  1.00  0.00    -0.073 A  
HETATM   16  C   UNL     1      -6.071   9.731  68.573  1.00  0.00    -0.042 A  
HETATM   17  C   UNL     1      -6.772  12.120  68.533  1.00  0.00    -0.071 C  
HETATM   18  C   UNL     1      -7.531  13.183  67.746  1.00  0.00    -0.150 C  
HETATM   19  C   UNL     1      -6.139   8.399  68.176  1.00  0.00    -0.050 A  
HETATM   20  C   UNL     1      -7.110   8.025  67.252  1.00  0.00    -0.083 A  
ENDROOT
BRANCH   4  21
HETATM   21  C   UNL     1     -11.763  13.461  68.346  1.00  0.00    -0.390 C  
HETATM   22  C   UNL     1     -12.149  14.026  69.348  1.00  0.00    -0.386 C  
ENDBRANCH   4  21
BRANCH  19  23
HETATM   23  O   UNL     1      -5.316   7.392  68.601  1.00  0.00    -0.020 OA 
HETATM   24  C   UNL     1      -5.947   6.245  69.160  1.00  0.00    -0.021 C  
ENDBRANCH  19  23
TORSDOF 2
ENDMDL
MODEL       79
REMARK 921   NORMALIZED FREE ENERGY PREDICTED BY IDOCK:   -4.32 KCAL/MOL
REMARK 922        TOTAL FREE ENERGY PREDICTED BY IDOCK:   -4.88 KCAL/MOL
REMARK 923 INTER-LIGAND FREE ENERGY PREDICTED BY IDOCK:   -4.83 KCAL/MOL
REMARK 924 INTRA-LIGAND FREE ENERGY PREDICTED BY IDOCK:   -0.05 KCAL/MOL
REMARK 927      BINDING AFFINITY PREDICTED BY RF-SCORE:    0.00 PKD
ROOT
HETATM    1  C   UNL     1      -8.752   9.218  66.707  1.00  0.00    -0.138 C  
HETATM    2  C   UNL     1      -9.066   9.384  65.335  1.00  0.00    -0.280 C  
HETATM    3  C   UNL     1      -8.046  10.310  65.883  1.00  0.00    -0.143 C  
HETATM    4  C   UNL     1      -7.380   9.858  67.776  1.00  0.00    -0.089 C  
HETATM    5  C   UNL     1      -6.829   9.511  66.574  1.00  0.00    -0.083 C  
HETATM    6  C   UNL     1      -9.566  10.582  67.648  1.00  0.00    -0.175 C  
HETATM    7  O   UNL     1      -6.288  10.392  68.529  1.00  0.00    -0.051 OA 
HETATM    8  C   UNL     1      -6.210  11.285  66.485  1.00  0.00    -0.130 C  
HETATM    9  C   UNL     1      -5.898   8.402  66.179  1.00  0.00    -0.044 C  
HETATM   10  C   UNL     1      -9.194  14.370  68.699  1.00  0.00    -0.181 A  
HETATM   11  H   UNL     1      -5.981  10.184  69.403  1.00  0.00     0.000 HD 
HETATM   12  C   UNL     1      -7.285  12.375  67.353  1.00  0.00    -0.148 C  
HETATM   13  C   UNL     1      -8.941  12.134  67.476  1.00  0.00    -0.177 C  
HETATM   14  C   UNL     1      -9.713  13.106  68.375  1.00  0.00    -0.196 A  
HETATM   15  C   UNL     1     -11.053  12.829  68.730  1.00  0.00    -0.303 A  
HETATM   16  C   UNL     1     -11.800  13.779  69.459  1.00  0.00    -0.394 A  
HETATM   17  C   UNL     1     -11.758  11.536  68.378  1.00  0.00    -0.372 C  
HETATM   18  C   UNL     1     -11.059  10.666  67.339  1.00  0.00    -0.341 C  
HETATM   19  C   UNL     1     -11.259  15.015  69.800  1.00  0.00    -0.277 A  
HETATM   20  C   UNL     1      -9.958  15.309  69.403  1.00  0.00    -0.257 A  
ENDROOT
BRANCH   4  21
HETATM   21  C   UNL     1      -7.552   8.533  68.563  1.00  0.00    -0.095 C  
HETATM   22  C   UNL     1      -7.693   7.518  69.212  1.00  0.00    -0.112 C  
ENDBRANCH   4  21
BRANCH  19  23
HETATM   23  O   UNL     1     -11.898  16.006  70.494  1.00  0.00    -0.359 OA 
HETATM   24  C   UNL     1     -12.965  15.604  71.345  1.00  0.00    -0.487 C  
ENDBRANCH  19  23
TORSDOF 2
ENDMDL
MODEL       80
REMARK 921   NORMALIZED FREE ENERGY PREDICTED BY IDOCK:   -4.32 KCAL/MOL
REMARK 922        TOTAL FREE ENERGY PREDICTED BY IDOCK:   -4.88 KCAL/MOL
REMARK 923 INTER-LIGAND FREE ENERGY PREDICTED BY IDOCK:   -4.83 KCAL/MOL
REMARK 924 INTRA-LIGAND FREE ENERGY PREDICTED BY IDOCK:   -0.05 KCAL/MOL
REMARK 927      BINDING AFFINITY PREDICTED BY RF-SCORE:    0.00 PKD
ROOT
HETATM    1  C   UNL     1      -8.971   7.830  68.416  1.00  0.00    -0.132 C  
HETATM    2  C   UNL     1      -7.837   7.336  67.725  1.00  0.00    -0.114 C  
HETATM    3  C   UNL     1      -7.597   8.491  68.623  1.00  0.00    -0.098 C  
HETATM    4  C   UNL     1      -9.175   8.995  69.844  1.00  0.00    -0.173 C  
HETATM    5  C   UNL     1      -8.103   8.193  70.124  1.00  0.00    -0.113 C  
HETATM    6  C   UNL     1      -9.501   9.398  67.597  1.00  0.00    -0.154 C  
HETATM    7  O   UNL     1      -9.242   9.899  70.949  1.00  0.00    -0.321 OA 
HETATM    8  C   UNL     1      -7.113   9.783  70.291  1.00  0.00    -0.145 C  
HETATM    9  C   UNL     1      -7.900   7.107  71.140  1.00  0.00    -0.098 C  
HETATM   10  C   UNL     1      -8.761  13.272  67.386  1.00  0.00    -0.206 A  
HETATM   11  H   UNL     1      -9.970  10.132  71.512  1.00  0.00     0.000 HD 
HETATM   12  C   UNL     1      -7.776  11.053  69.268  1.00  0.00    -0.071 C  
HETATM   13  C   UNL     1      -8.526  10.754  67.797  1.00  0.00    -0.120 C  
HETATM   14  C   UNL     1      -9.162  11.958  67.092  1.00  0.00    -0.183 A  
HETATM   15  C   UNL     1     -10.021  11.758  65.987  1.00  0.00    -0.258 A  
HETATM   16  C   UNL     1     -10.511  12.867  65.266  1.00  0.00    -0.312 A  
HETATM   17  C   UNL     1     -10.471  10.391  65.517  1.00  0.00    -0.192 C  
HETATM   18  C   UNL     1      -9.698   9.209  66.094  1.00  0.00    -0.357 C  
HETATM   19  C   UNL     1     -10.129  14.166  65.591  1.00  0.00    -0.328 A  
HETATM   20  C   UNL     1      -9.241  14.358  66.645  1.00  0.00    -0.283 A  
ENDROOT
BRANCH   4  21
HETATM   21  C   UNL     1     -10.433   8.155  70.180  1.00  0.00    -0.225 C  
HETATM   22  C   UNL     1     -11.427   7.524  70.473  1.00  0.00    -0.259 C  
ENDBRANCH   4  21
BRANCH  19  23
HETATM   23  O   UNL     1     -10.537  15.306  64.954  1.00  0.00    -0.407 OA 
HETATM   24  C   UNL     1     -11.861  15.306  64.432  1.00  0.00    -0.281 C  
ENDBRANCH  19  23
TORSDOF 2
ENDMDL
MODEL       81
REMARK 921   NORMALIZED FREE ENERGY PREDICTED BY IDOCK:   -4.28 KCAL/MOL
REMARK 922        TOTAL FREE ENERGY PREDICTED BY IDOCK:   -4.83 KCAL/MOL
REMARK 923 INTER-LIGAND FREE ENERGY PREDICTED BY IDOCK:   -4.78 KCAL/MOL
REMARK 924 INTRA-LIGAND FREE ENERGY PREDICTED BY IDOCK:   -0.05 KCAL/MOL
REMARK 927      BINDING AFFINITY PREDICTED BY RF-SCORE:    0.00 PKD
ROOT
HETATM    1  C   UNL     1      -9.601   4.738  72.986  1.00  0.00    -0.153 C  
HETATM    2  C   UNL     1     -10.877   4.173  73.229  1.00  0.00    -0.315 C  
HETATM    3  C   UNL     1     -10.348   4.014  71.852  1.00  0.00    -0.088 C  
HETATM    4  C   UNL     1      -8.381   4.561  71.601  1.00  0.00    -0.103 C  
HETATM    5  C   UNL     1      -8.894   3.319  71.850  1.00  0.00    -0.130 C  
HETATM    6  C   UNL     1      -9.839   6.297  72.025  1.00  0.00    -0.173 C  
HETATM    7  O   UNL     1      -7.497   4.367  70.494  1.00  0.00    -0.048 OA 
HETATM    8  C   UNL     1      -9.404   3.300  70.040  1.00  0.00    -0.238 C  
HETATM    9  C   UNL     1      -8.285   2.081  72.441  1.00  0.00    -0.054 C  
HETATM   10  C   UNL     1     -10.433   7.721  68.390  1.00  0.00    -0.207 A  
HETATM   11  H   UNL     1      -6.590   4.619  70.378  1.00  0.00     0.000 HD 
HETATM   12  C   UNL     1      -9.711   4.930  69.452  1.00  0.00    -0.261 C  
HETATM   13  C   UNL     1     -10.318   6.160  70.418  1.00  0.00    -0.269 C  
HETATM   14  C   UNL     1     -10.405   7.554  69.784  1.00  0.00    -0.221 A  
HETATM   15  C   UNL     1     -10.665   8.684  70.593  1.00  0.00    -0.259 A  
HETATM   16  C   UNL     1     -10.862   9.947  69.996  1.00  0.00    -0.339 A  
HETATM   17  C   UNL     1     -10.737   8.629  72.104  1.00  0.00    -0.417 C  
HETATM   18  C   UNL     1     -10.835   7.232  72.709  1.00  0.00    -0.356 C  
HETATM   19  C   UNL     1     -10.854  10.101  68.613  1.00  0.00    -0.235 A  
HETATM   20  C   UNL     1     -10.653   8.978  67.815  1.00  0.00    -0.278 A  
ENDROOT
BRANCH   4  21
HETATM   21  C   UNL     1      -7.306   4.804  72.692  1.00  0.00    -0.084 C  
HETATM   22  C   UNL     1      -6.480   5.032  73.549  1.00  0.00    -0.062 C  
ENDBRANCH   4  21
BRANCH  19  23
HETATM   23  O   UNL     1     -11.043  11.275  67.935  1.00  0.00    -0.226 OA 
HETATM   24  C   UNL     1     -10.754  11.260  66.541  1.00  0.00    -0.271 C  
ENDBRANCH  19  23
TORSDOF 2
ENDMDL
MODEL       82
REMARK 921   NORMALIZED FREE ENERGY PREDICTED BY IDOCK:   -4.23 KCAL/MOL
REMARK 922        TOTAL FREE ENERGY PREDICTED BY IDOCK:   -4.78 KCAL/MOL
REMARK 923 INTER-LIGAND FREE ENERGY PREDICTED BY IDOCK:   -4.73 KCAL/MOL
REMARK 924 INTRA-LIGAND FREE ENERGY PREDICTED BY IDOCK:   -0.04 KCAL/MOL
REMARK 927      BINDING AFFINITY PREDICTED BY RF-SCORE:    0.00 PKD
ROOT
HETATM    1  C   UNL     1      -8.324   6.791  67.215  1.00  0.00    -0.121 C  
HETATM    2  C   UNL     1      -9.310   5.837  66.859  1.00  0.00    -0.132 C  
HETATM    3  C   UNL     1      -8.737   6.625  65.742  1.00  0.00    -0.126 C  
HETATM    4  C   UNL     1      -7.101   7.774  66.228  1.00  0.00    -0.070 C  
HETATM    5  C   UNL     1      -7.129   6.514  65.699  1.00  0.00    -0.061 C  
HETATM    6  C   UNL     1      -9.099   8.465  67.149  1.00  0.00    -0.162 C  
HETATM    7  O   UNL     1      -6.188   8.491  65.393  1.00  0.00    -0.048 OA 
HETATM    8  C   UNL     1      -7.566   7.341  64.068  1.00  0.00    -0.110 C  
HETATM    9  C   UNL     1      -6.120   5.402  65.696  1.00  0.00    -0.033 C  
HETATM   10  C   UNL     1     -10.109  11.397  64.704  1.00  0.00    -0.330 A  
HETATM   11  H   UNL     1      -5.434   9.021  65.618  1.00  0.00     0.000 HD 
HETATM   12  C   UNL     1      -8.437   8.847  64.335  1.00  0.00    -0.170 C  
HETATM   13  C   UNL     1      -9.467   9.098  65.635  1.00  0.00    -0.309 C  
HETATM   14  C   UNL     1     -10.047  10.509  65.791  1.00  0.00    -0.329 A  
HETATM   15  C   UNL     1     -10.715  10.872  66.983  1.00  0.00    -0.323 A  
HETATM   16  C   UNL     1     -11.349  12.129  67.081  1.00  0.00    -0.393 A  
HETATM   17  C   UNL     1     -10.787   9.979  68.203  1.00  0.00    -0.303 C  
HETATM   18  C   UNL     1     -10.378   8.525  67.981  1.00  0.00    -0.272 C  
HETATM   19  C   UNL     1     -11.374  13.010  66.004  1.00  0.00    -0.310 A  
HETATM   20  C   UNL     1     -10.764  12.630  64.813  1.00  0.00    -0.335 A  
ENDROOT
BRANCH   4  21
HETATM   21  C   UNL     1      -6.208   7.684  67.492  1.00  0.00    -0.050 C  
HETATM   22  C   UNL     1      -5.483   7.588  68.460  1.00  0.00    -0.026 C  
ENDBRANCH   4  21
BRANCH  19  23
HETATM   23  O   UNL     1     -11.968  14.243  65.991  1.00  0.00    -0.385 OA 
HETATM   24  C   UNL     1     -11.666  15.084  64.883  1.00  0.00    -0.336 C  
ENDBRANCH  19  23
TORSDOF 2
ENDMDL
MODEL       83
REMARK 921   NORMALIZED FREE ENERGY PREDICTED BY IDOCK:   -4.16 KCAL/MOL
REMARK 922        TOTAL FREE ENERGY PREDICTED BY IDOCK:   -4.71 KCAL/MOL
REMARK 923 INTER-LIGAND FREE ENERGY PREDICTED BY IDOCK:   -4.67 KCAL/MOL
REMARK 924 INTRA-LIGAND FREE ENERGY PREDICTED BY IDOCK:   -0.03 KCAL/MOL
REMARK 927      BINDING AFFINITY PREDICTED BY RF-SCORE:    0.00 PKD
ROOT
HETATM    1  C   UNL     1      -8.752  16.138  69.259  1.00  0.00    -0.190 C  
HETATM    2  C   UNL     1      -7.529  16.749  68.886  1.00  0.00    -0.240 C  
HETATM    3  C   UNL     1      -8.671  16.967  67.966  1.00  0.00    -0.215 C  
HETATM    4  C   UNL     1     -10.499  16.341  68.674  1.00  0.00    -0.282 C  
HETATM    5  C   UNL     1      -9.944  17.589  68.735  1.00  0.00    -0.342 C  
HETATM    6  C   UNL     1      -9.002  14.656  68.187  1.00  0.00    -0.179 C  
HETATM    7  O   UNL     1     -11.817  16.561  68.165  1.00  0.00     0.065 OA 
HETATM    8  C   UNL     1     -10.397  17.746  66.916  1.00  0.00    -0.344 C  
HETATM    9  C   UNL     1     -10.196  18.757  69.644  1.00  0.00     0.490 C  
HETATM   10  C   UNL     1     -10.268  13.493  64.632  1.00  0.00    -0.341 A  
HETATM   11  H   UNL     1     -12.660  16.272  68.492  1.00  0.00     0.000 HD 
HETATM   12  C   UNL     1     -10.402  16.173  66.127  1.00  0.00    -0.350 C  
HETATM   13  C   UNL     1      -9.383  14.916  66.569  1.00  0.00    -0.308 C  
HETATM   14  C   UNL     1      -9.604  13.571  65.867  1.00  0.00    -0.132 A  
HETATM   15  C   UNL     1      -8.965  12.406  66.351  1.00  0.00    -0.101 A  
HETATM   16  C   UNL     1      -9.074  11.194  65.637  1.00  0.00    -0.221 A  
HETATM   17  C   UNL     1      -8.155  12.370  67.630  1.00  0.00    -0.168 C  
HETATM   18  C   UNL     1      -7.787  13.730  68.216  1.00  0.00    -0.144 C  
HETATM   19  C   UNL     1      -9.764  11.127  64.430  1.00  0.00    -0.268 A  
HETATM   20  C   UNL     1     -10.346  12.286  63.926  1.00  0.00    -0.455 A  
ENDROOT
BRANCH   4  21
HETATM   21  C   UNL     1     -10.890  15.978  70.129  1.00  0.00    -0.349 C  
HETATM   22  C   UNL     1     -11.220  15.728  71.269  1.00  0.00    -0.376 C  
ENDBRANCH   4  21
BRANCH  19  23
HETATM   23  O   UNL     1      -9.921  10.009  63.657  1.00  0.00    -0.017 OA 
HETATM   24  C   UNL     1      -8.731   9.351  63.237  1.00  0.00    -0.208 C  
ENDBRANCH  19  23
TORSDOF 2
ENDMDL
MODEL       84
REMARK 921   NORMALIZED FREE ENERGY PREDICTED BY IDOCK:   -4.06 KCAL/MOL
REMARK 922        TOTAL FREE ENERGY PREDICTED BY IDOCK:   -4.59 KCAL/MOL
REMARK 923 INTER-LIGAND FREE ENERGY PREDICTED BY IDOCK:   -4.57 KCAL/MOL
REMARK 924 INTRA-LIGAND FREE ENERGY PREDICTED BY IDOCK:   -0.02 KCAL/MOL
REMARK 927      BINDING AFFINITY PREDICTED BY RF-SCORE:    0.00 PKD
ROOT
HETATM    1  C   UNL     1      -8.458   4.741  64.794  1.00  0.00    -0.141 C  
HETATM    2  C   UNL     1      -7.204   5.401  64.801  1.00  0.00    -0.062 C  
HETATM    3  C   UNL     1      -7.352   4.279  65.760  1.00  0.00    -0.080 C  
HETATM    4  C   UNL     1      -9.050   3.142  65.522  1.00  0.00    -0.151 C  
HETATM    5  C   UNL     1      -7.799   2.919  65.019  1.00  0.00    -0.082 C  
HETATM    6  C   UNL     1      -9.402   5.291  66.282  1.00  0.00    -0.159 C  
HETATM    7  O   UNL     1      -9.424   1.896  66.115  1.00  0.00    -0.341 OA 
HETATM    8  C   UNL     1      -7.335   2.355  66.752  1.00  0.00    -0.061 C  
HETATM    9  C   UNL     1      -7.317   2.116  63.845  1.00  0.00    -0.057 C  
HETATM   10  C   UNL     1      -9.845   4.682  70.159  1.00  0.00    -0.306 A  
HETATM   11  H   UNL     1     -10.208   1.372  66.005  1.00  0.00     0.000 HD 
HETATM   12  C   UNL     1      -8.310   3.175  67.967  1.00  0.00    -0.094 C  
HETATM   13  C   UNL     1      -8.884   4.741  67.785  1.00  0.00    -0.112 C  
HETATM   14  C   UNL     1      -9.825   5.260  68.879  1.00  0.00    -0.230 A  
HETATM   15  C   UNL     1     -10.545   6.460  68.682  1.00  0.00    -0.300 A  
HETATM   16  C   UNL     1     -11.319   6.999  69.732  1.00  0.00    -0.226 A  
HETATM   17  C   UNL     1     -10.549   7.225  67.375  1.00  0.00    -0.370 C  
HETATM   18  C   UNL     1      -9.480   6.814  66.368  1.00  0.00    -0.166 C  
HETATM   19  C   UNL     1     -11.353   6.395  70.986  1.00  0.00    -0.328 A  
HETATM   20  C   UNL     1     -10.601   5.243  71.196  1.00  0.00    -0.243 A  
ENDROOT
BRANCH   4  21
HETATM   21  C   UNL     1     -10.012   3.097  64.307  1.00  0.00    -0.148 C  
HETATM   22  C   UNL     1     -10.771   3.102  63.361  1.00  0.00    -0.244 C  
ENDBRANCH   4  21
BRANCH  19  23
HETATM   23  O   UNL     1     -12.061   6.838  72.070  1.00  0.00    -0.314 OA 
HETATM   24  C   UNL     1     -12.319   8.236  72.136  1.00  0.00    -0.360 C  
ENDBRANCH  19  23
TORSDOF 2
ENDMDL
MODEL       85
REMARK 921   NORMALIZED FREE ENERGY PREDICTED BY IDOCK:   -4.04 KCAL/MOL
REMARK 922        TOTAL FREE ENERGY PREDICTED BY IDOCK:   -4.57 KCAL/MOL
REMARK 923 INTER-LIGAND FREE ENERGY PREDICTED BY IDOCK:   -4.53 KCAL/MOL
REMARK 924 INTRA-LIGAND FREE ENERGY PREDICTED BY IDOCK:   -0.04 KCAL/MOL
REMARK 927      BINDING AFFINITY PREDICTED BY RF-SCORE:    0.00 PKD
ROOT
HETATM    1  C   UNL     1      -7.117   9.132  66.484  1.00  0.00    -0.081 C  
HETATM    2  C   UNL     1      -5.895   8.986  67.186  1.00  0.00    -0.046 C  
HETATM    3  C   UNL     1      -6.742   7.772  67.100  1.00  0.00    -0.068 C  
HETATM    4  C   UNL     1      -8.350   7.915  65.824  1.00  0.00    -0.136 C  
HETATM    5  C   UNL     1      -7.105   7.408  65.572  1.00  0.00    -0.061 C  
HETATM    6  C   UNL     1      -8.482   9.214  67.725  1.00  0.00    -0.117 C  
HETATM    7  O   UNL     1      -9.247   6.910  65.345  1.00  0.00    -0.360 OA 
HETATM    8  C   UNL     1      -7.660   5.894  66.539  1.00  0.00    -0.095 C  
HETATM    9  C   UNL     1      -6.342   7.209  64.295  1.00  0.00    -0.040 C  
HETATM   10  C   UNL     1     -10.822   7.007  70.015  1.00  0.00    -0.290 A  
HETATM   11  H   UNL     1      -9.990   6.977  64.757  1.00  0.00     0.000 HD 
HETATM   12  C   UNL     1      -8.858   6.322  67.755  1.00  0.00    -0.111 C  
HETATM   13  C   UNL     1      -8.880   7.801  68.547  1.00  0.00    -0.130 C  
HETATM   14  C   UNL     1     -10.065   8.063  69.483  1.00  0.00    -0.196 A  
HETATM   15  C   UNL     1     -10.293   9.363  69.990  1.00  0.00    -0.265 A  
HETATM   16  C   UNL     1     -11.311   9.580  70.943  1.00  0.00    -0.410 A  
HETATM   17  C   UNL     1      -9.498  10.578  69.558  1.00  0.00    -0.106 C  
HETATM   18  C   UNL     1      -8.218  10.285  68.781  1.00  0.00    -0.119 C  
HETATM   19  C   UNL     1     -12.074   8.526  71.436  1.00  0.00    -0.303 A  
HETATM   20  C   UNL     1     -11.813   7.238  70.977  1.00  0.00    -0.352 A  
ENDROOT
BRANCH   4  21
HETATM   21  C   UNL     1      -8.608   8.974  64.722  1.00  0.00    -0.201 C  
HETATM   22  C   UNL     1      -8.829   9.827  63.889  1.00  0.00    -0.259 C  
ENDBRANCH   4  21
BRANCH  19  23
HETATM   23  O   UNL     1     -13.075   8.625  72.364  1.00  0.00    -0.373 OA 
HETATM   24  C   UNL     1     -14.326   8.043  72.017  1.00  0.00    -0.410 C  
ENDBRANCH  19  23
TORSDOF 2
ENDMDL
MODEL       86
REMARK 921   NORMALIZED FREE ENERGY PREDICTED BY IDOCK:   -4.00 KCAL/MOL
REMARK 922        TOTAL FREE ENERGY PREDICTED BY IDOCK:   -4.52 KCAL/MOL
REMARK 923 INTER-LIGAND FREE ENERGY PREDICTED BY IDOCK:   -4.48 KCAL/MOL
REMARK 924 INTRA-LIGAND FREE ENERGY PREDICTED BY IDOCK:   -0.04 KCAL/MOL
REMARK 927      BINDING AFFINITY PREDICTED BY RF-SCORE:    0.00 PKD
ROOT
HETATM    1  C   UNL     1      -9.060   8.421  70.462  1.00  0.00    -0.163 C  
HETATM    2  C   UNL     1      -9.732   9.609  70.081  1.00  0.00    -0.301 C  
HETATM    3  C   UNL     1     -10.551   8.372  70.084  1.00  0.00    -0.235 C  
HETATM    4  C   UNL     1      -9.652   6.727  70.930  1.00  0.00    -0.168 C  
HETATM    5  C   UNL     1     -10.499   7.628  71.512  1.00  0.00    -0.231 C  
HETATM    6  C   UNL     1      -8.735   7.434  68.936  1.00  0.00    -0.132 C  
HETATM    7  O   UNL     1     -10.192   5.451  71.281  1.00  0.00    -0.205 OA 
HETATM    8  C   UNL     1     -11.878   6.740  70.593  1.00  0.00    -0.442 C  
HETATM    9  C   UNL     1     -10.722   8.017  72.945  1.00  0.00    -0.403 C  
HETATM   10  C   UNL     1     -10.377   4.904  66.386  1.00  0.00    -0.328 A  
HETATM   11  H   UNL     1      -9.776   4.692  71.671  1.00  0.00     0.000 HD 
HETATM   12  C   UNL     1     -11.286   6.029  69.096  1.00  0.00    -0.337 C  
HETATM   13  C   UNL     1     -10.048   6.700  68.183  1.00  0.00    -0.174 C  
HETATM   14  C   UNL     1      -9.565   5.887  66.976  1.00  0.00    -0.144 A  
HETATM   15  C   UNL     1      -8.375   6.252  66.307  1.00  0.00    -0.122 A  
HETATM   16  C   UNL     1      -7.993   5.579  65.128  1.00  0.00    -0.110 A  
HETATM   17  C   UNL     1      -7.447   7.346  66.795  1.00  0.00    -0.096 C  
HETATM   18  C   UNL     1      -8.018   8.263  67.872  1.00  0.00    -0.123 C  
HETATM   19  C   UNL     1      -8.794   4.584  64.574  1.00  0.00    -0.151 A  
HETATM   20  C   UNL     1      -9.993   4.262  65.202  1.00  0.00    -0.215 A  
ENDROOT
BRANCH   4  21
HETATM   21  C   UNL     1      -8.394   6.682  71.835  1.00  0.00    -0.114 C  
HETATM   22  C   UNL     1      -7.386   6.645  72.509  1.00  0.00    -0.088 C  
ENDBRANCH   4  21
BRANCH  19  23
HETATM   23  O   UNL     1      -8.522   3.878  63.434  1.00  0.00    -0.089 OA 
HETATM   24  C   UNL     1      -9.545   3.845  62.445  1.00  0.00    -0.113 C  
ENDBRANCH  19  23
TORSDOF 2
ENDMDL
MODEL       87
REMARK 921   NORMALIZED FREE ENERGY PREDICTED BY IDOCK:   -3.98 KCAL/MOL
REMARK 922        TOTAL FREE ENERGY PREDICTED BY IDOCK:   -4.51 KCAL/MOL
REMARK 923 INTER-LIGAND FREE ENERGY PREDICTED BY IDOCK:   -4.48 KCAL/MOL
REMARK 924 INTRA-LIGAND FREE ENERGY PREDICTED BY IDOCK:   -0.02 KCAL/MOL
REMARK 927      BINDING AFFINITY PREDICTED BY RF-SCORE:    0.00 PKD
ROOT
HETATM    1  C   UNL     1      -8.255   5.679  65.341  1.00  0.00    -0.132 C  
HETATM    2  C   UNL     1      -6.897   6.084  65.362  1.00  0.00    -0.052 C  
HETATM    3  C   UNL     1      -7.411   5.473  66.611  1.00  0.00    -0.083 C  
HETATM    4  C   UNL     1      -9.275   4.616  66.465  1.00  0.00    -0.132 C  
HETATM    5  C   UNL     1      -8.051   4.019  66.343  1.00  0.00    -0.098 C  
HETATM    6  C   UNL     1      -9.233   6.915  66.302  1.00  0.00    -0.157 C  
HETATM    7  O   UNL     1      -9.988   3.782  67.382  1.00  0.00    -0.210 OA 
HETATM    8  C   UNL     1      -7.948   4.125  68.218  1.00  0.00    -0.077 C  
HETATM    9  C   UNL     1      -7.615   2.751  65.667  1.00  0.00    -0.076 C  
HETATM   10  C   UNL     1     -10.289   7.975  69.957  1.00  0.00    -0.218 A  
HETATM   11  H   UNL     1     -10.849   3.387  67.315  1.00  0.00     0.000 HD 
HETATM   12  C   UNL     1      -8.862   5.501  68.825  1.00  0.00    -0.109 C  
HETATM   13  C   UNL     1      -9.045   6.935  67.973  1.00  0.00    -0.120 C  
HETATM   14  C   UNL     1      -9.978   7.986  68.587  1.00  0.00    -0.200 A  
HETATM   15  C   UNL     1     -10.382   9.105  67.825  1.00  0.00    -0.302 A  
HETATM   16  C   UNL     1     -11.144  10.130  68.426  1.00  0.00    -0.273 A  
HETATM   17  C   UNL     1     -10.051   9.278  66.357  1.00  0.00    -0.337 C  
HETATM   18  C   UNL     1      -8.981   8.339  65.808  1.00  0.00    -0.185 C  
HETATM   19  C   UNL     1     -11.470  10.088  69.778  1.00  0.00    -0.184 A  
HETATM   20  C   UNL     1     -11.026   9.012  70.541  1.00  0.00    -0.295 A  
ENDROOT
BRANCH   4  21
HETATM   21  C   UNL     1     -10.060   4.242  65.182  1.00  0.00    -0.221 C  
HETATM   22  C   UNL     1     -10.640   3.937  64.161  1.00  0.00    -0.245 C  
ENDBRANCH   4  21
BRANCH  19  23
HETATM   23  O   UNL     1     -12.193  11.029  70.459  1.00  0.00    -0.320 OA 
HETATM   24  C   UNL     1     -12.958  10.569  71.567  1.00  0.00    -0.460 C  
ENDBRANCH  19  23
TORSDOF 2
ENDMDL
MODEL       88
REMARK 921   NORMALIZED FREE ENERGY PREDICTED BY IDOCK:   -3.97 KCAL/MOL
REMARK 922        TOTAL FREE ENERGY PREDICTED BY IDOCK:   -4.49 KCAL/MOL
REMARK 923 INTER-LIGAND FREE ENERGY PREDICTED BY IDOCK:   -4.45 KCAL/MOL
REMARK 924 INTRA-LIGAND FREE ENERGY PREDICTED BY IDOCK:   -0.04 KCAL/MOL
REMARK 927      BINDING AFFINITY PREDICTED BY RF-SCORE:    0.00 PKD
ROOT
HETATM    1  C   UNL     1      -8.111   5.187  66.182  1.00  0.00    -0.108 C  
HETATM    2  C   UNL     1      -6.794   5.644  66.439  1.00  0.00    -0.059 C  
HETATM    3  C   UNL     1      -7.311   4.603  67.360  1.00  0.00    -0.074 C  
HETATM    4  C   UNL     1      -9.088   3.735  66.793  1.00  0.00    -0.159 C  
HETATM    5  C   UNL     1      -7.814   3.297  66.561  1.00  0.00    -0.081 C  
HETATM    6  C   UNL     1      -9.233   5.944  67.437  1.00  0.00    -0.108 C  
HETATM    7  O   UNL     1      -9.769   2.590  67.312  1.00  0.00    -0.401 OA 
HETATM    8  C   UNL     1      -7.805   2.748  68.359  1.00  0.00    -0.057 C  
HETATM    9  C   UNL     1      -7.242   2.376  65.522  1.00  0.00    -0.061 C  
HETATM   10  C   UNL     1     -10.539   5.589  71.147  1.00  0.00    -0.303 A  
HETATM   11  H   UNL     1     -10.589   2.190  67.051  1.00  0.00     0.000 HD 
HETATM   12  C   UNL     1      -8.858   3.763  69.337  1.00  0.00    -0.146 C  
HETATM   13  C   UNL     1      -9.123   5.390  69.022  1.00  0.00    -0.136 C  
HETATM   14  C   UNL     1     -10.169   6.098  69.892  1.00  0.00    -0.246 A  
HETATM   15  C   UNL     1     -10.631   7.385  69.536  1.00  0.00    -0.244 A  
HETATM   16  C   UNL     1     -11.503   8.085  70.397  1.00  0.00    -0.140 A  
HETATM   17  C   UNL     1     -10.249   8.081  68.246  1.00  0.00    -0.243 C  
HETATM   18  C   UNL     1      -9.080   7.463  67.485  1.00  0.00    -0.128 C  
HETATM   19  C   UNL     1     -11.886   7.552  71.624  1.00  0.00    -0.291 A  
HETATM   20  C   UNL     1     -11.387   6.307  71.999  1.00  0.00    -0.348 A  
ENDROOT
BRANCH   4  21
HETATM   21  C   UNL     1      -9.780   3.784  65.407  1.00  0.00    -0.157 C  
HETATM   22  C   UNL     1     -10.316   3.782  64.319  1.00  0.00    -0.253 C  
ENDBRANCH   4  21
BRANCH  19  23
HETATM   23  O   UNL     1     -12.715   8.148  72.535  1.00  0.00    -0.241 OA 
HETATM   24  C   UNL     1     -13.369   9.341  72.117  1.00  0.00    -0.468 C  
ENDBRANCH  19  23
TORSDOF 2
ENDMDL
MODEL       89
REMARK 921   NORMALIZED FREE ENERGY PREDICTED BY IDOCK:   -3.96 KCAL/MOL
REMARK 922        TOTAL FREE ENERGY PREDICTED BY IDOCK:   -4.48 KCAL/MOL
REMARK 923 INTER-LIGAND FREE ENERGY PREDICTED BY IDOCK:   -4.44 KCAL/MOL
REMARK 924 INTRA-LIGAND FREE ENERGY PREDICTED BY IDOCK:   -0.04 KCAL/MOL
REMARK 927      BINDING AFFINITY PREDICTED BY RF-SCORE:    0.00 PKD
ROOT
HETATM    1  C   UNL     1      -8.632   8.727  65.569  1.00  0.00    -0.198 C  
HETATM    2  C   UNL     1      -9.637   9.610  65.101  1.00  0.00    -0.324 C  
HETATM    3  C   UNL     1      -8.765  10.133  66.181  1.00  0.00    -0.154 C  
HETATM    4  C   UNL     1      -7.129   8.967  66.628  1.00  0.00    -0.081 C  
HETATM    5  C   UNL     1      -7.206  10.039  65.783  1.00  0.00    -0.117 C  
HETATM    6  C   UNL     1      -9.170   8.063  67.205  1.00  0.00    -0.172 C  
HETATM    7  O   UNL     1      -5.991   9.240  67.449  1.00  0.00    -0.048 OA 
HETATM    8  C   UNL     1      -7.211  11.104  67.333  1.00  0.00    -0.107 C  
HETATM    9  C   UNL     1      -6.357  10.464  64.619  1.00  0.00    -0.066 C  
HETATM   10  C   UNL     1      -9.320   8.881  71.065  1.00  0.00    -0.313 A  
HETATM   11  H   UNL     1      -5.237   8.701  67.655  1.00  0.00     0.000 HD 
HETATM   12  C   UNL     1      -7.929  10.244  68.690  1.00  0.00    -0.111 C  
HETATM   13  C   UNL     1      -9.156   9.112  68.519  1.00  0.00    -0.132 C  
HETATM   14  C   UNL     1      -9.580   8.360  69.787  1.00  0.00    -0.170 A  
HETATM   15  C   UNL     1     -10.419   7.227  69.690  1.00  0.00    -0.239 A  
HETATM   16  C   UNL     1     -10.904   6.607  70.861  1.00  0.00    -0.297 A  
HETATM   17  C   UNL     1     -10.837   6.609  68.372  1.00  0.00    -0.320 C  
HETATM   18  C   UNL     1     -10.571   7.458  67.133  1.00  0.00    -0.413 C  
HETATM   19  C   UNL     1     -10.611   7.117  72.122  1.00  0.00    -0.210 A  
HETATM   20  C   UNL     1      -9.830   8.265  72.215  1.00  0.00    -0.364 A  
ENDROOT
BRANCH   4  21
HETATM   21  C   UNL     1      -6.519   7.812  65.794  1.00  0.00    -0.042 C  
HETATM   22  C   UNL     1      -6.054   6.881  65.169  1.00  0.00    -0.036 C  
ENDBRANCH   4  21
BRANCH  19  23
HETATM   23  O   UNL     1     -11.037   6.600  73.316  1.00  0.00    -0.234 OA 
HETATM   24  C   UNL     1     -11.175   5.186  73.385  1.00  0.00    -0.290 C  
ENDBRANCH  19  23
TORSDOF 2
ENDMDL
MODEL       90
REMARK 921   NORMALIZED FREE ENERGY PREDICTED BY IDOCK:   -3.94 KCAL/MOL
REMARK 922        TOTAL FREE ENERGY PREDICTED BY IDOCK:   -4.46 KCAL/MOL
REMARK 923 INTER-LIGAND FREE ENERGY PREDICTED BY IDOCK:   -4.42 KCAL/MOL
REMARK 924 INTRA-LIGAND FREE ENERGY PREDICTED BY IDOCK:   -0.04 KCAL/MOL
REMARK 927      BINDING AFFINITY PREDICTED BY RF-SCORE:    0.00 PKD
ROOT
HETATM    1  C   UNL     1      -9.622  10.019  68.771  1.00  0.00    -0.168 C  
HETATM    2  C   UNL     1      -8.790   9.704  69.874  1.00  0.00    -0.240 C  
HETATM    3  C   UNL     1      -8.119   9.771  68.554  1.00  0.00    -0.104 C  
HETATM    4  C   UNL     1      -9.268  10.528  67.024  1.00  0.00    -0.150 C  
HETATM    5  C   UNL     1      -8.378  11.186  67.826  1.00  0.00    -0.123 C  
HETATM    6  C   UNL     1      -9.923   8.465  67.821  1.00  0.00    -0.236 C  
HETATM    7  O   UNL     1      -8.907  10.917  65.697  1.00  0.00    -0.185 OA 
HETATM    8  C   UNL     1      -7.033  10.385  66.784  1.00  0.00    -0.103 C  
HETATM    9  C   UNL     1      -8.238  12.635  68.194  1.00  0.00    -0.170 C  
HETATM   10  C   UNL     1      -8.361   6.053  65.111  1.00  0.00    -0.140 A  
HETATM   11  H   UNL     1      -9.437  11.266  64.991  1.00  0.00     0.000 HD 
HETATM   12  C   UNL     1      -7.569   8.838  66.138  1.00  0.00    -0.094 C  
HETATM   13  C   UNL     1      -8.640   7.825  66.940  1.00  0.00    -0.130 C  
HETATM   14  C   UNL     1      -9.105   6.576  66.182  1.00  0.00    -0.146 A  
HETATM   15  C   UNL     1     -10.184   5.809  66.676  1.00  0.00    -0.261 A  
HETATM   16  C   UNL     1     -10.535   4.597  66.045  1.00  0.00    -0.303 A  
HETATM   17  C   UNL     1     -11.022   6.220  67.869  1.00  0.00    -0.421 C  
HETATM   18  C   UNL     1     -10.447   7.348  68.720  1.00  0.00    -0.215 C  
HETATM   19  C   UNL     1      -9.807   4.109  64.964  1.00  0.00    -0.201 A  
HETATM   20  C   UNL     1      -8.710   4.837  64.512  1.00  0.00    -0.153 A  
ENDROOT
BRANCH   4  21
HETATM   21  C   UNL     1     -10.596  11.320  67.124  1.00  0.00    -0.274 C  
HETATM   22  C   UNL     1     -11.656  11.904  67.212  1.00  0.00    -0.364 C  
ENDBRANCH   4  21
BRANCH  19  23
HETATM   23  O   UNL     1     -10.056   2.946  64.288  1.00  0.00    -0.141 OA 
HETATM   24  C   UNL     1      -9.041   2.494  63.399  1.00  0.00    -0.092 C  
ENDBRANCH  19  23
TORSDOF 2
ENDMDL
MODEL       91
REMARK 921   NORMALIZED FREE ENERGY PREDICTED BY IDOCK:   -3.94 KCAL/MOL
REMARK 922        TOTAL FREE ENERGY PREDICTED BY IDOCK:   -4.46 KCAL/MOL
REMARK 923 INTER-LIGAND FREE ENERGY PREDICTED BY IDOCK:   -4.45 KCAL/MOL
REMARK 924 INTRA-LIGAND FREE ENERGY PREDICTED BY IDOCK:   -0.01 KCAL/MOL
REMARK 927      BINDING AFFINITY PREDICTED BY RF-SCORE:    0.00 PKD
ROOT
HETATM    1  C   UNL     1     -10.744  10.563  66.836  1.00  0.00    -0.281 C  
HETATM    2  C   UNL     1     -10.995  10.724  68.221  1.00  0.00    -0.307 C  
HETATM    3  C   UNL     1      -9.577  10.829  67.802  1.00  0.00    -0.176 C  
HETATM    4  C   UNL     1      -9.266  10.903  65.770  1.00  0.00    -0.201 C  
HETATM    5  C   UNL     1      -9.377  11.941  66.653  1.00  0.00    -0.210 C  
HETATM    6  C   UNL     1     -10.028   8.882  66.576  1.00  0.00    -0.358 C  
HETATM    7  O   UNL     1      -8.085  11.196  65.021  1.00  0.00    -0.359 OA 
HETATM    8  C   UNL     1      -7.621  11.518  67.179  1.00  0.00    -0.149 C  
HETATM    9  C   UNL     1      -9.746  13.384  66.466  1.00  0.00    -0.284 C  
HETATM   10  C   UNL     1      -6.675   6.802  66.753  1.00  0.00    -0.056 A  
HETATM   11  H   UNL     1      -7.942  11.230  64.083  1.00  0.00     0.000 HD 
HETATM   12  C   UNL     1      -7.287   9.805  66.954  1.00  0.00    -0.091 C  
HETATM   13  C   UNL     1      -8.455   8.610  67.107  1.00  0.00    -0.114 C  
HETATM   14  C   UNL     1      -8.028   7.181  66.752  1.00  0.00    -0.108 A  
HETATM   15  C   UNL     1      -9.001   6.165  66.613  1.00  0.00    -0.133 A  
HETATM   16  C   UNL     1      -8.600   4.829  66.402  1.00  0.00    -0.113 A  
HETATM   17  C   UNL     1     -10.492   6.426  66.666  1.00  0.00    -0.240 C  
HETATM   18  C   UNL     1     -10.902   7.795  67.200  1.00  0.00    -0.227 C  
HETATM   19  C   UNL     1      -7.254   4.475  66.374  1.00  0.00    -0.076 A  
HETATM   20  C   UNL     1      -6.297   5.467  66.566  1.00  0.00    -0.039 A  
ENDROOT
BRANCH   4  21
HETATM   21  C   UNL     1     -10.302  11.185  64.652  1.00  0.00    -0.393 C  
HETATM   22  C   UNL     1     -11.123  11.441  63.795  1.00  0.00    -0.417 C  
ENDBRANCH   4  21
BRANCH  19  23
HETATM   23  O   UNL     1      -6.760   3.213  66.187  1.00  0.00    -0.045 OA 
HETATM   24  C   UNL     1      -7.554   2.326  65.408  1.00  0.00    -0.072 C  
ENDBRANCH  19  23
TORSDOF 2
ENDMDL
MODEL       92
REMARK 921   NORMALIZED FREE ENERGY PREDICTED BY IDOCK:   -3.90 KCAL/MOL
REMARK 922        TOTAL FREE ENERGY PREDICTED BY IDOCK:   -4.42 KCAL/MOL
REMARK 923 INTER-LIGAND FREE ENERGY PREDICTED BY IDOCK:   -4.35 KCAL/MOL
REMARK 924 INTRA-LIGAND FREE ENERGY PREDICTED BY IDOCK:   -0.07 KCAL/MOL
REMARK 927      BINDING AFFINITY PREDICTED BY RF-SCORE:    0.00 PKD
ROOT
HETATM    1  C   UNL     1      -8.309   7.116  72.249  1.00  0.00    -0.117 C  
HETATM    2  C   UNL     1      -8.170   8.251  73.086  1.00  0.00    -0.233 C  
HETATM    3  C   UNL     1      -9.505   8.059  72.468  1.00  0.00    -0.297 C  
HETATM    4  C   UNL     1      -9.779   6.256  71.517  1.00  0.00    -0.162 C  
HETATM    5  C   UNL     1     -10.108   6.602  72.798  1.00  0.00    -0.195 C  
HETATM    6  C   UNL     1      -8.292   7.692  70.495  1.00  0.00    -0.126 C  
HETATM    7  O   UNL     1     -10.965   5.653  70.994  1.00  0.00    -0.248 OA 
HETATM    8  C   UNL     1     -11.560   7.529  72.045  1.00  0.00    -0.326 C  
HETATM    9  C   UNL     1     -10.340   5.779  74.032  1.00  0.00    -0.295 C  
HETATM   10  C   UNL     1     -10.544   9.247  67.647  1.00  0.00    -0.324 A  
HETATM   11  H   UNL     1     -11.091   4.821  70.555  1.00  0.00     0.000 HD 
HETATM   12  C   UNL     1     -11.181   8.088  70.420  1.00  0.00    -0.230 C  
HETATM   13  C   UNL     1      -9.638   8.532  69.934  1.00  0.00    -0.171 C  
HETATM   14  C   UNL     1      -9.454   8.872  68.450  1.00  0.00    -0.147 A  
HETATM   15  C   UNL     1      -8.154   9.012  67.912  1.00  0.00    -0.106 A  
HETATM   16  C   UNL     1      -7.986   9.439  66.578  1.00  0.00    -0.108 A  
HETATM   17  C   UNL     1      -6.892   8.713  68.693  1.00  0.00    -0.063 C  
HETATM   18  C   UNL     1      -7.070   8.560  70.200  1.00  0.00    -0.043 C  
HETATM   19  C   UNL     1      -9.079   9.776  65.785  1.00  0.00    -0.177 A  
HETATM   20  C   UNL     1     -10.356   9.691  66.333  1.00  0.00    -0.246 A  
ENDROOT
BRANCH   4  21
HETATM   21  C   UNL     1      -8.919   4.971  71.631  1.00  0.00    -0.152 C  
HETATM   22  C   UNL     1      -8.279   3.944  71.708  1.00  0.00    -0.082 C  
ENDBRANCH   4  21
BRANCH  19  23
HETATM   23  O   UNL     1      -9.027  10.208  64.488  1.00  0.00    -0.183 OA 
HETATM   24  C   UNL     1     -10.032  11.130  64.081  1.00  0.00    -0.316 C  
ENDBRANCH  19  23
TORSDOF 2
ENDMDL
MODEL       93
REMARK 921   NORMALIZED FREE ENERGY PREDICTED BY IDOCK:   -3.86 KCAL/MOL
REMARK 922        TOTAL FREE ENERGY PREDICTED BY IDOCK:   -4.37 KCAL/MOL
REMARK 923 INTER-LIGAND FREE ENERGY PREDICTED BY IDOCK:   -4.36 KCAL/MOL
REMARK 924 INTRA-LIGAND FREE ENERGY PREDICTED BY IDOCK:   -0.01 KCAL/MOL
REMARK 927      BINDING AFFINITY PREDICTED BY RF-SCORE:    0.00 PKD
ROOT
HETATM    1  C   UNL     1      -7.140   7.193  67.851  1.00  0.00    -0.085 C  
HETATM    2  C   UNL     1      -7.294   6.718  69.177  1.00  0.00    -0.093 C  
HETATM    3  C   UNL     1      -8.519   6.722  68.343  1.00  0.00    -0.122 C  
HETATM    4  C   UNL     1      -8.219   7.117  66.346  1.00  0.00    -0.120 C  
HETATM    5  C   UNL     1      -8.307   5.904  66.971  1.00  0.00    -0.105 C  
HETATM    6  C   UNL     1      -7.851   8.895  67.768  1.00  0.00    -0.102 C  
HETATM    7  O   UNL     1      -9.111   7.011  65.234  1.00  0.00    -0.355 OA 
HETATM    8  C   UNL     1     -10.162   6.207  67.030  1.00  0.00    -0.253 C  
HETATM    9  C   UNL     1      -7.811   4.539  66.588  1.00  0.00    -0.099 C  
HETATM   10  C   UNL     1     -11.232  10.902  67.393  1.00  0.00    -0.345 A  
HETATM   11  H   UNL     1      -8.973   7.194  64.313  1.00  0.00     0.000 HD 
HETATM   12  C   UNL     1     -10.521   7.929  67.099  1.00  0.00    -0.414 C  
HETATM   13  C   UNL     1      -9.524   9.048  67.853  1.00  0.00    -0.159 C  
HETATM   14  C   UNL     1      -9.917  10.524  67.710  1.00  0.00    -0.198 A  
HETATM   15  C   UNL     1      -9.010  11.538  68.095  1.00  0.00    -0.172 A  
HETATM   16  C   UNL     1      -9.413  12.890  68.075  1.00  0.00    -0.213 A  
HETATM   17  C   UNL     1      -7.586  11.261  68.531  1.00  0.00    -0.123 C  
HETATM   18  C   UNL     1      -7.265   9.803  68.846  1.00  0.00    -0.072 C  
HETATM   19  C   UNL     1     -10.711  13.250  67.726  1.00  0.00    -0.244 A  
HETATM   20  C   UNL     1     -11.620  12.247  67.401  1.00  0.00    -0.425 A  
ENDROOT
BRANCH   4  21
HETATM   21  C   UNL     1      -6.887   7.091  65.553  1.00  0.00    -0.052 C  
HETATM   22  C   UNL     1      -5.840   7.031  64.944  1.00  0.00    -0.036 C  
ENDBRANCH   4  21
BRANCH  19  23
HETATM   23  O   UNL     1     -11.206  14.525  67.684  1.00  0.00    -0.296 OA 
HETATM   24  C   UNL     1     -10.387  15.507  67.061  1.00  0.00    -0.279 C  
ENDBRANCH  19  23
TORSDOF 2
ENDMDL
MODEL       94
REMARK 921   NORMALIZED FREE ENERGY PREDICTED BY IDOCK:   -3.79 KCAL/MOL
REMARK 922        TOTAL FREE ENERGY PREDICTED BY IDOCK:   -4.29 KCAL/MOL
REMARK 923 INTER-LIGAND FREE ENERGY PREDICTED BY IDOCK:   -4.24 KCAL/MOL
REMARK 924 INTRA-LIGAND FREE ENERGY PREDICTED BY IDOCK:   -0.05 KCAL/MOL
REMARK 927      BINDING AFFINITY PREDICTED BY RF-SCORE:    0.00 PKD
ROOT
HETATM    1  C   UNL     1      -9.250  11.760  68.495  1.00  0.00    -0.152 C  
HETATM    2  C   UNL     1      -8.234  12.748  68.480  1.00  0.00    -0.068 C  
HETATM    3  C   UNL     1      -9.163  12.754  67.324  1.00  0.00    -0.203 C  
HETATM    4  C   UNL     1     -10.804  11.528  67.511  1.00  0.00    -0.237 C  
HETATM    5  C   UNL     1     -10.700  12.861  67.796  1.00  0.00    -0.238 C  
HETATM    6  C   UNL     1      -8.783  10.440  67.292  1.00  0.00    -0.125 C  
HETATM    7  O   UNL     1     -11.983  11.426  66.709  1.00  0.00    -0.383 OA 
HETATM    8  C   UNL     1     -10.780  13.139  65.938  1.00  0.00    -0.287 C  
HETATM    9  C   UNL     1     -11.497  13.762  68.695  1.00  0.00    -0.336 C  
HETATM   10  C   UNL     1      -8.826   9.483  63.461  1.00  0.00    -0.235 A  
HETATM   11  H   UNL     1     -12.740  10.860  66.796  1.00  0.00     0.000 HD 
HETATM   12  C   UNL     1     -10.118  11.764  65.062  1.00  0.00    -0.302 C  
HETATM   13  C   UNL     1      -8.872  10.808  65.653  1.00  0.00    -0.202 C  
HETATM   14  C   UNL     1      -8.500   9.572  64.825  1.00  0.00    -0.170 A  
HETATM   15  C   UNL     1      -7.644   8.587  65.368  1.00  0.00    -0.088 A  
HETATM   16  C   UNL     1      -7.209   7.511  64.566  1.00  0.00    -0.077 A  
HETATM   17  C   UNL     1      -7.158   8.604  66.802  1.00  0.00    -0.078 C  
HETATM   18  C   UNL     1      -7.373   9.914  67.555  1.00  0.00    -0.090 C  
HETATM   19  C   UNL     1      -7.567   7.421  63.224  1.00  0.00    -0.114 A  
HETATM   20  C   UNL     1      -8.365   8.420  62.675  1.00  0.00    -0.150 A  
ENDROOT
BRANCH   4  21
HETATM   21  C   UNL     1     -11.362  10.862  68.795  1.00  0.00    -0.357 C  
HETATM   22  C   UNL     1     -11.836  10.345  69.785  1.00  0.00    -0.278 C  
ENDBRANCH   4  21
BRANCH  19  23
HETATM   23  O   UNL     1      -7.193   6.429  62.358  1.00  0.00    -0.041 OA 
HETATM   24  C   UNL     1      -6.479   5.332  62.916  1.00  0.00    -0.025 C  
ENDBRANCH  19  23
TORSDOF 2
ENDMDL
MODEL       95
REMARK 921   NORMALIZED FREE ENERGY PREDICTED BY IDOCK:   -3.78 KCAL/MOL
REMARK 922        TOTAL FREE ENERGY PREDICTED BY IDOCK:   -4.28 KCAL/MOL
REMARK 923 INTER-LIGAND FREE ENERGY PREDICTED BY IDOCK:   -4.24 KCAL/MOL
REMARK 924 INTRA-LIGAND FREE ENERGY PREDICTED BY IDOCK:   -0.04 KCAL/MOL
REMARK 927      BINDING AFFINITY PREDICTED BY RF-SCORE:    0.00 PKD
ROOT
HETATM    1  C   UNL     1      -7.318   5.676  67.381  1.00  0.00    -0.077 C  
HETATM    2  C   UNL     1      -5.998   6.166  67.536  1.00  0.00    -0.017 C  
HETATM    3  C   UNL     1      -6.900   6.353  68.698  1.00  0.00    -0.074 C  
HETATM    4  C   UNL     1      -8.702   5.367  68.575  1.00  0.00    -0.094 C  
HETATM    5  C   UNL     1      -7.546   4.957  69.179  1.00  0.00    -0.064 C  
HETATM    6  C   UNL     1      -8.435   7.118  67.099  1.00  0.00    -0.121 C  
HETATM    7  O   UNL     1      -9.715   5.157  69.562  1.00  0.00    -0.157 OA 
HETATM    8  C   UNL     1      -7.987   6.155  70.560  1.00  0.00    -0.111 C  
HETATM    9  C   UNL     1      -7.033   3.594  69.543  1.00  0.00    -0.042 C  
HETATM   10  C   UNL     1     -10.425   9.994  68.934  1.00  0.00    -0.229 A  
HETATM   11  H   UNL     1     -10.546   4.702  69.505  1.00  0.00     0.000 HD 
HETATM   12  C   UNL     1      -8.927   7.510  69.946  1.00  0.00    -0.141 C  
HETATM   13  C   UNL     1      -8.742   8.137  68.402  1.00  0.00    -0.134 C  
HETATM   14  C   UNL     1      -9.728   9.233  67.981  1.00  0.00    -0.172 A  
HETATM   15  C   UNL     1      -9.803   9.636  66.628  1.00  0.00    -0.285 A  
HETATM   16  C   UNL     1     -10.624  10.723  66.261  1.00  0.00    -0.257 A  
HETATM   17  C   UNL     1      -9.046   8.950  65.510  1.00  0.00    -0.248 C  
HETATM   18  C   UNL     1      -7.939   7.998  65.952  1.00  0.00    -0.107 C  
HETATM   19  C   UNL     1     -11.334  11.447  67.215  1.00  0.00    -0.275 A  
HETATM   20  C   UNL     1     -11.216  11.084  68.554  1.00  0.00    -0.329 A  
ENDROOT
BRANCH   4  21
HETATM   21  C   UNL     1      -9.106   4.224  67.609  1.00  0.00    -0.156 C  
HETATM   22  C   UNL     1      -9.436   3.358  66.826  1.00  0.00    -0.163 C  
ENDBRANCH   4  21
BRANCH  19  23
HETATM   23  O   UNL     1     -12.147  12.519  66.968  1.00  0.00    -0.521 OA 
HETATM   24  C   UNL     1     -12.169  13.009  65.633  1.00  0.00    -0.466 C  
ENDBRANCH  19  23
TORSDOF 2
ENDMDL
MODEL       96
REMARK 921   NORMALIZED FREE ENERGY PREDICTED BY IDOCK:   -3.63 KCAL/MOL
REMARK 922        TOTAL FREE ENERGY PREDICTED BY IDOCK:   -4.11 KCAL/MOL
REMARK 923 INTER-LIGAND FREE ENERGY PREDICTED BY IDOCK:   -4.09 KCAL/MOL
REMARK 924 INTRA-LIGAND FREE ENERGY PREDICTED BY IDOCK:   -0.02 KCAL/MOL
REMARK 927      BINDING AFFINITY PREDICTED BY RF-SCORE:    0.00 PKD
ROOT
HETATM    1  C   UNL     1     -10.087   5.206  69.905  1.00  0.00    -0.342 C  
HETATM    2  C   UNL     1      -9.411   4.312  69.038  1.00  0.00    -0.242 C  
HETATM    3  C   UNL     1      -8.550   5.226  69.827  1.00  0.00    -0.102 C  
HETATM    4  C   UNL     1      -9.518   6.292  71.296  1.00  0.00    -0.159 C  
HETATM    5  C   UNL     1      -8.846   5.107  71.407  1.00  0.00    -0.145 C  
HETATM    6  C   UNL     1     -10.057   6.883  69.133  1.00  0.00    -0.180 C  
HETATM    7  O   UNL     1      -8.996   7.098  72.355  1.00  0.00    -0.128 OA 
HETATM    8  C   UNL     1      -7.272   6.132  71.321  1.00  0.00    -0.079 C  
HETATM    9  C   UNL     1      -8.930   3.995  72.413  1.00  0.00    -0.133 C  
HETATM   10  C   UNL     1      -7.825  10.101  68.626  1.00  0.00    -0.097 A  
HETATM   11  H   UNL     1      -9.443   7.590  73.033  1.00  0.00     0.000 HD 
HETATM   12  C   UNL     1      -7.523   7.601  70.385  1.00  0.00    -0.079 C  
HETATM   13  C   UNL     1      -8.587   7.700  69.092  1.00  0.00    -0.139 C  
HETATM   14  C   UNL     1      -8.783   9.086  68.467  1.00  0.00    -0.133 A  
HETATM   15  C   UNL     1      -9.835   9.307  67.549  1.00  0.00    -0.224 A  
HETATM   16  C   UNL     1      -9.944  10.547  66.885  1.00  0.00    -0.246 A  
HETATM   17  C   UNL     1     -10.892   8.271  67.229  1.00  0.00    -0.103 C  
HETATM   18  C   UNL     1     -10.590   6.852  67.702  1.00  0.00    -0.328 C  
HETATM   19  C   UNL     1      -9.003  11.554  67.079  1.00  0.00    -0.174 A  
HETATM   20  C   UNL     1      -7.936  11.317  67.942  1.00  0.00    -0.118 A  
ENDROOT
BRANCH   4  21
HETATM   21  C   UNL     1     -10.926   6.040  71.894  1.00  0.00    -0.316 C  
HETATM   22  C   UNL     1     -12.044   5.849  72.325  1.00  0.00    -0.138 C  
ENDBRANCH   4  21
BRANCH  19  23
HETATM   23  O   UNL     1      -9.010  12.785  66.481  1.00  0.00    -0.189 OA 
HETATM   24  C   UNL     1     -10.250  13.225  65.941  1.00  0.00    -0.293 C  
ENDBRANCH  19  23
TORSDOF 2
ENDMDL
MODEL       97
REMARK 921   NORMALIZED FREE ENERGY PREDICTED BY IDOCK:   -3.36 KCAL/MOL
REMARK 922        TOTAL FREE ENERGY PREDICTED BY IDOCK:   -3.81 KCAL/MOL
REMARK 923 INTER-LIGAND FREE ENERGY PREDICTED BY IDOCK:   -3.77 KCAL/MOL
REMARK 924 INTRA-LIGAND FREE ENERGY PREDICTED BY IDOCK:   -0.04 KCAL/MOL
REMARK 927      BINDING AFFINITY PREDICTED BY RF-SCORE:    0.00 PKD
ROOT
HETATM    1  C   UNL     1     -10.408   6.768  70.699  1.00  0.00    -0.225 C  
HETATM    2  C   UNL     1     -11.066   6.105  69.633  1.00  0.00    -0.489 C  
HETATM    3  C   UNL     1      -9.587   6.159  69.549  1.00  0.00    -0.165 C  
HETATM    4  C   UNL     1      -8.636   6.842  71.241  1.00  0.00    -0.123 C  
HETATM    5  C   UNL     1      -8.893   5.551  70.871  1.00  0.00    -0.148 C  
HETATM    6  C   UNL     1      -9.861   8.423  70.092  1.00  0.00    -0.183 C  
HETATM    7  O   UNL     1      -7.250   6.844  71.591  1.00  0.00    -0.077 OA 
HETATM    8  C   UNL     1      -7.465   5.743  69.663  1.00  0.00    -0.075 C  
HETATM    9  C   UNL     1      -9.001   4.282  71.666  1.00  0.00    -0.158 C  
HETATM   10  C   UNL     1      -7.026  10.277  68.062  1.00  0.00    -0.082 A  
HETATM   11  H   UNL     1      -6.812   7.160  72.372  1.00  0.00     0.000 HD 
HETATM   12  C   UNL     1      -7.292   7.416  69.146  1.00  0.00    -0.090 C  
HETATM   13  C   UNL     1      -8.587   8.473  68.995  1.00  0.00    -0.130 C  
HETATM   14  C   UNL     1      -8.249   9.931  68.659  1.00  0.00    -0.108 A  
HETATM   15  C   UNL     1      -9.245  10.929  68.759  1.00  0.00    -0.187 A  
HETATM   16  C   UNL     1      -8.967  12.246  68.338  1.00  0.00    -0.141 A  
HETATM   17  C   UNL     1     -10.630  10.671  69.314  1.00  0.00    -0.263 C  
HETATM   18  C   UNL     1     -11.016   9.203  69.469  1.00  0.00    -0.138 C  
HETATM   19  C   UNL     1      -7.738  12.581  67.777  1.00  0.00    -0.142 A  
HETATM   20  C   UNL     1      -6.777  11.585  67.629  1.00  0.00    -0.079 A  
ENDROOT
BRANCH   4  21
HETATM   21  C   UNL     1      -9.217   6.999  72.670  1.00  0.00    -0.154 C  
HETATM   22  C   UNL     1      -9.669   7.162  73.784  1.00  0.00    -0.331 C  
ENDBRANCH   4  21
BRANCH  19  23
HETATM   23  O   UNL     1      -7.371  13.821  67.330  1.00  0.00    -0.145 OA 
HETATM   24  C   UNL     1      -6.552  14.595  68.198  1.00  0.00    -0.134 C  
ENDBRANCH  19  23
TORSDOF 2
ENDMDL
MODEL       98
REMARK 921   NORMALIZED FREE ENERGY PREDICTED BY IDOCK:   -3.25 KCAL/MOL
REMARK 922        TOTAL FREE ENERGY PREDICTED BY IDOCK:   -3.69 KCAL/MOL
REMARK 923 INTER-LIGAND FREE ENERGY PREDICTED BY IDOCK:   -3.61 KCAL/MOL
REMARK 924 INTRA-LIGAND FREE ENERGY PREDICTED BY IDOCK:   -0.07 KCAL/MOL
REMARK 927      BINDING AFFINITY PREDICTED BY RF-SCORE:    0.00 PKD
ROOT
HETATM    1  C   UNL     1      -7.688  10.694  66.799  1.00  0.00    -0.127 C  
HETATM    2  C   UNL     1      -6.767   9.916  66.056  1.00  0.00    -0.094 C  
HETATM    3  C   UNL     1      -8.101   9.307  66.276  1.00  0.00    -0.107 C  
HETATM    4  C   UNL     1      -9.516  10.565  67.080  1.00  0.00    -0.163 C  
HETATM    5  C   UNL     1      -9.286  10.272  65.764  1.00  0.00    -0.215 C  
HETATM    6  C   UNL     1      -7.795   9.983  68.500  1.00  0.00    -0.093 C  
HETATM    7  O   UNL     1     -10.926  10.393  67.242  1.00  0.00    -0.288 OA 
HETATM    8  C   UNL     1     -10.152   8.637  66.104  1.00  0.00    -0.106 C  
HETATM    9  C   UNL     1      -9.611  11.011  64.499  1.00  0.00    -0.299 C  
HETATM   10  C   UNL     1      -9.485   7.129  70.643  1.00  0.00    -0.161 A  
HETATM   11  H   UNL     1     -11.579  10.974  67.614  1.00  0.00     0.000 HD 
HETATM   12  C   UNL     1      -9.943   8.146  67.781  1.00  0.00    -0.230 C  
HETATM   13  C   UNL     1      -8.574   8.503  68.683  1.00  0.00    -0.135 C  
HETATM   14  C   UNL     1      -8.606   8.115  70.166  1.00  0.00    -0.129 A  
HETATM   15  C   UNL     1      -7.610   8.597  71.045  1.00  0.00    -0.109 A  
HETATM   16  C   UNL     1      -7.571   8.146  72.381  1.00  0.00    -0.153 A  
HETATM   17  C   UNL     1      -6.556   9.605  70.638  1.00  0.00    -0.114 C  
HETATM   18  C   UNL     1      -6.414   9.842  69.138  1.00  0.00    -0.044 C  
HETATM   19  C   UNL     1      -8.471   7.192  72.848  1.00  0.00    -0.113 A  
HETATM   20  C   UNL     1      -9.417   6.677  71.966  1.00  0.00    -0.148 A  
ENDROOT
BRANCH   4  21
HETATM   21  C   UNL     1      -9.476  12.111  67.184  1.00  0.00    -0.190 C  
HETATM   22  C   UNL     1      -9.469  13.318  67.299  1.00  0.00    -0.233 C  
ENDBRANCH   4  21
BRANCH  19  23
HETATM   23  O   UNL     1      -8.514   6.682  74.117  1.00  0.00    -0.126 OA 
HETATM   24  C   UNL     1      -9.666   5.920  74.459  1.00  0.00    -0.239 C  
ENDBRANCH  19  23
TORSDOF 2
ENDMDL
MODEL       99
REMARK 921   NORMALIZED FREE ENERGY PREDICTED BY IDOCK:   -3.19 KCAL/MOL
REMARK 922        TOTAL FREE ENERGY PREDICTED BY IDOCK:   -3.62 KCAL/MOL
REMARK 923 INTER-LIGAND FREE ENERGY PREDICTED BY IDOCK:   -3.62 KCAL/MOL
REMARK 924 INTRA-LIGAND FREE ENERGY PREDICTED BY IDOCK:   -0.00 KCAL/MOL
REMARK 927      BINDING AFFINITY PREDICTED BY RF-SCORE:    0.00 PKD
ROOT
HETATM    1  C   UNL     1      -9.394   7.531  72.543  1.00  0.00    -0.200 C  
HETATM    2  C   UNL     1     -10.683   8.103  72.690  1.00  0.00    -0.421 C  
HETATM    3  C   UNL     1     -10.602   6.896  71.832  1.00  0.00    -0.236 C  
HETATM    4  C   UNL     1      -8.800   5.905  71.880  1.00  0.00    -0.138 C  
HETATM    5  C   UNL     1      -9.927   5.657  72.611  1.00  0.00    -0.198 C  
HETATM    6  C   UNL     1      -8.759   7.977  70.868  1.00  0.00    -0.143 C  
HETATM    7  O   UNL     1      -8.427   4.630  71.354  1.00  0.00    -0.103 OA 
HETATM    8  C   UNL     1     -10.623   4.879  71.047  1.00  0.00    -0.085 C  
HETATM    9  C   UNL     1     -10.140   4.955  73.922  1.00  0.00    -0.219 C  
HETATM   10  C   UNL     1      -8.913   6.982  67.050  1.00  0.00    -0.130 A  
HETATM   11  H   UNL     1      -7.595   4.173  71.375  1.00  0.00     0.000 HD 
HETATM   12  C   UNL     1      -9.934   5.624  69.609  1.00  0.00    -0.267 C  
HETATM   13  C   UNL     1      -9.471   7.235  69.537  1.00  0.00    -0.155 C  
HETATM   14  C   UNL     1      -8.770   7.693  68.252  1.00  0.00    -0.123 A  
HETATM   15  C   UNL     1      -8.129   8.952  68.206  1.00  0.00    -0.109 A  
HETATM   16  C   UNL     1      -7.588   9.423  66.992  1.00  0.00    -0.091 A  
HETATM   17  C   UNL     1      -7.973   9.853  69.413  1.00  0.00    -0.135 C  
HETATM   18  C   UNL     1      -8.823   9.484  70.625  1.00  0.00    -0.208 C  
HETATM   19  C   UNL     1      -7.711   8.691  65.814  1.00  0.00    -0.090 A  
HETATM   20  C   UNL     1      -8.389   7.476  65.849  1.00  0.00    -0.140 A  
ENDROOT
BRANCH   4  21
HETATM   21  C   UNL     1      -7.650   6.056  72.909  1.00  0.00    -0.102 C  
HETATM   22  C   UNL     1      -6.777   6.193  73.739  1.00  0.00    -0.079 C  
ENDBRANCH   4  21
BRANCH  19  23
HETATM   23  O   UNL     1      -7.232   9.059  64.586  1.00  0.00    -0.094 OA 
HETATM   24  C   UNL     1      -8.099   9.838  63.771  1.00  0.00    -0.149 C  
ENDBRANCH  19  23
TORSDOF 2
ENDMDL
MODEL      100
REMARK 921   NORMALIZED FREE ENERGY PREDICTED BY IDOCK:   -3.18 KCAL/MOL
REMARK 922        TOTAL FREE ENERGY PREDICTED BY IDOCK:   -3.61 KCAL/MOL
REMARK 923 INTER-LIGAND FREE ENERGY PREDICTED BY IDOCK:   -3.59 KCAL/MOL
REMARK 924 INTRA-LIGAND FREE ENERGY PREDICTED BY IDOCK:   -0.02 KCAL/MOL
REMARK 927      BINDING AFFINITY PREDICTED BY RF-SCORE:    0.00 PKD
ROOT
HETATM    1  C   UNL     1     -10.016   5.509  67.706  1.00  0.00    -0.188 C  
HETATM    2  C   UNL     1     -10.244   5.138  66.357  1.00  0.00    -0.303 C  
HETATM    3  C   UNL     1      -8.830   5.381  66.733  1.00  0.00    -0.112 C  
HETATM    4  C   UNL     1      -8.486   5.611  68.748  1.00  0.00    -0.102 C  
HETATM    5  C   UNL     1      -8.386   4.477  67.992  1.00  0.00    -0.094 C  
HETATM    6  C   UNL     1      -9.667   7.321  67.749  1.00  0.00    -0.167 C  
HETATM    7  O   UNL     1      -7.260   5.661  69.482  1.00  0.00    -0.062 OA 
HETATM    8  C   UNL     1      -6.766   5.191  67.357  1.00  0.00    -0.055 C  
HETATM    9  C   UNL     1      -8.440   3.021  68.353  1.00  0.00    -0.103 C  
HETATM   10  C   UNL     1      -6.831  10.018  67.218  1.00  0.00    -0.082 A  
HETATM   11  H   UNL     1      -7.102   5.768  70.412  1.00  0.00     0.000 HD 
HETATM   12  C   UNL     1      -6.798   6.951  67.377  1.00  0.00    -0.076 C  
HETATM   13  C   UNL     1      -8.193   7.850  67.134  1.00  0.00    -0.118 C  
HETATM   14  C   UNL     1      -8.073   9.369  67.311  1.00  0.00    -0.110 A  
HETATM   15  C   UNL     1      -9.237  10.169  67.371  1.00  0.00    -0.156 A  
HETATM   16  C   UNL     1      -9.125  11.574  67.416  1.00  0.00    -0.166 A  
HETATM   17  C   UNL     1     -10.640   9.599  67.402  1.00  0.00    -0.333 C  
HETATM   18  C   UNL     1     -10.759   8.121  67.040  1.00  0.00    -0.247 C  
HETATM   19  C   UNL     1      -7.884  12.201  67.355  1.00  0.00    -0.168 A  
HETATM   20  C   UNL     1      -6.741  11.415  67.241  1.00  0.00    -0.111 A  
ENDROOT
BRANCH   4  21
HETATM   21  C   UNL     1      -9.426   5.253  69.928  1.00  0.00    -0.211 C  
HETATM   22  C   UNL     1     -10.192   4.969  70.825  1.00  0.00    -0.299 C  
ENDBRANCH   4  21
BRANCH  19  23
HETATM   23  O   UNL     1      -7.665  13.552  67.381  1.00  0.00    -0.164 OA 
HETATM   24  C   UNL     1      -6.395  13.983  67.857  1.00  0.00    -0.161 C  
ENDBRANCH  19  23
TORSDOF 2
ENDMDL
MODEL      101
REMARK 921   NORMALIZED FREE ENERGY PREDICTED BY IDOCK:   -3.17 KCAL/MOL
REMARK 922        TOTAL FREE ENERGY PREDICTED BY IDOCK:   -3.59 KCAL/MOL
REMARK 923 INTER-LIGAND FREE ENERGY PREDICTED BY IDOCK:   -3.54 KCAL/MOL
REMARK 924 INTRA-LIGAND FREE ENERGY PREDICTED BY IDOCK:   -0.06 KCAL/MOL
REMARK 927      BINDING AFFINITY PREDICTED BY RF-SCORE:    0.00 PKD
ROOT
HETATM    1  C   UNL     1      -9.424  11.707  65.177  1.00  0.00    -0.152 C  
HETATM    2  C   UNL     1      -9.659  10.569  64.365  1.00  0.00    -0.357 C  
HETATM    3  C   UNL     1     -10.400  10.614  65.648  1.00  0.00    -0.285 C  
HETATM    4  C   UNL     1     -10.290  12.401  66.663  1.00  0.00    -0.226 C  
HETATM    5  C   UNL     1     -11.255  11.973  65.794  1.00  0.00    -0.383 C  
HETATM    6  C   UNL     1      -8.325  11.197  66.570  1.00  0.00    -0.166 C  
HETATM    7  O   UNL     1     -11.016  12.868  67.802  1.00  0.00    -0.231 OA 
HETATM    8  C   UNL     1     -11.876  10.898  67.207  1.00  0.00     0.573 C  
HETATM    9  C   UNL     1     -12.257  12.718  64.960  1.00  0.00    -0.527 C  
HETATM   10  C   UNL     1      -8.300   9.473  70.123  1.00  0.00    -0.212 A  
HETATM   11  H   UNL     1     -10.964  13.693  68.270  1.00  0.00     0.000 HD 
HETATM   12  C   UNL     1     -10.560  10.447  68.285  1.00  0.00    -0.245 C  
HETATM   13  C   UNL     1      -8.982  10.216  67.768  1.00  0.00    -0.129 C  
HETATM   14  C   UNL     1      -7.932   9.953  68.855  1.00  0.00    -0.096 A  
HETATM   15  C   UNL     1      -6.556   9.995  68.535  1.00  0.00    -0.053 A  
HETATM   16  C   UNL     1      -5.596   9.638  69.505  1.00  0.00    -0.034 A  
HETATM   17  C   UNL     1      -6.027  10.422  67.182  1.00  0.00    -0.050 C  
HETATM   18  C   UNL     1      -7.063  10.500  66.064  1.00  0.00    -0.137 C  
HETATM   19  C   UNL     1      -5.976   9.195  70.768  1.00  0.00    -0.045 A  
HETATM   20  C   UNL     1      -7.333   9.101  71.065  1.00  0.00    -0.116 A  
ENDROOT
BRANCH   4  21
HETATM   21  C   UNL     1      -9.819  13.778  66.130  1.00  0.00    -0.310 C  
HETATM   22  C   UNL     1      -9.417  14.853  65.737  1.00  0.00    -0.237 C  
ENDBRANCH   4  21
BRANCH  19  23
HETATM   23  O   UNL     1      -5.130   8.817  71.775  1.00  0.00    -0.033 OA 
HETATM   24  C   UNL     1      -5.519   9.163  73.099  1.00  0.00    -0.085 C  
ENDBRANCH  19  23
TORSDOF 2
ENDMDL
MODEL      102
REMARK 921   NORMALIZED FREE ENERGY PREDICTED BY IDOCK:   -3.04 KCAL/MOL
REMARK 922        TOTAL FREE ENERGY PREDICTED BY IDOCK:   -3.45 KCAL/MOL
REMARK 923 INTER-LIGAND FREE ENERGY PREDICTED BY IDOCK:   -3.39 KCAL/MOL
REMARK 924 INTRA-LIGAND FREE ENERGY PREDICTED BY IDOCK:   -0.06 KCAL/MOL
REMARK 927      BINDING AFFINITY PREDICTED BY RF-SCORE:    0.00 PKD
ROOT
HETATM    1  C   UNL     1      -8.836   4.498  71.545  1.00  0.00    -0.147 C  
HETATM    2  C   UNL     1      -8.775   3.288  70.810  1.00  0.00    -0.128 C  
HETATM    3  C   UNL     1      -7.640   4.222  70.616  1.00  0.00    -0.052 C  
HETATM    4  C   UNL     1      -7.588   5.818  71.913  1.00  0.00    -0.097 C  
HETATM    5  C   UNL     1      -6.948   4.615  72.018  1.00  0.00    -0.060 C  
HETATM    6  C   UNL     1      -9.311   5.850  70.381  1.00  0.00    -0.181 C  
HETATM    7  O   UNL     1      -6.565   6.788  72.151  1.00  0.00    -0.056 OA 
HETATM    8  C   UNL     1      -5.753   5.277  70.725  1.00  0.00    -0.020 C  
HETATM    9  C   UNL     1      -6.394   3.871  73.198  1.00  0.00    -0.027 C  
HETATM   10  C   UNL     1      -7.891   8.340  67.665  1.00  0.00    -0.106 A  
HETATM   11  H   UNL     1      -6.542   7.525  72.750  1.00  0.00     0.000 HD 
HETATM   12  C   UNL     1      -6.546   6.436  69.665  1.00  0.00    -0.048 C  
HETATM   13  C   UNL     1      -8.169   6.348  69.251  1.00  0.00    -0.115 C  
HETATM   14  C   UNL     1      -8.733   7.509  68.422  1.00  0.00    -0.123 A  
HETATM   15  C   UNL     1     -10.129   7.639  68.245  1.00  0.00    -0.214 A  
HETATM   16  C   UNL     1     -10.640   8.636  67.387  1.00  0.00    -0.298 A  
HETATM   17  C   UNL     1     -11.144   6.759  68.943  1.00  0.00    -0.243 C  
HETATM   18  C   UNL     1     -10.583   5.505  69.608  1.00  0.00    -0.375 C  
HETATM   19  C   UNL     1      -9.793   9.473  66.668  1.00  0.00    -0.231 A  
HETATM   20  C   UNL     1      -8.417   9.309  66.801  1.00  0.00    -0.129 A  
ENDROOT
BRANCH   4  21
HETATM   21  C   UNL     1      -8.368   6.001  73.240  1.00  0.00    -0.115 C  
HETATM   22  C   UNL     1      -8.946   6.164  74.294  1.00  0.00    -0.139 C  
ENDBRANCH   4  21
BRANCH  19  23
HETATM   23  O   UNL     1     -10.183  10.462  65.806  1.00  0.00    -0.260 OA 
HETATM   24  C   UNL     1      -9.600  11.745  66.001  1.00  0.00    -0.230 C  
ENDBRANCH  19  23
TORSDOF 2
ENDMDL
MODEL      103
REMARK 921   NORMALIZED FREE ENERGY PREDICTED BY IDOCK:   -3.01 KCAL/MOL
REMARK 922        TOTAL FREE ENERGY PREDICTED BY IDOCK:   -3.42 KCAL/MOL
REMARK 923 INTER-LIGAND FREE ENERGY PREDICTED BY IDOCK:   -3.35 KCAL/MOL
REMARK 924 INTRA-LIGAND FREE ENERGY PREDICTED BY IDOCK:   -0.07 KCAL/MOL
REMARK 927      BINDING AFFINITY PREDICTED BY RF-SCORE:    0.00 PKD
ROOT
HETATM    1  C   UNL     1      -8.543  16.828  67.147  1.00  0.00    -0.217 C  
HETATM    2  C   UNL     1      -9.613  17.129  68.026  1.00  0.00    -0.267 C  
HETATM    3  C   UNL     1      -8.598  16.179  68.540  1.00  0.00    -0.202 C  
HETATM    4  C   UNL     1      -6.904  15.995  67.387  1.00  0.00    -0.189 C  
HETATM    5  C   UNL     1      -7.113  16.800  68.472  1.00  0.00    -0.183 C  
HETATM    6  C   UNL     1      -8.832  15.144  66.450  1.00  0.00    -0.277 C  
HETATM    7  O   UNL     1      -5.661  15.344  67.659  1.00  0.00    -0.220 OA 
HETATM    8  C   UNL     1      -6.902  15.247  69.511  1.00  0.00    -0.180 C  
HETATM    9  C   UNL     1      -6.446  18.068  68.924  1.00  0.00    -0.229 C  
HETATM   10  C   UNL     1      -8.425  11.288  67.204  1.00  0.00    -0.149 A  
HETATM   11  H   UNL     1      -4.880  15.259  67.126  1.00  0.00     0.000 HD 
HETATM   12  C   UNL     1      -7.407  13.816  68.621  1.00  0.00    -0.117 C  
HETATM   13  C   UNL     1      -8.635  13.827  67.478  1.00  0.00    -0.194 C  
HETATM   14  C   UNL     1      -8.863  12.524  66.701  1.00  0.00    -0.142 A  
HETATM   15  C   UNL     1      -9.698  12.518  65.560  1.00  0.00    -0.133 A  
HETATM   16  C   UNL     1     -10.001  11.301  64.915  1.00  0.00    -0.323 A  
HETATM   17  C   UNL     1     -10.297  13.772  64.958  1.00  0.00    -0.402 C  
HETATM   18  C   UNL     1     -10.223  15.022  65.831  1.00  0.00    -0.335 C  
HETATM   19  C   UNL     1      -9.532  10.086  65.408  1.00  0.00    -0.250 A  
HETATM   20  C   UNL     1      -8.756  10.088  66.563  1.00  0.00    -0.142 A  
ENDROOT
BRANCH   4  21
HETATM   21  C   UNL     1      -6.411  16.930  66.252  1.00  0.00     0.061 C  
HETATM   22  C   UNL     1      -6.011  17.628  65.345  1.00  0.00     0.205 C  
ENDBRANCH   4  21
BRANCH  19  23
HETATM   23  O   UNL     1      -9.775   8.853  64.867  1.00  0.00     0.321 OA 
HETATM   24  C   UNL     1      -8.960   7.782  65.329  1.00  0.00     0.210 C  
ENDBRANCH  19  23
TORSDOF 2
ENDMDL
MODEL      104
REMARK 921   NORMALIZED FREE ENERGY PREDICTED BY IDOCK:   -2.99 KCAL/MOL
REMARK 922        TOTAL FREE ENERGY PREDICTED BY IDOCK:   -3.40 KCAL/MOL
REMARK 923 INTER-LIGAND FREE ENERGY PREDICTED BY IDOCK:   -3.37 KCAL/MOL
REMARK 924 INTRA-LIGAND FREE ENERGY PREDICTED BY IDOCK:   -0.03 KCAL/MOL
REMARK 927      BINDING AFFINITY PREDICTED BY RF-SCORE:    0.00 PKD
ROOT
HETATM    1  C   UNL     1      -9.541   4.298  66.398  1.00  0.00    -0.209 C  
HETATM    2  C   UNL     1     -10.450   4.080  65.333  1.00  0.00    -0.034 C  
HETATM    3  C   UNL     1      -9.137   4.658  64.958  1.00  0.00    -0.156 C  
HETATM    4  C   UNL     1      -7.727   4.678  66.456  1.00  0.00    -0.091 C  
HETATM    5  C   UNL     1      -7.915   3.744  65.475  1.00  0.00    -0.093 C  
HETATM    6  C   UNL     1      -9.511   6.108  66.762  1.00  0.00    -0.164 C  
HETATM    7  O   UNL     1      -6.328   4.968  66.410  1.00  0.00    -0.034 OA 
HETATM    8  C   UNL     1      -7.094   4.976  64.315  1.00  0.00    -0.050 C  
HETATM    9  C   UNL     1      -7.528   2.296  65.381  1.00  0.00    -0.070 C  
HETATM   10  C   UNL     1      -7.957   9.549  65.604  1.00  0.00    -0.108 A  
HETATM   11  H   UNL     1      -5.677   4.977  67.102  1.00  0.00     0.000 HD 
HETATM   12  C   UNL     1      -7.375   6.630  64.846  1.00  0.00    -0.080 C  
HETATM   13  C   UNL     1      -8.768   7.119  65.642  1.00  0.00    -0.088 C  
HETATM   14  C   UNL     1      -8.799   8.566  66.150  1.00  0.00    -0.200 A  
HETATM   15  C   UNL     1      -9.816   8.982  67.038  1.00  0.00    -0.270 A  
HETATM   16  C   UNL     1      -9.913  10.339  67.413  1.00  0.00    -0.230 A  
HETATM   17  C   UNL     1     -10.835   8.038  67.642  1.00  0.00    -0.108 C  
HETATM   18  C   UNL     1     -10.916   6.657  66.997  1.00  0.00    -0.463 C  
HETATM   19  C   UNL     1      -9.050  11.296  66.887  1.00  0.00    -0.167 A  
HETATM   20  C   UNL     1      -8.083  10.895  65.970  1.00  0.00    -0.142 A  
ENDROOT
BRANCH   4  21
HETATM   21  C   UNL     1      -7.740   3.898  67.795  1.00  0.00    -0.071 C  
HETATM   22  C   UNL     1      -7.778   3.313  68.857  1.00  0.00    -0.051 C  
ENDBRANCH   4  21
BRANCH  19  23
HETATM   23  O   UNL     1      -9.064  12.634  67.175  1.00  0.00    -0.195 OA 
HETATM   24  C   UNL     1      -9.790  13.471  66.283  1.00  0.00    -0.299 C  
ENDBRANCH  19  23
TORSDOF 2
ENDMDL
MODEL      105
REMARK 921   NORMALIZED FREE ENERGY PREDICTED BY IDOCK:   -2.94 KCAL/MOL
REMARK 922        TOTAL FREE ENERGY PREDICTED BY IDOCK:   -3.34 KCAL/MOL
REMARK 923 INTER-LIGAND FREE ENERGY PREDICTED BY IDOCK:   -3.29 KCAL/MOL
REMARK 924 INTRA-LIGAND FREE ENERGY PREDICTED BY IDOCK:   -0.05 KCAL/MOL
REMARK 927      BINDING AFFINITY PREDICTED BY RF-SCORE:    0.00 PKD
ROOT
HETATM    1  C   UNL     1      -7.806  10.484  67.060  1.00  0.00    -0.114 C  
HETATM    2  C   UNL     1      -8.026  11.088  65.797  1.00  0.00    -0.013 C  
HETATM    3  C   UNL     1      -9.219  10.497  66.451  1.00  0.00    -0.190 C  
HETATM    4  C   UNL     1      -8.947   9.907  68.403  1.00  0.00    -0.120 C  
HETATM    5  C   UNL     1      -9.441  11.091  67.932  1.00  0.00    -0.170 C  
HETATM    6  C   UNL     1      -7.821   8.652  66.829  1.00  0.00    -0.094 C  
HETATM    7  O   UNL     1      -9.895   9.491  69.388  1.00  0.00    -0.170 OA 
HETATM    8  C   UNL     1     -11.030  10.149  67.583  1.00  0.00    -0.331 C  
HETATM    9  C   UNL     1      -9.533  12.457  68.549  1.00  0.00    -0.101 C  
HETATM   10  C   UNL     1     -10.201   5.520  66.483  1.00  0.00    -0.273 A  
HETATM   11  H   UNL     1      -9.769   9.218  70.289  1.00  0.00     0.000 HD 
HETATM   12  C   UNL     1     -10.700   8.453  67.247  1.00  0.00    -0.230 C  
HETATM   13  C   UNL     1      -9.298   7.917  66.499  1.00  0.00    -0.255 C  
HETATM   14  C   UNL     1      -9.109   6.399  66.398  1.00  0.00    -0.168 A  
HETATM   15  C   UNL     1      -7.858   5.865  66.013  1.00  0.00    -0.105 A  
HETATM   16  C   UNL     1      -7.717   4.477  65.806  1.00  0.00    -0.094 A  
HETATM   17  C   UNL     1      -6.617   6.711  65.813  1.00  0.00    -0.047 C  
HETATM   18  C   UNL     1      -6.851   8.216  65.732  1.00  0.00    -0.063 C  
HETATM   19  C   UNL     1      -8.803   3.615  65.926  1.00  0.00    -0.125 A  
HETATM   20  C   UNL     1     -10.047   4.148  66.251  1.00  0.00    -0.126 A  
ENDROOT
BRANCH   4  21
HETATM   21  C   UNL     1      -7.790  10.281  69.365  1.00  0.00    -0.157 C  
HETATM   22  C   UNL     1      -6.910  10.564  70.150  1.00  0.00    -0.145 C  
ENDBRANCH   4  21
BRANCH  19  23
HETATM   23  O   UNL     1      -8.777   2.260  65.739  1.00  0.00    -0.110 OA 
HETATM   24  C   UNL     1      -8.553   1.804  64.409  1.00  0.00    -0.090 C  
ENDBRANCH  19  23
TORSDOF 2
ENDMDL
MODEL      106
REMARK 921   NORMALIZED FREE ENERGY PREDICTED BY IDOCK:   -2.90 KCAL/MOL
REMARK 922        TOTAL FREE ENERGY PREDICTED BY IDOCK:   -3.29 KCAL/MOL
REMARK 923 INTER-LIGAND FREE ENERGY PREDICTED BY IDOCK:   -3.23 KCAL/MOL
REMARK 924 INTRA-LIGAND FREE ENERGY PREDICTED BY IDOCK:   -0.06 KCAL/MOL
REMARK 927      BINDING AFFINITY PREDICTED BY RF-SCORE:    0.00 PKD
ROOT
HETATM    1  C   UNL     1      -9.962   9.407  67.140  1.00  0.00    -0.263 C  
HETATM    2  C   UNL     1      -9.519   8.886  65.899  1.00  0.00    -0.303 C  
HETATM    3  C   UNL     1      -8.503   8.947  66.978  1.00  0.00    -0.112 C  
HETATM    4  C   UNL     1      -9.233   9.410  68.845  1.00  0.00    -0.140 C  
HETATM    5  C   UNL     1      -8.996   8.176  68.304  1.00  0.00    -0.136 C  
HETATM    6  C   UNL     1      -9.307  11.125  67.306  1.00  0.00    -0.170 C  
HETATM    7  O   UNL     1      -8.601   9.365  70.126  1.00  0.00    -0.172 OA 
HETATM    8  C   UNL     1      -7.177   8.516  68.634  1.00  0.00    -0.080 C  
HETATM    9  C   UNL     1      -9.546   6.817  68.626  1.00  0.00    -0.131 C  
HETATM   10  C   UNL     1      -6.113  13.217  68.318  1.00  0.00    -0.089 A  
HETATM   11  H   UNL     1      -8.938   9.579  70.988  1.00  0.00     0.000 HD 
HETATM   12  C   UNL     1      -6.833  10.242  68.573  1.00  0.00    -0.061 C  
HETATM   13  C   UNL     1      -7.657  11.311  67.577  1.00  0.00    -0.110 C  
HETATM   14  C   UNL     1      -7.323  12.799  67.740  1.00  0.00    -0.130 A  
HETATM   15  C   UNL     1      -8.138  13.778  67.127  1.00  0.00    -0.094 A  
HETATM   16  C   UNL     1      -7.766  15.138  67.179  1.00  0.00    -0.223 A  
HETATM   17  C   UNL     1      -9.430  13.455  66.407  1.00  0.00    -0.230 C  
HETATM   18  C   UNL     1      -9.657  11.980  66.089  1.00  0.00    -0.252 C  
HETATM   19  C   UNL     1      -6.578  15.538  67.784  1.00  0.00    -0.159 A  
HETATM   20  C   UNL     1      -5.749  14.568  68.339  1.00  0.00    -0.106 A  
ENDROOT
BRANCH   4  21
HETATM   21  C   UNL     1     -10.704   9.385  69.332  1.00  0.00    -0.234 C  
HETATM   22  C   UNL     1     -11.846   9.394  69.742  1.00  0.00     0.298 C  
ENDBRANCH   4  21
BRANCH  19  23
HETATM   23  O   UNL     1      -6.120  16.825  67.880  1.00  0.00    -0.122 OA 
HETATM   24  C   UNL     1      -6.068  17.387  69.186  1.00  0.00    -0.216 C  
ENDBRANCH  19  23
TORSDOF 2
ENDMDL
MODEL      107
REMARK 921   NORMALIZED FREE ENERGY PREDICTED BY IDOCK:   -2.84 KCAL/MOL
REMARK 922        TOTAL FREE ENERGY PREDICTED BY IDOCK:   -3.23 KCAL/MOL
REMARK 923 INTER-LIGAND FREE ENERGY PREDICTED BY IDOCK:   -3.20 KCAL/MOL
REMARK 924 INTRA-LIGAND FREE ENERGY PREDICTED BY IDOCK:   -0.02 KCAL/MOL
REMARK 927      BINDING AFFINITY PREDICTED BY RF-SCORE:    0.00 PKD
ROOT
HETATM    1  C   UNL     1      -8.273   3.676  65.525  1.00  0.00    -0.097 C  
HETATM    2  C   UNL     1      -9.434   3.246  64.835  1.00  0.00    -0.151 C  
HETATM    3  C   UNL     1      -9.346   4.699  65.116  1.00  0.00    -0.153 C  
HETATM    4  C   UNL     1      -7.529   5.346  65.832  1.00  0.00    -0.082 C  
HETATM    5  C   UNL     1      -7.980   5.334  64.542  1.00  0.00    -0.113 C  
HETATM    6  C   UNL     1      -8.742   4.019  67.277  1.00  0.00    -0.120 C  
HETATM    7  O   UNL     1      -7.023   6.669  66.022  1.00  0.00    -0.058 OA 
HETATM    8  C   UNL     1      -9.008   6.835  65.018  1.00  0.00     0.426 C  
HETATM    9  C   UNL     1      -7.258   5.342  63.225  1.00  0.00    -0.048 C  
HETATM   10  C   UNL     1     -10.354   6.729  69.654  1.00  0.00    -0.223 A  
HETATM   11  H   UNL     1      -6.184   6.967  66.353  1.00  0.00     0.000 HD 
HETATM   12  C   UNL     1      -9.430   6.799  66.726  1.00  0.00    -0.199 C  
HETATM   13  C   UNL     1      -9.683   5.379  67.583  1.00  0.00    -0.155 C  
HETATM   14  C   UNL     1      -9.916   5.518  69.092  1.00  0.00    -0.256 A  
HETATM   15  C   UNL     1      -9.888   4.374  69.921  1.00  0.00    -0.290 A  
HETATM   16  C   UNL     1     -10.218   4.486  71.289  1.00  0.00    -0.167 A  
HETATM   17  C   UNL     1      -9.506   2.995  69.426  1.00  0.00    -0.176 C  
HETATM   18  C   UNL     1      -9.460   2.828  67.910  1.00  0.00    -0.196 C  
HETATM   19  C   UNL     1     -10.620   5.700  71.837  1.00  0.00    -0.232 A  
HETATM   20  C   UNL     1     -10.699   6.816  71.008  1.00  0.00    -0.265 A  
ENDROOT
BRANCH   4  21
HETATM   21  C   UNL     1      -6.171   4.599  65.814  1.00  0.00    -0.031 C  
HETATM   22  C   UNL     1      -5.128   3.979  65.801  1.00  0.00    -0.009 C  
ENDBRANCH   4  21
BRANCH  19  23
HETATM   23  O   UNL     1     -10.969   5.915  73.143  1.00  0.00    -0.255 OA 
HETATM   24  C   UNL     1     -10.449   7.088  73.758  1.00  0.00    -0.354 C  
ENDBRANCH  19  23
TORSDOF 2
ENDMDL
MODEL      108
REMARK 921   NORMALIZED FREE ENERGY PREDICTED BY IDOCK:   -2.80 KCAL/MOL
REMARK 922        TOTAL FREE ENERGY PREDICTED BY IDOCK:   -3.18 KCAL/MOL
REMARK 923 INTER-LIGAND FREE ENERGY PREDICTED BY IDOCK:   -3.17 KCAL/MOL
REMARK 924 INTRA-LIGAND FREE ENERGY PREDICTED BY IDOCK:   -0.01 KCAL/MOL
REMARK 927      BINDING AFFINITY PREDICTED BY RF-SCORE:    0.00 PKD
ROOT
HETATM    1  C   UNL     1     -10.119   4.954  70.289  1.00  0.00    -0.322 C  
HETATM    2  C   UNL     1      -9.786   4.278  69.089  1.00  0.00    -0.226 C  
HETATM    3  C   UNL     1      -8.702   4.386  70.096  1.00  0.00    -0.112 C  
HETATM    4  C   UNL     1      -9.286   5.087  71.940  1.00  0.00    -0.137 C  
HETATM    5  C   UNL     1      -9.156   3.792  71.524  1.00  0.00    -0.173 C  
HETATM    6  C   UNL     1      -9.355   6.634  70.230  1.00  0.00    -0.160 C  
HETATM    7  O   UNL     1      -8.579   5.136  73.181  1.00  0.00    -0.110 OA 
HETATM    8  C   UNL     1      -7.302   4.045  71.712  1.00  0.00    -0.059 C  
HETATM    9  C   UNL     1      -9.763   2.512  72.021  1.00  0.00    -0.212 C  
HETATM   10  C   UNL     1      -5.988   8.608  70.830  1.00  0.00    -0.034 A  
HETATM   11  H   UNL     1      -8.848   5.460  74.032  1.00  0.00     0.000 HD 
HETATM   12  C   UNL     1      -6.863   5.729  71.446  1.00  0.00    -0.063 C  
HETATM   13  C   UNL     1      -7.684   6.739  70.387  1.00  0.00    -0.100 C  
HETATM   14  C   UNL     1      -7.254   8.211  70.369  1.00  0.00    -0.048 A  
HETATM   15  C   UNL     1      -8.047   9.172  69.701  1.00  0.00    -0.106 A  
HETATM   16  C   UNL     1      -7.594  10.502  69.583  1.00  0.00    -0.134 A  
HETATM   17  C   UNL     1      -9.399   8.860  69.093  1.00  0.00    -0.148 C  
HETATM   18  C   UNL     1      -9.731   7.377  68.950  1.00  0.00    -0.150 C  
HETATM   19  C   UNL     1      -6.349  10.886  70.074  1.00  0.00    -0.142 A  
HETATM   20  C   UNL     1      -5.545   9.928  70.684  1.00  0.00    -0.062 A  
ENDROOT
BRANCH   4  21
HETATM   21  C   UNL     1     -10.723   5.209  72.508  1.00  0.00    -0.286 C  
HETATM   22  C   UNL     1     -11.860   5.277  72.925  1.00  0.00    -0.159 C  
ENDBRANCH   4  21
BRANCH  19  23
HETATM   23  O   UNL     1      -5.812  12.143  70.005  1.00  0.00    -0.123 OA 
HETATM   24  C   UNL     1      -6.510  13.092  69.208  1.00  0.00    -0.107 C  
ENDBRANCH  19  23
TORSDOF 2
ENDMDL
MODEL      109
REMARK 921   NORMALIZED FREE ENERGY PREDICTED BY IDOCK:   -2.79 KCAL/MOL
REMARK 922        TOTAL FREE ENERGY PREDICTED BY IDOCK:   -3.17 KCAL/MOL
REMARK 923 INTER-LIGAND FREE ENERGY PREDICTED BY IDOCK:   -3.14 KCAL/MOL
REMARK 924 INTRA-LIGAND FREE ENERGY PREDICTED BY IDOCK:   -0.03 KCAL/MOL
REMARK 927      BINDING AFFINITY PREDICTED BY RF-SCORE:    0.00 PKD
ROOT
HETATM    1  C   UNL     1      -7.240   5.942  69.815  1.00  0.00    -0.070 C  
HETATM    2  C   UNL     1      -6.296   6.146  70.851  1.00  0.00    -0.040 C  
HETATM    3  C   UNL     1      -7.722   6.234  71.246  1.00  0.00    -0.103 C  
HETATM    4  C   UNL     1      -9.068   5.633  69.811  1.00  0.00    -0.138 C  
HETATM    5  C   UNL     1      -8.536   4.904  70.838  1.00  0.00    -0.116 C  
HETATM    6  C   UNL     1      -7.934   7.585  69.342  1.00  0.00    -0.123 C  
HETATM    7  O   UNL     1     -10.475   5.397  69.898  1.00  0.00    -0.283 OA 
HETATM    8  C   UNL     1      -9.729   5.835  71.954  1.00  0.00    -0.184 C  
HETATM    9  C   UNL     1      -8.366   3.426  71.038  1.00  0.00    -0.089 C  
HETATM   10  C   UNL     1     -10.616  10.303  70.352  1.00  0.00    -0.212 A  
HETATM   11  H   UNL     1     -11.096   5.120  69.235  1.00  0.00     0.000 HD 
HETATM   12  C   UNL     1     -10.080   7.435  71.311  1.00  0.00    -0.195 C  
HETATM   13  C   UNL     1      -8.975   8.338  70.429  1.00  0.00    -0.146 C  
HETATM   14  C   UNL     1      -9.483   9.655  69.832  1.00  0.00    -0.260 A  
HETATM   15  C   UNL     1      -8.703  10.347  68.877  1.00  0.00    -0.157 A  
HETATM   16  C   UNL     1      -9.115  11.615  68.416  1.00  0.00    -0.180 A  
HETATM   17  C   UNL     1      -7.421   9.795  68.290  1.00  0.00    -0.080 C  
HETATM   18  C   UNL     1      -6.830   8.589  69.015  1.00  0.00    -0.056 C  
HETATM   19  C   UNL     1     -10.258  12.230  68.919  1.00  0.00    -0.020 A  
HETATM   20  C   UNL     1     -10.996  11.573  69.898  1.00  0.00     0.044 A  
ENDROOT
BRANCH   4  21
HETATM   21  C   UNL     1      -8.794   4.815  68.523  1.00  0.00    -0.119 C  
HETATM   22  C   UNL     1      -8.559   4.207  67.500  1.00  0.00    -0.107 C  
ENDBRANCH   4  21
BRANCH  19  23
HETATM   23  O   UNL     1     -10.738  13.457  68.549  1.00  0.00    -0.250 OA 
HETATM   24  C   UNL     1     -12.110  13.519  68.174  1.00  0.00    -0.255 C  
ENDBRANCH  19  23
TORSDOF 2
ENDMDL
MODEL      110
REMARK 921   NORMALIZED FREE ENERGY PREDICTED BY IDOCK:   -2.65 KCAL/MOL
REMARK 922        TOTAL FREE ENERGY PREDICTED BY IDOCK:   -3.02 KCAL/MOL
REMARK 923 INTER-LIGAND FREE ENERGY PREDICTED BY IDOCK:   -2.98 KCAL/MOL
REMARK 924 INTRA-LIGAND FREE ENERGY PREDICTED BY IDOCK:   -0.04 KCAL/MOL
REMARK 927      BINDING AFFINITY PREDICTED BY RF-SCORE:    0.00 PKD
ROOT
HETATM    1  C   UNL     1      -8.674   5.554  69.617  1.00  0.00    -0.110 C  
HETATM    2  C   UNL     1      -9.608   4.640  69.069  1.00  0.00    -0.242 C  
HETATM    3  C   UNL     1      -8.797   5.405  68.090  1.00  0.00    -0.105 C  
HETATM    4  C   UNL     1      -7.244   6.488  68.895  1.00  0.00    -0.084 C  
HETATM    5  C   UNL     1      -7.218   5.230  68.361  1.00  0.00    -0.067 C  
HETATM    6  C   UNL     1      -9.355   7.258  69.415  1.00  0.00    -0.151 C  
HETATM    7  O   UNL     1      -6.159   7.168  68.260  1.00  0.00    -0.031 OA 
HETATM    8  C   UNL     1      -7.296   6.075  66.682  1.00  0.00    -0.078 C  
HETATM    9  C   UNL     1      -6.272   4.079  68.546  1.00  0.00    -0.032 C  
HETATM   10  C   UNL     1      -9.754  10.228  66.843  1.00  0.00    -0.229 A  
HETATM   11  H   UNL     1      -5.443   7.668  68.632  1.00  0.00     0.000 HD 
HETATM   12  C   UNL     1      -8.143   7.614  66.786  1.00  0.00    -0.115 C  
HETATM   13  C   UNL     1      -9.396   7.906  67.863  1.00  0.00    -0.150 C  
HETATM   14  C   UNL     1      -9.939   9.339  67.914  1.00  0.00    -0.228 A  
HETATM   15  C   UNL     1     -10.812   9.728  68.956  1.00  0.00    -0.223 A  
HETATM   16  C   UNL     1     -11.404  11.008  68.939  1.00  0.00    -0.346 A  
HETATM   17  C   UNL     1     -11.155   8.837  70.132  1.00  0.00    -0.214 C  
HETATM   18  C   UNL     1     -10.769   7.369  69.982  1.00  0.00    -0.258 C  
HETATM   19  C   UNL     1     -11.184  11.890  67.885  1.00  0.00    -0.263 A  
HETATM   20  C   UNL     1     -10.368  11.486  66.832  1.00  0.00    -0.258 A  
ENDROOT
BRANCH   4  21
HETATM   21  C   UNL     1      -6.619   6.362  70.308  1.00  0.00    -0.045 C  
HETATM   22  C   UNL     1      -6.151   6.296  71.426  1.00  0.00    -0.040 C  
ENDBRANCH   4  21
BRANCH  19  23
HETATM   23  O   UNL     1     -11.715  13.146  67.765  1.00  0.00    -0.321 OA 
HETATM   24  C   UNL     1     -12.782  13.303  66.838  1.00  0.00     0.611 C  
ENDBRANCH  19  23
TORSDOF 2
ENDMDL
MODEL      111
REMARK 921   NORMALIZED FREE ENERGY PREDICTED BY IDOCK:   -2.48 KCAL/MOL
REMARK 922        TOTAL FREE ENERGY PREDICTED BY IDOCK:   -2.83 KCAL/MOL
REMARK 923 INTER-LIGAND FREE ENERGY PREDICTED BY IDOCK:   -2.82 KCAL/MOL
REMARK 924 INTRA-LIGAND FREE ENERGY PREDICTED BY IDOCK:   -0.01 KCAL/MOL
REMARK 927      BINDING AFFINITY PREDICTED BY RF-SCORE:    0.00 PKD
ROOT
HETATM    1  C   UNL     1      -8.729   3.936  65.710  1.00  0.00    -0.114 C  
HETATM    2  C   UNL     1      -9.902   4.336  65.022  1.00  0.00    -0.198 C  
HETATM    3  C   UNL     1      -8.799   5.327  65.056  1.00  0.00    -0.111 C  
HETATM    4  C   UNL     1      -7.008   4.620  65.780  1.00  0.00    -0.063 C  
HETATM    5  C   UNL     1      -7.426   4.708  64.481  1.00  0.00    -0.072 C  
HETATM    6  C   UNL     1      -8.697   4.804  67.339  1.00  0.00    -0.103 C  
HETATM    7  O   UNL     1      -5.706   5.212  65.776  1.00  0.00    -0.017 OA 
HETATM    8  C   UNL     1      -7.066   6.548  64.618  1.00  0.00    -0.060 C  
HETATM    9  C   UNL     1      -7.002   3.980  63.239  1.00  0.00    -0.044 C  
HETATM   10  C   UNL     1      -7.768   8.217  69.095  1.00  0.00    -0.097 A  
HETATM   11  H   UNL     1      -4.880   4.886  66.111  1.00  0.00     0.000 HD 
HETATM   12  C   UNL     1      -7.270   7.113  66.272  1.00  0.00    -0.075 C  
HETATM   13  C   UNL     1      -8.387   6.457  67.339  1.00  0.00    -0.112 C  
HETATM   14  C   UNL     1      -8.347   6.976  68.782  1.00  0.00    -0.122 A  
HETATM   15  C   UNL     1      -9.073   6.309  69.794  1.00  0.00    -0.143 A  
HETATM   16  C   UNL     1      -9.132   6.853  71.094  1.00  0.00    -0.150 A  
HETATM   17  C   UNL     1      -9.806   5.002  69.571  1.00  0.00    -0.281 C  
HETATM   18  C   UNL     1      -9.997   4.594  68.113  1.00  0.00    -0.127 C  
HETATM   19  C   UNL     1      -8.525   8.068  71.397  1.00  0.00    -0.121 A  
HETATM   20  C   UNL     1      -7.856   8.752  70.386  1.00  0.00    -0.098 A  
ENDROOT
BRANCH   4  21
HETATM   21  C   UNL     1      -6.571   3.148  65.988  1.00  0.00    -0.040 C  
HETATM   22  C   UNL     1      -6.270   1.984  66.154  1.00  0.00    -0.023 C  
ENDBRANCH   4  21
BRANCH  19  23
HETATM   23  O   UNL     1      -8.530   8.686  72.618  1.00  0.00    -0.378 OA 
HETATM   24  C   UNL     1      -8.806   7.866  73.747  1.00  0.00    -0.271 C  
ENDBRANCH  19  23
TORSDOF 2
ENDMDL
MODEL      112
REMARK 921   NORMALIZED FREE ENERGY PREDICTED BY IDOCK:   -2.12 KCAL/MOL
REMARK 922        TOTAL FREE ENERGY PREDICTED BY IDOCK:   -2.42 KCAL/MOL
REMARK 923 INTER-LIGAND FREE ENERGY PREDICTED BY IDOCK:   -2.36 KCAL/MOL
REMARK 924 INTRA-LIGAND FREE ENERGY PREDICTED BY IDOCK:   -0.07 KCAL/MOL
REMARK 927      BINDING AFFINITY PREDICTED BY RF-SCORE:    0.00 PKD
ROOT
HETATM    1  C   UNL     1      -8.494  16.399  69.320  1.00  0.00    -0.092 C  
HETATM    2  C   UNL     1      -8.552  15.700  70.551  1.00  0.00     1.663 C  
HETATM    3  C   UNL     1      -7.811  15.027  69.457  1.00  0.00    -0.149 C  
HETATM    4  C   UNL     1      -7.473  16.183  67.789  1.00  0.00    -0.133 C  
HETATM    5  C   UNL     1      -6.649  15.970  68.859  1.00  0.00    -0.130 C  
HETATM    6  C   UNL     1      -9.673  15.595  68.149  1.00  0.00    -0.204 C  
HETATM    7  O   UNL     1      -6.644  15.946  66.648  1.00  0.00    -0.189 OA 
HETATM    8  C   UNL     1      -6.298  14.286  68.098  1.00  0.00    -0.133 C  
HETATM    9  C   UNL     1      -5.502  16.762  69.417  1.00  0.00    -0.147 C  
HETATM   10  C   UNL     1     -10.089  12.565  65.651  1.00  0.00    -0.285 A  
HETATM   11  H   UNL     1      -6.488  16.480  65.878  1.00  0.00     0.000 HD 
HETATM   12  C   UNL     1      -7.675  13.715  67.162  1.00  0.00     0.012 C  
HETATM   13  C   UNL     1      -9.266  14.078  67.548  1.00  0.00    -0.197 C  
HETATM   14  C   UNL     1     -10.339  13.610  66.556  1.00  0.00    -0.282 A  
HETATM   15  C   UNL     1     -11.665  14.084  66.673  1.00  0.00    -0.420 A  
HETATM   16  C   UNL     1     -12.675  13.564  65.836  1.00  0.00    -0.382 A  
HETATM   17  C   UNL     1     -12.085  15.153  67.659  1.00  0.00     0.137 C  
HETATM   18  C   UNL     1     -11.071  15.475  68.753  1.00  0.00    -0.291 C  
HETATM   19  C   UNL     1     -12.404  12.551  64.921  1.00  0.00    -0.470 A  
HETATM   20  C   UNL     1     -11.110  12.046  64.845  1.00  0.00    -0.368 A  
ENDROOT
BRANCH   4  21
HETATM   21  C   UNL     1      -7.596  17.721  67.647  1.00  0.00    -0.215 C  
HETATM   22  C   UNL     1      -7.687  18.921  67.495  1.00  0.00    -0.251 C  
ENDBRANCH   4  21
BRANCH  19  23
HETATM   23  O   UNL     1     -13.309  11.972  64.073  1.00  0.00    -0.703 OA 
HETATM   24  C   UNL     1     -12.904  11.815  62.718  1.00  0.00     0.874 C  
ENDBRANCH  19  23
TORSDOF 2
ENDMDL
MODEL      113
REMARK 921   NORMALIZED FREE ENERGY PREDICTED BY IDOCK:   -2.10 KCAL/MOL
REMARK 922        TOTAL FREE ENERGY PREDICTED BY IDOCK:   -2.41 KCAL/MOL
REMARK 923 INTER-LIGAND FREE ENERGY PREDICTED BY IDOCK:   -2.35 KCAL/MOL
REMARK 924 INTRA-LIGAND FREE ENERGY PREDICTED BY IDOCK:   -0.06 KCAL/MOL
REMARK 927      BINDING AFFINITY PREDICTED BY RF-SCORE:    0.00 PKD
ROOT
HETATM    1  C   UNL     1      -9.065   4.404  66.236  1.00  0.00    -0.126 C  
HETATM    2  C   UNL     1      -9.276   4.884  64.919  1.00  0.00    -0.084 C  
HETATM    3  C   UNL     1      -7.866   4.838  65.376  1.00  0.00    -0.091 C  
HETATM    4  C   UNL     1      -7.552   3.857  67.156  1.00  0.00    -0.080 C  
HETATM    5  C   UNL     1      -7.453   3.366  65.884  1.00  0.00    -0.076 C  
HETATM    6  C   UNL     1      -8.696   5.852  67.320  1.00  0.00    -0.108 C  
HETATM    7  O   UNL     1      -6.338   3.450  67.791  1.00  0.00    -0.035 OA 
HETATM    8  C   UNL     1      -5.814   4.284  65.789  1.00  0.00    -0.023 C  
HETATM    9  C   UNL     1      -7.530   1.970  65.338  1.00  0.00    -0.070 C  
HETATM   10  C   UNL     1      -5.820   8.306  68.462  1.00  0.00    -0.040 A  
HETATM   11  H   UNL     1      -6.193   2.997  68.613  1.00  0.00     0.000 HD 
HETATM   12  C   UNL     1      -5.826   5.709  66.821  1.00  0.00    -0.018 C  
HETATM   13  C   UNL     1      -7.206   6.611  67.133  1.00  0.00    -0.081 C  
HETATM   14  C   UNL     1      -7.071   7.746  68.155  1.00  0.00    -0.085 A  
HETATM   15  C   UNL     1      -8.226   8.386  68.659  1.00  0.00    -0.123 A  
HETATM   16  C   UNL     1      -8.098   9.506  69.508  1.00  0.00    -0.117 A  
HETATM   17  C   UNL     1      -9.636   7.930  68.345  1.00  0.00    -0.155 C  
HETATM   18  C   UNL     1      -9.766   6.935  67.196  1.00  0.00    -0.197 C  
HETATM   19  C   UNL     1      -6.849  10.029  69.828  1.00  0.00    -0.094 A  
HETATM   20  C   UNL     1      -5.714   9.431  69.288  1.00  0.00    -0.035 A  
ENDROOT
BRANCH   4  21
HETATM   21  C   UNL     1      -8.515   2.901  67.907  1.00  0.00    -0.103 C  
HETATM   22  C   UNL     1      -9.237   2.140  68.516  1.00  0.00    -0.233 C  
ENDBRANCH   4  21
BRANCH  19  23
HETATM   23  O   UNL     1      -6.614  11.112  70.631  1.00  0.00    -0.246 OA 
HETATM   24  C   UNL     1      -6.088  12.273  69.999  1.00  0.00    -0.130 C  
ENDBRANCH  19  23
TORSDOF 2
ENDMDL
MODEL      114
REMARK 921   NORMALIZED FREE ENERGY PREDICTED BY IDOCK:   -2.00 KCAL/MOL
REMARK 922        TOTAL FREE ENERGY PREDICTED BY IDOCK:   -2.29 KCAL/MOL
REMARK 923 INTER-LIGAND FREE ENERGY PREDICTED BY IDOCK:   -2.28 KCAL/MOL
REMARK 924 INTRA-LIGAND FREE ENERGY PREDICTED BY IDOCK:   -0.01 KCAL/MOL
REMARK 927      BINDING AFFINITY PREDICTED BY RF-SCORE:    0.00 PKD
ROOT
HETATM    1  C   UNL     1      -8.810   7.466  68.530  1.00  0.00    -0.126 C  
HETATM    2  C   UNL     1      -8.342   7.161  67.228  1.00  0.00    -0.119 C  
HETATM    3  C   UNL     1      -7.298   7.435  68.246  1.00  0.00    -0.100 C  
HETATM    4  C   UNL     1      -7.977   7.567  70.183  1.00  0.00    -0.111 C  
HETATM    5  C   UNL     1      -7.460   6.480  69.534  1.00  0.00    -0.093 C  
HETATM    6  C   UNL     1      -8.631   9.285  68.791  1.00  0.00    -0.131 C  
HETATM    7  O   UNL     1      -7.258   7.621  71.417  1.00  0.00    -0.063 OA 
HETATM    8  C   UNL     1      -5.779   7.286  69.781  1.00  0.00    -0.023 C  
HETATM    9  C   UNL     1      -7.597   5.006  69.780  1.00  0.00    -0.060 C  
HETATM   10  C   UNL     1      -6.049  12.108  69.773  1.00  0.00    -0.143 A  
HETATM   11  H   UNL     1      -7.571   7.683  72.312  1.00  0.00     0.000 HD 
HETATM   12  C   UNL     1      -5.919   9.040  69.836  1.00  0.00    -0.031 C  
HETATM   13  C   UNL     1      -7.076   9.900  68.978  1.00  0.00    -0.068 C  
HETATM   14  C   UNL     1      -7.144  11.410  69.237  1.00  0.00    -0.100 A  
HETATM   15  C   UNL     1      -8.238  12.163  68.753  1.00  0.00     0.055 A  
HETATM   16  C   UNL     1      -8.242  13.567  68.889  1.00  0.00     0.149 A  
HETATM   17  C   UNL     1      -9.448  11.541  68.087  1.00  0.00    -0.184 C  
HETATM   18  C   UNL     1      -9.293  10.082  67.669  1.00  0.00    -0.159 C  
HETATM   19  C   UNL     1      -7.163  14.241  69.452  1.00  0.00    -0.051 A  
HETATM   20  C   UNL     1      -6.062  13.504  69.879  1.00  0.00    -0.127 A  
ENDROOT
BRANCH   4  21
HETATM   21  C   UNL     1      -9.345   7.111  70.753  1.00  0.00    -0.160 C  
HETATM   22  C   UNL     1     -10.405   6.716  71.190  1.00  0.00    -0.232 C  
ENDBRANCH   4  21
BRANCH  19  23
HETATM   23  O   UNL     1      -7.062  15.595  69.622  1.00  0.00    -0.195 OA 
HETATM   24  C   UNL     1      -7.726  16.409  68.662  1.00  0.00    -0.204 C  
ENDBRANCH  19  23
TORSDOF 2
ENDMDL
MODEL      115
REMARK 921   NORMALIZED FREE ENERGY PREDICTED BY IDOCK:   -1.83 KCAL/MOL
REMARK 922        TOTAL FREE ENERGY PREDICTED BY IDOCK:   -2.10 KCAL/MOL
REMARK 923 INTER-LIGAND FREE ENERGY PREDICTED BY IDOCK:   -2.05 KCAL/MOL
REMARK 924 INTRA-LIGAND FREE ENERGY PREDICTED BY IDOCK:   -0.06 KCAL/MOL
REMARK 927      BINDING AFFINITY PREDICTED BY RF-SCORE:    0.00 PKD
ROOT
HETATM    1  C   UNL     1     -10.548  11.920  66.568  1.00  0.00    -0.278 C  
HETATM    2  C   UNL     1     -11.398  11.237  65.663  1.00  0.00     0.022 C  
HETATM    3  C   UNL     1     -11.681  11.027  67.103  1.00  0.00     0.259 C  
HETATM    4  C   UNL     1     -10.648  12.257  68.388  1.00  0.00    -0.235 C  
HETATM    5  C   UNL     1     -11.904  12.424  67.875  1.00  0.00    -0.370 C  
HETATM    6  C   UNL     1      -9.367  10.692  67.280  1.00  0.00    -0.166 C  
HETATM    7  O   UNL     1     -10.804  12.475  69.792  1.00  0.00    -0.412 OA 
HETATM    8  C   UNL     1     -12.452  11.129  69.123  1.00  0.00     0.083 C  
HETATM    9  C   UNL     1     -12.755  13.646  67.682  1.00  0.00     0.834 C  
HETATM   10  C   UNL     1      -8.980   7.903  70.048  1.00  0.00    -0.145 A  
HETATM   11  H   UNL     1     -10.326  13.042  70.385  1.00  0.00     0.000 HD 
HETATM   12  C   UNL     1     -11.147  10.006  69.486  1.00  0.00    -0.279 C  
HETATM   13  C   UNL     1      -9.974   9.565  68.371  1.00  0.00    -0.184 C  
HETATM   14  C   UNL     1      -8.834   8.678  68.886  1.00  0.00    -0.138 A  
HETATM   15  C   UNL     1      -7.685   8.467  68.089  1.00  0.00    -0.102 A  
HETATM   16  C   UNL     1      -6.691   7.559  68.511  1.00  0.00    -0.057 A  
HETATM   17  C   UNL     1      -7.439   9.182  66.777  1.00  0.00    -0.087 C  
HETATM   18  C   UNL     1      -8.643   9.909  66.186  1.00  0.00    -0.138 C  
HETATM   19  C   UNL     1      -6.837   6.822  69.683  1.00  0.00    -0.055 A  
HETATM   20  C   UNL     1      -7.994   6.989  70.439  1.00  0.00    -0.113 A  
ENDROOT
BRANCH   4  21
HETATM   21  C   UNL     1      -9.876  13.560  68.055  1.00  0.00    -0.238 C  
HETATM   22  C   UNL     1      -9.256  14.579  67.833  1.00  0.00    -0.196 C  
ENDBRANCH   4  21
BRANCH  19  23
HETATM   23  O   UNL     1      -5.942   5.913  70.176  1.00  0.00    -0.023 OA 
HETATM   24  C   UNL     1      -6.304   4.540  70.073  1.00  0.00    -0.027 C  
ENDBRANCH  19  23
TORSDOF 2
ENDMDL
MODEL      116
REMARK 921   NORMALIZED FREE ENERGY PREDICTED BY IDOCK:   -1.78 KCAL/MOL
REMARK 922        TOTAL FREE ENERGY PREDICTED BY IDOCK:   -2.05 KCAL/MOL
REMARK 923 INTER-LIGAND FREE ENERGY PREDICTED BY IDOCK:   -1.99 KCAL/MOL
REMARK 924 INTRA-LIGAND FREE ENERGY PREDICTED BY IDOCK:   -0.06 KCAL/MOL
REMARK 927      BINDING AFFINITY PREDICTED BY RF-SCORE:    0.00 PKD
ROOT
HETATM    1  C   UNL     1      -8.171   5.258  64.925  1.00  0.00    -0.136 C  
HETATM    2  C   UNL     1      -7.673   5.125  63.605  1.00  0.00    -0.078 C  
HETATM    3  C   UNL     1      -6.654   5.175  64.680  1.00  0.00    -0.043 C  
HETATM    4  C   UNL     1      -7.394   5.055  66.596  1.00  0.00    -0.086 C  
HETATM    5  C   UNL     1      -6.917   4.049  65.803  1.00  0.00    -0.062 C  
HETATM    6  C   UNL     1      -7.897   7.001  65.466  1.00  0.00    -0.115 C  
HETATM    7  O   UNL     1      -6.718   4.877  67.843  1.00  0.00    -0.052 OA 
HETATM    8  C   UNL     1      -5.203   4.702  66.215  1.00  0.00    -0.009 C  
HETATM    9  C   UNL     1      -7.147   2.565  65.816  1.00  0.00    -0.064 C  
HETATM   10  C   UNL     1      -5.195   9.477  66.939  1.00  0.00    -0.034 A  
HETATM   11  H   UNL     1      -7.060   4.822  68.727  1.00  0.00     0.000 HD 
HETATM   12  C   UNL     1      -5.243   6.432  66.535  1.00  0.00    -0.013 C  
HETATM   13  C   UNL     1      -6.317   7.483  65.787  1.00  0.00    -0.042 C  
HETATM   14  C   UNL     1      -6.308   8.937  66.273  1.00  0.00    -0.065 A  
HETATM   15  C   UNL     1      -7.338   9.821  65.880  1.00  0.00    -0.103 A  
HETATM   16  C   UNL     1      -7.267  11.186  66.230  1.00  0.00    -0.048 A  
HETATM   17  C   UNL     1      -8.557   9.384  65.094  1.00  0.00    -0.188 C  
HETATM   18  C   UNL     1      -8.471   7.999  64.462  1.00  0.00     0.025 C  
HETATM   19  C   UNL     1      -6.172  11.699  66.919  1.00  0.00    -0.149 A  
HETATM   20  C   UNL     1      -5.131  10.839  67.257  1.00  0.00    -0.038 A  
ENDROOT
BRANCH   4  21
HETATM   21  C   UNL     1      -8.805   4.604  67.052  1.00  0.00    -0.111 C  
HETATM   22  C   UNL     1      -9.901   4.266  67.447  1.00  0.00    -0.176 C  
ENDBRANCH   4  21
BRANCH  19  23
HETATM   23  O   UNL     1      -6.000  13.003  67.296  1.00  0.00    -0.319 OA 
HETATM   24  C   UNL     1      -6.098  13.282  68.688  1.00  0.00    -0.085 C  
ENDBRANCH  19  23
TORSDOF 2
ENDMDL
MODEL      117
REMARK 921   NORMALIZED FREE ENERGY PREDICTED BY IDOCK:   -1.61 KCAL/MOL
REMARK 922        TOTAL FREE ENERGY PREDICTED BY IDOCK:   -1.86 KCAL/MOL
REMARK 923 INTER-LIGAND FREE ENERGY PREDICTED BY IDOCK:   -1.85 KCAL/MOL
REMARK 924 INTRA-LIGAND FREE ENERGY PREDICTED BY IDOCK:   -0.01 KCAL/MOL
REMARK 927      BINDING AFFINITY PREDICTED BY RF-SCORE:    0.00 PKD
ROOT
HETATM    1  C   UNL     1      -8.563  16.972  67.024  1.00  0.00    -0.232 C  
HETATM    2  C   UNL     1      -8.668  16.859  65.615  1.00  0.00     0.436 C  
HETATM    3  C   UNL     1      -9.874  16.479  66.389  1.00  0.00    -0.311 C  
HETATM    4  C   UNL     1      -9.813  16.941  68.393  1.00  0.00    -0.266 C  
HETATM    5  C   UNL     1     -10.352  17.668  67.367  1.00  0.00    -0.360 C  
HETATM    6  C   UNL     1      -8.368  15.274  67.721  1.00  0.00    -0.161 C  
HETATM    7  O   UNL     1     -10.840  16.908  69.386  1.00  0.00    -0.309 OA 
HETATM    8  C   UNL     1     -11.780  16.445  67.416  1.00  0.00     0.623 C  
HETATM    9  C   UNL     1     -10.658  19.131  67.226  1.00  0.00    -0.573 C  
HETATM   10  C   UNL     1     -10.363  12.038  68.792  1.00  0.00    -0.181 A  
HETATM   11  H   UNL     1     -10.811  17.121  70.310  1.00  0.00     0.000 HD 
HETATM   12  C   UNL     1     -11.244  14.867  67.980  1.00  0.00    -0.318 C  
HETATM   13  C   UNL     1      -9.708  14.258  67.692  1.00  0.00    -0.220 C  
HETATM   14  C   UNL     1      -9.360  12.923  68.363  1.00  0.00    -0.147 A  
HETATM   15  C   UNL     1      -8.022  12.467  68.379  1.00  0.00    -0.149 A  
HETATM   16  C   UNL     1      -7.720  11.187  68.891  1.00  0.00    -0.137 A  
HETATM   17  C   UNL     1      -6.854  13.290  67.878  1.00  0.00    -0.140 C  
HETATM   18  C   UNL     1      -7.221  14.519  67.052  1.00  0.00     0.369 C  
HETATM   19  C   UNL     1      -8.723  10.335  69.342  1.00  0.00    -0.156 A  
HETATM   20  C   UNL     1     -10.046  10.763  69.275  1.00  0.00    -0.200 A  
ENDROOT
BRANCH   4  21
HETATM   21  C   UNL     1      -8.839  17.900  69.126  1.00  0.00     0.121 C  
HETATM   22  C   UNL     1      -8.060  18.659  69.663  1.00  0.00     0.634 C  
ENDBRANCH   4  21
BRANCH  19  23
HETATM   23  O   UNL     1      -8.541   9.076  69.846  1.00  0.00    -0.122 OA 
HETATM   24  C   UNL     1      -7.219   8.551  69.787  1.00  0.00    -0.052 C  
ENDBRANCH  19  23
TORSDOF 2
ENDMDL
MODEL      118
REMARK 921   NORMALIZED FREE ENERGY PREDICTED BY IDOCK:   -1.29 KCAL/MOL
REMARK 922        TOTAL FREE ENERGY PREDICTED BY IDOCK:   -1.50 KCAL/MOL
REMARK 923 INTER-LIGAND FREE ENERGY PREDICTED BY IDOCK:   -1.46 KCAL/MOL
REMARK 924 INTRA-LIGAND FREE ENERGY PREDICTED BY IDOCK:   -0.04 KCAL/MOL
REMARK 927      BINDING AFFINITY PREDICTED BY RF-SCORE:    0.00 PKD
ROOT
HETATM    1  C   UNL     1     -11.660  15.768  69.841  1.00  0.00    -0.355 C  
HETATM    2  C   UNL     1     -12.230  16.195  68.616  1.00  0.00     0.485 C  
HETATM    3  C   UNL     1     -12.404  14.761  68.948  1.00  0.00    -0.049 C  
HETATM    4  C   UNL     1     -11.849  14.229  70.856  1.00  0.00    -0.255 C  
HETATM    5  C   UNL     1     -13.091  14.564  70.393  1.00  0.00    -0.133 C  
HETATM    6  C   UNL     1     -10.117  14.830  69.458  1.00  0.00    -0.065 C  
HETATM    7  O   UNL     1     -12.054  13.012  71.578  1.00  0.00    -0.127 OA 
HETATM    8  C   UNL     1     -13.139  12.844  69.635  1.00  0.00     1.385 C  
HETATM    9  C   UNL     1     -14.317  15.080  71.089  1.00  0.00    -0.379 C  
HETATM   10  C   UNL     1      -8.749  11.295  68.349  1.00  0.00    -0.159 A  
HETATM   11  H   UNL     1     -11.798  12.766  72.458  1.00  0.00     0.000 HD 
HETATM   12  C   UNL     1     -11.519  12.283  69.235  1.00  0.00    -0.352 C  
HETATM   13  C   UNL     1     -10.279  13.308  68.760  1.00  0.00    -0.119 C  
HETATM   14  C   UNL     1      -8.896  12.674  68.573  1.00  0.00    -0.044 A  
HETATM   15  C   UNL     1      -7.755  13.495  68.420  1.00  0.00    -0.135 A  
HETATM   16  C   UNL     1      -6.502  12.915  68.131  1.00  0.00    -0.096 A  
HETATM   17  C   UNL     1      -7.789  15.003  68.562  1.00  0.00    -0.137 C  
HETATM   18  C   UNL     1      -9.178  15.634  68.560  1.00  0.00    -0.197 C  
HETATM   19  C   UNL     1      -6.368  11.543  67.944  1.00  0.00    -0.056 A  
HETATM   20  C   UNL     1      -7.501  10.740  68.040  1.00  0.00    -0.090 A  
ENDROOT
BRANCH   4  21
HETATM   21  C   UNL     1     -11.584  15.154  72.071  1.00  0.00    -0.496 C  
HETATM   22  C   UNL     1     -11.415  15.870  73.036  1.00  0.00    -0.011 C  
ENDBRANCH   4  21
BRANCH  19  23
HETATM   23  O   UNL     1      -5.206  10.882  67.652  1.00  0.00    -0.040 OA 
HETATM   24  C   UNL     1      -5.234  10.008  66.530  1.00  0.00    -0.040 C  
ENDBRANCH  19  23
TORSDOF 2
ENDMDL
MODEL      119
REMARK 921   NORMALIZED FREE ENERGY PREDICTED BY IDOCK:   -1.22 KCAL/MOL
REMARK 922        TOTAL FREE ENERGY PREDICTED BY IDOCK:   -1.42 KCAL/MOL
REMARK 923 INTER-LIGAND FREE ENERGY PREDICTED BY IDOCK:   -1.36 KCAL/MOL
REMARK 924 INTRA-LIGAND FREE ENERGY PREDICTED BY IDOCK:   -0.05 KCAL/MOL
REMARK 927      BINDING AFFINITY PREDICTED BY RF-SCORE:    0.00 PKD
ROOT
HETATM    1  C   UNL     1      -7.470  19.185  68.802  1.00  0.00    -0.379 C  
HETATM    2  C   UNL     1      -6.362  19.837  69.396  1.00  0.00    -0.365 C  
HETATM    3  C   UNL     1      -6.137  19.282  68.040  1.00  0.00    -0.228 C  
HETATM    4  C   UNL     1      -7.827  18.619  67.073  1.00  0.00    -0.233 C  
HETATM    5  C   UNL     1      -7.218  19.839  66.982  1.00  0.00    -0.242 C  
HETATM    6  C   UNL     1      -7.180  17.364  68.896  1.00  0.00    -0.250 C  
HETATM    7  O   UNL     1      -8.023  18.216  65.715  1.00  0.00    -0.521 OA 
HETATM    8  C   UNL     1      -5.936  18.983  65.905  1.00  0.00    -0.206 C  
HETATM    9  C   UNL     1      -7.727  21.188  66.563  1.00  0.00     0.427 C  
HETATM   10  C   UNL     1      -5.311  14.357  67.146  1.00  0.00     0.909 A  
HETATM   11  H   UNL     1      -8.803  17.910  65.269  1.00  0.00     0.000 HD 
HETATM   12  C   UNL     1      -5.776  17.285  66.340  1.00  0.00    -0.216 C  
HETATM   13  C   UNL     1      -5.992  16.709  67.901  1.00  0.00    -0.139 C  
HETATM   14  C   UNL     1      -5.944  15.187  68.086  1.00  0.00    -0.142 A  
HETATM   15  C   UNL     1      -6.359  14.609  69.307  1.00  0.00    -0.116 A  
HETATM   16  C   UNL     1      -6.205  13.223  69.519  1.00  0.00    -0.115 A  
HETATM   17  C   UNL     1      -6.988  15.402  70.433  1.00  0.00     0.334 C  
HETATM   18  C   UNL     1      -6.863  16.918  70.322  1.00  0.00     1.052 C  
HETATM   19  C   UNL     1      -5.604  12.409  68.563  1.00  0.00    -0.054 A  
HETATM   20  C   UNL     1      -5.145  12.988  67.384  1.00  0.00     0.075 A  
ENDROOT
BRANCH   4  21
HETATM   21  C   UNL     1      -9.309  18.909  67.424  1.00  0.00    -0.321 C  
HETATM   22  C   UNL     1     -10.479  19.124  67.662  1.00  0.00    -0.535 C  
ENDBRANCH   4  21
BRANCH  19  23
HETATM   23  O   UNL     1      -5.398  11.060  68.672  1.00  0.00    -0.041 OA 
HETATM   24  C   UNL     1      -6.327  10.335  69.470  1.00  0.00    -0.055 C  
ENDBRANCH  19  23
TORSDOF 2
ENDMDL
MODEL      120
REMARK 921   NORMALIZED FREE ENERGY PREDICTED BY IDOCK:   -0.55 KCAL/MOL
REMARK 922        TOTAL FREE ENERGY PREDICTED BY IDOCK:   -0.67 KCAL/MOL
REMARK 923 INTER-LIGAND FREE ENERGY PREDICTED BY IDOCK:   -0.65 KCAL/MOL
REMARK 924 INTRA-LIGAND FREE ENERGY PREDICTED BY IDOCK:   -0.02 KCAL/MOL
REMARK 927      BINDING AFFINITY PREDICTED BY RF-SCORE:    0.00 PKD
ROOT
HETATM    1  C   UNL     1     -10.436  13.404  66.309  1.00  0.00    -0.289 C  
HETATM    2  C   UNL     1      -9.078  13.811  66.294  1.00  0.00    -0.012 C  
HETATM    3  C   UNL     1      -9.388  12.557  65.566  1.00  0.00     0.141 C  
HETATM    4  C   UNL     1     -11.391  12.150  65.334  1.00  0.00    -0.338 C  
HETATM    5  C   UNL     1     -10.544  12.779  64.465  1.00  0.00    -0.383 C  
HETATM    6  C   UNL     1     -10.599  11.999  67.495  1.00  0.00    -0.250 C  
HETATM    7  O   UNL     1     -12.053  11.164  64.538  1.00  0.00     0.343 OA 
HETATM    8  C   UNL     1      -9.873  11.066  64.073  1.00  0.00    -0.365 C  
HETATM    9  C   UNL     1     -10.793  13.733  63.333  1.00  0.00     1.568 C  
HETATM   10  C   UNL     1     -10.113   8.098  67.875  1.00  0.00    -0.246 A  
HETATM   11  H   UNL     1     -12.977  10.976  64.432  1.00  0.00     0.000 HD 
HETATM   12  C   UNL     1     -10.031   9.991  65.457  1.00  0.00    -0.367 C  
HETATM   13  C   UNL     1      -9.941  10.517  67.048  1.00  0.00    -0.244 C  
HETATM   14  C   UNL     1     -10.229   9.474  68.135  1.00  0.00    -0.231 A  
HETATM   15  C   UNL     1     -10.419   9.882  69.475  1.00  0.00    -0.261 A  
HETATM   16  C   UNL     1     -10.566   8.916  70.492  1.00  0.00    -0.262 A  
HETATM   17  C   UNL     1     -10.488  11.333  69.902  1.00  0.00     0.376 C  
HETATM   18  C   UNL     1     -10.020  12.349  68.864  1.00  0.00     0.061 C  
HETATM   19  C   UNL     1     -10.481   7.555  70.212  1.00  0.00    -0.222 A  
HETATM   20  C   UNL     1     -10.239   7.154  68.901  1.00  0.00    -0.188 A  
ENDROOT
BRANCH   4  21
HETATM   21  C   UNL     1     -12.593  13.110  65.526  1.00  0.00    -0.468 C  
HETATM   22  C   UNL     1     -13.515  13.888  65.651  1.00  0.00     0.743 C  
ENDBRANCH   4  21
BRANCH  19  23
HETATM   23  O   UNL     1     -10.600   6.539  71.122  1.00  0.00    -0.219 OA 
HETATM   24  C   UNL     1     -11.487   5.480  70.783  1.00  0.00     0.459 C  
ENDBRANCH  19  23
TORSDOF 2
ENDMDL
MODEL      121
REMARK 921   NORMALIZED FREE ENERGY PREDICTED BY IDOCK:    0.59 KCAL/MOL
REMARK 922        TOTAL FREE ENERGY PREDICTED BY IDOCK:    0.60 KCAL/MOL
REMARK 923 INTER-LIGAND FREE ENERGY PREDICTED BY IDOCK:    0.65 KCAL/MOL
REMARK 924 INTRA-LIGAND FREE ENERGY PREDICTED BY IDOCK:   -0.05 KCAL/MOL
REMARK 927      BINDING AFFINITY PREDICTED BY RF-SCORE:    0.00 PKD
ROOT
HETATM    1  C   UNL     1     -12.918  15.720  70.888  1.00  0.00    -0.321 C  
HETATM    2  C   UNL     1     -13.874  15.832  69.848  1.00  0.00     2.188 C  
HETATM    3  C   UNL     1     -13.125  14.554  69.906  1.00  0.00     0.367 C  
HETATM    4  C   UNL     1     -11.976  14.286  71.591  1.00  0.00    -0.085 C  
HETATM    5  C   UNL     1     -13.251  13.855  71.353  1.00  0.00    -0.392 C  
HETATM    6  C   UNL     1     -11.240  15.927  70.147  1.00  0.00    -0.368 C  
HETATM    7  O   UNL     1     -11.292  13.128  72.075  1.00  0.00     2.423 OA 
HETATM    8  C   UNL     1     -12.470  12.524  70.278  1.00  0.00    -0.157 C  
HETATM    9  C   UNL     1     -14.371  13.472  72.277  1.00  0.00    -0.343 C  
HETATM   10  C   UNL     1      -8.376  14.026  68.204  1.00  0.00    -0.164 A  
HETATM   11  H   UNL     1     -10.762  13.005  72.852  1.00  0.00     0.000 HD 
HETATM   12  C   UNL     1     -10.950  13.080  69.587  1.00  0.00     0.140 C  
HETATM   13  C   UNL     1     -10.650  14.680  69.184  1.00  0.00    -0.247 C  
HETATM   14  C   UNL     1      -9.230  15.017  68.714  1.00  0.00    -0.200 A  
HETATM   15  C   UNL     1      -8.825  16.366  68.595  1.00  0.00    -0.234 A  
HETATM   16  C   UNL     1      -7.561  16.678  68.051  1.00  0.00    -0.171 A  
HETATM   17  C   UNL     1      -9.681  17.535  69.037  1.00  0.00    -0.187 C  
HETATM   18  C   UNL     1     -11.144  17.210  69.324  1.00  0.00     0.262 C  
HETATM   19  C   UNL     1      -6.713  15.680  67.580  1.00  0.00    -0.191 A  
HETATM   20  C   UNL     1      -7.134  14.356  67.647  1.00  0.00    -0.202 A  
ENDROOT
BRANCH   4  21
HETATM   21  C   UNL     1     -12.035  15.072  72.926  1.00  0.00    -0.403 C  
HETATM   22  C   UNL     1     -12.071  15.652  73.991  1.00  0.00    -0.603 C  
ENDBRANCH   4  21
BRANCH  19  23
HETATM   23  O   UNL     1      -5.476  15.874  67.028  1.00  0.00    -0.332 OA 
HETATM   24  C   UNL     1      -5.225  17.152  66.456  1.00  0.00    -0.130 C  
ENDBRANCH  19  23
TORSDOF 2
ENDMDL
MODEL      122
REMARK 921   NORMALIZED FREE ENERGY PREDICTED BY IDOCK:    0.62 KCAL/MOL
REMARK 922        TOTAL FREE ENERGY PREDICTED BY IDOCK:    0.64 KCAL/MOL
REMARK 923 INTER-LIGAND FREE ENERGY PREDICTED BY IDOCK:    0.66 KCAL/MOL
REMARK 924 INTRA-LIGAND FREE ENERGY PREDICTED BY IDOCK:   -0.02 KCAL/MOL
REMARK 927      BINDING AFFINITY PREDICTED BY RF-SCORE:    0.00 PKD
ROOT
HETATM    1  C   UNL     1     -12.687  15.203  70.607  1.00  0.00    -0.451 C  
HETATM    2  C   UNL     1     -13.776  15.348  69.712  1.00  0.00     1.676 C  
HETATM    3  C   UNL     1     -13.922  14.296  70.747  1.00  0.00     0.347 C  
HETATM    4  C   UNL     1     -12.483  14.307  72.217  1.00  0.00    -0.188 C  
HETATM    5  C   UNL     1     -13.719  14.889  72.231  1.00  0.00    -0.564 C  
HETATM    6  C   UNL     1     -11.744  13.692  70.120  1.00  0.00    -0.288 C  
HETATM    7  O   UNL     1     -12.411  13.590  73.452  1.00  0.00     0.401 OA 
HETATM    8  C   UNL     1     -14.396  13.160  72.527  1.00  0.00    -0.017 C  
HETATM    9  C   UNL     1     -14.282  16.031  73.028  1.00  0.00     0.129 C  
HETATM   10  C   UNL     1     -11.677   9.757  70.442  1.00  0.00    -0.301 A  
HETATM   11  H   UNL     1     -11.747  13.595  74.130  1.00  0.00     0.000 HD 
HETATM   12  C   UNL     1     -13.351  11.939  71.809  1.00  0.00    -0.334 C  
HETATM   13  C   UNL     1     -12.457  12.197  70.413  1.00  0.00    -0.224 C  
HETATM   14  C   UNL     1     -11.499  11.076  69.993  1.00  0.00    -0.398 A  
HETATM   15  C   UNL     1     -10.536  11.308  68.984  1.00  0.00    -0.221 A  
HETATM   16  C   UNL     1      -9.735  10.246  68.516  1.00  0.00    -0.167 A  
HETATM   17  C   UNL     1     -10.293  12.667  68.361  1.00  0.00    -0.241 C  
HETATM   18  C   UNL     1     -11.360  13.721  68.642  1.00  0.00    -0.321 C  
HETATM   19  C   UNL     1      -9.903   8.950  68.995  1.00  0.00    -0.180 A  
HETATM   20  C   UNL     1     -10.888   8.711  69.948  1.00  0.00    -0.210 A  
ENDROOT
BRANCH   4  21
HETATM   21  C   UNL     1     -11.478  15.434  72.566  1.00  0.00    -0.441 C  
HETATM   22  C   UNL     1     -10.683  16.321  72.800  1.00  0.00     2.948 C  
ENDBRANCH   4  21
BRANCH  19  23
HETATM   23  O   UNL     1      -9.189   7.850  68.603  1.00  0.00    -0.143 OA 
HETATM   24  C   UNL     1      -9.940   6.724  68.165  1.00  0.00    -0.149 C  
ENDBRANCH  19  23
TORSDOF 2
ENDMDL
MODEL      123
REMARK 921   NORMALIZED FREE ENERGY PREDICTED BY IDOCK:    0.66 KCAL/MOL
REMARK 922        TOTAL FREE ENERGY PREDICTED BY IDOCK:    0.68 KCAL/MOL
REMARK 923 INTER-LIGAND FREE ENERGY PREDICTED BY IDOCK:    0.73 KCAL/MOL
REMARK 924 INTRA-LIGAND FREE ENERGY PREDICTED BY IDOCK:   -0.05 KCAL/MOL
REMARK 927      BINDING AFFINITY PREDICTED BY RF-SCORE:    0.00 PKD
ROOT
HETATM    1  C   UNL     1     -10.080  14.083  65.457  1.00  0.00    -0.343 C  
HETATM    2  C   UNL     1      -9.240  13.803  64.351  1.00  0.00     2.746 C  
HETATM    3  C   UNL     1      -8.946  13.053  65.596  1.00  0.00     0.700 C  
HETATM    4  C   UNL     1     -10.354  13.237  67.084  1.00  0.00    -0.248 C  
HETATM    5  C   UNL     1     -10.242  12.261  66.134  1.00  0.00    -0.263 C  
HETATM    6  C   UNL     1      -9.138  15.145  66.637  1.00  0.00    -0.310 C  
HETATM    7  O   UNL     1     -10.505  12.523  68.313  1.00  0.00    -0.221 OA 
HETATM    8  C   UNL     1      -8.835  11.578  67.177  1.00  0.00    -0.168 C  
HETATM    9  C   UNL     1     -11.244  11.303  65.556  1.00  0.00    -0.069 C  
HETATM   10  C   UNL     1      -6.459  15.057  69.537  1.00  0.00    -0.146 A  
HETATM   11  H   UNL     1     -11.155  12.609  69.000  1.00  0.00     0.000 HD 
HETATM   12  C   UNL     1      -8.029  12.861  68.072  1.00  0.00    -0.158 C  
HETATM   13  C   UNL     1      -7.883  14.432  67.502  1.00  0.00    -0.207 C  
HETATM   14  C   UNL     1      -7.267  15.458  68.460  1.00  0.00    -0.114 A  
HETATM   15  C   UNL     1      -7.336  16.838  68.160  1.00  0.00    -0.174 A  
HETATM   16  C   UNL     1      -6.668  17.771  68.980  1.00  0.00    -0.246 A  
HETATM   17  C   UNL     1      -8.111  17.398  66.986  1.00  0.00    -0.240 C  
HETATM   18  C   UNL     1      -8.558  16.377  65.944  1.00  0.00    -0.073 C  
HETATM   19  C   UNL     1      -5.896  17.359  70.063  1.00  0.00    -0.228 A  
HETATM   20  C   UNL     1      -5.785  15.997  70.326  1.00  0.00    -0.147 A  
ENDROOT
BRANCH   4  21
HETATM   21  C   UNL     1     -11.803  13.777  66.971  1.00  0.00    -0.445 C  
HETATM   22  C   UNL     1     -12.948  14.174  66.914  1.00  0.00     1.074 C  
ENDBRANCH   4  21
BRANCH  19  23
HETATM   23  O   UNL     1      -5.203  18.178  70.912  1.00  0.00    -0.263 OA 
HETATM   24  C   UNL     1      -5.967  19.126  71.650  1.00  0.00     0.276 C  
ENDBRANCH  19  23
TORSDOF 2
ENDMDL
MODEL      124
REMARK 921   NORMALIZED FREE ENERGY PREDICTED BY IDOCK:    0.98 KCAL/MOL
REMARK 922        TOTAL FREE ENERGY PREDICTED BY IDOCK:    1.04 KCAL/MOL
REMARK 923 INTER-LIGAND FREE ENERGY PREDICTED BY IDOCK:    1.09 KCAL/MOL
REMARK 924 INTRA-LIGAND FREE ENERGY PREDICTED BY IDOCK:   -0.05 KCAL/MOL
REMARK 927      BINDING AFFINITY PREDICTED BY RF-SCORE:    0.00 PKD
ROOT
HETATM    1  C   UNL     1     -11.161   9.797  68.442  1.00  0.00    -0.142 C  
HETATM    2  C   UNL     1     -12.410   9.717  69.106  1.00  0.00     1.278 C  
HETATM    3  C   UNL     1     -11.209   9.529  69.956  1.00  0.00    -0.243 C  
HETATM    4  C   UNL     1      -9.414   9.953  69.044  1.00  0.00    -0.183 C  
HETATM    5  C   UNL     1     -10.187  10.768  69.824  1.00  0.00    -0.017 C  
HETATM    6  C   UNL     1     -10.504   8.082  68.251  1.00  0.00    -0.210 C  
HETATM    7  O   UNL     1      -8.100  10.075  69.592  1.00  0.00    -0.143 OA 
HETATM    8  C   UNL     1      -9.523   9.791  71.287  1.00  0.00     0.684 C  
HETATM    9  C   UNL     1     -10.276  12.262  69.934  1.00  0.00     1.587 C  
HETATM   10  C   UNL     1      -8.573   5.198  70.136  1.00  0.00    -0.116 A  
HETATM   11  H   UNL     1      -7.272  10.270  69.171  1.00  0.00     0.000 HD 
HETATM   12  C   UNL     1      -9.128   8.141  70.821  1.00  0.00    -0.159 C  
HETATM   13  C   UNL     1      -9.957   7.295  69.633  1.00  0.00    -0.176 C  
HETATM   14  C   UNL     1      -9.404   5.914  69.258  1.00  0.00    -0.147 A  
HETATM   15  C   UNL     1      -9.884   5.248  68.108  1.00  0.00    -0.198 A  
HETATM   16  C   UNL     1      -9.463   3.931  67.829  1.00  0.00    -0.230 A  
HETATM   17  C   UNL     1     -10.843   5.878  67.119  1.00  0.00    -0.373 C  
HETATM   18  C   UNL     1     -11.526   7.159  67.588  1.00  0.00     0.449 C  
HETATM   19  C   UNL     1      -8.613   3.247  68.693  1.00  0.00    -0.088 A  
HETATM   20  C   UNL     1      -8.183   3.884  69.853  1.00  0.00    -0.068 A  
ENDROOT
BRANCH   4  21
HETATM   21  C   UNL     1      -9.169  10.733  67.727  1.00  0.00    -0.155 C  
HETATM   22  C   UNL     1      -8.970  11.307  66.677  1.00  0.00    -0.180 C  
ENDBRANCH   4  21
BRANCH  19  23
HETATM   23  O   UNL     1      -8.153   1.969  68.522  1.00  0.00    -0.055 OA 
HETATM   24  C   UNL     1      -6.749   1.814  68.353  1.00  0.00    -0.029 C  
ENDBRANCH  19  23
TORSDOF 2
ENDMDL
MODEL      125
REMARK 921   NORMALIZED FREE ENERGY PREDICTED BY IDOCK:    1.91 KCAL/MOL
REMARK 922        TOTAL FREE ENERGY PREDICTED BY IDOCK:    2.08 KCAL/MOL
REMARK 923 INTER-LIGAND FREE ENERGY PREDICTED BY IDOCK:    2.11 KCAL/MOL
REMARK 924 INTRA-LIGAND FREE ENERGY PREDICTED BY IDOCK:   -0.04 KCAL/MOL
REMARK 927      BINDING AFFINITY PREDICTED BY RF-SCORE:    0.00 PKD
ROOT
HETATM    1  C   UNL     1      -7.932   8.820  65.675  1.00  0.00    -0.103 C  
HETATM    2  C   UNL     1      -6.939   7.812  65.748  1.00  0.00    -0.057 C  
HETATM    3  C   UNL     1      -7.770   7.994  66.963  1.00  0.00    -0.100 C  
HETATM    4  C   UNL     1      -9.395   9.235  66.735  1.00  0.00    -0.156 C  
HETATM    5  C   UNL     1      -9.342   7.873  66.632  1.00  0.00    -0.244 C  
HETATM    6  C   UNL     1      -7.340  10.277  66.642  1.00  0.00    -0.109 C  
HETATM    7  O   UNL     1     -10.501   9.485  67.605  1.00  0.00    -0.232 OA 
HETATM    8  C   UNL     1      -9.276   7.856  68.512  1.00  0.00    -0.138 C  
HETATM    9  C   UNL     1     -10.229   6.884  65.932  1.00  0.00     0.850 C  
HETATM   10  C   UNL     1      -7.048  11.752  70.294  1.00  0.00     1.229 A  
HETATM   11  H   UNL     1     -11.251  10.058  67.500  1.00  0.00     0.000 HD 
HETATM   12  C   UNL     1      -8.515   9.316  69.132  1.00  0.00    -0.133 C  
HETATM   13  C   UNL     1      -7.302  10.141  68.318  1.00  0.00    -0.081 C  
HETATM   14  C   UNL     1      -6.837  11.466  68.935  1.00  0.00    -0.089 A  
HETATM   15  C   UNL     1      -6.008  12.339  68.194  1.00  0.00    -0.058 A  
HETATM   16  C   UNL     1      -5.486  13.500  68.802  1.00  0.00    -0.075 A  
HETATM   17  C   UNL     1      -5.641  12.109  66.743  1.00  0.00     0.108 C  
HETATM   18  C   UNL     1      -5.945  10.717  66.199  1.00  0.00    -0.121 C  
HETATM   19  C   UNL     1      -5.731  13.786  70.142  1.00  0.00    -0.133 A  
HETATM   20  C   UNL     1      -6.502  12.897  70.886  1.00  0.00     1.198 A  
ENDROOT
BRANCH   4  21
HETATM   21  C   UNL     1     -10.041   9.736  65.419  1.00  0.00    -0.196 C  
HETATM   22  C   UNL     1     -10.582  10.111  64.400  1.00  0.00     0.858 C  
ENDBRANCH   4  21
BRANCH  19  23
HETATM   23  O   UNL     1      -5.267  14.875  70.829  1.00  0.00    -0.119 OA 
HETATM   24  C   UNL     1      -5.861  16.128  70.514  1.00  0.00     0.014 C  
ENDBRANCH  19  23
TORSDOF 2
ENDMDL
MODEL      126
REMARK 921   NORMALIZED FREE ENERGY PREDICTED BY IDOCK:    2.28 KCAL/MOL
REMARK 922        TOTAL FREE ENERGY PREDICTED BY IDOCK:    2.49 KCAL/MOL
REMARK 923 INTER-LIGAND FREE ENERGY PREDICTED BY IDOCK:    2.53 KCAL/MOL
REMARK 924 INTRA-LIGAND FREE ENERGY PREDICTED BY IDOCK:   -0.04 KCAL/MOL
REMARK 927      BINDING AFFINITY PREDICTED BY RF-SCORE:    0.00 PKD
ROOT
HETATM    1  C   UNL     1      -8.613  15.208  68.950  1.00  0.00    -0.200 C  
HETATM    2  C   UNL     1      -7.331  14.767  68.538  1.00  0.00    -0.118 C  
HETATM    3  C   UNL     1      -7.962  15.808  67.691  1.00  0.00    -0.163 C  
HETATM    4  C   UNL     1      -9.669  16.653  68.468  1.00  0.00    -0.244 C  
HETATM    5  C   UNL     1      -8.381  17.103  68.554  1.00  0.00    -0.262 C  
HETATM    6  C   UNL     1      -9.867  14.446  67.828  1.00  0.00    -0.221 C  
HETATM    7  O   UNL     1     -10.418  17.794  68.041  1.00  0.00    -0.373 OA 
HETATM    8  C   UNL     1      -8.588  17.664  66.771  1.00  0.00    -0.276 C  
HETATM    9  C   UNL     1      -7.702  18.023  69.526  1.00  0.00     0.420 C  
HETATM   10  C   UNL     1     -11.600  14.812  64.298  1.00  0.00    -0.215 A  
HETATM   11  H   UNL     1     -11.206  18.183  68.400  1.00  0.00     0.000 HD 
HETATM   12  C   UNL     1      -9.738  16.644  65.915  1.00  0.00    -0.269 C  
HETATM   13  C   UNL     1      -9.948  15.013  66.246  1.00  0.00    -0.300 C  
HETATM   14  C   UNL     1     -11.081  14.299  65.498  1.00  0.00    -0.323 A  
HETATM   15  C   UNL     1     -11.485  13.004  65.896  1.00  0.00    -0.374 A  
HETATM   16  C   UNL     1     -12.444  12.301  65.137  1.00  0.00    -0.183 A  
HETATM   17  C   UNL     1     -10.948  12.304  67.127  1.00  0.00    -0.308 C  
HETATM   18  C   UNL     1      -9.705  12.930  67.751  1.00  0.00    -0.214 C  
HETATM   19  C   UNL     1     -12.973  12.838  63.966  1.00  0.00     0.049 A  
HETATM   20  C   UNL     1     -12.534  14.090  63.546  1.00  0.00     0.158 A  
ENDROOT
BRANCH   4  21
HETATM   21  C   UNL     1     -10.195  16.587  69.925  1.00  0.00     0.016 C  
HETATM   22  C   UNL     1     -10.639  16.516  71.051  1.00  0.00     0.964 C  
ENDBRANCH   4  21
BRANCH  19  23
HETATM   23  O   UNL     1     -13.897  12.238  63.154  1.00  0.00     1.017 OA 
HETATM   24  C   UNL     1     -13.436  11.157  62.353  1.00  0.00     3.952 C  
ENDBRANCH  19  23
TORSDOF 2
ENDMDL
MODEL      127
REMARK 921   NORMALIZED FREE ENERGY PREDICTED BY IDOCK:    3.06 KCAL/MOL
REMARK 922        TOTAL FREE ENERGY PREDICTED BY IDOCK:    3.36 KCAL/MOL
REMARK 923 INTER-LIGAND FREE ENERGY PREDICTED BY IDOCK:    3.42 KCAL/MOL
REMARK 924 INTRA-LIGAND FREE ENERGY PREDICTED BY IDOCK:   -0.05 KCAL/MOL
REMARK 927      BINDING AFFINITY PREDICTED BY RF-SCORE:    0.00 PKD
ROOT
HETATM    1  C   UNL     1      -9.103   6.997  65.850  1.00  0.00    -0.048 C  
HETATM    2  C   UNL     1      -9.899   6.341  64.878  1.00  0.00     1.828 C  
HETATM    3  C   UNL     1     -10.612   6.812  66.090  1.00  0.00     0.667 C  
HETATM    4  C   UNL     1      -9.514   8.026  67.336  1.00  0.00    -0.151 C  
HETATM    5  C   UNL     1     -10.380   8.387  66.342  1.00  0.00    -0.045 C  
HETATM    6  C   UNL     1      -8.829   5.826  67.250  1.00  0.00    -0.106 C  
HETATM    7  O   UNL     1      -9.918   8.808  68.463  1.00  0.00    -0.171 OA 
HETATM    8  C   UNL     1     -11.755   7.937  67.543  1.00  0.00     2.286 C  
HETATM    9  C   UNL     1     -10.511   9.644  65.532  1.00  0.00     0.400 C  
HETATM   10  C   UNL     1     -10.470   4.370  70.534  1.00  0.00     0.277 A  
HETATM   11  H   UNL     1      -9.411   9.368  69.038  1.00  0.00     0.000 HD 
HETATM   12  C   UNL     1     -11.235   6.679  68.659  1.00  0.00    -0.239 C  
HETATM   13  C   UNL     1     -10.137   5.479  68.249  1.00  0.00    -0.226 C  
HETATM   14  C   UNL     1      -9.694   4.538  69.375  1.00  0.00    -0.272 A  
HETATM   15  C   UNL     1      -8.597   3.668  69.180  1.00  0.00    -0.114 A  
HETATM   16  C   UNL     1      -8.263   2.721  70.171  1.00  0.00    -0.065 A  
HETATM   17  C   UNL     1      -7.723   3.693  67.943  1.00  0.00    -0.069 C  
HETATM   18  C   UNL     1      -8.273   4.488  66.764  1.00  0.00    -0.102 C  
HETATM   19  C   UNL     1      -9.024   2.589  71.329  1.00  0.00    -0.082 A  
HETATM   20  C   UNL     1     -10.137   3.409  71.496  1.00  0.00    -0.061 A  
ENDROOT
BRANCH   4  21
HETATM   21  C   UNL     1      -8.185   8.762  67.031  1.00  0.00    -0.103 C  
HETATM   22  C   UNL     1      -7.139   9.343  66.832  1.00  0.00    -0.086 C  
ENDBRANCH   4  21
BRANCH  19  23
HETATM   23  O   UNL     1      -8.794   1.701  72.344  1.00  0.00    -0.060 OA 
HETATM   24  C   UNL     1      -7.774   2.045  73.274  1.00  0.00    -0.042 C  
ENDBRANCH  19  23
TORSDOF 2
ENDMDL
MODEL      128
REMARK 921   NORMALIZED FREE ENERGY PREDICTED BY IDOCK:    3.38 KCAL/MOL
REMARK 922        TOTAL FREE ENERGY PREDICTED BY IDOCK:    3.72 KCAL/MOL
REMARK 923 INTER-LIGAND FREE ENERGY PREDICTED BY IDOCK:    3.77 KCAL/MOL
REMARK 924 INTRA-LIGAND FREE ENERGY PREDICTED BY IDOCK:   -0.05 KCAL/MOL
REMARK 927      BINDING AFFINITY PREDICTED BY RF-SCORE:    0.00 PKD
ROOT
HETATM    1  C   UNL     1     -10.400  12.634  69.142  1.00  0.00     0.156 C  
HETATM    2  C   UNL     1     -10.562  13.947  68.634  1.00  0.00    -0.265 C  
HETATM    3  C   UNL     1     -11.198  12.864  67.846  1.00  0.00    -0.306 C  
HETATM    4  C   UNL     1     -11.220  11.017  68.753  1.00  0.00    -0.266 C  
HETATM    5  C   UNL     1     -12.194  11.976  68.751  1.00  0.00     0.012 C  
HETATM    6  C   UNL     1      -9.140  11.771  68.104  1.00  0.00    -0.185 C  
HETATM    7  O   UNL     1     -11.903   9.814  68.394  1.00  0.00    -0.297 OA 
HETATM    8  C   UNL     1     -12.568  11.420  66.994  1.00  0.00     3.070 C  
HETATM    9  C   UNL     1     -13.341  12.245  69.683  1.00  0.00     2.393 C  
HETATM   10  C   UNL     1      -8.626   9.815  64.712  1.00  0.00    -0.195 A  
HETATM   11  H   UNL     1     -11.913   8.962  68.812  1.00  0.00     0.000 HD 
HETATM   12  C   UNL     1     -11.126  10.783  66.211  1.00  0.00     0.027 C  
HETATM   13  C   UNL     1      -9.577  11.339  66.539  1.00  0.00    -0.215 C  
HETATM   14  C   UNL     1      -8.421  10.590  65.866  1.00  0.00    -0.164 A  
HETATM   15  C   UNL     1      -7.089  10.828  66.277  1.00  0.00    -0.134 A  
HETATM   16  C   UNL     1      -6.019  10.228  65.581  1.00  0.00    -0.103 A  
HETATM   17  C   UNL     1      -6.725  11.702  67.458  1.00  0.00    -0.096 C  
HETATM   18  C   UNL     1      -7.849  12.581  67.999  1.00  0.00    -0.147 C  
HETATM   19  C   UNL     1      -6.242   9.437  64.457  1.00  0.00    -0.079 A  
HETATM   20  C   UNL     1      -7.549   9.247  64.020  1.00  0.00    -0.113 A  
ENDROOT
BRANCH   4  21
HETATM   21  C   UNL     1     -10.960  10.678  70.243  1.00  0.00    -0.237 C  
HETATM   22  C   UNL     1     -10.798  10.405  71.414  1.00  0.00     1.047 C  
ENDBRANCH   4  21
BRANCH  19  23
HETATM   23  O   UNL     1      -5.278   8.819  63.707  1.00  0.00    -0.059 OA 
HETATM   24  C   UNL     1      -5.725   8.095  62.566  1.00  0.00    -0.074 C  
ENDBRANCH  19  23
TORSDOF 2
ENDMDL
MODEL      129
REMARK 921   NORMALIZED FREE ENERGY PREDICTED BY IDOCK:    3.65 KCAL/MOL
REMARK 922        TOTAL FREE ENERGY PREDICTED BY IDOCK:    4.02 KCAL/MOL
REMARK 923 INTER-LIGAND FREE ENERGY PREDICTED BY IDOCK:    4.05 KCAL/MOL
REMARK 924 INTRA-LIGAND FREE ENERGY PREDICTED BY IDOCK:   -0.03 KCAL/MOL
REMARK 927      BINDING AFFINITY PREDICTED BY RF-SCORE:    0.00 PKD
ROOT
HETATM    1  C   UNL     1     -11.141   8.304  68.598  1.00  0.00     0.313 C  
HETATM    2  C   UNL     1     -12.273   7.778  67.928  1.00  0.00     4.586 C  
HETATM    3  C   UNL     1     -11.030   6.976  67.829  1.00  0.00    -0.234 C  
HETATM    4  C   UNL     1      -9.494   7.585  69.053  1.00  0.00    -0.145 C  
HETATM    5  C   UNL     1     -10.435   6.621  69.283  1.00  0.00    -0.247 C  
HETATM    6  C   UNL     1     -10.011   9.027  67.329  1.00  0.00    -0.275 C  
HETATM    7  O   UNL     1      -8.250   6.954  69.367  1.00  0.00    -0.127 OA 
HETATM    8  C   UNL     1      -9.436   5.540  68.113  1.00  0.00    -0.133 C  
HETATM    9  C   UNL     1     -10.962   6.015  70.552  1.00  0.00    -0.388 C  
HETATM   10  C   UNL     1      -7.212   8.125  64.693  1.00  0.00    -0.083 A  
HETATM   11  H   UNL     1      -7.541   7.235  69.932  1.00  0.00     0.000 HD 
HETATM   12  C   UNL     1      -8.588   6.515  66.918  1.00  0.00    -0.114 C  
HETATM   13  C   UNL     1      -9.184   7.965  66.320  1.00  0.00    -0.231 C  
HETATM   14  C   UNL     1      -8.262   8.754  65.382  1.00  0.00    -0.137 A  
HETATM   15  C   UNL     1      -8.578  10.087  65.036  1.00  0.00    -0.173 A  
HETATM   16  C   UNL     1      -7.796  10.772  64.083  1.00  0.00     0.254 A  
HETATM   17  C   UNL     1      -9.730  10.857  65.648  1.00  0.00    -0.279 C  
HETATM   18  C   UNL     1     -10.741  10.021  66.428  1.00  0.00    -0.063 C  
HETATM   19  C   UNL     1      -6.737  10.144  63.432  1.00  0.00    -0.128 A  
HETATM   20  C   UNL     1      -6.461   8.814  63.733  1.00  0.00    -0.087 A  
ENDROOT
BRANCH   4  21
HETATM   21  C   UNL     1      -9.560   8.543  70.270  1.00  0.00    -0.177 C  
HETATM   22  C   UNL     1      -9.618   9.260  71.247  1.00  0.00    -0.272 C  
ENDBRANCH   4  21
BRANCH  19  23
HETATM   23  O   UNL     1      -5.925  10.712  62.489  1.00  0.00    -0.138 OA 
HETATM   24  C   UNL     1      -5.815  12.131  62.512  1.00  0.00     2.328 C  
ENDBRANCH  19  23
TORSDOF 2
ENDMDL
MODEL      130
REMARK 921   NORMALIZED FREE ENERGY PREDICTED BY IDOCK:    4.79 KCAL/MOL
REMARK 922        TOTAL FREE ENERGY PREDICTED BY IDOCK:    5.29 KCAL/MOL
REMARK 923 INTER-LIGAND FREE ENERGY PREDICTED BY IDOCK:    5.34 KCAL/MOL
REMARK 924 INTRA-LIGAND FREE ENERGY PREDICTED BY IDOCK:   -0.05 KCAL/MOL
REMARK 927      BINDING AFFINITY PREDICTED BY RF-SCORE:    0.00 PKD
ROOT
HETATM    1  C   UNL     1     -11.741  10.114  68.957  1.00  0.00     0.003 C  
HETATM    2  C   UNL     1     -13.153  10.070  68.846  1.00  0.00     3.765 C  
HETATM    3  C   UNL     1     -12.605   9.926  70.216  1.00  0.00     0.026 C  
HETATM    4  C   UNL     1     -10.590  10.302  70.398  1.00  0.00    -0.147 C  
HETATM    5  C   UNL     1     -11.638  11.157  70.601  1.00  0.00    -0.188 C  
HETATM    6  C   UNL     1     -11.135   8.392  69.226  1.00  0.00     0.142 C  
HETATM    7  O   UNL     1      -9.775  10.452  71.562  1.00  0.00     1.371 OA 
HETATM    8  C   UNL     1     -11.894  10.259  72.234  1.00  0.00     1.258 C  
HETATM    9  C   UNL     1     -11.729  12.655  70.580  1.00  0.00     0.204 C  
HETATM   10  C   UNL     1     -10.605   5.612  71.981  1.00  0.00    -0.283 A  
HETATM   11  H   UNL     1      -8.845  10.625  71.646  1.00  0.00     0.000 HD 
HETATM   12  C   UNL     1     -11.357   8.586  72.128  1.00  0.00    -0.442 C  
HETATM   13  C   UNL     1     -11.440   7.679  70.719  1.00  0.00    -0.295 C  
HETATM   14  C   UNL     1     -10.812   6.280  70.763  1.00  0.00    -0.339 A  
HETATM   15  C   UNL     1     -10.617   5.554  69.566  1.00  0.00    -0.366 A  
HETATM   16  C   UNL     1     -10.149   4.224  69.617  1.00  0.00     0.008 A  
HETATM   17  C   UNL     1     -10.874   6.131  68.190  1.00  0.00    -0.389 C  
HETATM   18  C   UNL     1     -11.665   7.435  68.159  1.00  0.00     1.370 C  
HETATM   19  C   UNL     1      -9.917   3.586  70.832  1.00  0.00     0.057 A  
HETATM   20  C   UNL     1     -10.162   4.283  72.012  1.00  0.00    -0.220 A  
ENDROOT
BRANCH   4  21
HETATM   21  C   UNL     1      -9.652  11.011  69.388  1.00  0.00     0.094 C  
HETATM   22  C   UNL     1      -8.904  11.530  68.587  1.00  0.00    -0.108 C  
ENDBRANCH   4  21
BRANCH  19  23
HETATM   23  O   UNL     1      -9.474   2.302  70.993  1.00  0.00    -0.130 OA 
HETATM   24  C   UNL     1      -8.207   2.137  71.618  1.00  0.00    -0.051 C  
ENDBRANCH  19  23
TORSDOF 2
ENDMDL
MODEL      131
REMARK 921   NORMALIZED FREE ENERGY PREDICTED BY IDOCK:    4.87 KCAL/MOL
REMARK 922        TOTAL FREE ENERGY PREDICTED BY IDOCK:    5.38 KCAL/MOL
REMARK 923 INTER-LIGAND FREE ENERGY PREDICTED BY IDOCK:    5.40 KCAL/MOL
REMARK 924 INTRA-LIGAND FREE ENERGY PREDICTED BY IDOCK:   -0.02 KCAL/MOL
REMARK 927      BINDING AFFINITY PREDICTED BY RF-SCORE:    0.00 PKD
ROOT
HETATM    1  C   UNL     1     -12.376  10.108  72.107  1.00  0.00     0.025 C  
HETATM    2  C   UNL     1     -13.738  10.278  72.459  1.00  0.00     0.235 C  
HETATM    3  C   UNL     1     -13.473   9.927  71.043  1.00  0.00    -0.257 C  
HETATM    4  C   UNL     1     -11.534   9.382  70.623  1.00  0.00    -0.284 C  
HETATM    5  C   UNL     1     -12.600   8.578  70.918  1.00  0.00     0.051 C  
HETATM    6  C   UNL     1     -11.838  11.603  71.166  1.00  0.00     0.372 C  
HETATM    7  O   UNL     1     -10.967   8.804  69.445  1.00  0.00    -0.397 OA 
HETATM    8  C   UNL     1     -13.177   8.904  69.158  1.00  0.00     6.031 C  
HETATM    9  C   UNL     1     -12.683   7.180  71.458  1.00  0.00    -0.433 C  
HETATM   10  C   UNL     1     -11.870  13.281  67.591  1.00  0.00    -0.400 A  
HETATM   11  H   UNL     1     -10.072   8.553  69.252  1.00  0.00     0.000 HD 
HETATM   12  C   UNL     1     -12.632  10.480  68.595  1.00  0.00     1.521 C  
HETATM   13  C   UNL     1     -12.435  11.803  69.606  1.00  0.00    -0.017 C  
HETATM   14  C   UNL     1     -11.830  13.065  68.979  1.00  0.00    -0.362 A  
HETATM   15  C   UNL     1     -11.402  14.130  69.804  1.00  0.00    -0.260 A  
HETATM   16  C   UNL     1     -10.955  15.336  69.223  1.00  0.00    -0.261 A  
HETATM   17  C   UNL     1     -11.379  14.056  71.316  1.00  0.00     0.890 C  
HETATM   18  C   UNL     1     -12.147  12.889  71.930  1.00  0.00     1.032 C  
HETATM   19  C   UNL     1     -10.971  15.522  67.844  1.00  0.00    -0.316 A  
HETATM   20  C   UNL     1     -11.444  14.493  67.035  1.00  0.00    -0.383 A  
ENDROOT
BRANCH   4  21
HETATM   21  C   UNL     1     -10.414   8.985  71.617  1.00  0.00    -0.426 C  
HETATM   22  C   UNL     1      -9.564   8.674  72.426  1.00  0.00    -0.305 C  
ENDBRANCH   4  21
BRANCH  19  23
HETATM   23  O   UNL     1     -10.570  16.650  67.182  1.00  0.00    -0.316 OA 
HETATM   24  C   UNL     1     -10.042  16.469  65.873  1.00  0.00    -0.337 C  
ENDBRANCH  19  23
TORSDOF 2
ENDMDL
MODEL      132
REMARK 921   NORMALIZED FREE ENERGY PREDICTED BY IDOCK:    6.42 KCAL/MOL
REMARK 922        TOTAL FREE ENERGY PREDICTED BY IDOCK:    7.12 KCAL/MOL
REMARK 923 INTER-LIGAND FREE ENERGY PREDICTED BY IDOCK:    7.15 KCAL/MOL
REMARK 924 INTRA-LIGAND FREE ENERGY PREDICTED BY IDOCK:   -0.03 KCAL/MOL
REMARK 927      BINDING AFFINITY PREDICTED BY RF-SCORE:    0.00 PKD
ROOT
HETATM    1  C   UNL     1     -11.705   9.275  70.780  1.00  0.00    -0.328 C  
HETATM    2  C   UNL     1     -13.012   9.734  70.485  1.00  0.00     0.008 C  
HETATM    3  C   UNL     1     -12.848   8.264  70.580  1.00  0.00     0.669 C  
HETATM    4  C   UNL     1     -11.031   7.631  71.310  1.00  0.00    -0.238 C  
HETATM    5  C   UNL     1     -12.201   7.828  71.990  1.00  0.00    -0.342 C  
HETATM    6  C   UNL     1     -10.966   8.611  69.224  1.00  0.00     0.008 C  
HETATM    7  O   UNL     1     -10.596   6.332  71.718  1.00  0.00    -0.214 OA 
HETATM    8  C   UNL     1     -12.771   6.203  71.236  1.00  0.00     0.680 C  
HETATM    9  C   UNL     1     -12.487   8.091  73.441  1.00  0.00     1.795 C  
HETATM   10  C   UNL     1     -10.840   5.437  66.877  1.00  0.00    -0.153 A  
HETATM   11  H   UNL     1      -9.758   6.040  72.054  1.00  0.00     0.000 HD 
HETATM   12  C   UNL     1     -12.003   5.923  69.678  1.00  0.00     1.456 C  
HETATM   13  C   UNL     1     -11.570   7.158  68.628  1.00  0.00     0.596 C  
HETATM   14  C   UNL     1     -10.794   6.752  67.370  1.00  0.00    -0.417 A  
HETATM   15  C   UNL     1     -10.179   7.740  66.568  1.00  0.00    -0.195 A  
HETATM   16  C   UNL     1      -9.567   7.378  65.349  1.00  0.00     0.949 A  
HETATM   17  C   UNL     1     -10.124   9.205  66.946  1.00  0.00    -0.328 C  
HETATM   18  C   UNL     1     -11.047   9.627  68.086  1.00  0.00    -0.109 C  
HETATM   19  C   UNL     1      -9.593   6.064  64.890  1.00  0.00     1.069 A  
HETATM   20  C   UNL     1     -10.246   5.101  65.654  1.00  0.00    -0.013 A  
ENDROOT
BRANCH   4  21
HETATM   21  C   UNL     1      -9.958   8.460  72.060  1.00  0.00    -0.354 C  
HETATM   22  C   UNL     1      -9.129   9.091  72.683  1.00  0.00     0.650 C  
ENDBRANCH   4  21
BRANCH  19  23
HETATM   23  O   UNL     1      -9.040   5.611  63.724  1.00  0.00     0.315 OA 
HETATM   24  C   UNL     1      -9.683   6.005  62.517  1.00  0.00     1.645 C  
ENDBRANCH  19  23
TORSDOF 2
ENDMDL
MODEL      133
REMARK 921   NORMALIZED FREE ENERGY PREDICTED BY IDOCK:    6.73 KCAL/MOL
REMARK 922        TOTAL FREE ENERGY PREDICTED BY IDOCK:    7.46 KCAL/MOL
REMARK 923 INTER-LIGAND FREE ENERGY PREDICTED BY IDOCK:    7.48 KCAL/MOL
REMARK 924 INTRA-LIGAND FREE ENERGY PREDICTED BY IDOCK:   -0.02 KCAL/MOL
REMARK 927      BINDING AFFINITY PREDICTED BY RF-SCORE:    0.00 PKD
ROOT
HETATM    1  C   UNL     1      -9.958  10.879  66.225  1.00  0.00    -0.274 C  
HETATM    2  C   UNL     1     -10.785  11.747  65.469  1.00  0.00    -0.329 C  
HETATM    3  C   UNL     1      -9.335  11.803  65.164  1.00  0.00    -0.030 C  
HETATM    4  C   UNL     1      -8.197  10.330  66.040  1.00  0.00    -0.141 C  
HETATM    5  C   UNL     1      -8.750  10.349  64.790  1.00  0.00    -0.198 C  
HETATM    6  C   UNL     1      -9.076  11.891  67.493  1.00  0.00    -0.178 C  
HETATM    7  O   UNL     1      -6.835   9.957  65.823  1.00  0.00    -0.092 OA 
HETATM    8  C   UNL     1      -7.358  11.526  64.326  1.00  0.00     2.130 C  
HETATM    9  C   UNL     1      -9.111   9.248  63.835  1.00  0.00     0.009 C  
HETATM   10  C   UNL     1      -5.971  14.267  68.053  1.00  0.00    -0.150 A  
HETATM   11  H   UNL     1      -6.309   9.277  66.228  1.00  0.00     0.000 HD 
HETATM   12  C   UNL     1      -6.833  12.466  65.719  1.00  0.00     3.084 C  
HETATM   13  C   UNL     1      -7.862  12.927  66.961  1.00  0.00    -0.006 C  
HETATM   14  C   UNL     1      -7.219  13.631  68.162  1.00  0.00    -0.117 A  
HETATM   15  C   UNL     1      -7.962  13.828  69.348  1.00  0.00     0.503 A  
HETATM   16  C   UNL     1      -7.411  14.577  70.409  1.00  0.00     0.611 A  
HETATM   17  C   UNL     1      -9.349  13.260  69.567  1.00  0.00     1.359 C  
HETATM   18  C   UNL     1     -10.048  12.731  68.319  1.00  0.00    -0.237 C  
HETATM   19  C   UNL     1      -6.158  15.174  70.297  1.00  0.00    -0.127 A  
HETATM   20  C   UNL     1      -5.450  15.026  69.108  1.00  0.00    -0.093 A  
ENDROOT
BRANCH   4  21
HETATM   21  C   UNL     1      -8.678   9.011  66.697  1.00  0.00    -0.140 C  
HETATM   22  C   UNL     1      -9.073   8.001  67.240  1.00  0.00    -0.153 C  
ENDBRANCH   4  21
BRANCH  19  23
HETATM   23  O   UNL     1      -5.539  15.926  71.257  1.00  0.00     0.072 OA 
HETATM   24  C   UNL     1      -6.111  17.197  71.540  1.00  0.00     1.980 C  
ENDBRANCH  19  23
TORSDOF 2
ENDMDL
MODEL      134
REMARK 921   NORMALIZED FREE ENERGY PREDICTED BY IDOCK:    7.82 KCAL/MOL
REMARK 922        TOTAL FREE ENERGY PREDICTED BY IDOCK:    8.68 KCAL/MOL
REMARK 923 INTER-LIGAND FREE ENERGY PREDICTED BY IDOCK:    8.73 KCAL/MOL
REMARK 924 INTRA-LIGAND FREE ENERGY PREDICTED BY IDOCK:   -0.05 KCAL/MOL
REMARK 927      BINDING AFFINITY PREDICTED BY RF-SCORE:    0.00 PKD
ROOT
HETATM    1  C   UNL     1     -11.235   7.660  70.061  1.00  0.00    -0.146 C  
HETATM    2  C   UNL     1     -11.761   6.524  69.397  1.00  0.00    -0.088 C  
HETATM    3  C   UNL     1     -10.309   6.766  69.217  1.00  0.00    -0.221 C  
HETATM    4  C   UNL     1      -9.507   8.224  70.427  1.00  0.00    -0.167 C  
HETATM    5  C   UNL     1      -9.545   6.873  70.631  1.00  0.00    -0.171 C  
HETATM    6  C   UNL     1     -10.957   8.981  68.801  1.00  0.00     0.030 C  
HETATM    7  O   UNL     1      -8.145   8.584  70.669  1.00  0.00    -0.099 OA 
HETATM    8  C   UNL     1      -8.150   6.768  69.374  1.00  0.00    -0.123 C  
HETATM    9  C   UNL     1      -9.455   6.044  71.880  1.00  0.00    -0.163 C  
HETATM   10  C   UNL     1      -8.436  10.247  66.038  1.00  0.00    -0.144 A  
HETATM   11  H   UNL     1      -7.775   9.258  71.227  1.00  0.00     0.000 HD 
HETATM   12  C   UNL     1      -8.246   8.084  68.210  1.00  0.00    -0.123 C  
HETATM   13  C   UNL     1      -9.693   8.770  67.711  1.00  0.00    -0.194 C  
HETATM   14  C   UNL     1      -9.594   9.993  66.791  1.00  0.00    -0.228 A  
HETATM   15  C   UNL     1     -10.741  10.776  66.529  1.00  0.00    -0.245 A  
HETATM   16  C   UNL     1     -10.677  11.829  65.592  1.00  0.00    -0.328 A  
HETATM   17  C   UNL     1     -12.073  10.560  67.216  1.00  0.00     2.238 C  
HETATM   18  C   UNL     1     -12.216   9.246  67.978  1.00  0.00     4.372 C  
HETATM   19  C   UNL     1      -9.511  12.088  64.876  1.00  0.00     0.080 A  
HETATM   20  C   UNL     1      -8.398  11.282  65.095  1.00  0.00     0.305 A  
ENDROOT
BRANCH   4  21
HETATM   21  C   UNL     1     -10.126   8.864  71.696  1.00  0.00    -0.411 C  
HETATM   22  C   UNL     1     -10.571   9.373  72.703  1.00  0.00     1.736 C  
ENDBRANCH   4  21
BRANCH  19  23
HETATM   23  O   UNL     1      -9.345  13.074  63.942  1.00  0.00     0.499 OA 
HETATM   24  C   UNL     1     -10.516  13.514  63.265  1.00  0.00     2.320 C  
ENDBRANCH  19  23
TORSDOF 2
ENDMDL
MODEL      135
REMARK 921   NORMALIZED FREE ENERGY PREDICTED BY IDOCK:   10.49 KCAL/MOL
REMARK 922        TOTAL FREE ENERGY PREDICTED BY IDOCK:   11.66 KCAL/MOL
REMARK 923 INTER-LIGAND FREE ENERGY PREDICTED BY IDOCK:   11.72 KCAL/MOL
REMARK 924 INTRA-LIGAND FREE ENERGY PREDICTED BY IDOCK:   -0.06 KCAL/MOL
REMARK 927      BINDING AFFINITY PREDICTED BY RF-SCORE:    0.00 PKD
ROOT
HETATM    1  C   UNL     1     -10.582  12.400  66.932  1.00  0.00    -0.251 C  
HETATM    2  C   UNL     1      -9.826  12.892  65.839  1.00  0.00    -0.239 C  
HETATM    3  C   UNL     1     -10.159  11.447  65.801  1.00  0.00    -0.289 C  
HETATM    4  C   UNL     1     -11.509  10.821  67.221  1.00  0.00     0.052 C  
HETATM    5  C   UNL     1     -11.746  11.199  65.929  1.00  0.00     0.729 C  
HETATM    6  C   UNL     1      -9.445  11.452  68.034  1.00  0.00    -0.181 C  
HETATM    7  O   UNL     1     -12.199   9.577  67.361  1.00  0.00     2.520 OA 
HETATM    8  C   UNL     1     -11.067   9.516  65.440  1.00  0.00     2.841 C  
HETATM    9  C   UNL     1     -12.981  11.707  65.242  1.00  0.00     2.710 C  
HETATM   10  C   UNL     1      -7.695   7.944  68.520  1.00  0.00    -0.114 A  
HETATM   11  H   UNL     1     -12.822   9.288  68.017  1.00  0.00     0.000 HD 
HETATM   12  C   UNL     1      -9.887   8.943  66.614  1.00  0.00    -0.332 C  
HETATM   13  C   UNL     1      -8.881   9.965  67.484  1.00  0.00    -0.131 C  
HETATM   14  C   UNL     1      -8.002   9.315  68.559  1.00  0.00    -0.101 A  
HETATM   15  C   UNL     1      -7.318  10.121  69.497  1.00  0.00    -0.123 A  
HETATM   16  C   UNL     1      -6.419   9.531  70.410  1.00  0.00    -0.079 A  
HETATM   17  C   UNL     1      -7.501  11.621  69.597  1.00  0.00     0.405 C  
HETATM   18  C   UNL     1      -8.220  12.277  68.422  1.00  0.00    -0.146 C  
HETATM   19  C   UNL     1      -6.150   8.166  70.379  1.00  0.00    -0.028 A  
HETATM   20  C   UNL     1      -6.782   7.381  69.419  1.00  0.00    -0.041 A  
ENDROOT
BRANCH   4  21
HETATM   21  C   UNL     1     -12.449  11.687  68.098  1.00  0.00     0.996 C  
HETATM   22  C   UNL     1     -13.207  12.331  68.792  1.00  0.00     3.589 C  
ENDBRANCH   4  21
BRANCH  19  23
HETATM   23  O   UNL     1      -5.292   7.498  71.209  1.00  0.00    -0.030 OA 
HETATM   24  C   UNL     1      -5.800   6.332  71.848  1.00  0.00    -0.036 C  
ENDBRANCH  19  23
TORSDOF 2
ENDMDL
MODEL      136
REMARK 921   NORMALIZED FREE ENERGY PREDICTED BY IDOCK:   11.71 KCAL/MOL
REMARK 922        TOTAL FREE ENERGY PREDICTED BY IDOCK:   13.02 KCAL/MOL
REMARK 923 INTER-LIGAND FREE ENERGY PREDICTED BY IDOCK:   13.08 KCAL/MOL
REMARK 924 INTRA-LIGAND FREE ENERGY PREDICTED BY IDOCK:   -0.07 KCAL/MOL
REMARK 927      BINDING AFFINITY PREDICTED BY RF-SCORE:    0.00 PKD
ROOT
HETATM    1  C   UNL     1     -12.546  11.922  69.678  1.00  0.00     0.197 C  
HETATM    2  C   UNL     1     -12.715  11.093  68.541  1.00  0.00     1.610 C  
HETATM    3  C   UNL     1     -11.339  11.169  69.091  1.00  0.00    -0.340 C  
HETATM    4  C   UNL     1     -11.173  12.120  70.908  1.00  0.00     2.065 C  
HETATM    5  C   UNL     1     -11.302  10.783  70.655  1.00  0.00    -0.202 C  
HETATM    6  C   UNL     1     -11.724  13.482  69.130  1.00  0.00    -0.374 C  
HETATM    7  O   UNL     1     -10.070  12.208  71.812  1.00  0.00     9.077 OA 
HETATM    8  C   UNL     1      -9.488  10.827  70.159  1.00  0.00     0.960 C  
HETATM    9  C   UNL     1     -11.791   9.643  71.502  1.00  0.00    -0.483 C  
HETATM   10  C   UNL     1      -8.220  15.082  68.261  1.00  0.00    -0.146 A  
HETATM   11  H   UNL     1      -9.993  12.647  72.650  1.00  0.00     0.000 HD 
HETATM   12  C   UNL     1      -9.042  12.408  69.530  1.00  0.00     1.565 C  
HETATM   13  C   UNL     1     -10.103  13.399  68.688  1.00  0.00    -0.162 C  
HETATM   14  C   UNL     1      -9.594  14.798  68.322  1.00  0.00    -0.215 A  
HETATM   15  C   UNL     1     -10.495  15.775  67.840  1.00  0.00    -0.270 A  
HETATM   16  C   UNL     1     -10.009  17.022  67.393  1.00  0.00    -0.278 A  
HETATM   17  C   UNL     1     -11.994  15.570  67.781  1.00  0.00     0.184 C  
HETATM   18  C   UNL     1     -12.470  14.132  67.966  1.00  0.00     0.218 C  
HETATM   19  C   UNL     1      -8.646  17.299  67.369  1.00  0.00    -0.205 A  
HETATM   20  C   UNL     1      -7.755  16.317  67.792  1.00  0.00    -0.157 A  
ENDROOT
BRANCH   4  21
HETATM   21  C   UNL     1     -12.300  12.473  71.911  1.00  0.00     0.446 C  
HETATM   22  C   UNL     1     -13.167  12.787  72.701  1.00  0.00     0.027 C  
ENDBRANCH   4  21
BRANCH  19  23
HETATM   23  O   UNL     1      -8.071  18.467  66.947  1.00  0.00    -0.232 OA 
HETATM   24  C   UNL     1      -6.736  18.384  66.462  1.00  0.00    -0.203 C  
ENDBRANCH  19  23
TORSDOF 2
ENDMDL
MODEL      137
REMARK 921   NORMALIZED FREE ENERGY PREDICTED BY IDOCK:   26.56 KCAL/MOL
REMARK 922        TOTAL FREE ENERGY PREDICTED BY IDOCK:   29.61 KCAL/MOL
REMARK 923 INTER-LIGAND FREE ENERGY PREDICTED BY IDOCK:   29.62 KCAL/MOL
REMARK 924 INTRA-LIGAND FREE ENERGY PREDICTED BY IDOCK:   -0.01 KCAL/MOL
REMARK 927      BINDING AFFINITY PREDICTED BY RF-SCORE:    0.00 PKD
ROOT
HETATM    1  C   UNL     1     -11.997  12.584  71.346  1.00  0.00     0.779 C  
HETATM    2  C   UNL     1     -13.071  13.079  72.126  1.00  0.00    -0.465 C  
HETATM    3  C   UNL     1     -13.447  12.234  70.967  1.00  0.00     0.644 C  
HETATM    4  C   UNL     1     -11.882  11.276  70.037  1.00  0.00    -0.367 C  
HETATM    5  C   UNL     1     -12.712  10.800  71.014  1.00  0.00    -0.513 C  
HETATM    6  C   UNL     1     -11.923  13.568  69.785  1.00  0.00    -0.405 C  
HETATM    7  O   UNL     1     -11.881  10.252  69.040  1.00  0.00    -0.504 OA 
HETATM    8  C   UNL     1     -13.997  10.603  69.655  1.00  0.00     3.609 C  
HETATM    9  C   UNL     1     -12.551   9.698  72.020  1.00  0.00    -0.443 C  
HETATM   10  C   UNL     1     -13.507  13.926  66.185  1.00  0.00     1.676 A  
HETATM   11  H   UNL     1     -11.159   9.810  68.610  1.00  0.00     0.000 HD 
HETATM   12  C   UNL     1     -13.754  11.787  68.376  1.00  0.00     8.276 C  
HETATM   13  C   UNL     1     -13.139  13.324  68.648  1.00  0.00     2.488 C  
HETATM   14  C   UNL     1     -12.869  14.187  67.409  1.00  0.00     1.087 A  
HETATM   15  C   UNL     1     -12.126  15.384  67.528  1.00  0.00     0.395 A  
HETATM   16  C   UNL     1     -11.979  16.235  66.413  1.00  0.00     1.600 A  
HETATM   17  C   UNL     1     -11.449  15.821  68.810  1.00  0.00    -0.391 C  
HETATM   18  C   UNL     1     -11.871  15.068  70.068  1.00  0.00    -0.360 C  
HETATM   19  C   UNL     1     -12.592  15.946  65.198  1.00  0.00     1.472 A  
HETATM   20  C   UNL     1     -13.368  14.795  65.096  1.00  0.00     0.935 A  
ENDROOT
BRANCH   4  21
HETATM   21  C   UNL     1     -10.440  11.062  70.564  1.00  0.00     1.192 C  
HETATM   22  C   UNL     1      -9.316  10.928  70.999  1.00  0.00     4.650 C  
ENDBRANCH   4  21
BRANCH  19  23
HETATM   23  O   UNL     1     -12.521  16.706  64.062  1.00  0.00     0.073 OA 
HETATM   24  C   UNL     1     -11.288  16.678  63.351  1.00  0.00     4.191 C  
ENDBRANCH  19  23
TORSDOF 2
ENDMDL
MODEL      138
REMARK 921   NORMALIZED FREE ENERGY PREDICTED BY IDOCK:   30.24 KCAL/MOL
REMARK 922        TOTAL FREE ENERGY PREDICTED BY IDOCK:   33.72 KCAL/MOL
REMARK 923 INTER-LIGAND FREE ENERGY PREDICTED BY IDOCK:   33.78 KCAL/MOL
REMARK 924 INTRA-LIGAND FREE ENERGY PREDICTED BY IDOCK:   -0.07 KCAL/MOL
REMARK 927      BINDING AFFINITY PREDICTED BY RF-SCORE:    0.00 PKD
ROOT
HETATM    1  C   UNL     1      -7.238   9.288  70.594  1.00  0.00    -0.120 C  
HETATM    2  C   UNL     1      -5.981   9.798  71.004  1.00  0.00    -0.079 C  
HETATM    3  C   UNL     1      -7.164  10.613  71.373  1.00  0.00     2.763 C  
HETATM    4  C   UNL     1      -8.985   9.713  71.047  1.00  0.00     0.339 C  
HETATM    5  C   UNL     1      -8.247   9.751  72.197  1.00  0.00     2.651 C  
HETATM    6  C   UNL     1      -7.811  10.277  69.144  1.00  0.00    -0.127 C  
HETATM    7  O   UNL     1     -10.299  10.103  71.453  1.00  0.00     0.141 OA 
HETATM    8  C   UNL     1      -8.849  11.522  72.381  1.00  0.00    19.001 C  
HETATM    9  C   UNL     1      -8.231   8.865  73.409  1.00  0.00     0.582 C  
HETATM   10  C   UNL     1      -9.582  13.652  68.109  1.00  0.00    -0.221 A  
HETATM   11  H   UNL     1     -11.139   9.687  71.303  1.00  0.00     0.000 HD 
HETATM   12  C   UNL     1      -9.167  12.250  70.810  1.00  0.00     8.464 C  
HETATM   13  C   UNL     1      -8.307  11.860  69.423  1.00  0.00     0.787 C  
HETATM   14  C   UNL     1      -8.794  12.489  68.112  1.00  0.00    -0.191 A  
HETATM   15  C   UNL     1      -8.292  12.025  66.875  1.00  0.00    -0.159 A  
HETATM   16  C   UNL     1      -8.650  12.680  65.678  1.00  0.00     1.104 A  
HETATM   17  C   UNL     1      -7.374  10.827  66.745  1.00  0.00    -0.129 C  
HETATM   18  C   UNL     1      -6.751  10.330  68.045  1.00  0.00    -0.066 C  
HETATM   19  C   UNL     1      -9.458  13.814  65.690  1.00  0.00     0.104 A  
HETATM   20  C   UNL     1      -9.908  14.302  66.913  1.00  0.00    -0.264 A  
ENDROOT
BRANCH   4  21
HETATM   21  C   UNL     1      -9.280   8.215  70.780  1.00  0.00    -0.165 C  
HETATM   22  C   UNL     1      -9.546   7.046  70.592  1.00  0.00    -0.165 C  
ENDBRANCH   4  21
BRANCH  19  23
HETATM   23  O   UNL     1      -9.856  14.527  64.592  1.00  0.00    -0.102 OA 
HETATM   24  C   UNL     1     -10.909  15.464  64.787  1.00  0.00    -0.364 C  
ENDBRANCH  19  23
TORSDOF 2
ENDMDL
MODEL      139
REMARK 921   NORMALIZED FREE ENERGY PREDICTED BY IDOCK:   34.46 KCAL/MOL
REMARK 922        TOTAL FREE ENERGY PREDICTED BY IDOCK:   38.44 KCAL/MOL
REMARK 923 INTER-LIGAND FREE ENERGY PREDICTED BY IDOCK:   38.45 KCAL/MOL
REMARK 924 INTRA-LIGAND FREE ENERGY PREDICTED BY IDOCK:   -0.01 KCAL/MOL
REMARK 927      BINDING AFFINITY PREDICTED BY RF-SCORE:    0.00 PKD
ROOT
HETATM    1  C   UNL     1      -6.297   4.101  72.030  1.00  0.00    -0.018 C  
HETATM    2  C   UNL     1      -5.686   3.820  73.277  1.00  0.00    -0.003 C  
HETATM    3  C   UNL     1      -7.128   4.161  73.323  1.00  0.00    -0.068 C  
HETATM    4  C   UNL     1      -8.064   4.259  71.494  1.00  0.00    -0.087 C  
HETATM    5  C   UNL     1      -7.996   3.204  72.360  1.00  0.00    -0.059 C  
HETATM    6  C   UNL     1      -6.527   5.928  71.904  1.00  0.00    -0.053 C  
HETATM    7  O   UNL     1      -9.452   4.362  71.165  1.00  0.00    -0.137 OA 
HETATM    8  C   UNL     1      -9.292   4.112  73.376  1.00  0.00    -0.123 C  
HETATM    9  C   UNL     1      -8.148   1.724  72.153  1.00  0.00    -0.045 C  
HETATM   10  C   UNL     1      -8.884   8.908  72.984  1.00  0.00     0.588 A  
HETATM   11  H   UNL     1      -9.883   4.408  70.320  1.00  0.00     0.000 HD 
HETATM   12  C   UNL     1      -9.157   5.854  73.163  1.00  0.00    -0.130 C  
HETATM   13  C   UNL     1      -7.701   6.638  72.878  1.00  0.00    -0.096 C  
HETATM   14  C   UNL     1      -7.775   8.142  72.587  1.00  0.00    -0.177 A  
HETATM   15  C   UNL     1      -6.640   8.824  72.095  1.00  0.00    -0.042 A  
HETATM   16  C   UNL     1      -6.672  10.226  71.940  1.00  0.00     1.679 A  
HETATM   17  C   UNL     1      -5.354   8.127  71.701  1.00  0.00    -0.034 C  
HETATM   18  C   UNL     1      -5.222   6.679  72.162  1.00  0.00    -0.031 C  
HETATM   19  C   UNL     1      -7.791  10.967  72.307  1.00  0.00    10.439 A  
HETATM   20  C   UNL     1      -8.889  10.301  72.843  1.00  0.00     8.949 A  
ENDROOT
BRANCH   4  21
HETATM   21  C   UNL     1      -7.561   3.723  70.129  1.00  0.00    -0.048 C  
HETATM   22  C   UNL     1      -7.129   3.309  69.074  1.00  0.00    -0.049 C  
ENDBRANCH   4  21
BRANCH  19  23
HETATM   23  O   UNL     1      -7.922  12.326  72.207  1.00  0.00    13.155 OA 
HETATM   24  C   UNL     1      -6.767  13.102  72.502  1.00  0.00     4.837 C  
ENDBRANCH  19  23
TORSDOF 2
ENDMDL
MODEL      140
REMARK 921   NORMALIZED FREE ENERGY PREDICTED BY IDOCK:   36.20 KCAL/MOL
REMARK 922        TOTAL FREE ENERGY PREDICTED BY IDOCK:   40.37 KCAL/MOL
REMARK 923 INTER-LIGAND FREE ENERGY PREDICTED BY IDOCK:   40.40 KCAL/MOL
REMARK 924 INTRA-LIGAND FREE ENERGY PREDICTED BY IDOCK:   -0.03 KCAL/MOL
REMARK 927      BINDING AFFINITY PREDICTED BY RF-SCORE:    0.00 PKD
ROOT
HETATM    1  C   UNL     1      -9.619  17.803  65.456  1.00  0.00     0.660 C  
HETATM    2  C   UNL     1      -9.351  17.152  64.227  1.00  0.00     7.162 C  
HETATM    3  C   UNL     1     -10.527  16.655  64.982  1.00  0.00     0.002 C  
HETATM    4  C   UNL     1     -11.081  17.805  66.595  1.00  0.00     0.439 C  
HETATM    5  C   UNL     1     -11.563  17.843  65.316  1.00  0.00     2.272 C  
HETATM    6  C   UNL     1      -9.077  16.688  66.824  1.00  0.00    -0.261 C  
HETATM    7  O   UNL     1     -12.251  17.751  67.415  1.00  0.00     2.451 OA 
HETATM    8  C   UNL     1     -12.513  16.281  65.757  1.00  0.00     2.810 C  
HETATM    9  C   UNL     1     -12.265  18.920  64.540  1.00  0.00     8.636 C  
HETATM   10  C   UNL     1     -10.166  13.573  68.995  1.00  0.00     0.025 A  
HETATM   11  H   UNL     1     -12.507  18.281  68.160  1.00  0.00     0.000 HD 
HETATM   12  C   UNL     1     -11.662  15.348  66.984  1.00  0.00     0.074 C  
HETATM   13  C   UNL     1      -9.991  15.306  67.116  1.00  0.00    -0.233 C  
HETATM   14  C   UNL     1      -9.414  14.548  68.318  1.00  0.00    -0.207 A  
HETATM   15  C   UNL     1      -8.044  14.672  68.642  1.00  0.00    -0.150 A  
HETATM   16  C   UNL     1      -7.489  13.886  69.673  1.00  0.00     0.393 A  
HETATM   17  C   UNL     1      -7.105  15.631  67.940  1.00  0.00    -0.153 C  
HETATM   18  C   UNL     1      -7.630  16.235  66.641  1.00  0.00    -0.268 C  
HETATM   19  C   UNL     1      -8.256  12.946  70.356  1.00  0.00     4.817 A  
HETATM   20  C   UNL     1      -9.592  12.786  70.000  1.00  0.00     3.146 A  
ENDROOT
BRANCH   4  21
HETATM   21  C   UNL     1     -10.652  19.256  66.931  1.00  0.00    -0.557 C  
HETATM   22  C   UNL     1     -10.279  20.377  67.205  1.00  0.00    -0.418 C  
ENDBRANCH   4  21
BRANCH  19  23
HETATM   23  O   UNL     1      -7.816  12.129  71.362  1.00  0.00     7.328 OA 
HETATM   24  C   UNL     1      -6.408  12.041  71.542  1.00  0.00     2.434 C  
ENDBRANCH  19  23
TORSDOF 2
ENDMDL
MODEL      141
REMARK 921   NORMALIZED FREE ENERGY PREDICTED BY IDOCK:   39.76 KCAL/MOL
REMARK 922        TOTAL FREE ENERGY PREDICTED BY IDOCK:   44.36 KCAL/MOL
REMARK 923 INTER-LIGAND FREE ENERGY PREDICTED BY IDOCK:   44.41 KCAL/MOL
REMARK 924 INTRA-LIGAND FREE ENERGY PREDICTED BY IDOCK:   -0.06 KCAL/MOL
REMARK 927      BINDING AFFINITY PREDICTED BY RF-SCORE:    0.00 PKD
ROOT
HETATM    1  C   UNL     1     -10.346   9.676  66.072  1.00  0.00    -0.160 C  
HETATM    2  C   UNL     1     -11.509   8.986  66.497  1.00  0.00     2.680 C  
HETATM    3  C   UNL     1     -11.525  10.458  66.677  1.00  0.00     0.758 C  
HETATM    4  C   UNL     1      -9.975  11.468  65.777  1.00  0.00    -0.233 C  
HETATM    5  C   UNL     1     -11.231  11.229  65.293  1.00  0.00    -0.067 C  
HETATM    6  C   UNL     1      -9.380  10.148  67.573  1.00  0.00    -0.168 C  
HETATM    7  O   UNL     1      -9.774  12.868  65.573  1.00  0.00    -0.431 OA 
HETATM    8  C   UNL     1     -11.805  12.593  66.453  1.00  0.00    -0.466 C  
HETATM    9  C   UNL     1     -11.778  11.193  63.895  1.00  0.00     0.443 C  
HETATM   10  C   UNL     1      -9.116  12.832  70.458  1.00  0.00     6.687 A  
HETATM   11  H   UNL     1      -9.058  13.334  65.158  1.00  0.00     0.000 HD 
HETATM   12  C   UNL     1     -10.769  12.695  67.872  1.00  0.00    -0.237 C  
HETATM   13  C   UNL     1     -10.001  11.367  68.551  1.00  0.00    -0.203 C  
HETATM   14  C   UNL     1      -9.032  11.649  69.706  1.00  0.00     1.679 A  
HETATM   15  C   UNL     1      -8.164  10.632  70.165  1.00  0.00     0.736 A  
HETATM   16  C   UNL     1      -7.358  10.853  71.301  1.00  0.00     3.472 A  
HETATM   17  C   UNL     1      -8.032   9.282  69.492  1.00  0.00    -0.098 C  
HETATM   18  C   UNL     1      -9.117   8.944  68.474  1.00  0.00    -0.137 C  
HETATM   19  C   UNL     1      -7.430  12.045  72.017  1.00  0.00    10.922 A  
HETATM   20  C   UNL     1      -8.324  13.025  71.596  1.00  0.00    13.722 A  
ENDROOT
BRANCH   4  21
HETATM   21  C   UNL     1      -8.995  10.951  64.693  1.00  0.00    -0.147 C  
HETATM   22  C   UNL     1      -8.221  10.586  63.833  1.00  0.00    -0.063 C  
ENDBRANCH   4  21
BRANCH  19  23
HETATM   23  O   UNL     1      -6.702  12.357  73.132  1.00  0.00     4.847 OA 
HETATM   24  C   UNL     1      -5.797  13.449  73.019  1.00  0.00     0.874 C  
ENDBRANCH  19  23
TORSDOF 2
ENDMDL
MODEL      142
REMARK 921   NORMALIZED FREE ENERGY PREDICTED BY IDOCK:   42.07 KCAL/MOL
REMARK 922        TOTAL FREE ENERGY PREDICTED BY IDOCK:   46.93 KCAL/MOL
REMARK 923 INTER-LIGAND FREE ENERGY PREDICTED BY IDOCK:   46.97 KCAL/MOL
REMARK 924 INTRA-LIGAND FREE ENERGY PREDICTED BY IDOCK:   -0.04 KCAL/MOL
REMARK 927      BINDING AFFINITY PREDICTED BY RF-SCORE:    0.00 PKD
ROOT
HETATM    1  C   UNL     1      -9.080  10.856  68.503  1.00  0.00    -0.173 C  
HETATM    2  C   UNL     1      -7.910  10.100  68.244  1.00  0.00    -0.093 C  
HETATM    3  C   UNL     1      -8.233  10.325  69.673  1.00  0.00    -0.146 C  
HETATM    4  C   UNL     1     -10.083  11.149  70.034  1.00  0.00     0.889 C  
HETATM    5  C   UNL     1      -9.724   9.830  70.031  1.00  0.00    -0.292 C  
HETATM    6  C   UNL     1      -8.562  12.552  69.017  1.00  0.00     0.467 C  
HETATM    7  O   UNL     1     -10.800  11.321  71.259  1.00  0.00     1.482 OA 
HETATM    8  C   UNL     1      -8.947  10.164  71.710  1.00  0.00     4.065 C  
HETATM    9  C   UNL     1     -10.523   8.572  69.843  1.00  0.00    -0.219 C  
HETATM   10  C   UNL     1      -7.296  14.686  72.089  1.00  0.00     3.666 A  
HETATM   11  H   UNL     1     -11.654  11.701  71.426  1.00  0.00     0.000 HD 
HETATM   12  C   UNL     1      -8.412  11.835  71.840  1.00  0.00    15.829 C  
HETATM   13  C   UNL     1      -7.856  12.730  70.534  1.00  0.00     4.548 C  
HETATM   14  C   UNL     1      -7.551  14.210  70.793  1.00  0.00     2.162 A  
HETATM   15  C   UNL     1      -7.322  15.086  69.707  1.00  0.00    -0.132 A  
HETATM   16  C   UNL     1      -6.926  16.418  69.948  1.00  0.00     0.242 A  
HETATM   17  C   UNL     1      -7.488  14.679  68.258  1.00  0.00    -0.117 C  
HETATM   18  C   UNL     1      -7.606  13.179  68.004  1.00  0.00    -0.144 C  
HETATM   19  C   UNL     1      -6.708  16.884  71.242  1.00  0.00     3.473 A  
HETATM   20  C   UNL     1      -6.882  16.006  72.308  1.00  0.00     5.325 A  
ENDROOT
BRANCH   4  21
HETATM   21  C   UNL     1     -11.287  11.264  69.065  1.00  0.00    -0.344 C  
HETATM   22  C   UNL     1     -12.249  11.326  68.328  1.00  0.00     0.184 C  
ENDBRANCH   4  21
BRANCH  19  23
HETATM   23  O   UNL     1      -6.316  18.149  71.584  1.00  0.00     1.731 OA 
HETATM   24  C   UNL     1      -7.146  18.848  72.504  1.00  0.00     4.566 C  
ENDBRANCH  19  23
TORSDOF 2
ENDMDL
MODEL      143
REMARK 921   NORMALIZED FREE ENERGY PREDICTED BY IDOCK:   45.18 KCAL/MOL
REMARK 922        TOTAL FREE ENERGY PREDICTED BY IDOCK:   50.40 KCAL/MOL
REMARK 923 INTER-LIGAND FREE ENERGY PREDICTED BY IDOCK:   50.46 KCAL/MOL
REMARK 924 INTRA-LIGAND FREE ENERGY PREDICTED BY IDOCK:   -0.06 KCAL/MOL
REMARK 927      BINDING AFFINITY PREDICTED BY RF-SCORE:    0.00 PKD
ROOT
HETATM    1  C   UNL     1      -9.066  13.480  64.167  1.00  0.00     3.595 C  
HETATM    2  C   UNL     1     -10.407  13.792  63.831  1.00  0.00     0.962 C  
HETATM    3  C   UNL     1     -10.050  13.921  65.265  1.00  0.00    -0.328 C  
HETATM    4  C   UNL     1      -8.041  13.769  65.685  1.00  0.00     3.503 C  
HETATM    5  C   UNL     1      -8.785  14.897  65.477  1.00  0.00     1.592 C  
HETATM    6  C   UNL     1      -9.049  11.820  64.974  1.00  0.00     0.205 C  
HETATM    7  O   UNL     1      -7.323  14.033  66.892  1.00  0.00    -0.313 OA 
HETATM    8  C   UNL     1      -9.446  14.634  67.218  1.00  0.00    -0.221 C  
HETATM    9  C   UNL     1      -8.405  16.286  65.052  1.00  0.00     4.065 C  
HETATM   10  C   UNL     1      -9.646   9.958  68.405  1.00  0.00    -0.157 A  
HETATM   11  H   UNL     1      -6.396  13.962  67.086  1.00  0.00     0.000 HD 
HETATM   12  C   UNL     1      -9.448  12.927  67.643  1.00  0.00    -0.197 C  
HETATM   13  C   UNL     1      -9.687  11.698  66.526  1.00  0.00    -0.227 C  
HETATM   14  C   UNL     1      -9.530  10.261  67.039  1.00  0.00    -0.191 A  
HETATM   15  C   UNL     1      -9.468   9.186  66.123  1.00  0.00    -0.309 A  
HETATM   16  C   UNL     1      -9.442   7.858  66.597  1.00  0.00    -0.270 A  
HETATM   17  C   UNL     1      -9.414   9.372  64.621  1.00  0.00    -0.022 C  
HETATM   18  C   UNL     1      -9.755  10.771  64.118  1.00  0.00    -0.364 C  
HETATM   19  C   UNL     1      -9.525   7.575  67.957  1.00  0.00    -0.142 A  
HETATM   20  C   UNL     1      -9.642   8.632  68.855  1.00  0.00    -0.159 A  
ENDROOT
BRANCH   4  21
HETATM   21  C   UNL     1      -6.847  13.860  64.702  1.00  0.00    18.149 C  
HETATM   22  C   UNL     1      -5.886  13.933  63.964  1.00  0.00    21.515 C  
ENDBRANCH   4  21
BRANCH  19  23
HETATM   23  O   UNL     1      -9.518   6.327  68.519  1.00  0.00    -0.124 OA 
HETATM   24  C   UNL     1      -8.307   5.916  69.144  1.00  0.00    -0.106 C  
ENDBRANCH  19  23
TORSDOF 2
ENDMDL
