MODEL        1
REMARK 921   NORMALIZED FREE ENERGY PREDICTED BY IDOCK:   -5.35 KCAL/MOL
REMARK 922        TOTAL FREE ENERGY PREDICTED BY IDOCK:   -6.18 KCAL/MOL
REMARK 923 INTER-LIGAND FREE ENERGY PREDICTED BY IDOCK:   -5.98 KCAL/MOL
REMARK 924 INTRA-LIGAND FREE ENERGY PREDICTED BY IDOCK:   -0.20 KCAL/MOL
REMARK 927      BINDING AFFINITY PREDICTED BY RF-SCORE:    0.00 PKD
ROOT
HETATM    1  C   UNL     1     -10.547  15.779  65.937  1.00  0.00    -0.350 C  
HETATM    2  C   UNL     1     -11.065  15.311  64.573  1.00  0.00    -0.245 C  
HETATM    3  N   UNL     1     -11.749  16.448  63.920  1.00  0.00    -1.527 NA 
HETATM    4  H1  UNL     1     -12.093  16.137  63.012  1.00  0.00     0.000 HD 
HETATM    5  H2  UNL     1     -11.157  17.275  63.852  1.00  0.00     0.000 HD 
ENDROOT
BRANCH   2   6
HETATM    6  C   UNL     1     -12.028  14.088  64.667  1.00  0.00    -0.430 C  
HETATM    7  H   UNL     1     -13.461  13.464  65.876  1.00  0.00     0.000 HD 
HETATM    8  O   UNL     1     -12.874  14.208  65.819  1.00  0.00    -0.502 OA 
BRANCH   6   9
HETATM    9  C   UNL     1     -11.304  12.755  64.683  1.00  0.00    -0.362 A  
HETATM   10  C   UNL     1     -10.846  12.154  63.498  1.00  0.00    -0.518 A  
HETATM   11  C   UNL     1     -10.221  10.911  63.540  1.00  0.00    -0.317 A  
HETATM   12  C   UNL     1     -10.030  10.250  64.746  1.00  0.00    -0.392 A  
HETATM   13  O   UNL     1      -9.787  10.299  62.401  1.00  0.00    -0.695 OA 
HETATM   14  C   UNL     1     -10.480  10.834  65.929  1.00  0.00    -0.270 A  
HETATM   15  H   UNL     1      -9.361   9.451  62.430  1.00  0.00     0.000 HD 
HETATM   16  C   UNL     1     -11.116  12.077  65.898  1.00  0.00    -0.369 A  
ENDBRANCH   6   9
ENDBRANCH   2   6
TORSDOF 2
ENDMDL
MODEL        2
REMARK 921   NORMALIZED FREE ENERGY PREDICTED BY IDOCK:   -5.25 KCAL/MOL
REMARK 922        TOTAL FREE ENERGY PREDICTED BY IDOCK:   -6.06 KCAL/MOL
REMARK 923 INTER-LIGAND FREE ENERGY PREDICTED BY IDOCK:   -5.89 KCAL/MOL
REMARK 924 INTRA-LIGAND FREE ENERGY PREDICTED BY IDOCK:   -0.17 KCAL/MOL
REMARK 927      BINDING AFFINITY PREDICTED BY RF-SCORE:    0.00 PKD
ROOT
HETATM    1  C   UNL     1     -10.900  15.618  66.075  1.00  0.00    -0.276 C  
HETATM    2  C   UNL     1     -11.088  15.209  64.611  1.00  0.00    -0.324 C  
HETATM    3  N   UNL     1     -11.648  16.361  63.874  1.00  0.00    -1.602 NA 
HETATM    4  H1  UNL     1     -11.773  16.088  62.899  1.00  0.00     0.000 HD 
HETATM    5  H2  UNL     1     -11.085  17.204  63.976  1.00  0.00     0.000 HD 
ENDROOT
BRANCH   2   6
HETATM    6  C   UNL     1     -12.006  13.960  64.435  1.00  0.00    -0.450 C  
HETATM    7  H   UNL     1     -13.664  13.257  65.249  1.00  0.00     0.000 HD 
HETATM    8  O   UNL     1     -13.105  14.016  65.356  1.00  0.00    -0.763 OA 
BRANCH   6   9
HETATM    9  C   UNL     1     -11.264  12.645  64.579  1.00  0.00    -0.375 A  
HETATM   10  C   UNL     1     -11.196  11.972  65.812  1.00  0.00    -0.383 A  
HETATM   11  C   UNL     1     -10.473  10.788  65.923  1.00  0.00    -0.204 A  
HETATM   12  C   UNL     1      -9.819  10.247  64.824  1.00  0.00    -0.403 A  
HETATM   13  O   UNL     1     -10.375  10.129  67.113  1.00  0.00    -0.212 OA 
HETATM   14  C   UNL     1      -9.878  10.903  63.596  1.00  0.00    -0.403 A  
HETATM   15  H   UNL     1      -9.881   9.321  67.188  1.00  0.00     0.000 HD 
HETATM   16  C   UNL     1     -10.593  12.097  63.474  1.00  0.00    -0.501 A  
ENDBRANCH   6   9
ENDBRANCH   2   6
TORSDOF 2
ENDMDL
MODEL        3
REMARK 921   NORMALIZED FREE ENERGY PREDICTED BY IDOCK:   -5.14 KCAL/MOL
REMARK 922        TOTAL FREE ENERGY PREDICTED BY IDOCK:   -5.95 KCAL/MOL
REMARK 923 INTER-LIGAND FREE ENERGY PREDICTED BY IDOCK:   -5.73 KCAL/MOL
REMARK 924 INTRA-LIGAND FREE ENERGY PREDICTED BY IDOCK:   -0.22 KCAL/MOL
REMARK 927      BINDING AFFINITY PREDICTED BY RF-SCORE:    0.00 PKD
ROOT
HETATM    1  C   UNL     1     -10.757  15.757  66.149  1.00  0.00    -0.293 C  
HETATM    2  C   UNL     1     -11.016  15.176  64.756  1.00  0.00    -0.377 C  
HETATM    3  N   UNL     1     -11.655  16.220  63.928  1.00  0.00    -1.573 NA 
HETATM    4  H1  UNL     1     -11.827  15.833  62.999  1.00  0.00     0.000 HD 
HETATM    5  H2  UNL     1     -11.113  17.083  63.898  1.00  0.00     0.000 HD 
ENDROOT
BRANCH   2   6
HETATM    6  C   UNL     1     -11.902  13.892  64.780  1.00  0.00    -0.397 C  
HETATM    7  H   UNL     1     -13.756  13.423  65.278  1.00  0.00     0.000 HD 
HETATM    8  O   UNL     1     -13.217  14.205  65.263  1.00  0.00    -0.760 OA 
BRANCH   6   9
HETATM    9  C   UNL     1     -11.298  12.761  65.590  1.00  0.00    -0.354 A  
HETATM   10  C   UNL     1     -11.999  12.162  66.651  1.00  0.00    -0.186 A  
HETATM   11  C   UNL     1     -11.403  11.154  67.402  1.00  0.00    -0.255 A  
HETATM   12  C   UNL     1     -10.116  10.717  67.115  1.00  0.00    -0.248 A  
HETATM   13  O   UNL     1     -12.055  10.572  68.449  1.00  0.00    -0.804 OA 
HETATM   14  C   UNL     1      -9.409  11.302  66.066  1.00  0.00    -0.234 A  
HETATM   15  H   UNL     1     -11.647   9.884  68.962  1.00  0.00     0.000 HD 
HETATM   16  C   UNL     1      -9.994  12.321  65.310  1.00  0.00    -0.250 A  
ENDBRANCH   6   9
ENDBRANCH   2   6
TORSDOF 2
ENDMDL
MODEL        4
REMARK 921   NORMALIZED FREE ENERGY PREDICTED BY IDOCK:   -5.03 KCAL/MOL
REMARK 922        TOTAL FREE ENERGY PREDICTED BY IDOCK:   -5.82 KCAL/MOL
REMARK 923 INTER-LIGAND FREE ENERGY PREDICTED BY IDOCK:   -5.64 KCAL/MOL
REMARK 924 INTRA-LIGAND FREE ENERGY PREDICTED BY IDOCK:   -0.18 KCAL/MOL
REMARK 927      BINDING AFFINITY PREDICTED BY RF-SCORE:    0.00 PKD
ROOT
HETATM    1  C   UNL     1     -12.303  15.869  73.555  1.00  0.00    -0.660 C  
HETATM    2  C   UNL     1     -11.994  15.343  72.150  1.00  0.00    -0.429 C  
HETATM    3  N   UNL     1     -11.605  16.487  71.299  1.00  0.00    -0.586 NA 
HETATM    4  H1  UNL     1     -11.399  16.137  70.363  1.00  0.00     0.000 HD 
HETATM    5  H2  UNL     1     -10.835  17.026  71.694  1.00  0.00     0.000 HD 
ENDROOT
BRANCH   2   6
HETATM    6  C   UNL     1     -13.189  14.575  71.504  1.00  0.00    -0.358 C  
HETATM    7  H   UNL     1     -15.092  14.247  71.920  1.00  0.00     0.000 HD 
HETATM    8  O   UNL     1     -14.365  14.714  72.313  1.00  0.00    -0.476 OA 
BRANCH   6   9
HETATM    9  C   UNL     1     -12.893  13.109  71.251  1.00  0.00    -0.384 A  
HETATM   10  C   UNL     1     -13.431  12.100  72.068  1.00  0.00    -0.388 A  
HETATM   11  C   UNL     1     -13.109  10.766  71.836  1.00  0.00    -0.451 A  
HETATM   12  C   UNL     1     -12.264  10.408  70.794  1.00  0.00    -0.457 A  
HETATM   13  O   UNL     1     -13.601   9.772  72.629  1.00  0.00    -0.665 OA 
HETATM   14  C   UNL     1     -11.723  11.398  69.976  1.00  0.00    -0.416 A  
HETATM   15  H   UNL     1     -13.381   8.862  72.470  1.00  0.00     0.000 HD 
HETATM   16  C   UNL     1     -12.032  12.741  70.204  1.00  0.00    -0.371 A  
ENDBRANCH   6   9
ENDBRANCH   2   6
TORSDOF 2
ENDMDL
MODEL        5
REMARK 921   NORMALIZED FREE ENERGY PREDICTED BY IDOCK:   -4.99 KCAL/MOL
REMARK 922        TOTAL FREE ENERGY PREDICTED BY IDOCK:   -5.78 KCAL/MOL
REMARK 923 INTER-LIGAND FREE ENERGY PREDICTED BY IDOCK:   -5.62 KCAL/MOL
REMARK 924 INTRA-LIGAND FREE ENERGY PREDICTED BY IDOCK:   -0.16 KCAL/MOL
REMARK 927      BINDING AFFINITY PREDICTED BY RF-SCORE:    0.00 PKD
ROOT
HETATM    1  C   UNL     1     -12.776  12.058  63.267  1.00  0.00    -0.437 C  
HETATM    2  C   UNL     1     -11.293  12.211  63.620  1.00  0.00    -0.464 C  
HETATM    3  N   UNL     1     -10.582  10.990  63.184  1.00  0.00    -0.778 NA 
HETATM    4  H1  UNL     1      -9.595  11.092  63.419  1.00  0.00     0.000 HD 
HETATM    5  H2  UNL     1     -10.731  10.781  62.198  1.00  0.00     0.000 HD 
ENDROOT
BRANCH   2   6
HETATM    6  C   UNL     1     -11.046  12.462  65.140  1.00  0.00    -0.309 C  
HETATM    7  H   UNL     1     -12.085  12.335  66.815  1.00  0.00     0.000 HD 
HETATM    8  O   UNL     1     -12.236  12.182  65.890  1.00  0.00    -0.604 OA 
BRANCH   6   9
HETATM    9  C   UNL     1     -10.550  13.864  65.443  1.00  0.00    -0.344 A  
HETATM   10  C   UNL     1     -11.146  14.995  64.861  1.00  0.00    -0.425 A  
HETATM   11  C   UNL     1     -10.643  16.266  65.126  1.00  0.00    -0.304 A  
HETATM   12  C   UNL     1      -9.555  16.439  65.972  1.00  0.00    -0.352 A  
HETATM   13  O   UNL     1     -11.192  17.377  64.557  1.00  0.00    -1.018 OA 
HETATM   14  C   UNL     1      -8.954  15.325  66.555  1.00  0.00    -0.340 A  
HETATM   15  H   UNL     1     -10.848  18.243  64.738  1.00  0.00     0.000 HD 
HETATM   16  C   UNL     1      -9.444  14.045  66.290  1.00  0.00    -0.249 A  
ENDBRANCH   6   9
ENDBRANCH   2   6
TORSDOF 2
ENDMDL
MODEL        6
REMARK 921   NORMALIZED FREE ENERGY PREDICTED BY IDOCK:   -4.96 KCAL/MOL
REMARK 922        TOTAL FREE ENERGY PREDICTED BY IDOCK:   -5.74 KCAL/MOL
REMARK 923 INTER-LIGAND FREE ENERGY PREDICTED BY IDOCK:   -5.61 KCAL/MOL
REMARK 924 INTRA-LIGAND FREE ENERGY PREDICTED BY IDOCK:   -0.13 KCAL/MOL
REMARK 927      BINDING AFFINITY PREDICTED BY RF-SCORE:    0.00 PKD
ROOT
HETATM    1  C   UNL     1     -10.737  18.981  67.659  1.00  0.00    -0.495 C  
HETATM    2  C   UNL     1     -10.496  17.468  67.629  1.00  0.00    -0.370 C  
HETATM    3  N   UNL     1      -9.352  17.162  68.513  1.00  0.00    -0.267 NA 
HETATM    4  H1  UNL     1      -9.192  16.154  68.494  1.00  0.00     0.000 HD 
HETATM    5  H2  UNL     1      -9.480  17.520  69.459  1.00  0.00     0.000 HD 
ENDROOT
BRANCH   2   6
HETATM    6  C   UNL     1     -10.229  16.916  66.195  1.00  0.00    -0.341 C  
HETATM    7  H   UNL     1     -10.380  17.577  64.339  1.00  0.00     0.000 HD 
HETATM    8  O   UNL     1     -10.543  17.913  65.212  1.00  0.00    -0.637 OA 
BRANCH   6   9
HETATM    9  C   UNL     1     -10.978  15.630  65.898  1.00  0.00    -0.231 A  
HETATM   10  C   UNL     1     -11.384  15.302  64.594  1.00  0.00    -0.364 A  
HETATM   11  C   UNL     1     -12.105  14.135  64.359  1.00  0.00    -0.463 A  
HETATM   12  C   UNL     1     -12.426  13.273  65.400  1.00  0.00    -0.543 A  
HETATM   13  O   UNL     1     -12.529  13.805  63.105  1.00  0.00    -1.089 OA 
HETATM   14  C   UNL     1     -12.029  13.587  66.699  1.00  0.00    -0.452 A  
HETATM   15  H   UNL     1     -13.021  13.009  62.945  1.00  0.00     0.000 HD 
HETATM   16  C   UNL     1     -11.313  14.760  66.948  1.00  0.00    -0.358 A  
ENDBRANCH   6   9
ENDBRANCH   2   6
TORSDOF 2
ENDMDL
MODEL        7
REMARK 921   NORMALIZED FREE ENERGY PREDICTED BY IDOCK:   -4.94 KCAL/MOL
REMARK 922        TOTAL FREE ENERGY PREDICTED BY IDOCK:   -5.72 KCAL/MOL
REMARK 923 INTER-LIGAND FREE ENERGY PREDICTED BY IDOCK:   -5.49 KCAL/MOL
REMARK 924 INTRA-LIGAND FREE ENERGY PREDICTED BY IDOCK:   -0.23 KCAL/MOL
REMARK 927      BINDING AFFINITY PREDICTED BY RF-SCORE:    0.00 PKD
ROOT
HETATM    1  C   UNL     1      -9.393  12.901  68.190  1.00  0.00    -0.214 C  
HETATM    2  C   UNL     1     -10.726  13.630  68.384  1.00  0.00    -0.258 C  
HETATM    3  N   UNL     1     -10.995  13.732  69.834  1.00  0.00    -0.446 NA 
HETATM    4  H1  UNL     1     -11.882  14.218  69.963  1.00  0.00     0.000 HD 
HETATM    5  H2  UNL     1     -10.230  14.172  70.344  1.00  0.00     0.000 HD 
ENDROOT
BRANCH   2   6
HETATM    6  C   UNL     1     -11.920  12.929  67.665  1.00  0.00    -0.289 C  
HETATM    7  H   UNL     1     -12.640  11.096  67.508  1.00  0.00     0.000 HD 
HETATM    8  O   UNL     1     -11.913  11.522  67.945  1.00  0.00    -0.618 OA 
BRANCH   6   9
HETATM    9  C   UNL     1     -11.942  13.168  66.167  1.00  0.00    -0.478 A  
HETATM   10  C   UNL     1     -12.072  14.460  65.631  1.00  0.00    -0.359 A  
HETATM   11  C   UNL     1     -12.130  14.644  64.253  1.00  0.00    -0.415 A  
HETATM   12  C   UNL     1     -12.050  13.562  63.386  1.00  0.00    -0.351 A  
HETATM   13  O   UNL     1     -12.277  15.886  63.710  1.00  0.00    -1.213 OA 
HETATM   14  C   UNL     1     -11.922  12.274  63.903  1.00  0.00    -0.582 A  
HETATM   15  H   UNL     1     -12.317  16.011  62.770  1.00  0.00     0.000 HD 
HETATM   16  C   UNL     1     -11.871  12.077  65.285  1.00  0.00    -0.269 A  
ENDBRANCH   6   9
ENDBRANCH   2   6
TORSDOF 2
ENDMDL
MODEL        8
REMARK 921   NORMALIZED FREE ENERGY PREDICTED BY IDOCK:   -4.91 KCAL/MOL
REMARK 922        TOTAL FREE ENERGY PREDICTED BY IDOCK:   -5.69 KCAL/MOL
REMARK 923 INTER-LIGAND FREE ENERGY PREDICTED BY IDOCK:   -5.57 KCAL/MOL
REMARK 924 INTRA-LIGAND FREE ENERGY PREDICTED BY IDOCK:   -0.12 KCAL/MOL
REMARK 927      BINDING AFFINITY PREDICTED BY RF-SCORE:    0.00 PKD
ROOT
HETATM    1  C   UNL     1     -10.436  12.441  63.840  1.00  0.00    -0.469 C  
HETATM    2  C   UNL     1     -11.681  13.174  64.349  1.00  0.00    -0.380 C  
HETATM    3  N   UNL     1     -12.397  13.739  63.185  1.00  0.00    -1.106 NA 
HETATM    4  H1  UNL     1     -13.226  14.226  63.524  1.00  0.00     0.000 HD 
HETATM    5  H2  UNL     1     -12.616  13.035  62.481  1.00  0.00     0.000 HD 
ENDROOT
BRANCH   2   6
HETATM    6  C   UNL     1     -11.354  14.301  65.377  1.00  0.00    -0.329 C  
HETATM    7  H   UNL     1      -9.841  15.512  65.763  1.00  0.00     0.000 HD 
HETATM    8  O   UNL     1     -10.040  14.826  65.138  1.00  0.00    -0.372 OA 
BRANCH   6   9
HETATM    9  C   UNL     1     -11.488  13.854  66.820  1.00  0.00    -0.369 A  
HETATM   10  C   UNL     1     -11.718  12.508  67.153  1.00  0.00    -0.425 A  
HETATM   11  C   UNL     1     -11.878  12.134  68.484  1.00  0.00    -0.310 A  
HETATM   12  C   UNL     1     -11.803  13.075  69.502  1.00  0.00    -0.385 A  
HETATM   13  O   UNL     1     -12.123  10.838  68.830  1.00  0.00    -0.717 OA 
HETATM   14  C   UNL     1     -11.576  14.413  69.187  1.00  0.00    -0.344 A  
HETATM   15  H   UNL     1     -12.232  10.583  69.738  1.00  0.00     0.000 HD 
HETATM   16  C   UNL     1     -11.422  14.802  67.854  1.00  0.00    -0.361 A  
ENDBRANCH   6   9
ENDBRANCH   2   6
TORSDOF 2
ENDMDL
MODEL        9
REMARK 921   NORMALIZED FREE ENERGY PREDICTED BY IDOCK:   -4.89 KCAL/MOL
REMARK 922        TOTAL FREE ENERGY PREDICTED BY IDOCK:   -5.67 KCAL/MOL
REMARK 923 INTER-LIGAND FREE ENERGY PREDICTED BY IDOCK:   -5.47 KCAL/MOL
REMARK 924 INTRA-LIGAND FREE ENERGY PREDICTED BY IDOCK:   -0.19 KCAL/MOL
REMARK 927      BINDING AFFINITY PREDICTED BY RF-SCORE:    0.00 PKD
ROOT
HETATM    1  C   UNL     1      -9.784  10.018  66.817  1.00  0.00    -0.239 C  
HETATM    2  C   UNL     1     -10.670  11.238  67.085  1.00  0.00    -0.253 C  
HETATM    3  N   UNL     1     -11.822  10.807  67.905  1.00  0.00    -0.742 NA 
HETATM    4  H1  UNL     1     -12.411  11.620  68.084  1.00  0.00     0.000 HD 
HETATM    5  H2  UNL     1     -11.537  10.334  68.762  1.00  0.00     0.000 HD 
ENDROOT
BRANCH   2   6
HETATM    6  C   UNL     1     -11.171  11.932  65.780  1.00  0.00    -0.312 C  
HETATM    7  H   UNL     1     -10.884  11.736  63.835  1.00  0.00     0.000 HD 
HETATM    8  O   UNL     1     -10.579  11.314  64.629  1.00  0.00    -0.311 OA 
BRANCH   6   9
HETATM    9  C   UNL     1     -10.919  13.428  65.762  1.00  0.00    -0.288 A  
HETATM   10  C   UNL     1     -11.430  14.246  64.740  1.00  0.00    -0.394 A  
HETATM   11  C   UNL     1     -11.149  15.609  64.728  1.00  0.00    -0.412 A  
HETATM   12  C   UNL     1     -10.371  16.184  65.724  1.00  0.00    -0.398 A  
HETATM   13  O   UNL     1     -11.616  16.419  63.735  1.00  0.00    -1.605 OA 
HETATM   14  C   UNL     1      -9.857  15.385  66.743  1.00  0.00    -0.255 A  
HETATM   15  H   UNL     1     -11.423  17.349  63.727  1.00  0.00     0.000 HD 
HETATM   16  C   UNL     1     -10.126  14.015  66.761  1.00  0.00    -0.264 A  
ENDBRANCH   6   9
ENDBRANCH   2   6
TORSDOF 2
ENDMDL
MODEL       10
REMARK 921   NORMALIZED FREE ENERGY PREDICTED BY IDOCK:   -4.87 KCAL/MOL
REMARK 922        TOTAL FREE ENERGY PREDICTED BY IDOCK:   -5.64 KCAL/MOL
REMARK 923 INTER-LIGAND FREE ENERGY PREDICTED BY IDOCK:   -5.58 KCAL/MOL
REMARK 924 INTRA-LIGAND FREE ENERGY PREDICTED BY IDOCK:   -0.06 KCAL/MOL
REMARK 927      BINDING AFFINITY PREDICTED BY RF-SCORE:    0.00 PKD
ROOT
HETATM    1  C   UNL     1     -10.425  15.286  65.622  1.00  0.00    -0.377 C  
HETATM    2  C   UNL     1     -11.169  14.834  64.362  1.00  0.00    -0.172 C  
HETATM    3  N   UNL     1     -11.924  15.987  63.828  1.00  0.00    -1.339 NA 
HETATM    4  H1  UNL     1     -12.419  15.686  62.988  1.00  0.00     0.000 HD 
HETATM    5  H2  UNL     1     -11.332  16.801  63.663  1.00  0.00     0.000 HD 
ENDROOT
BRANCH   2   6
HETATM    6  C   UNL     1     -12.133  13.633  64.614  1.00  0.00    -0.412 C  
HETATM    7  H   UNL     1     -13.895  13.345  65.459  1.00  0.00     0.000 HD 
HETATM    8  O   UNL     1     -13.309  14.075  65.306  1.00  0.00    -0.741 OA 
BRANCH   6   9
HETATM    9  C   UNL     1     -11.479  12.488  65.365  1.00  0.00    -0.383 A  
HETATM   10  C   UNL     1     -10.753  11.489  64.694  1.00  0.00    -0.379 A  
HETATM   11  C   UNL     1     -10.200  10.429  65.406  1.00  0.00    -0.259 A  
HETATM   12  C   UNL     1     -10.345  10.344  66.785  1.00  0.00    -0.294 A  
HETATM   13  O   UNL     1      -9.509   9.437  64.775  1.00  0.00    -0.437 OA 
HETATM   14  C   UNL     1     -11.063  11.327  67.463  1.00  0.00    -0.346 A  
HETATM   15  H   UNL     1      -9.132   8.714  65.261  1.00  0.00     0.000 HD 
HETATM   16  C   UNL     1     -11.630  12.391  66.758  1.00  0.00    -0.444 A  
ENDBRANCH   6   9
ENDBRANCH   2   6
TORSDOF 2
ENDMDL
MODEL       11
REMARK 921   NORMALIZED FREE ENERGY PREDICTED BY IDOCK:   -4.84 KCAL/MOL
REMARK 922        TOTAL FREE ENERGY PREDICTED BY IDOCK:   -5.61 KCAL/MOL
REMARK 923 INTER-LIGAND FREE ENERGY PREDICTED BY IDOCK:   -5.44 KCAL/MOL
REMARK 924 INTRA-LIGAND FREE ENERGY PREDICTED BY IDOCK:   -0.17 KCAL/MOL
REMARK 927      BINDING AFFINITY PREDICTED BY RF-SCORE:    0.00 PKD
ROOT
HETATM    1  C   UNL     1     -11.336  15.848  70.290  1.00  0.00    -0.381 C  
HETATM    2  C   UNL     1     -11.524  14.690  69.305  1.00  0.00    -0.291 C  
HETATM    3  N   UNL     1     -11.427  13.420  70.056  1.00  0.00    -0.510 NA 
HETATM    4  H1  UNL     1     -11.553  12.649  69.400  1.00  0.00     0.000 HD 
HETATM    5  H2  UNL     1     -12.076  13.377  70.840  1.00  0.00     0.000 HD 
ENDROOT
BRANCH   2   6
HETATM    6  C   UNL     1     -10.492  14.703  68.136  1.00  0.00    -0.237 C  
HETATM    7  H   UNL     1      -9.063  15.900  67.481  1.00  0.00     0.000 HD 
HETATM    8  O   UNL     1      -9.692  15.893  68.192  1.00  0.00    -0.210 OA 
BRANCH   6   9
HETATM    9  C   UNL     1     -11.133  14.564  66.768  1.00  0.00    -0.325 A  
HETATM   10  C   UNL     1     -11.005  15.567  65.792  1.00  0.00    -0.285 A  
HETATM   11  C   UNL     1     -11.639  15.430  64.561  1.00  0.00    -0.296 A  
HETATM   12  C   UNL     1     -12.396  14.303  64.271  1.00  0.00    -0.407 A  
HETATM   13  O   UNL     1     -11.547  16.399  63.606  1.00  0.00    -1.514 OA 
HETATM   14  C   UNL     1     -12.532  13.300  65.230  1.00  0.00    -0.543 A  
HETATM   15  H   UNL     1     -11.979  16.305  62.766  1.00  0.00     0.000 HD 
HETATM   16  C   UNL     1     -11.908  13.431  66.472  1.00  0.00    -0.443 A  
ENDBRANCH   6   9
ENDBRANCH   2   6
TORSDOF 2
ENDMDL
MODEL       12
REMARK 921   NORMALIZED FREE ENERGY PREDICTED BY IDOCK:   -4.84 KCAL/MOL
REMARK 922        TOTAL FREE ENERGY PREDICTED BY IDOCK:   -5.61 KCAL/MOL
REMARK 923 INTER-LIGAND FREE ENERGY PREDICTED BY IDOCK:   -5.44 KCAL/MOL
REMARK 924 INTRA-LIGAND FREE ENERGY PREDICTED BY IDOCK:   -0.17 KCAL/MOL
REMARK 927      BINDING AFFINITY PREDICTED BY RF-SCORE:    0.00 PKD
ROOT
HETATM    1  C   UNL     1     -10.199  12.262  63.815  1.00  0.00    -0.427 C  
HETATM    2  C   UNL     1     -11.679  12.153  64.194  1.00  0.00    -0.396 C  
HETATM    3  N   UNL     1     -12.367  11.350  63.161  1.00  0.00    -0.833 NA 
HETATM    4  H1  UNL     1     -13.352  11.277  63.414  1.00  0.00     0.000 HD 
HETATM    5  H2  UNL     1     -11.931  10.440  63.017  1.00  0.00     0.000 HD 
ENDROOT
BRANCH   2   6
HETATM    6  C   UNL     1     -12.378  13.539  64.350  1.00  0.00    -0.337 C  
HETATM    7  H   UNL     1     -12.854  15.059  63.180  1.00  0.00     0.000 HD 
HETATM    8  O   UNL     1     -12.429  14.215  63.085  1.00  0.00    -0.678 OA 
BRANCH   6   9
HETATM    9  C   UNL     1     -11.727  14.425  65.395  1.00  0.00    -0.362 A  
HETATM   10  C   UNL     1     -10.912  15.511  65.032  1.00  0.00    -0.454 A  
HETATM   11  C   UNL     1     -10.295  16.281  66.013  1.00  0.00    -0.349 A  
HETATM   12  C   UNL     1     -10.479  15.999  67.361  1.00  0.00    -0.308 A  
HETATM   13  O   UNL     1      -9.483  17.327  65.685  1.00  0.00    -0.515 OA 
HETATM   14  C   UNL     1     -11.283  14.925  67.735  1.00  0.00    -0.329 A  
HETATM   15  H   UNL     1      -9.062  17.852  66.355  1.00  0.00     0.000 HD 
HETATM   16  C   UNL     1     -11.901  14.140  66.759  1.00  0.00    -0.449 A  
ENDBRANCH   6   9
ENDBRANCH   2   6
TORSDOF 2
ENDMDL
MODEL       13
REMARK 921   NORMALIZED FREE ENERGY PREDICTED BY IDOCK:   -4.84 KCAL/MOL
REMARK 922        TOTAL FREE ENERGY PREDICTED BY IDOCK:   -5.61 KCAL/MOL
REMARK 923 INTER-LIGAND FREE ENERGY PREDICTED BY IDOCK:   -5.43 KCAL/MOL
REMARK 924 INTRA-LIGAND FREE ENERGY PREDICTED BY IDOCK:   -0.18 KCAL/MOL
REMARK 927      BINDING AFFINITY PREDICTED BY RF-SCORE:    0.00 PKD
ROOT
HETATM    1  C   UNL     1     -10.659  19.022  65.976  1.00  0.00    -0.499 C  
HETATM    2  C   UNL     1     -10.087  17.625  66.234  1.00  0.00    -0.341 C  
HETATM    3  N   UNL     1      -8.623  17.744  66.396  1.00  0.00    -0.368 NA 
HETATM    4  H1  UNL     1      -8.242  16.814  66.568  1.00  0.00     0.000 HD 
HETATM    5  H2  UNL     1      -8.361  18.414  67.118  1.00  0.00     0.000 HD 
ENDROOT
BRANCH   2   6
HETATM    6  C   UNL     1     -10.421  16.605  65.102  1.00  0.00    -0.093 C  
HETATM    7  H   UNL     1     -11.509  16.579  63.453  1.00  0.00     0.000 HD 
HETATM    8  O   UNL     1     -11.307  17.199  64.142  1.00  0.00    -1.031 OA 
BRANCH   6   9
HETATM    9  C   UNL     1     -11.003  15.303  65.620  1.00  0.00    -0.348 A  
HETATM   10  C   UNL     1     -11.867  14.521  64.834  1.00  0.00    -0.417 A  
HETATM   11  C   UNL     1     -12.417  13.353  65.351  1.00  0.00    -0.494 A  
HETATM   12  C   UNL     1     -12.117  12.934  66.641  1.00  0.00    -0.360 A  
HETATM   13  O   UNL     1     -13.275  12.589  64.616  1.00  0.00    -0.848 OA 
HETATM   14  C   UNL     1     -11.262  13.699  67.431  1.00  0.00    -0.323 A  
HETATM   15  H   UNL     1     -13.650  11.792  64.969  1.00  0.00     0.000 HD 
HETATM   16  C   UNL     1     -10.710  14.879  66.926  1.00  0.00    -0.308 A  
ENDBRANCH   6   9
ENDBRANCH   2   6
TORSDOF 2
ENDMDL
MODEL       14
REMARK 921   NORMALIZED FREE ENERGY PREDICTED BY IDOCK:   -4.82 KCAL/MOL
REMARK 922        TOTAL FREE ENERGY PREDICTED BY IDOCK:   -5.59 KCAL/MOL
REMARK 923 INTER-LIGAND FREE ENERGY PREDICTED BY IDOCK:   -5.41 KCAL/MOL
REMARK 924 INTRA-LIGAND FREE ENERGY PREDICTED BY IDOCK:   -0.18 KCAL/MOL
REMARK 927      BINDING AFFINITY PREDICTED BY RF-SCORE:    0.00 PKD
ROOT
HETATM    1  C   UNL     1     -12.052  12.012  63.502  1.00  0.00    -0.628 C  
HETATM    2  C   UNL     1     -11.990  13.341  64.262  1.00  0.00    -0.421 C  
HETATM    3  N   UNL     1     -12.373  14.426  63.334  1.00  0.00    -1.088 NA 
HETATM    4  H1  UNL     1     -12.332  15.311  63.841  1.00  0.00     0.000 HD 
HETATM    5  H2  UNL     1     -13.279  14.266  62.896  1.00  0.00     0.000 HD 
ENDROOT
BRANCH   2   6
HETATM    6  C   UNL     1     -10.587  13.632  64.879  1.00  0.00    -0.408 C  
HETATM    7  H   UNL     1      -9.099  12.584  65.649  1.00  0.00     0.000 HD 
HETATM    8  O   UNL     1      -9.953  12.406  65.274  1.00  0.00    -0.263 OA 
BRANCH   6   9
HETATM    9  C   UNL     1     -10.635  14.599  66.047  1.00  0.00    -0.314 A  
HETATM   10  C   UNL     1     -11.558  14.440  67.095  1.00  0.00    -0.406 A  
HETATM   11  C   UNL     1     -11.605  15.367  68.132  1.00  0.00    -0.319 A  
HETATM   12  C   UNL     1     -10.741  16.454  68.156  1.00  0.00    -0.336 A  
HETATM   13  O   UNL     1     -12.506  15.246  69.148  1.00  0.00    -0.593 OA 
HETATM   14  C   UNL     1      -9.821  16.624  67.123  1.00  0.00    -0.257 A  
HETATM   15  H   UNL     1     -12.538  15.879  69.856  1.00  0.00     0.000 HD 
HETATM   16  C   UNL     1      -9.770  15.705  66.073  1.00  0.00    -0.378 A  
ENDBRANCH   6   9
ENDBRANCH   2   6
TORSDOF 2
ENDMDL
MODEL       15
REMARK 921   NORMALIZED FREE ENERGY PREDICTED BY IDOCK:   -4.82 KCAL/MOL
REMARK 922        TOTAL FREE ENERGY PREDICTED BY IDOCK:   -5.58 KCAL/MOL
REMARK 923 INTER-LIGAND FREE ENERGY PREDICTED BY IDOCK:   -5.35 KCAL/MOL
REMARK 924 INTRA-LIGAND FREE ENERGY PREDICTED BY IDOCK:   -0.23 KCAL/MOL
REMARK 927      BINDING AFFINITY PREDICTED BY RF-SCORE:    0.00 PKD
ROOT
HETATM    1  C   UNL     1     -10.304  12.253  63.783  1.00  0.00    -0.464 C  
HETATM    2  C   UNL     1     -11.768  12.008  64.163  1.00  0.00    -0.372 C  
HETATM    3  N   UNL     1     -12.486  11.529  62.963  1.00  0.00    -0.914 NA 
HETATM    4  H1  UNL     1     -13.461  11.365  63.216  1.00  0.00     0.000 HD 
HETATM    5  H2  UNL     1     -12.047  10.710  62.544  1.00  0.00     0.000 HD 
ENDROOT
BRANCH   2   6
HETATM    6  C   UNL     1     -12.473  13.273  64.742  1.00  0.00    -0.383 C  
HETATM    7  H   UNL     1     -12.972  15.074  64.098  1.00  0.00     0.000 HD 
HETATM    8  O   UNL     1     -12.542  14.304  63.746  1.00  0.00    -0.821 OA 
BRANCH   6   9
HETATM    9  C   UNL     1     -11.816  13.802  66.002  1.00  0.00    -0.415 A  
HETATM   10  C   UNL     1     -11.821  13.064  67.198  1.00  0.00    -0.431 A  
HETATM   11  C   UNL     1     -11.246  13.593  68.350  1.00  0.00    -0.276 A  
HETATM   12  C   UNL     1     -10.651  14.848  68.337  1.00  0.00    -0.244 A  
HETATM   13  O   UNL     1     -11.258  12.905  69.527  1.00  0.00    -0.424 OA 
HETATM   14  C   UNL     1     -10.639  15.591  67.158  1.00  0.00    -0.300 A  
HETATM   15  H   UNL     1     -10.865  13.266  70.312  1.00  0.00     0.000 HD 
HETATM   16  C   UNL     1     -11.221  15.074  65.998  1.00  0.00    -0.310 A  
ENDBRANCH   6   9
ENDBRANCH   2   6
TORSDOF 2
ENDMDL
MODEL       16
REMARK 921   NORMALIZED FREE ENERGY PREDICTED BY IDOCK:   -4.81 KCAL/MOL
REMARK 922        TOTAL FREE ENERGY PREDICTED BY IDOCK:   -5.58 KCAL/MOL
REMARK 923 INTER-LIGAND FREE ENERGY PREDICTED BY IDOCK:   -5.40 KCAL/MOL
REMARK 924 INTRA-LIGAND FREE ENERGY PREDICTED BY IDOCK:   -0.18 KCAL/MOL
REMARK 927      BINDING AFFINITY PREDICTED BY RF-SCORE:    0.00 PKD
ROOT
HETATM    1  C   UNL     1     -11.813   8.274  72.626  1.00  0.00    -0.382 C  
HETATM    2  C   UNL     1     -12.845   9.391  72.442  1.00  0.00    -0.319 C  
HETATM    3  N   UNL     1     -14.182   8.848  72.765  1.00  0.00    -1.052 NA 
HETATM    4  H1  UNL     1     -14.869   9.592  72.642  1.00  0.00     0.000 HD 
HETATM    5  H2  UNL     1     -14.220   8.427  73.692  1.00  0.00     0.000 HD 
ENDROOT
BRANCH   2   6
HETATM    6  C   UNL     1     -12.845   9.997  71.004  1.00  0.00    -0.365 C  
HETATM    7  H   UNL     1     -11.783   9.798  69.350  1.00  0.00     0.000 HD 
HETATM    8  O   UNL     1     -11.783   9.430  70.225  1.00  0.00    -0.206 OA 
BRANCH   6   9
HETATM    9  C   UNL     1     -12.756  11.512  70.992  1.00  0.00    -0.426 A  
HETATM   10  C   UNL     1     -13.344  12.290  72.004  1.00  0.00    -0.491 A  
HETATM   11  C   UNL     1     -13.281  13.678  71.944  1.00  0.00    -0.411 A  
HETATM   12  C   UNL     1     -12.632  14.318  70.896  1.00  0.00    -0.426 A  
HETATM   13  O   UNL     1     -13.862  14.455  72.904  1.00  0.00    -0.589 OA 
HETATM   14  C   UNL     1     -12.045  13.559  69.886  1.00  0.00    -0.408 A  
HETATM   15  H   UNL     1     -13.819  15.402  72.863  1.00  0.00     0.000 HD 
HETATM   16  C   UNL     1     -12.109  12.164  69.930  1.00  0.00    -0.324 A  
ENDBRANCH   6   9
ENDBRANCH   2   6
TORSDOF 2
ENDMDL
MODEL       17
REMARK 921   NORMALIZED FREE ENERGY PREDICTED BY IDOCK:   -4.80 KCAL/MOL
REMARK 922        TOTAL FREE ENERGY PREDICTED BY IDOCK:   -5.56 KCAL/MOL
REMARK 923 INTER-LIGAND FREE ENERGY PREDICTED BY IDOCK:   -5.38 KCAL/MOL
REMARK 924 INTRA-LIGAND FREE ENERGY PREDICTED BY IDOCK:   -0.18 KCAL/MOL
REMARK 927      BINDING AFFINITY PREDICTED BY RF-SCORE:    0.00 PKD
ROOT
HETATM    1  C   UNL     1     -10.042   5.040  70.071  1.00  0.00    -0.342 C  
HETATM    2  C   UNL     1     -10.955   6.269  70.034  1.00  0.00    -0.358 C  
HETATM    3  N   UNL     1     -11.363   6.505  68.633  1.00  0.00    -0.582 NA 
HETATM    4  H1  UNL     1     -11.971   7.323  68.609  1.00  0.00     0.000 HD 
HETATM    5  H2  UNL     1     -11.792   5.684  68.206  1.00  0.00     0.000 HD 
ENDROOT
BRANCH   2   6
HETATM    6  C   UNL     1     -10.286   7.550  70.621  1.00  0.00    -0.208 C  
HETATM    7  H   UNL     1      -9.005   7.983  72.062  1.00  0.00     0.000 HD 
HETATM    8  O   UNL     1      -9.412   7.203  71.705  1.00  0.00    -0.152 OA 
BRANCH   6   9
HETATM    9  C   UNL     1     -11.288   8.599  71.068  1.00  0.00    -0.322 A  
HETATM   10  C   UNL     1     -12.267   8.314  72.034  1.00  0.00    -0.398 A  
HETATM   11  C   UNL     1     -13.199   9.284  72.394  1.00  0.00    -0.426 A  
HETATM   12  C   UNL     1     -13.172  10.546  71.816  1.00  0.00    -0.522 A  
HETATM   13  O   UNL     1     -14.171   9.024  73.314  1.00  0.00    -1.192 OA 
HETATM   14  C   UNL     1     -12.206  10.842  70.855  1.00  0.00    -0.485 A  
HETATM   15  H   UNL     1     -14.806   9.686  73.559  1.00  0.00     0.000 HD 
HETATM   16  C   UNL     1     -11.272   9.874  70.480  1.00  0.00    -0.399 A  
ENDBRANCH   6   9
ENDBRANCH   2   6
TORSDOF 2
ENDMDL
MODEL       18
REMARK 921   NORMALIZED FREE ENERGY PREDICTED BY IDOCK:   -4.80 KCAL/MOL
REMARK 922        TOTAL FREE ENERGY PREDICTED BY IDOCK:   -5.56 KCAL/MOL
REMARK 923 INTER-LIGAND FREE ENERGY PREDICTED BY IDOCK:   -5.38 KCAL/MOL
REMARK 924 INTRA-LIGAND FREE ENERGY PREDICTED BY IDOCK:   -0.18 KCAL/MOL
REMARK 927      BINDING AFFINITY PREDICTED BY RF-SCORE:    0.00 PKD
ROOT
HETATM    1  C   UNL     1     -12.399  12.040  63.487  1.00  0.00    -0.661 C  
HETATM    2  C   UNL     1     -12.279  13.286  64.369  1.00  0.00    -0.390 C  
HETATM    3  N   UNL     1     -12.220  14.474  63.492  1.00  0.00    -1.046 NA 
HETATM    4  H1  UNL     1     -12.140  15.304  64.079  1.00  0.00     0.000 HD 
HETATM    5  H2  UNL     1     -13.007  14.525  62.847  1.00  0.00     0.000 HD 
ENDROOT
BRANCH   2   6
HETATM    6  C   UNL     1     -11.037  13.254  65.313  1.00  0.00    -0.288 C  
HETATM    7  H   UNL     1      -9.475  12.080  65.609  1.00  0.00     0.000 HD 
HETATM    8  O   UNL     1     -10.231  12.100  65.035  1.00  0.00    -0.272 OA 
BRANCH   6   9
HETATM    9  C   UNL     1     -11.401  13.299  66.785  1.00  0.00    -0.359 A  
HETATM   10  C   UNL     1     -11.795  14.496  67.407  1.00  0.00    -0.416 A  
HETATM   11  C   UNL     1     -12.083  14.515  68.768  1.00  0.00    -0.221 A  
HETATM   12  C   UNL     1     -11.998  13.358  69.531  1.00  0.00    -0.377 A  
HETATM   13  O   UNL     1     -12.447  15.669  69.398  1.00  0.00    -0.580 OA 
HETATM   14  C   UNL     1     -11.609  12.164  68.927  1.00  0.00    -0.377 A  
HETATM   15  H   UNL     1     -12.644  15.681  70.327  1.00  0.00     0.000 HD 
HETATM   16  C   UNL     1     -11.308  12.134  67.563  1.00  0.00    -0.392 A  
ENDBRANCH   6   9
ENDBRANCH   2   6
TORSDOF 2
ENDMDL
MODEL       19
REMARK 921   NORMALIZED FREE ENERGY PREDICTED BY IDOCK:   -4.79 KCAL/MOL
REMARK 922        TOTAL FREE ENERGY PREDICTED BY IDOCK:   -5.55 KCAL/MOL
REMARK 923 INTER-LIGAND FREE ENERGY PREDICTED BY IDOCK:   -5.40 KCAL/MOL
REMARK 924 INTRA-LIGAND FREE ENERGY PREDICTED BY IDOCK:   -0.15 KCAL/MOL
REMARK 927      BINDING AFFINITY PREDICTED BY RF-SCORE:    0.00 PKD
ROOT
HETATM    1  C   UNL     1     -10.409  12.340  63.621  1.00  0.00    -0.463 C  
HETATM    2  C   UNL     1     -11.772  11.807  64.073  1.00  0.00    -0.327 C  
HETATM    3  N   UNL     1     -12.523  11.376  62.875  1.00  0.00    -0.863 NA 
HETATM    4  H1  UNL     1     -13.431  11.021  63.176  1.00  0.00     0.000 HD 
HETATM    5  H2  UNL     1     -12.007  10.703  62.309  1.00  0.00     0.000 HD 
ENDROOT
BRANCH   2   6
HETATM    6  C   UNL     1     -12.603  12.851  64.881  1.00  0.00    -0.458 C  
HETATM    7  H   UNL     1     -13.133  14.744  64.683  1.00  0.00     0.000 HD 
HETATM    8  O   UNL     1     -12.627  14.109  64.191  1.00  0.00    -0.684 OA 
BRANCH   6   9
HETATM    9  C   UNL     1     -12.110  13.039  66.303  1.00  0.00    -0.453 A  
HETATM   10  C   UNL     1     -12.280  14.257  66.984  1.00  0.00    -0.338 A  
HETATM   11  C   UNL     1     -11.780  14.413  68.273  1.00  0.00    -0.341 A  
HETATM   12  C   UNL     1     -11.117  13.373  68.911  1.00  0.00    -0.307 A  
HETATM   13  O   UNL     1     -11.915  15.592  68.946  1.00  0.00    -0.493 OA 
HETATM   14  C   UNL     1     -10.940  12.160  68.248  1.00  0.00    -0.273 A  
HETATM   15  H   UNL     1     -11.574  15.698  69.826  1.00  0.00     0.000 HD 
HETATM   16  C   UNL     1     -11.430  11.995  66.950  1.00  0.00    -0.402 A  
ENDBRANCH   6   9
ENDBRANCH   2   6
TORSDOF 2
ENDMDL
MODEL       20
REMARK 921   NORMALIZED FREE ENERGY PREDICTED BY IDOCK:   -4.78 KCAL/MOL
REMARK 922        TOTAL FREE ENERGY PREDICTED BY IDOCK:   -5.54 KCAL/MOL
REMARK 923 INTER-LIGAND FREE ENERGY PREDICTED BY IDOCK:   -5.60 KCAL/MOL
REMARK 924 INTRA-LIGAND FREE ENERGY PREDICTED BY IDOCK:    0.07 KCAL/MOL
REMARK 927      BINDING AFFINITY PREDICTED BY RF-SCORE:    0.00 PKD
ROOT
HETATM    1  C   UNL     1     -10.558  17.757  66.009  1.00  0.00    -0.229 C  
HETATM    2  C   UNL     1     -10.629  16.396  65.308  1.00  0.00    -0.299 C  
HETATM    3  N   UNL     1     -11.337  16.571  64.022  1.00  0.00    -1.559 NA 
HETATM    4  H1  UNL     1     -11.383  15.665  63.556  1.00  0.00     0.000 HD 
HETATM    5  H2  UNL     1     -10.916  17.292  63.437  1.00  0.00     0.000 HD 
ENDROOT
BRANCH   2   6
HETATM    6  C   UNL     1     -11.334  15.299  66.165  1.00  0.00    -0.160 C  
HETATM    7  H   UNL     1     -11.299  14.686  68.043  1.00  0.00     0.000 HD 
HETATM    8  O   UNL     1     -10.870  15.353  67.522  1.00  0.00    -0.292 OA 
BRANCH   6   9
HETATM    9  C   UNL     1     -11.163  13.900  65.605  1.00  0.00    -0.306 A  
HETATM   10  C   UNL     1     -11.913  13.453  64.503  1.00  0.00    -0.452 A  
HETATM   11  C   UNL     1     -11.764  12.150  64.038  1.00  0.00    -0.430 A  
HETATM   12  C   UNL     1     -10.871  11.275  64.642  1.00  0.00    -0.335 A  
HETATM   13  O   UNL     1     -12.496  11.688  62.984  1.00  0.00    -0.972 OA 
HETATM   14  C   UNL     1     -10.121  11.705  65.735  1.00  0.00    -0.278 A  
HETATM   15  H   UNL     1     -12.394  10.799  62.666  1.00  0.00     0.000 HD 
HETATM   16  C   UNL     1     -10.268  13.007  66.217  1.00  0.00    -0.291 A  
ENDBRANCH   6   9
ENDBRANCH   2   6
TORSDOF 2
ENDMDL
MODEL       21
REMARK 921   NORMALIZED FREE ENERGY PREDICTED BY IDOCK:   -4.75 KCAL/MOL
REMARK 922        TOTAL FREE ENERGY PREDICTED BY IDOCK:   -5.51 KCAL/MOL
REMARK 923 INTER-LIGAND FREE ENERGY PREDICTED BY IDOCK:   -5.56 KCAL/MOL
REMARK 924 INTRA-LIGAND FREE ENERGY PREDICTED BY IDOCK:    0.04 KCAL/MOL
REMARK 927      BINDING AFFINITY PREDICTED BY RF-SCORE:    0.00 PKD
ROOT
HETATM    1  C   UNL     1     -13.664  13.529  72.431  1.00  0.00    -0.704 C  
HETATM    2  C   UNL     1     -13.193  14.849  71.813  1.00  0.00    -0.349 C  
HETATM    3  N   UNL     1     -14.206  15.290  70.830  1.00  0.00    -0.820 NA 
HETATM    4  H1  UNL     1     -13.893  16.170  70.419  1.00  0.00     0.000 HD 
HETATM    5  H2  UNL     1     -15.140  15.356  71.232  1.00  0.00     0.000 HD 
ENDROOT
BRANCH   2   6
HETATM    6  C   UNL     1     -11.793  14.746  71.132  1.00  0.00    -0.334 C  
HETATM    7  H   UNL     1     -10.355  15.985  70.584  1.00  0.00     0.000 HD 
HETATM    8  O   UNL     1     -11.207  16.049  70.999  1.00  0.00    -0.361 OA 
BRANCH   6   9
HETATM    9  C   UNL     1     -11.831  14.045  69.787  1.00  0.00    -0.385 A  
HETATM   10  C   UNL     1     -11.865  12.643  69.690  1.00  0.00    -0.379 A  
HETATM   11  C   UNL     1     -11.858  12.028  68.442  1.00  0.00    -0.300 A  
HETATM   12  C   UNL     1     -11.828  12.782  67.276  1.00  0.00    -0.414 A  
HETATM   13  O   UNL     1     -11.868  10.669  68.323  1.00  0.00    -0.731 OA 
HETATM   14  C   UNL     1     -11.794  14.172  67.357  1.00  0.00    -0.447 A  
HETATM   15  H   UNL     1     -11.864  10.250  67.472  1.00  0.00     0.000 HD 
HETATM   16  C   UNL     1     -11.792  14.801  68.604  1.00  0.00    -0.334 A  
ENDBRANCH   6   9
ENDBRANCH   2   6
TORSDOF 2
ENDMDL
MODEL       22
REMARK 921   NORMALIZED FREE ENERGY PREDICTED BY IDOCK:   -4.69 KCAL/MOL
REMARK 922        TOTAL FREE ENERGY PREDICTED BY IDOCK:   -5.45 KCAL/MOL
REMARK 923 INTER-LIGAND FREE ENERGY PREDICTED BY IDOCK:   -5.28 KCAL/MOL
REMARK 924 INTRA-LIGAND FREE ENERGY PREDICTED BY IDOCK:   -0.17 KCAL/MOL
REMARK 927      BINDING AFFINITY PREDICTED BY RF-SCORE:    0.00 PKD
ROOT
HETATM    1  C   UNL     1     -11.906  12.979  69.643  1.00  0.00    -0.385 C  
HETATM    2  C   UNL     1     -11.903  12.301  68.269  1.00  0.00    -0.310 C  
HETATM    3  N   UNL     1     -12.097  10.849  68.467  1.00  0.00    -0.812 NA 
HETATM    4  H1  UNL     1     -12.095  10.397  67.552  1.00  0.00     0.000 HD 
HETATM    5  H2  UNL     1     -12.934  10.635  69.008  1.00  0.00     0.000 HD 
ENDROOT
BRANCH   2   6
HETATM    6  C   UNL     1     -10.596  12.562  67.457  1.00  0.00    -0.220 C  
HETATM    7  H   UNL     1      -9.328  14.055  67.198  1.00  0.00     0.000 HD 
HETATM    8  O   UNL     1     -10.123  13.896  67.692  1.00  0.00    -0.236 OA 
BRANCH   6   9
HETATM    9  C   UNL     1     -10.756  12.315  65.969  1.00  0.00    -0.296 A  
HETATM   10  C   UNL     1     -11.504  13.183  65.156  1.00  0.00    -0.327 A  
HETATM   11  C   UNL     1     -11.667  12.907  63.802  1.00  0.00    -0.492 A  
HETATM   12  C   UNL     1     -11.088  11.782  63.229  1.00  0.00    -0.370 A  
HETATM   13  O   UNL     1     -12.406  13.723  62.998  1.00  0.00    -1.089 OA 
HETATM   14  C   UNL     1     -10.343  10.912  64.024  1.00  0.00    -0.417 A  
HETATM   15  H   UNL     1     -12.517  13.535  62.074  1.00  0.00     0.000 HD 
HETATM   16  C   UNL     1     -10.180  11.174  65.386  1.00  0.00    -0.327 A  
ENDBRANCH   6   9
ENDBRANCH   2   6
TORSDOF 2
ENDMDL
MODEL       23
REMARK 921   NORMALIZED FREE ENERGY PREDICTED BY IDOCK:   -4.69 KCAL/MOL
REMARK 922        TOTAL FREE ENERGY PREDICTED BY IDOCK:   -5.44 KCAL/MOL
REMARK 923 INTER-LIGAND FREE ENERGY PREDICTED BY IDOCK:   -5.27 KCAL/MOL
REMARK 924 INTRA-LIGAND FREE ENERGY PREDICTED BY IDOCK:   -0.18 KCAL/MOL
REMARK 927      BINDING AFFINITY PREDICTED BY RF-SCORE:    0.00 PKD
ROOT
HETATM    1  C   UNL     1      -9.948  14.379  67.330  1.00  0.00    -0.247 C  
HETATM    2  C   UNL     1     -11.244  14.212  68.130  1.00  0.00    -0.276 C  
HETATM    3  N   UNL     1     -12.386  14.425  67.216  1.00  0.00    -0.594 NA 
HETATM    4  H1  UNL     1     -13.249  14.313  67.749  1.00  0.00     0.000 HD 
HETATM    5  H2  UNL     1     -12.351  13.820  66.397  1.00  0.00     0.000 HD 
ENDROOT
BRANCH   2   6
HETATM    6  C   UNL     1     -11.343  15.181  69.349  1.00  0.00    -0.294 C  
HETATM    7  H   UNL     1     -10.098  16.027  70.629  1.00  0.00     0.000 HD 
HETATM    8  O   UNL     1     -10.038  15.437  69.888  1.00  0.00    -0.277 OA 
BRANCH   6   9
HETATM    9  C   UNL     1     -12.274  14.682  70.437  1.00  0.00    -0.391 A  
HETATM   10  C   UNL     1     -12.306  13.327  70.812  1.00  0.00    -0.425 A  
HETATM   11  C   UNL     1     -13.200  12.892  71.785  1.00  0.00    -0.384 A  
HETATM   12  C   UNL     1     -14.065  13.783  72.408  1.00  0.00    -0.593 A  
HETATM   13  O   UNL     1     -13.265  11.579  72.150  1.00  0.00    -0.576 OA 
HETATM   14  C   UNL     1     -14.044  15.128  72.046  1.00  0.00    -0.659 A  
HETATM   15  H   UNL     1     -13.875  11.283  72.814  1.00  0.00     0.000 HD 
HETATM   16  C   UNL     1     -13.157  15.576  71.065  1.00  0.00    -0.551 A  
ENDBRANCH   6   9
ENDBRANCH   2   6
TORSDOF 2
ENDMDL
MODEL       24
REMARK 921   NORMALIZED FREE ENERGY PREDICTED BY IDOCK:   -4.69 KCAL/MOL
REMARK 922        TOTAL FREE ENERGY PREDICTED BY IDOCK:   -5.44 KCAL/MOL
REMARK 923 INTER-LIGAND FREE ENERGY PREDICTED BY IDOCK:   -5.27 KCAL/MOL
REMARK 924 INTRA-LIGAND FREE ENERGY PREDICTED BY IDOCK:   -0.17 KCAL/MOL
REMARK 927      BINDING AFFINITY PREDICTED BY RF-SCORE:    0.00 PKD
ROOT
HETATM    1  C   UNL     1      -9.348  16.551  68.210  1.00  0.00    -0.217 C  
HETATM    2  C   UNL     1      -9.652  15.568  69.345  1.00  0.00    -0.279 C  
HETATM    3  N   UNL     1      -8.695  14.445  69.257  1.00  0.00    -0.379 NA 
HETATM    4  H1  UNL     1      -8.897  13.791  70.013  1.00  0.00     0.000 HD 
HETATM    5  H2  UNL     1      -7.724  14.756  69.258  1.00  0.00     0.000 HD 
ENDROOT
BRANCH   2   6
HETATM    6  C   UNL     1     -11.116  15.029  69.315  1.00  0.00    -0.272 C  
HETATM    7  H   UNL     1     -12.801  15.468  68.381  1.00  0.00     0.000 HD 
HETATM    8  O   UNL     1     -11.911  15.796  68.399  1.00  0.00    -0.338 OA 
BRANCH   6   9
HETATM    9  C   UNL     1     -11.771  14.999  70.683  1.00  0.00    -0.357 A  
HETATM   10  C   UNL     1     -12.633  13.955  71.062  1.00  0.00    -0.444 A  
HETATM   11  C   UNL     1     -13.252  13.976  72.308  1.00  0.00    -0.464 A  
HETATM   12  C   UNL     1     -13.023  15.015  73.200  1.00  0.00    -0.631 A  
HETATM   13  O   UNL     1     -14.109  12.985  72.689  1.00  0.00    -0.726 OA 
HETATM   14  C   UNL     1     -12.171  16.057  72.838  1.00  0.00    -0.621 A  
HETATM   15  H   UNL     1     -14.531  13.000  73.539  1.00  0.00     0.000 HD 
HETATM   16  C   UNL     1     -11.551  16.052  71.586  1.00  0.00    -0.538 A  
ENDBRANCH   6   9
ENDBRANCH   2   6
TORSDOF 2
ENDMDL
MODEL       25
REMARK 921   NORMALIZED FREE ENERGY PREDICTED BY IDOCK:   -4.64 KCAL/MOL
REMARK 922        TOTAL FREE ENERGY PREDICTED BY IDOCK:   -5.39 KCAL/MOL
REMARK 923 INTER-LIGAND FREE ENERGY PREDICTED BY IDOCK:   -5.22 KCAL/MOL
REMARK 924 INTRA-LIGAND FREE ENERGY PREDICTED BY IDOCK:   -0.17 KCAL/MOL
REMARK 927      BINDING AFFINITY PREDICTED BY RF-SCORE:    0.00 PKD
ROOT
HETATM    1  C   UNL     1     -12.160  13.479  63.592  1.00  0.00    -0.459 C  
HETATM    2  C   UNL     1     -12.100  14.687  64.532  1.00  0.00    -0.475 C  
HETATM    3  N   UNL     1     -12.179  15.917  63.715  1.00  0.00    -1.141 NA 
HETATM    4  H1  UNL     1     -12.140  16.721  64.341  1.00  0.00     0.000 HD 
HETATM    5  H2  UNL     1     -12.998  15.932  63.108  1.00  0.00     0.000 HD 
ENDROOT
BRANCH   2   6
HETATM    6  C   UNL     1     -10.817  14.714  65.419  1.00  0.00    -0.356 C  
HETATM    7  H   UNL     1      -9.326  13.488  65.844  1.00  0.00     0.000 HD 
HETATM    8  O   UNL     1     -10.108  13.472  65.305  1.00  0.00    -0.303 OA 
BRANCH   6   9
HETATM    9  C   UNL     1     -11.102  15.025  66.876  1.00  0.00    -0.331 A  
HETATM   10  C   UNL     1     -10.751  16.262  67.445  1.00  0.00    -0.287 A  
HETATM   11  C   UNL     1     -10.987  16.504  68.794  1.00  0.00    -0.330 A  
HETATM   12  C   UNL     1     -11.580  15.538  69.598  1.00  0.00    -0.359 A  
HETATM   13  O   UNL     1     -10.636  17.688  69.373  1.00  0.00    -0.404 OA 
HETATM   14  C   UNL     1     -11.933  14.308  69.048  1.00  0.00    -0.360 A  
HETATM   15  H   UNL     1     -10.798  17.852  70.294  1.00  0.00     0.000 HD 
HETATM   16  C   UNL     1     -11.693  14.050  67.696  1.00  0.00    -0.412 A  
ENDBRANCH   6   9
ENDBRANCH   2   6
TORSDOF 2
ENDMDL
MODEL       26
REMARK 921   NORMALIZED FREE ENERGY PREDICTED BY IDOCK:   -4.64 KCAL/MOL
REMARK 922        TOTAL FREE ENERGY PREDICTED BY IDOCK:   -5.38 KCAL/MOL
REMARK 923 INTER-LIGAND FREE ENERGY PREDICTED BY IDOCK:   -5.20 KCAL/MOL
REMARK 924 INTRA-LIGAND FREE ENERGY PREDICTED BY IDOCK:   -0.18 KCAL/MOL
REMARK 927      BINDING AFFINITY PREDICTED BY RF-SCORE:    0.00 PKD
ROOT
HETATM    1  C   UNL     1     -11.841   8.121  72.340  1.00  0.00    -0.448 C  
HETATM    2  C   UNL     1     -12.797   9.191  71.804  1.00  0.00    -0.377 C  
HETATM    3  N   UNL     1     -13.969   8.514  71.210  1.00  0.00    -0.603 NA 
HETATM    4  H1  UNL     1     -14.606   9.226  70.854  1.00  0.00     0.000 HD 
HETATM    5  H2  UNL     1     -14.423   7.873  71.861  1.00  0.00     0.000 HD 
ENDROOT
BRANCH   2   6
HETATM    6  C   UNL     1     -12.135  10.137  70.754  1.00  0.00    -0.343 C  
HETATM    7  H   UNL     1     -10.306  10.567  70.145  1.00  0.00     0.000 HD 
HETATM    8  O   UNL     1     -10.708   9.992  70.784  1.00  0.00    -0.303 OA 
BRANCH   6   9
HETATM    9  C   UNL     1     -12.521  11.593  70.932  1.00  0.00    -0.440 A  
HETATM   10  C   UNL     1     -12.146  12.571  69.995  1.00  0.00    -0.337 A  
HETATM   11  C   UNL     1     -12.479  13.906  70.205  1.00  0.00    -0.314 A  
HETATM   12  C   UNL     1     -13.193  14.293  71.332  1.00  0.00    -0.419 A  
HETATM   13  O   UNL     1     -12.107  14.876  69.321  1.00  0.00    -0.431 OA 
HETATM   14  C   UNL     1     -13.571  13.334  72.270  1.00  0.00    -0.703 A  
HETATM   15  H   UNL     1     -12.335  15.786  69.466  1.00  0.00     0.000 HD 
HETATM   16  C   UNL     1     -13.235  11.992  72.073  1.00  0.00    -0.481 A  
ENDBRANCH   6   9
ENDBRANCH   2   6
TORSDOF 2
ENDMDL
MODEL       27
REMARK 921   NORMALIZED FREE ENERGY PREDICTED BY IDOCK:   -4.64 KCAL/MOL
REMARK 922        TOTAL FREE ENERGY PREDICTED BY IDOCK:   -5.38 KCAL/MOL
REMARK 923 INTER-LIGAND FREE ENERGY PREDICTED BY IDOCK:   -5.19 KCAL/MOL
REMARK 924 INTRA-LIGAND FREE ENERGY PREDICTED BY IDOCK:   -0.19 KCAL/MOL
REMARK 927      BINDING AFFINITY PREDICTED BY RF-SCORE:    0.00 PKD
ROOT
HETATM    1  C   UNL     1     -11.238  15.592  64.748  1.00  0.00    -0.399 C  
HETATM    2  C   UNL     1     -11.584  14.120  64.500  1.00  0.00    -0.389 C  
HETATM    3  N   UNL     1     -12.508  14.047  63.348  1.00  0.00    -1.123 NA 
HETATM    4  H1  UNL     1     -12.738  13.067  63.183  1.00  0.00     0.000 HD 
HETATM    5  H2  UNL     1     -12.137  14.508  62.518  1.00  0.00     0.000 HD 
ENDROOT
BRANCH   2   6
HETATM    6  C   UNL     1     -12.219  13.420  65.742  1.00  0.00    -0.458 C  
HETATM    7  H   UNL     1     -12.621  13.889  67.619  1.00  0.00     0.000 HD 
HETATM    8  O   UNL     1     -12.235  14.315  66.863  1.00  0.00    -0.438 OA 
BRANCH   6   9
HETATM    9  C   UNL     1     -11.529  12.121  66.115  1.00  0.00    -0.429 A  
HETATM   10  C   UNL     1     -11.717  11.526  67.374  1.00  0.00    -0.231 A  
HETATM   11  C   UNL     1     -11.039  10.356  67.703  1.00  0.00    -0.293 A  
HETATM   12  C   UNL     1     -10.177   9.753  66.796  1.00  0.00    -0.300 A  
HETATM   13  O   UNL     1     -11.190   9.771  68.925  1.00  0.00    -0.425 OA 
HETATM   14  C   UNL     1      -9.981  10.333  65.544  1.00  0.00    -0.364 A  
HETATM   15  H   UNL     1     -10.727   8.973  69.149  1.00  0.00     0.000 HD 
HETATM   16  C   UNL     1     -10.649  11.512  65.206  1.00  0.00    -0.339 A  
ENDBRANCH   6   9
ENDBRANCH   2   6
TORSDOF 2
ENDMDL
MODEL       28
REMARK 921   NORMALIZED FREE ENERGY PREDICTED BY IDOCK:   -4.57 KCAL/MOL
REMARK 922        TOTAL FREE ENERGY PREDICTED BY IDOCK:   -5.31 KCAL/MOL
REMARK 923 INTER-LIGAND FREE ENERGY PREDICTED BY IDOCK:   -5.12 KCAL/MOL
REMARK 924 INTRA-LIGAND FREE ENERGY PREDICTED BY IDOCK:   -0.19 KCAL/MOL
REMARK 927      BINDING AFFINITY PREDICTED BY RF-SCORE:    0.00 PKD
ROOT
HETATM    1  C   UNL     1     -12.202  15.576  72.685  1.00  0.00    -0.521 C  
HETATM    2  C   UNL     1     -12.447  14.871  71.347  1.00  0.00    -0.337 C  
HETATM    3  N   UNL     1     -12.987  15.860  70.391  1.00  0.00    -0.710 NA 
HETATM    4  H1  UNL     1     -13.150  15.391  69.500  1.00  0.00     0.000 HD 
HETATM    5  H2  UNL     1     -12.391  16.682  70.298  1.00  0.00     0.000 HD 
ENDROOT
BRANCH   2   6
HETATM    6  C   UNL     1     -13.414  13.652  71.463  1.00  0.00    -0.260 C  
HETATM    7  H   UNL     1     -14.545  12.830  72.859  1.00  0.00     0.000 HD 
HETATM    8  O   UNL     1     -13.955  13.571  72.789  1.00  0.00    -0.733 OA 
BRANCH   6   9
HETATM    9  C   UNL     1     -12.769  12.335  71.075  1.00  0.00    -0.319 A  
HETATM   10  C   UNL     1     -11.925  12.232  69.956  1.00  0.00    -0.379 A  
HETATM   11  C   UNL     1     -11.380  11.002  69.601  1.00  0.00    -0.292 A  
HETATM   12  C   UNL     1     -11.649   9.862  70.348  1.00  0.00    -0.356 A  
HETATM   13  O   UNL     1     -10.576  10.873  68.508  1.00  0.00    -0.170 OA 
HETATM   14  C   UNL     1     -12.484   9.949  71.460  1.00  0.00    -0.506 A  
HETATM   15  H   UNL     1     -10.205  10.034  68.266  1.00  0.00     0.000 HD 
HETATM   16  C   UNL     1     -13.044  11.177  71.821  1.00  0.00    -0.536 A  
ENDBRANCH   6   9
ENDBRANCH   2   6
TORSDOF 2
ENDMDL
MODEL       29
REMARK 921   NORMALIZED FREE ENERGY PREDICTED BY IDOCK:   -4.55 KCAL/MOL
REMARK 922        TOTAL FREE ENERGY PREDICTED BY IDOCK:   -5.28 KCAL/MOL
REMARK 923 INTER-LIGAND FREE ENERGY PREDICTED BY IDOCK:   -5.21 KCAL/MOL
REMARK 924 INTRA-LIGAND FREE ENERGY PREDICTED BY IDOCK:   -0.07 KCAL/MOL
REMARK 927      BINDING AFFINITY PREDICTED BY RF-SCORE:    0.00 PKD
ROOT
HETATM    1  C   UNL     1     -14.411  14.962  71.997  1.00  0.00    -0.651 C  
HETATM    2  C   UNL     1     -13.145  14.935  72.859  1.00  0.00    -0.488 C  
HETATM    3  N   UNL     1     -13.269  15.975  73.902  1.00  0.00    -0.899 NA 
HETATM    4  H1  UNL     1     -12.426  15.957  74.476  1.00  0.00     0.000 HD 
HETATM    5  H2  UNL     1     -14.121  15.877  74.453  1.00  0.00     0.000 HD 
ENDROOT
BRANCH   2   6
HETATM    6  C   UNL     1     -11.837  15.154  72.037  1.00  0.00    -0.416 C  
HETATM    7  H   UNL     1     -10.815  16.687  71.324  1.00  0.00     0.000 HD 
HETATM    8  O   UNL     1     -11.611  16.555  71.824  1.00  0.00    -0.415 OA 
BRANCH   6   9
HETATM    9  C   UNL     1     -11.829  14.412  70.713  1.00  0.00    -0.349 A  
HETATM   10  C   UNL     1     -11.659  15.089  69.493  1.00  0.00    -0.337 A  
HETATM   11  C   UNL     1     -11.698  14.387  68.292  1.00  0.00    -0.341 A  
HETATM   12  C   UNL     1     -11.894  13.012  68.277  1.00  0.00    -0.381 A  
HETATM   13  O   UNL     1     -11.556  15.025  67.095  1.00  0.00    -0.342 OA 
HETATM   14  C   UNL     1     -12.065  12.328  69.479  1.00  0.00    -0.260 A  
HETATM   15  H   UNL     1     -11.583  14.545  66.276  1.00  0.00     0.000 HD 
HETATM   16  C   UNL     1     -12.037  13.023  70.690  1.00  0.00    -0.333 A  
ENDBRANCH   6   9
ENDBRANCH   2   6
TORSDOF 2
ENDMDL
MODEL       30
REMARK 921   NORMALIZED FREE ENERGY PREDICTED BY IDOCK:   -4.54 KCAL/MOL
REMARK 922        TOTAL FREE ENERGY PREDICTED BY IDOCK:   -5.27 KCAL/MOL
REMARK 923 INTER-LIGAND FREE ENERGY PREDICTED BY IDOCK:   -5.08 KCAL/MOL
REMARK 924 INTRA-LIGAND FREE ENERGY PREDICTED BY IDOCK:   -0.19 KCAL/MOL
REMARK 927      BINDING AFFINITY PREDICTED BY RF-SCORE:    0.00 PKD
ROOT
HETATM    1  C   UNL     1     -10.497  18.716  66.268  1.00  0.00    -0.468 C  
HETATM    2  C   UNL     1      -9.858  17.325  66.320  1.00  0.00    -0.285 C  
HETATM    3  N   UNL     1      -8.396  17.478  66.163  1.00  0.00    -0.489 NA 
HETATM    4  H1  UNL     1      -7.970  16.552  66.198  1.00  0.00     0.000 HD 
HETATM    5  H2  UNL     1      -7.994  18.120  66.845  1.00  0.00     0.000 HD 
ENDROOT
BRANCH   2   6
HETATM    6  C   UNL     1     -10.414  16.351  65.235  1.00  0.00    -0.261 C  
HETATM    7  H   UNL     1     -11.737  16.423  63.769  1.00  0.00     0.000 HD 
HETATM    8  O   UNL     1     -11.399  17.015  64.429  1.00  0.00    -1.140 OA 
BRANCH   6   9
HETATM    9  C   UNL     1     -10.984  15.070  65.815  1.00  0.00    -0.351 A  
HETATM   10  C   UNL     1     -10.589  14.597  67.077  1.00  0.00    -0.280 A  
HETATM   11  C   UNL     1     -11.099  13.397  67.565  1.00  0.00    -0.274 A  
HETATM   12  C   UNL     1     -12.009  12.655  66.823  1.00  0.00    -0.362 A  
HETATM   13  O   UNL     1     -10.715  12.907  68.778  1.00  0.00    -0.247 OA 
HETATM   14  C   UNL     1     -12.409  13.113  65.569  1.00  0.00    -0.529 A  
HETATM   15  H   UNL     1     -11.062  12.088  69.111  1.00  0.00     0.000 HD 
HETATM   16  C   UNL     1     -11.898  14.311  65.065  1.00  0.00    -0.396 A  
ENDBRANCH   6   9
ENDBRANCH   2   6
TORSDOF 2
ENDMDL
MODEL       31
REMARK 921   NORMALIZED FREE ENERGY PREDICTED BY IDOCK:   -4.54 KCAL/MOL
REMARK 922        TOTAL FREE ENERGY PREDICTED BY IDOCK:   -5.27 KCAL/MOL
REMARK 923 INTER-LIGAND FREE ENERGY PREDICTED BY IDOCK:   -5.09 KCAL/MOL
REMARK 924 INTRA-LIGAND FREE ENERGY PREDICTED BY IDOCK:   -0.18 KCAL/MOL
REMARK 927      BINDING AFFINITY PREDICTED BY RF-SCORE:    0.00 PKD
ROOT
HETATM    1  C   UNL     1     -10.035  13.454  66.714  1.00  0.00    -0.264 C  
HETATM    2  C   UNL     1     -10.099  13.170  68.218  1.00  0.00    -0.247 C  
HETATM    3  N   UNL     1      -8.730  12.884  68.696  1.00  0.00    -0.372 NA 
HETATM    4  H1  UNL     1      -8.772  12.695  69.698  1.00  0.00     0.000 HD 
HETATM    5  H2  UNL     1      -8.070  13.626  68.465  1.00  0.00     0.000 HD 
ENDROOT
BRANCH   2   6
HETATM    6  C   UNL     1     -11.052  11.989  68.581  1.00  0.00    -0.250 C  
HETATM    7  H   UNL     1     -12.508  10.982  67.703  1.00  0.00     0.000 HD 
HETATM    8  O   UNL     1     -11.928  11.701  67.482  1.00  0.00    -0.622 OA 
BRANCH   6   9
HETATM    9  C   UNL     1     -11.854  12.233  69.845  1.00  0.00    -0.383 A  
HETATM   10  C   UNL     1     -12.364  11.168  70.608  1.00  0.00    -0.482 A  
HETATM   11  C   UNL     1     -13.131  11.423  71.740  1.00  0.00    -0.418 A  
HETATM   12  C   UNL     1     -13.398  12.725  72.142  1.00  0.00    -0.593 A  
HETATM   13  O   UNL     1     -13.654  10.406  72.484  1.00  0.00    -0.581 OA 
HETATM   14  C   UNL     1     -12.899  13.791  71.395  1.00  0.00    -0.449 A  
HETATM   15  H   UNL     1     -14.177  10.581  73.257  1.00  0.00     0.000 HD 
HETATM   16  C   UNL     1     -12.135  13.547  70.251  1.00  0.00    -0.425 A  
ENDBRANCH   6   9
ENDBRANCH   2   6
TORSDOF 2
ENDMDL
MODEL       32
REMARK 921   NORMALIZED FREE ENERGY PREDICTED BY IDOCK:   -4.53 KCAL/MOL
REMARK 922        TOTAL FREE ENERGY PREDICTED BY IDOCK:   -5.26 KCAL/MOL
REMARK 923 INTER-LIGAND FREE ENERGY PREDICTED BY IDOCK:   -5.09 KCAL/MOL
REMARK 924 INTRA-LIGAND FREE ENERGY PREDICTED BY IDOCK:   -0.17 KCAL/MOL
REMARK 927      BINDING AFFINITY PREDICTED BY RF-SCORE:    0.00 PKD
ROOT
HETATM    1  C   UNL     1     -11.040  15.357  70.856  1.00  0.00    -0.374 C  
HETATM    2  C   UNL     1     -12.079  15.373  69.730  1.00  0.00    -0.347 C  
HETATM    3  N   UNL     1     -13.425  15.407  70.339  1.00  0.00    -0.754 NA 
HETATM    4  H1  UNL     1     -14.117  15.419  69.589  1.00  0.00     0.000 HD 
HETATM    5  H2  UNL     1     -13.542  16.182  70.990  1.00  0.00     0.000 HD 
ENDROOT
BRANCH   2   6
HETATM    6  C   UNL     1     -11.957  14.154  68.764  1.00  0.00    -0.332 C  
HETATM    7  H   UNL     1     -10.867  12.511  68.638  1.00  0.00     0.000 HD 
HETATM    8  O   UNL     1     -10.941  13.253  69.226  1.00  0.00    -0.196 OA 
BRANCH   6   9
HETATM    9  C   UNL     1     -11.692  14.554  67.325  1.00  0.00    -0.429 A  
HETATM   10  C   UNL     1     -12.370  13.943  66.256  1.00  0.00    -0.489 A  
HETATM   11  C   UNL     1     -12.076  14.301  64.944  1.00  0.00    -0.435 A  
HETATM   12  C   UNL     1     -11.121  15.271  64.668  1.00  0.00    -0.346 A  
HETATM   13  O   UNL     1     -12.706  13.708  63.890  1.00  0.00    -0.675 OA 
HETATM   14  C   UNL     1     -10.440  15.884  65.717  1.00  0.00    -0.386 A  
HETATM   15  H   UNL     1     -12.505  13.953  62.995  1.00  0.00     0.000 HD 
HETATM   16  C   UNL     1     -10.720  15.527  67.038  1.00  0.00    -0.321 A  
ENDBRANCH   6   9
ENDBRANCH   2   6
TORSDOF 2
ENDMDL
MODEL       33
REMARK 921   NORMALIZED FREE ENERGY PREDICTED BY IDOCK:   -4.49 KCAL/MOL
REMARK 922        TOTAL FREE ENERGY PREDICTED BY IDOCK:   -5.22 KCAL/MOL
REMARK 923 INTER-LIGAND FREE ENERGY PREDICTED BY IDOCK:   -5.05 KCAL/MOL
REMARK 924 INTRA-LIGAND FREE ENERGY PREDICTED BY IDOCK:   -0.17 KCAL/MOL
REMARK 927      BINDING AFFINITY PREDICTED BY RF-SCORE:    0.00 PKD
ROOT
HETATM    1  C   UNL     1      -9.774  10.345  68.658  1.00  0.00    -0.178 C  
HETATM    2  C   UNL     1      -9.851  11.722  67.990  1.00  0.00    -0.183 C  
HETATM    3  N   UNL     1      -9.156  12.699  68.854  1.00  0.00    -0.367 NA 
HETATM    4  H1  UNL     1      -9.207  13.615  68.409  1.00  0.00     0.000 HD 
HETATM    5  H2  UNL     1      -8.199  12.421  69.070  1.00  0.00     0.000 HD 
ENDROOT
BRANCH   2   6
HETATM    6  C   UNL     1     -11.313  12.191  67.716  1.00  0.00    -0.307 C  
HETATM    7  H   UNL     1     -13.136  11.479  67.986  1.00  0.00     0.000 HD 
HETATM    8  O   UNL     1     -12.247  11.193  68.152  1.00  0.00    -0.612 OA 
BRANCH   6   9
HETATM    9  C   UNL     1     -11.566  12.550  66.264  1.00  0.00    -0.449 A  
HETATM   10  C   UNL     1     -11.258  11.657  65.223  1.00  0.00    -0.263 A  
HETATM   11  C   UNL     1     -11.463  12.030  63.898  1.00  0.00    -0.435 A  
HETATM   12  C   UNL     1     -11.981  13.279  63.581  1.00  0.00    -0.547 A  
HETATM   13  O   UNL     1     -11.153  11.188  62.871  1.00  0.00    -0.812 OA 
HETATM   14  C   UNL     1     -12.290  14.174  64.603  1.00  0.00    -0.432 A  
HETATM   15  H   UNL     1     -11.293  11.443  61.967  1.00  0.00     0.000 HD 
HETATM   16  C   UNL     1     -12.081  13.815  65.936  1.00  0.00    -0.464 A  
ENDBRANCH   6   9
ENDBRANCH   2   6
TORSDOF 2
ENDMDL
MODEL       34
REMARK 921   NORMALIZED FREE ENERGY PREDICTED BY IDOCK:   -4.46 KCAL/MOL
REMARK 922        TOTAL FREE ENERGY PREDICTED BY IDOCK:   -5.18 KCAL/MOL
REMARK 923 INTER-LIGAND FREE ENERGY PREDICTED BY IDOCK:   -5.00 KCAL/MOL
REMARK 924 INTRA-LIGAND FREE ENERGY PREDICTED BY IDOCK:   -0.18 KCAL/MOL
REMARK 927      BINDING AFFINITY PREDICTED BY RF-SCORE:    0.00 PKD
ROOT
HETATM    1  C   UNL     1     -11.322  12.450  65.394  1.00  0.00    -0.379 C  
HETATM    2  C   UNL     1     -12.237  13.367  66.211  1.00  0.00    -0.398 C  
HETATM    3  N   UNL     1     -13.184  14.024  65.286  1.00  0.00    -0.710 NA 
HETATM    4  H1  UNL     1     -13.794  14.635  65.830  1.00  0.00     0.000 HD 
HETATM    5  H2  UNL     1     -13.705  13.356  64.718  1.00  0.00     0.000 HD 
ENDROOT
BRANCH   2   6
HETATM    6  C   UNL     1     -11.456  14.441  67.031  1.00  0.00    -0.361 C  
HETATM    7  H   UNL     1      -9.574  14.990  67.274  1.00  0.00     0.000 HD 
HETATM    8  O   UNL     1     -10.048  14.336  66.775  1.00  0.00    -0.255 OA 
BRANCH   6   9
HETATM    9  C   UNL     1     -11.727  14.370  68.522  1.00  0.00    -0.370 A  
HETATM   10  C   UNL     1     -11.717  15.524  69.325  1.00  0.00    -0.380 A  
HETATM   11  C   UNL     1     -11.928  15.422  70.697  1.00  0.00    -0.356 A  
HETATM   12  C   UNL     1     -12.162  14.190  71.293  1.00  0.00    -0.419 A  
HETATM   13  O   UNL     1     -11.902  16.524  71.500  1.00  0.00    -0.655 OA 
HETATM   14  C   UNL     1     -12.174  13.038  70.508  1.00  0.00    -0.392 A  
HETATM   15  H   UNL     1     -12.046  16.455  72.436  1.00  0.00     0.000 HD 
HETATM   16  C   UNL     1     -11.955  13.126  69.132  1.00  0.00    -0.329 A  
ENDBRANCH   6   9
ENDBRANCH   2   6
TORSDOF 2
ENDMDL
MODEL       35
REMARK 921   NORMALIZED FREE ENERGY PREDICTED BY IDOCK:   -4.43 KCAL/MOL
REMARK 922        TOTAL FREE ENERGY PREDICTED BY IDOCK:   -5.15 KCAL/MOL
REMARK 923 INTER-LIGAND FREE ENERGY PREDICTED BY IDOCK:   -4.99 KCAL/MOL
REMARK 924 INTRA-LIGAND FREE ENERGY PREDICTED BY IDOCK:   -0.17 KCAL/MOL
REMARK 927      BINDING AFFINITY PREDICTED BY RF-SCORE:    0.00 PKD
ROOT
HETATM    1  C   UNL     1     -10.902  12.615  63.872  1.00  0.00    -0.468 C  
HETATM    2  C   UNL     1     -11.726  12.376  65.141  1.00  0.00    -0.382 C  
HETATM    3  N   UNL     1     -13.159  12.474  64.790  1.00  0.00    -0.814 NA 
HETATM    4  H1  UNL     1     -13.708  12.315  65.635  1.00  0.00     0.000 HD 
HETATM    5  H2  UNL     1     -13.420  11.848  64.029  1.00  0.00     0.000 HD 
ENDROOT
BRANCH   2   6
HETATM    6  C   UNL     1     -11.387  13.373  66.292  1.00  0.00    -0.306 C  
HETATM    7  H   UNL     1      -9.829  14.446  66.865  1.00  0.00     0.000 HD 
HETATM    8  O   UNL     1     -10.036  13.839  66.164  1.00  0.00    -0.293 OA 
BRANCH   6   9
HETATM    9  C   UNL     1     -11.615  12.792  67.675  1.00  0.00    -0.412 A  
HETATM   10  C   UNL     1     -11.806  13.618  68.796  1.00  0.00    -0.395 A  
HETATM   11  C   UNL     1     -11.972  13.056  70.058  1.00  0.00    -0.312 A  
HETATM   12  C   UNL     1     -11.962  11.678  70.232  1.00  0.00    -0.445 A  
HETATM   13  O   UNL     1     -12.139  13.838  71.164  1.00  0.00    -0.424 OA 
HETATM   14  C   UNL     1     -11.772  10.848  69.130  1.00  0.00    -0.397 A  
HETATM   15  H   UNL     1     -12.252  13.454  72.025  1.00  0.00     0.000 HD 
HETATM   16  C   UNL     1     -11.596  11.400  67.859  1.00  0.00    -0.337 A  
ENDBRANCH   6   9
ENDBRANCH   2   6
TORSDOF 2
ENDMDL
MODEL       36
REMARK 921   NORMALIZED FREE ENERGY PREDICTED BY IDOCK:   -4.43 KCAL/MOL
REMARK 922        TOTAL FREE ENERGY PREDICTED BY IDOCK:   -5.15 KCAL/MOL
REMARK 923 INTER-LIGAND FREE ENERGY PREDICTED BY IDOCK:   -5.12 KCAL/MOL
REMARK 924 INTRA-LIGAND FREE ENERGY PREDICTED BY IDOCK:   -0.03 KCAL/MOL
REMARK 927      BINDING AFFINITY PREDICTED BY RF-SCORE:    0.00 PKD
ROOT
HETATM    1  C   UNL     1     -10.472  19.585  67.421  1.00  0.00    -0.593 C  
HETATM    2  C   UNL     1      -9.509  18.537  67.985  1.00  0.00    -0.303 C  
HETATM    3  N   UNL     1      -8.597  19.207  68.937  1.00  0.00    -0.324 NA 
HETATM    4  H1  UNL     1      -7.956  18.509  69.313  1.00  0.00     0.000 HD 
HETATM    5  H2  UNL     1      -9.095  19.715  69.666  1.00  0.00     0.000 HD 
ENDROOT
BRANCH   2   6
HETATM    6  C   UNL     1      -8.687  17.799  66.883  1.00  0.00    -0.248 C  
HETATM    7  H   UNL     1      -7.696  18.290  65.245  1.00  0.00     0.000 HD 
HETATM    8  O   UNL     1      -8.196  18.739  65.916  1.00  0.00    -0.488 OA 
BRANCH   6   9
HETATM    9  C   UNL     1      -9.465  16.693  66.195  1.00  0.00    -0.319 A  
HETATM   10  C   UNL     1     -10.442  16.977  65.226  1.00  0.00    -0.056 A  
HETATM   11  C   UNL     1     -11.169  15.943  64.642  1.00  0.00    -0.351 A  
HETATM   12  C   UNL     1     -10.935  14.620  64.995  1.00  0.00    -0.415 A  
HETATM   13  O   UNL     1     -12.137  16.195  63.715  1.00  0.00    -1.355 OA 
HETATM   14  C   UNL     1      -9.969  14.325  65.955  1.00  0.00    -0.340 A  
HETATM   15  H   UNL     1     -12.632  15.489  63.317  1.00  0.00     0.000 HD 
HETATM   16  C   UNL     1      -9.240  15.354  66.554  1.00  0.00    -0.323 A  
ENDBRANCH   6   9
ENDBRANCH   2   6
TORSDOF 2
ENDMDL
MODEL       37
REMARK 921   NORMALIZED FREE ENERGY PREDICTED BY IDOCK:   -4.39 KCAL/MOL
REMARK 922        TOTAL FREE ENERGY PREDICTED BY IDOCK:   -5.10 KCAL/MOL
REMARK 923 INTER-LIGAND FREE ENERGY PREDICTED BY IDOCK:   -4.91 KCAL/MOL
REMARK 924 INTRA-LIGAND FREE ENERGY PREDICTED BY IDOCK:   -0.19 KCAL/MOL
REMARK 927      BINDING AFFINITY PREDICTED BY RF-SCORE:    0.00 PKD
ROOT
HETATM    1  C   UNL     1     -12.143  12.328  63.856  1.00  0.00    -0.598 C  
HETATM    2  C   UNL     1     -10.968  13.075  64.496  1.00  0.00    -0.358 C  
HETATM    3  N   UNL     1      -9.726  12.665  63.807  1.00  0.00    -0.665 NA 
HETATM    4  H1  UNL     1      -8.943  13.163  64.233  1.00  0.00     0.000 HD 
HETATM    5  H2  UNL     1      -9.774  12.801  62.798  1.00  0.00     0.000 HD 
ENDROOT
BRANCH   2   6
HETATM    6  C   UNL     1     -10.840  12.821  66.030  1.00  0.00    -0.276 C  
HETATM    7  H   UNL     1     -11.717  11.683  67.386  1.00  0.00     0.000 HD 
HETATM    8  O   UNL     1     -11.795  11.837  66.453  1.00  0.00    -0.534 OA 
BRANCH   6   9
HETATM    9  C   UNL     1     -10.980  14.083  66.860  1.00  0.00    -0.301 A  
HETATM   10  C   UNL     1     -11.803  14.124  67.999  1.00  0.00    -0.400 A  
HETATM   11  C   UNL     1     -11.944  15.308  68.718  1.00  0.00    -0.251 A  
HETATM   12  C   UNL     1     -11.271  16.460  68.332  1.00  0.00    -0.324 A  
HETATM   13  O   UNL     1     -12.753  15.378  69.813  1.00  0.00    -0.615 OA 
HETATM   14  C   UNL     1     -10.453  16.433  67.204  1.00  0.00    -0.297 A  
HETATM   15  H   UNL     1     -12.849  16.186  70.303  1.00  0.00     0.000 HD 
HETATM   16  C   UNL     1     -10.310  15.253  66.470  1.00  0.00    -0.289 A  
ENDBRANCH   6   9
ENDBRANCH   2   6
TORSDOF 2
ENDMDL
MODEL       38
REMARK 921   NORMALIZED FREE ENERGY PREDICTED BY IDOCK:   -4.37 KCAL/MOL
REMARK 922        TOTAL FREE ENERGY PREDICTED BY IDOCK:   -5.09 KCAL/MOL
REMARK 923 INTER-LIGAND FREE ENERGY PREDICTED BY IDOCK:   -5.00 KCAL/MOL
REMARK 924 INTRA-LIGAND FREE ENERGY PREDICTED BY IDOCK:   -0.08 KCAL/MOL
REMARK 927      BINDING AFFINITY PREDICTED BY RF-SCORE:    0.00 PKD
ROOT
HETATM    1  C   UNL     1     -10.160  12.103  67.671  1.00  0.00    -0.205 C  
HETATM    2  C   UNL     1     -10.598  10.862  68.455  1.00  0.00    -0.194 C  
HETATM    3  N   UNL     1     -10.931   9.794  67.489  1.00  0.00    -0.403 NA 
HETATM    4  H1  UNL     1     -11.222   8.967  68.011  1.00  0.00     0.000 HD 
HETATM    5  H2  UNL     1     -10.168   9.599  66.841  1.00  0.00     0.000 HD 
ENDROOT
BRANCH   2   6
HETATM    6  C   UNL     1     -11.811  11.128  69.399  1.00  0.00    -0.345 C  
HETATM    7  H   UNL     1     -12.483  12.621  70.506  1.00  0.00     0.000 HD 
HETATM    8  O   UNL     1     -11.744  12.459  69.931  1.00  0.00    -0.309 OA 
BRANCH   6   9
HETATM    9  C   UNL     1     -11.928  10.117  70.524  1.00  0.00    -0.400 A  
HETATM   10  C   UNL     1     -13.100  10.004  71.291  1.00  0.00    -0.493 A  
HETATM   11  C   UNL     1     -13.164   9.096  72.343  1.00  0.00    -0.444 A  
HETATM   12  C   UNL     1     -12.081   8.280  72.647  1.00  0.00    -0.326 A  
HETATM   13  O   UNL     1     -14.283   8.983  73.114  1.00  0.00    -1.142 OA 
HETATM   14  C   UNL     1     -10.912   8.382  71.895  1.00  0.00    -0.375 A  
HETATM   15  H   UNL     1     -14.326   8.363  73.832  1.00  0.00     0.000 HD 
HETATM   16  C   UNL     1     -10.834   9.296  70.842  1.00  0.00    -0.365 A  
ENDBRANCH   6   9
ENDBRANCH   2   6
TORSDOF 2
ENDMDL
MODEL       39
REMARK 921   NORMALIZED FREE ENERGY PREDICTED BY IDOCK:   -4.37 KCAL/MOL
REMARK 922        TOTAL FREE ENERGY PREDICTED BY IDOCK:   -5.08 KCAL/MOL
REMARK 923 INTER-LIGAND FREE ENERGY PREDICTED BY IDOCK:   -4.90 KCAL/MOL
REMARK 924 INTRA-LIGAND FREE ENERGY PREDICTED BY IDOCK:   -0.17 KCAL/MOL
REMARK 927      BINDING AFFINITY PREDICTED BY RF-SCORE:    0.00 PKD
ROOT
HETATM    1  C   UNL     1     -11.667  14.502  65.679  1.00  0.00    -0.335 C  
HETATM    2  C   UNL     1     -11.522  15.956  65.219  1.00  0.00     0.078 C  
HETATM    3  N   UNL     1     -11.832  16.021  63.775  1.00  0.00    -1.306 NA 
HETATM    4  H1  UNL     1     -11.735  16.990  63.470  1.00  0.00     0.000 HD 
HETATM    5  H2  UNL     1     -12.746  15.629  63.552  1.00  0.00     0.000 HD 
ENDROOT
BRANCH   2   6
HETATM    6  C   UNL     1     -10.104  16.548  65.491  1.00  0.00    -0.174 C  
HETATM    7  H   UNL     1      -8.322  15.861  65.999  1.00  0.00     0.000 HD 
HETATM    8  O   UNL     1      -9.185  15.501  65.834  1.00  0.00    -0.333 OA 
BRANCH   6   9
HETATM    9  C   UNL     1     -10.099  17.624  66.560  1.00  0.00    -0.350 A  
HETATM   10  C   UNL     1      -9.802  18.963  66.252  1.00  0.00    -0.401 A  
HETATM   11  C   UNL     1      -9.765  19.921  67.261  1.00  0.00    -0.387 A  
HETATM   12  C   UNL     1     -10.028  19.577  68.580  1.00  0.00    -0.538 A  
HETATM   13  O   UNL     1      -9.459  21.222  66.989  1.00  0.00    -0.609 OA 
HETATM   14  C   UNL     1     -10.323  18.253  68.900  1.00  0.00    -0.191 A  
HETATM   15  H   UNL     1      -9.433  21.876  67.678  1.00  0.00     0.000 HD 
HETATM   16  C   UNL     1     -10.355  17.281  67.898  1.00  0.00    -0.360 A  
ENDBRANCH   6   9
ENDBRANCH   2   6
TORSDOF 2
ENDMDL
MODEL       40
REMARK 921   NORMALIZED FREE ENERGY PREDICTED BY IDOCK:   -4.36 KCAL/MOL
REMARK 922        TOTAL FREE ENERGY PREDICTED BY IDOCK:   -5.08 KCAL/MOL
REMARK 923 INTER-LIGAND FREE ENERGY PREDICTED BY IDOCK:   -5.09 KCAL/MOL
REMARK 924 INTRA-LIGAND FREE ENERGY PREDICTED BY IDOCK:    0.01 KCAL/MOL
REMARK 927      BINDING AFFINITY PREDICTED BY RF-SCORE:    0.00 PKD
ROOT
HETATM    1  C   UNL     1     -11.861  12.415  69.746  1.00  0.00    -0.387 C  
HETATM    2  C   UNL     1     -11.063  11.278  69.100  1.00  0.00    -0.253 C  
HETATM    3  N   UNL     1     -11.976  10.499  68.238  1.00  0.00    -0.784 NA 
HETATM    4  H1  UNL     1     -11.445   9.743  67.808  1.00  0.00     0.000 HD 
HETATM    5  H2  UNL     1     -12.458  11.079  67.552  1.00  0.00     0.000 HD 
ENDROOT
BRANCH   2   6
HETATM    6  C   UNL     1     -10.377  10.340  70.142  1.00  0.00    -0.153 C  
HETATM    7  H   UNL     1      -8.808   9.140  70.195  1.00  0.00     0.000 HD 
HETATM    8  O   UNL     1      -9.226   9.711  69.561  1.00  0.00    -0.175 OA 
BRANCH   6   9
HETATM    9  C   UNL     1     -11.315   9.296  70.716  1.00  0.00    -0.349 A  
HETATM   10  C   UNL     1     -12.257   9.621  71.707  1.00  0.00    -0.464 A  
HETATM   11  C   UNL     1     -13.076   8.632  72.245  1.00  0.00    -0.372 A  
HETATM   12  C   UNL     1     -12.986   7.317  71.809  1.00  0.00    -0.368 A  
HETATM   13  O   UNL     1     -13.983   8.920  73.222  1.00  0.00    -1.203 OA 
HETATM   14  C   UNL     1     -12.056   6.980  70.827  1.00  0.00    -0.374 A  
HETATM   15  H   UNL     1     -14.542   8.245  73.589  1.00  0.00     0.000 HD 
HETATM   16  C   UNL     1     -11.222   7.962  70.286  1.00  0.00    -0.206 A  
ENDBRANCH   6   9
ENDBRANCH   2   6
TORSDOF 2
ENDMDL
MODEL       41
REMARK 921   NORMALIZED FREE ENERGY PREDICTED BY IDOCK:   -4.35 KCAL/MOL
REMARK 922        TOTAL FREE ENERGY PREDICTED BY IDOCK:   -5.07 KCAL/MOL
REMARK 923 INTER-LIGAND FREE ENERGY PREDICTED BY IDOCK:   -4.86 KCAL/MOL
REMARK 924 INTRA-LIGAND FREE ENERGY PREDICTED BY IDOCK:   -0.20 KCAL/MOL
REMARK 927      BINDING AFFINITY PREDICTED BY RF-SCORE:    0.00 PKD
ROOT
HETATM    1  C   UNL     1     -12.839  13.660  65.626  1.00  0.00    -0.425 C  
HETATM    2  C   UNL     1     -12.040  14.528  64.649  1.00  0.00    -0.473 C  
HETATM    3  N   UNL     1     -12.408  14.138  63.271  1.00  0.00    -1.133 NA 
HETATM    4  H1  UNL     1     -11.877  14.716  62.621  1.00  0.00     0.000 HD 
HETATM    5  H2  UNL     1     -13.413  14.184  63.106  1.00  0.00     0.000 HD 
ENDROOT
BRANCH   2   6
HETATM    6  C   UNL     1     -10.497  14.413  64.845  1.00  0.00    -0.423 C  
HETATM    7  H   UNL     1      -9.221  13.065  65.524  1.00  0.00     0.000 HD 
HETATM    8  O   UNL     1     -10.160  13.135  65.405  1.00  0.00    -0.289 OA 
BRANCH   6   9
HETATM    9  C   UNL     1      -9.915  15.528  65.692  1.00  0.00    -0.394 A  
HETATM   10  C   UNL     1     -10.541  16.784  65.783  1.00  0.00    -0.259 A  
HETATM   11  C   UNL     1      -9.962  17.801  66.535  1.00  0.00    -0.346 A  
HETATM   12  C   UNL     1      -8.768  17.594  67.215  1.00  0.00    -0.241 A  
HETATM   13  O   UNL     1     -10.539  19.034  66.621  1.00  0.00    -0.404 OA 
HETATM   14  C   UNL     1      -8.137  16.354  67.134  1.00  0.00    -0.212 A  
HETATM   15  H   UNL     1     -10.144  19.728  67.135  1.00  0.00     0.000 HD 
HETATM   16  C   UNL     1      -8.704  15.328  66.375  1.00  0.00    -0.265 A  
ENDBRANCH   6   9
ENDBRANCH   2   6
TORSDOF 2
ENDMDL
MODEL       42
REMARK 921   NORMALIZED FREE ENERGY PREDICTED BY IDOCK:   -4.33 KCAL/MOL
REMARK 922        TOTAL FREE ENERGY PREDICTED BY IDOCK:   -5.04 KCAL/MOL
REMARK 923 INTER-LIGAND FREE ENERGY PREDICTED BY IDOCK:   -4.90 KCAL/MOL
REMARK 924 INTRA-LIGAND FREE ENERGY PREDICTED BY IDOCK:   -0.13 KCAL/MOL
REMARK 927      BINDING AFFINITY PREDICTED BY RF-SCORE:    0.00 PKD
ROOT
HETATM    1  C   UNL     1     -10.119  10.625  69.454  1.00  0.00    -0.199 C  
HETATM    2  C   UNL     1     -10.767  11.945  69.025  1.00  0.00    -0.156 C  
HETATM    3  N   UNL     1     -11.542  12.476  70.167  1.00  0.00    -0.543 NA 
HETATM    4  H1  UNL     1     -11.974  13.355  69.881  1.00  0.00     0.000 HD 
HETATM    5  H2  UNL     1     -10.981  12.571  71.012  1.00  0.00     0.000 HD 
ENDROOT
BRANCH   2   6
HETATM    6  C   UNL     1     -11.686  11.800  67.773  1.00  0.00    -0.267 C  
HETATM    7  H   UNL     1     -11.966  10.482  66.328  1.00  0.00     0.000 HD 
HETATM    8  O   UNL     1     -11.406  10.570  67.090  1.00  0.00    -0.312 OA 
BRANCH   6   9
HETATM    9  C   UNL     1     -11.581  12.971  66.814  1.00  0.00    -0.420 A  
HETATM   10  C   UNL     1     -12.171  12.930  65.539  1.00  0.00    -0.527 A  
HETATM   11  C   UNL     1     -12.023  14.003  64.665  1.00  0.00    -0.430 A  
HETATM   12  C   UNL     1     -11.303  15.131  65.037  1.00  0.00    -0.381 A  
HETATM   13  O   UNL     1     -12.568  13.978  63.415  1.00  0.00    -1.056 OA 
HETATM   14  C   UNL     1     -10.713  15.185  66.299  1.00  0.00    -0.320 A  
HETATM   15  H   UNL     1     -12.466  14.710  62.819  1.00  0.00     0.000 HD 
HETATM   16  C   UNL     1     -10.848  14.111  67.181  1.00  0.00    -0.291 A  
ENDBRANCH   6   9
ENDBRANCH   2   6
TORSDOF 2
ENDMDL
MODEL       43
REMARK 921   NORMALIZED FREE ENERGY PREDICTED BY IDOCK:   -4.33 KCAL/MOL
REMARK 922        TOTAL FREE ENERGY PREDICTED BY IDOCK:   -5.03 KCAL/MOL
REMARK 923 INTER-LIGAND FREE ENERGY PREDICTED BY IDOCK:   -4.89 KCAL/MOL
REMARK 924 INTRA-LIGAND FREE ENERGY PREDICTED BY IDOCK:   -0.14 KCAL/MOL
REMARK 927      BINDING AFFINITY PREDICTED BY RF-SCORE:    0.00 PKD
ROOT
HETATM    1  C   UNL     1     -10.259  13.219  66.605  1.00  0.00    -0.265 C  
HETATM    2  C   UNL     1     -10.441  13.481  68.103  1.00  0.00    -0.244 C  
HETATM    3  N   UNL     1      -9.104  13.633  68.715  1.00  0.00    -0.391 NA 
HETATM    4  H1  UNL     1      -9.225  13.808  69.712  1.00  0.00     0.000 HD 
HETATM    5  H2  UNL     1      -8.543  14.350  68.257  1.00  0.00     0.000 HD 
ENDROOT
BRANCH   2   6
HETATM    6  C   UNL     1     -11.239  12.355  68.831  1.00  0.00    -0.280 C  
HETATM    7  H   UNL     1     -12.594  10.999  68.351  1.00  0.00     0.000 HD 
HETATM    8  O   UNL     1     -12.109  11.685  67.908  1.00  0.00    -0.613 OA 
BRANCH   6   9
HETATM    9  C   UNL     1     -12.026  12.856  70.028  1.00  0.00    -0.380 A  
HETATM   10  C   UNL     1     -12.205  14.229  70.266  1.00  0.00    -0.407 A  
HETATM   11  C   UNL     1     -12.897  14.659  71.394  1.00  0.00    -0.330 A  
HETATM   12  C   UNL     1     -13.429  13.746  72.295  1.00  0.00    -0.638 A  
HETATM   13  O   UNL     1     -13.066  15.987  71.657  1.00  0.00    -0.470 OA 
HETATM   14  C   UNL     1     -13.258  12.381  72.071  1.00  0.00    -0.514 A  
HETATM   15  H   UNL     1     -13.538  16.279  72.427  1.00  0.00     0.000 HD 
HETATM   16  C   UNL     1     -12.558  11.937  70.947  1.00  0.00    -0.361 A  
ENDBRANCH   6   9
ENDBRANCH   2   6
TORSDOF 2
ENDMDL
MODEL       44
REMARK 921   NORMALIZED FREE ENERGY PREDICTED BY IDOCK:   -4.30 KCAL/MOL
REMARK 922        TOTAL FREE ENERGY PREDICTED BY IDOCK:   -5.00 KCAL/MOL
REMARK 923 INTER-LIGAND FREE ENERGY PREDICTED BY IDOCK:   -4.93 KCAL/MOL
REMARK 924 INTRA-LIGAND FREE ENERGY PREDICTED BY IDOCK:   -0.07 KCAL/MOL
REMARK 927      BINDING AFFINITY PREDICTED BY RF-SCORE:    0.00 PKD
ROOT
HETATM    1  C   UNL     1     -12.246   9.804  71.660  1.00  0.00    -0.488 C  
HETATM    2  C   UNL     1     -12.911   8.452  71.938  1.00  0.00    -0.355 C  
HETATM    3  N   UNL     1     -13.922   8.640  73.000  1.00  0.00    -0.999 NA 
HETATM    4  H1  UNL     1     -14.365   7.740  73.184  1.00  0.00     0.000 HD 
HETATM    5  H2  UNL     1     -14.597   9.370  72.774  1.00  0.00     0.000 HD 
ENDROOT
BRANCH   2   6
HETATM    6  C   UNL     1     -11.897   7.342  72.352  1.00  0.00    -0.208 C  
HETATM    7  H   UNL     1     -10.258   7.215  73.450  1.00  0.00     0.000 HD 
HETATM    8  O   UNL     1     -10.875   7.891  73.197  1.00  0.00    -0.375 OA 
BRANCH   6   9
HETATM    9  C   UNL     1     -11.273   6.627  71.169  1.00  0.00    -0.340 A  
HETATM   10  C   UNL     1     -11.648   6.930  69.848  1.00  0.00    -0.255 A  
HETATM   11  C   UNL     1     -11.088   6.228  68.784  1.00  0.00    -0.346 A  
HETATM   12  C   UNL     1     -10.147   5.231  69.005  1.00  0.00    -0.272 A  
HETATM   13  O   UNL     1     -11.451   6.490  67.496  1.00  0.00    -0.721 OA 
HETATM   14  C   UNL     1      -9.767   4.920  70.309  1.00  0.00    -0.287 A  
HETATM   15  H   UNL     1     -11.069   6.011  66.770  1.00  0.00     0.000 HD 
HETATM   16  C   UNL     1     -10.328   5.611  71.385  1.00  0.00    -0.287 A  
ENDBRANCH   6   9
ENDBRANCH   2   6
TORSDOF 2
ENDMDL
MODEL       45
REMARK 921   NORMALIZED FREE ENERGY PREDICTED BY IDOCK:   -4.28 KCAL/MOL
REMARK 922        TOTAL FREE ENERGY PREDICTED BY IDOCK:   -4.99 KCAL/MOL
REMARK 923 INTER-LIGAND FREE ENERGY PREDICTED BY IDOCK:   -4.78 KCAL/MOL
REMARK 924 INTRA-LIGAND FREE ENERGY PREDICTED BY IDOCK:   -0.21 KCAL/MOL
REMARK 927      BINDING AFFINITY PREDICTED BY RF-SCORE:    0.00 PKD
ROOT
HETATM    1  C   UNL     1      -7.946  15.820  66.876  1.00  0.00    -0.285 C  
HETATM    2  C   UNL     1      -9.045  16.536  66.085  1.00  0.00    -0.306 C  
HETATM    3  N   UNL     1      -8.745  17.983  66.076  1.00  0.00    -0.512 NA 
HETATM    4  H1  UNL     1      -9.477  18.460  65.549  1.00  0.00     0.000 HD 
HETATM    5  H2  UNL     1      -7.811  18.188  65.722  1.00  0.00     0.000 HD 
ENDROOT
BRANCH   2   6
HETATM    6  C   UNL     1     -10.475  16.288  66.658  1.00  0.00    -0.290 C  
HETATM    7  H   UNL     1     -11.316  16.150  68.441  1.00  0.00     0.000 HD 
HETATM    8  O   UNL     1     -10.446  16.300  68.092  1.00  0.00    -0.266 OA 
BRANCH   6   9
HETATM    9  C   UNL     1     -11.108  15.004  66.155  1.00  0.00    -0.329 A  
HETATM   10  C   UNL     1     -11.356  13.922  67.016  1.00  0.00    -0.343 A  
HETATM   11  C   UNL     1     -11.900  12.742  66.518  1.00  0.00    -0.405 A  
HETATM   12  C   UNL     1     -12.216  12.616  65.171  1.00  0.00    -0.539 A  
HETATM   13  O   UNL     1     -12.129  11.670  67.330  1.00  0.00    -0.605 OA 
HETATM   14  C   UNL     1     -11.975  13.681  64.306  1.00  0.00    -0.488 A  
HETATM   15  H   UNL     1     -12.500  10.866  66.990  1.00  0.00     0.000 HD 
HETATM   16  C   UNL     1     -11.422  14.868  64.793  1.00  0.00    -0.410 A  
ENDBRANCH   6   9
ENDBRANCH   2   6
TORSDOF 2
ENDMDL
MODEL       46
REMARK 921   NORMALIZED FREE ENERGY PREDICTED BY IDOCK:   -4.28 KCAL/MOL
REMARK 922        TOTAL FREE ENERGY PREDICTED BY IDOCK:   -4.99 KCAL/MOL
REMARK 923 INTER-LIGAND FREE ENERGY PREDICTED BY IDOCK:   -4.89 KCAL/MOL
REMARK 924 INTRA-LIGAND FREE ENERGY PREDICTED BY IDOCK:   -0.10 KCAL/MOL
REMARK 927      BINDING AFFINITY PREDICTED BY RF-SCORE:    0.00 PKD
ROOT
HETATM    1  C   UNL     1      -8.580   9.248  67.184  1.00  0.00    -0.130 C  
HETATM    2  C   UNL     1      -9.917   9.970  66.992  1.00  0.00    -0.205 C  
HETATM    3  N   UNL     1     -11.003   9.057  67.409  1.00  0.00    -0.415 NA 
HETATM    4  H1  UNL     1     -11.893   9.538  67.282  1.00  0.00     0.000 HD 
HETATM    5  H2  UNL     1     -10.878   8.708  68.358  1.00  0.00     0.000 HD 
ENDROOT
BRANCH   2   6
HETATM    6  C   UNL     1     -10.152  10.449  65.526  1.00  0.00    -0.283 C  
HETATM    7  H   UNL     1      -9.041  10.913  63.959  1.00  0.00     0.000 HD 
HETATM    8  O   UNL     1      -8.897  10.621  64.852  1.00  0.00    -0.190 OA 
BRANCH   6   9
HETATM    9  C   UNL     1     -10.977  11.719  65.436  1.00  0.00    -0.352 A  
HETATM   10  C   UNL     1     -11.280  12.311  64.198  1.00  0.00    -0.430 A  
HETATM   11  C   UNL     1     -12.003  13.499  64.148  1.00  0.00    -0.448 A  
HETATM   12  C   UNL     1     -12.446  14.112  65.313  1.00  0.00    -0.474 A  
HETATM   13  O   UNL     1     -12.291  14.103  62.960  1.00  0.00    -1.070 OA 
HETATM   14  C   UNL     1     -12.153  13.536  66.548  1.00  0.00    -0.460 A  
HETATM   15  H   UNL     1     -12.785  14.914  62.927  1.00  0.00     0.000 HD 
HETATM   16  C   UNL     1     -11.420  12.349  66.610  1.00  0.00    -0.429 A  
ENDBRANCH   6   9
ENDBRANCH   2   6
TORSDOF 2
ENDMDL
MODEL       47
REMARK 921   NORMALIZED FREE ENERGY PREDICTED BY IDOCK:   -4.28 KCAL/MOL
REMARK 922        TOTAL FREE ENERGY PREDICTED BY IDOCK:   -4.98 KCAL/MOL
REMARK 923 INTER-LIGAND FREE ENERGY PREDICTED BY IDOCK:   -4.94 KCAL/MOL
REMARK 924 INTRA-LIGAND FREE ENERGY PREDICTED BY IDOCK:   -0.04 KCAL/MOL
REMARK 927      BINDING AFFINITY PREDICTED BY RF-SCORE:    0.00 PKD
ROOT
HETATM    1  C   UNL     1      -8.777  15.226  66.873  1.00  0.00    -0.288 C  
HETATM    2  C   UNL     1      -9.700  15.413  68.081  1.00  0.00    -0.212 C  
HETATM    3  N   UNL     1      -9.318  14.429  69.116  1.00  0.00    -0.404 NA 
HETATM    4  H1  UNL     1      -9.933  14.553  69.920  1.00  0.00     0.000 HD 
HETATM    5  H2  UNL     1      -8.331  14.484  69.365  1.00  0.00     0.000 HD 
ENDROOT
BRANCH   2   6
HETATM    6  C   UNL     1     -11.212  15.261  67.728  1.00  0.00    -0.326 C  
HETATM    7  H   UNL     1     -12.881  14.796  68.680  1.00  0.00     0.000 HD 
HETATM    8  O   UNL     1     -11.960  14.889  68.895  1.00  0.00    -0.305 OA 
BRANCH   6   9
HETATM    9  C   UNL     1     -11.469  14.278  66.602  1.00  0.00    -0.374 A  
HETATM   10  C   UNL     1     -11.776  14.714  65.302  1.00  0.00    -0.346 A  
HETATM   11  C   UNL     1     -12.047  13.789  64.299  1.00  0.00    -0.440 A  
HETATM   12  C   UNL     1     -12.010  12.425  64.558  1.00  0.00    -0.474 A  
HETATM   13  O   UNL     1     -12.368  14.189  63.035  1.00  0.00    -1.070 OA 
HETATM   14  C   UNL     1     -11.708  11.978  65.843  1.00  0.00    -0.312 A  
HETATM   15  H   UNL     1     -12.553  13.557  62.351  1.00  0.00     0.000 HD 
HETATM   16  C   UNL     1     -11.442  12.897  66.860  1.00  0.00    -0.393 A  
ENDBRANCH   6   9
ENDBRANCH   2   6
TORSDOF 2
ENDMDL
MODEL       48
REMARK 921   NORMALIZED FREE ENERGY PREDICTED BY IDOCK:   -4.28 KCAL/MOL
REMARK 922        TOTAL FREE ENERGY PREDICTED BY IDOCK:   -4.98 KCAL/MOL
REMARK 923 INTER-LIGAND FREE ENERGY PREDICTED BY IDOCK:   -4.82 KCAL/MOL
REMARK 924 INTRA-LIGAND FREE ENERGY PREDICTED BY IDOCK:   -0.16 KCAL/MOL
REMARK 927      BINDING AFFINITY PREDICTED BY RF-SCORE:    0.00 PKD
ROOT
HETATM    1  C   UNL     1      -9.978  12.106  66.590  1.00  0.00    -0.222 C  
HETATM    2  C   UNL     1     -10.124  12.778  67.959  1.00  0.00    -0.230 C  
HETATM    3  N   UNL     1      -8.796  12.808  68.607  1.00  0.00    -0.383 NA 
HETATM    4  H1  UNL     1      -8.893  13.256  69.518  1.00  0.00     0.000 HD 
HETATM    5  H2  UNL     1      -8.086  13.252  68.025  1.00  0.00     0.000 HD 
ENDROOT
BRANCH   2   6
HETATM    6  C   UNL     1     -11.157  12.066  68.886  1.00  0.00    -0.247 C  
HETATM    7  H   UNL     1     -12.745  10.911  68.665  1.00  0.00     0.000 HD 
HETATM    8  O   UNL     1     -12.117  11.344  68.101  1.00  0.00    -0.623 OA 
BRANCH   6   9
HETATM    9  C   UNL     1     -11.862  13.014  69.838  1.00  0.00    -0.377 A  
HETATM   10  C   UNL     1     -12.609  12.539  70.929  1.00  0.00    -0.331 A  
HETATM   11  C   UNL     1     -13.278  13.431  71.761  1.00  0.00    -0.407 A  
HETATM   12  C   UNL     1     -13.213  14.800  71.536  1.00  0.00    -0.433 A  
HETATM   13  O   UNL     1     -14.026  12.992  72.814  1.00  0.00    -0.745 OA 
HETATM   14  C   UNL     1     -12.477  15.286  70.457  1.00  0.00    -0.454 A  
HETATM   15  H   UNL     1     -14.483  13.602  73.381  1.00  0.00     0.000 HD 
HETATM   16  C   UNL     1     -11.808  14.399  69.611  1.00  0.00    -0.372 A  
ENDBRANCH   6   9
ENDBRANCH   2   6
TORSDOF 2
ENDMDL
MODEL       49
REMARK 921   NORMALIZED FREE ENERGY PREDICTED BY IDOCK:   -4.26 KCAL/MOL
REMARK 922        TOTAL FREE ENERGY PREDICTED BY IDOCK:   -4.97 KCAL/MOL
REMARK 923 INTER-LIGAND FREE ENERGY PREDICTED BY IDOCK:   -4.79 KCAL/MOL
REMARK 924 INTRA-LIGAND FREE ENERGY PREDICTED BY IDOCK:   -0.18 KCAL/MOL
REMARK 927      BINDING AFFINITY PREDICTED BY RF-SCORE:    0.00 PKD
ROOT
HETATM    1  C   UNL     1     -11.254  11.846  65.004  1.00  0.00    -0.350 C  
HETATM    2  C   UNL     1     -11.354  12.439  66.413  1.00  0.00    -0.342 C  
HETATM    3  N   UNL     1     -11.861  11.390  67.324  1.00  0.00    -0.568 NA 
HETATM    4  H1  UNL     1     -11.927  11.784  68.262  1.00  0.00     0.000 HD 
HETATM    5  H2  UNL     1     -11.298  10.540  67.295  1.00  0.00     0.000 HD 
ENDROOT
BRANCH   2   6
HETATM    6  C   UNL     1     -12.270  13.700  66.485  1.00  0.00    -0.404 C  
HETATM    7  H   UNL     1     -13.527  14.646  65.290  1.00  0.00     0.000 HD 
HETATM    8  O   UNL     1     -12.969  13.879  65.246  1.00  0.00    -0.747 OA 
BRANCH   6   9
HETATM    9  C   UNL     1     -11.518  14.965  66.853  1.00  0.00    -0.318 A  
HETATM   10  C   UNL     1     -11.495  15.448  68.173  1.00  0.00    -0.352 A  
HETATM   11  C   UNL     1     -10.832  16.634  68.473  1.00  0.00    -0.356 A  
HETATM   12  C   UNL     1     -10.176  17.353  67.483  1.00  0.00    -0.332 A  
HETATM   13  O   UNL     1     -10.813  17.132  69.743  1.00  0.00    -0.373 OA 
HETATM   14  C   UNL     1     -10.191  16.887  66.170  1.00  0.00    -0.352 A  
HETATM   15  H   UNL     1     -10.360  17.941  69.947  1.00  0.00     0.000 HD 
HETATM   16  C   UNL     1     -10.861  15.702  65.855  1.00  0.00    -0.297 A  
ENDBRANCH   6   9
ENDBRANCH   2   6
TORSDOF 2
ENDMDL
MODEL       50
REMARK 921   NORMALIZED FREE ENERGY PREDICTED BY IDOCK:   -4.26 KCAL/MOL
REMARK 922        TOTAL FREE ENERGY PREDICTED BY IDOCK:   -4.96 KCAL/MOL
REMARK 923 INTER-LIGAND FREE ENERGY PREDICTED BY IDOCK:   -4.77 KCAL/MOL
REMARK 924 INTRA-LIGAND FREE ENERGY PREDICTED BY IDOCK:   -0.19 KCAL/MOL
REMARK 927      BINDING AFFINITY PREDICTED BY RF-SCORE:    0.00 PKD
ROOT
HETATM    1  C   UNL     1     -10.744  17.440  68.134  1.00  0.00    -0.343 C  
HETATM    2  C   UNL     1     -10.332  16.519  69.287  1.00  0.00    -0.318 C  
HETATM    3  N   UNL     1      -8.922  16.125  69.086  1.00  0.00    -0.249 NA 
HETATM    4  H1  UNL     1      -8.647  15.512  69.854  1.00  0.00     0.000 HD 
HETATM    5  H2  UNL     1      -8.301  16.927  68.984  1.00  0.00     0.000 HD 
ENDROOT
BRANCH   2   6
HETATM    6  C   UNL     1     -11.232  15.251  69.412  1.00  0.00    -0.285 C  
HETATM    7  H   UNL     1     -12.759  14.458  68.440  1.00  0.00     0.000 HD 
HETATM    8  O   UNL     1     -12.211  15.231  68.364  1.00  0.00    -0.136 OA 
BRANCH   6   9
HETATM    9  C   UNL     1     -11.905  15.125  70.765  1.00  0.00    -0.371 A  
HETATM   10  C   UNL     1     -11.671  16.056  71.792  1.00  0.00    -0.593 A  
HETATM   11  C   UNL     1     -12.271  15.891  73.036  1.00  0.00    -0.504 A  
HETATM   12  C   UNL     1     -13.116  14.817  73.283  1.00  0.00    -0.550 A  
HETATM   13  O   UNL     1     -12.042  16.770  74.054  1.00  0.00    -0.392 OA 
HETATM   14  C   UNL     1     -13.357  13.886  72.275  1.00  0.00    -0.599 A  
HETATM   15  H   UNL     1     -12.452  16.657  74.903  1.00  0.00     0.000 HD 
HETATM   16  C   UNL     1     -12.754  14.036  71.024  1.00  0.00    -0.431 A  
ENDBRANCH   6   9
ENDBRANCH   2   6
TORSDOF 2
ENDMDL
MODEL       51
REMARK 921   NORMALIZED FREE ENERGY PREDICTED BY IDOCK:   -4.26 KCAL/MOL
REMARK 922        TOTAL FREE ENERGY PREDICTED BY IDOCK:   -4.96 KCAL/MOL
REMARK 923 INTER-LIGAND FREE ENERGY PREDICTED BY IDOCK:   -4.77 KCAL/MOL
REMARK 924 INTRA-LIGAND FREE ENERGY PREDICTED BY IDOCK:   -0.19 KCAL/MOL
REMARK 927      BINDING AFFINITY PREDICTED BY RF-SCORE:    0.00 PKD
ROOT
HETATM    1  C   UNL     1     -11.162  15.235  71.149  1.00  0.00    -0.378 C  
HETATM    2  C   UNL     1     -12.168  15.329  69.998  1.00  0.00    -0.349 C  
HETATM    3  N   UNL     1     -13.517  15.520  70.573  1.00  0.00    -0.820 NA 
HETATM    4  H1  UNL     1     -14.187  15.584  69.807  1.00  0.00     0.000 HD 
HETATM    5  H2  UNL     1     -13.565  16.321  71.202  1.00  0.00     0.000 HD 
ENDROOT
BRANCH   2   6
HETATM    6  C   UNL     1     -12.156  14.077  69.066  1.00  0.00    -0.323 C  
HETATM    7  H   UNL     1     -11.396  12.254  69.103  1.00  0.00     0.000 HD 
HETATM    8  O   UNL     1     -11.403  13.015  69.670  1.00  0.00    -0.208 OA 
BRANCH   6   9
HETATM    9  C   UNL     1     -11.628  14.372  67.675  1.00  0.00    -0.396 A  
HETATM   10  C   UNL     1     -11.127  15.639  67.332  1.00  0.00    -0.260 A  
HETATM   11  C   UNL     1     -10.688  15.891  66.036  1.00  0.00    -0.284 A  
HETATM   12  C   UNL     1     -10.725  14.899  65.065  1.00  0.00    -0.451 A  
HETATM   13  O   UNL     1     -10.217  17.120  65.675  1.00  0.00    -0.564 OA 
HETATM   14  C   UNL     1     -11.220  13.637  65.391  1.00  0.00    -0.306 A  
HETATM   15  H   UNL     1      -9.918  17.291  64.791  1.00  0.00     0.000 HD 
HETATM   16  C   UNL     1     -11.672  13.375  66.686  1.00  0.00    -0.428 A  
ENDBRANCH   6   9
ENDBRANCH   2   6
TORSDOF 2
ENDMDL
MODEL       52
REMARK 921   NORMALIZED FREE ENERGY PREDICTED BY IDOCK:   -4.25 KCAL/MOL
REMARK 922        TOTAL FREE ENERGY PREDICTED BY IDOCK:   -4.95 KCAL/MOL
REMARK 923 INTER-LIGAND FREE ENERGY PREDICTED BY IDOCK:   -4.76 KCAL/MOL
REMARK 924 INTRA-LIGAND FREE ENERGY PREDICTED BY IDOCK:   -0.19 KCAL/MOL
REMARK 927      BINDING AFFINITY PREDICTED BY RF-SCORE:    0.00 PKD
ROOT
HETATM    1  C   UNL     1      -9.647  12.148  66.844  1.00  0.00    -0.210 C  
HETATM    2  C   UNL     1     -11.110  12.128  67.297  1.00  0.00    -0.287 C  
HETATM    3  N   UNL     1     -11.967  12.334  66.111  1.00  0.00    -0.618 NA 
HETATM    4  H1  UNL     1     -12.942  12.321  66.412  1.00  0.00     0.000 HD 
HETATM    5  H2  UNL     1     -11.778  11.662  65.368  1.00  0.00     0.000 HD 
ENDROOT
BRANCH   2   6
HETATM    6  C   UNL     1     -11.431  13.200  68.384  1.00  0.00    -0.315 C  
HETATM    7  H   UNL     1     -10.440  14.580  69.393  1.00  0.00     0.000 HD 
HETATM    8  O   UNL     1     -10.244  13.927  68.732  1.00  0.00    -0.233 OA 
BRANCH   6   9
HETATM    9  C   UNL     1     -12.076  12.617  69.628  1.00  0.00    -0.277 A  
HETATM   10  C   UNL     1     -12.649  13.441  70.612  1.00  0.00    -0.325 A  
HETATM   11  C   UNL     1     -13.196  12.880  71.762  1.00  0.00    -0.384 A  
HETATM   12  C   UNL     1     -13.195  11.505  71.954  1.00  0.00    -0.479 A  
HETATM   13  O   UNL     1     -13.739  13.660  72.740  1.00  0.00    -0.707 OA 
HETATM   14  C   UNL     1     -12.630  10.676  70.986  1.00  0.00    -0.516 A  
HETATM   15  H   UNL     1     -14.112  13.277  73.525  1.00  0.00     0.000 HD 
HETATM   16  C   UNL     1     -12.070  11.228  69.832  1.00  0.00    -0.414 A  
ENDBRANCH   6   9
ENDBRANCH   2   6
TORSDOF 2
ENDMDL
MODEL       53
REMARK 921   NORMALIZED FREE ENERGY PREDICTED BY IDOCK:   -4.25 KCAL/MOL
REMARK 922        TOTAL FREE ENERGY PREDICTED BY IDOCK:   -4.95 KCAL/MOL
REMARK 923 INTER-LIGAND FREE ENERGY PREDICTED BY IDOCK:   -4.72 KCAL/MOL
REMARK 924 INTRA-LIGAND FREE ENERGY PREDICTED BY IDOCK:   -0.23 KCAL/MOL
REMARK 927      BINDING AFFINITY PREDICTED BY RF-SCORE:    0.00 PKD
ROOT
HETATM    1  C   UNL     1     -14.382   8.526  70.985  1.00  0.00    -0.063 C  
HETATM    2  C   UNL     1     -13.314   8.813  72.045  1.00  0.00    -0.413 C  
HETATM    3  N   UNL     1     -13.978   8.902  73.363  1.00  0.00    -1.100 NA 
HETATM    4  H1  UNL     1     -13.266   9.092  74.068  1.00  0.00     0.000 HD 
HETATM    5  H2  UNL     1     -14.532   8.075  73.579  1.00  0.00     0.000 HD 
ENDROOT
BRANCH   2   6
HETATM    6  C   UNL     1     -12.503  10.116  71.763  1.00  0.00    -0.360 C  
HETATM    7  H   UNL     1     -12.862  12.058  71.694  1.00  0.00     0.000 HD 
HETATM    8  O   UNL     1     -13.356  11.265  71.865  1.00  0.00    -0.429 OA 
BRANCH   6   9
HETATM    9  C   UNL     1     -11.794  10.103  70.422  1.00  0.00    -0.373 A  
HETATM   10  C   UNL     1     -12.104  11.037  69.419  1.00  0.00    -0.389 A  
HETATM   11  C   UNL     1     -11.466  10.975  68.184  1.00  0.00    -0.302 A  
HETATM   12  C   UNL     1     -10.510  10.002  67.924  1.00  0.00    -0.276 A  
HETATM   13  O   UNL     1     -11.765  11.857  67.188  1.00  0.00    -0.528 OA 
HETATM   14  C   UNL     1     -10.193   9.069  68.910  1.00  0.00    -0.223 A  
HETATM   15  H   UNL     1     -11.329  11.814  66.345  1.00  0.00     0.000 HD 
HETATM   16  C   UNL     1     -10.833   9.116  70.150  1.00  0.00    -0.269 A  
ENDBRANCH   6   9
ENDBRANCH   2   6
TORSDOF 2
ENDMDL
MODEL       54
REMARK 921   NORMALIZED FREE ENERGY PREDICTED BY IDOCK:   -4.24 KCAL/MOL
REMARK 922        TOTAL FREE ENERGY PREDICTED BY IDOCK:   -4.94 KCAL/MOL
REMARK 923 INTER-LIGAND FREE ENERGY PREDICTED BY IDOCK:   -4.79 KCAL/MOL
REMARK 924 INTRA-LIGAND FREE ENERGY PREDICTED BY IDOCK:   -0.15 KCAL/MOL
REMARK 927      BINDING AFFINITY PREDICTED BY RF-SCORE:    0.00 PKD
ROOT
HETATM    1  C   UNL     1     -10.583  14.522  64.859  1.00  0.00    -0.450 C  
HETATM    2  C   UNL     1     -10.399  15.452  66.061  1.00  0.00    -0.324 C  
HETATM    3  N   UNL     1     -11.114  14.869  67.216  1.00  0.00    -0.327 NA 
HETATM    4  H1  UNL     1     -10.991  15.488  68.017  1.00  0.00     0.000 HD 
HETATM    5  H2  UNL     1     -10.825  13.911  67.413  1.00  0.00     0.000 HD 
ENDROOT
BRANCH   2   6
HETATM    6  C   UNL     1     -10.902  16.905  65.797  1.00  0.00    -0.060 C  
HETATM    7  H   UNL     1     -11.391  18.005  64.230  1.00  0.00     0.000 HD 
HETATM    8  O   UNL     1     -11.085  17.120  64.390  1.00  0.00    -1.100 OA 
BRANCH   6   9
HETATM    9  C   UNL     1      -9.991  17.970  66.379  1.00  0.00    -0.362 A  
HETATM   10  C   UNL     1      -8.917  17.637  67.222  1.00  0.00    -0.242 A  
HETATM   11  C   UNL     1      -8.124  18.639  67.774  1.00  0.00    -0.251 A  
HETATM   12  C   UNL     1      -8.370  19.977  67.495  1.00  0.00    -0.381 A  
HETATM   13  O   UNL     1      -7.090  18.341  68.611  1.00  0.00    -0.257 OA 
HETATM   14  C   UNL     1      -9.431  20.321  66.660  1.00  0.00    -0.487 A  
HETATM   15  H   UNL     1      -6.549  19.025  68.987  1.00  0.00     0.000 HD 
HETATM   16  C   UNL     1     -10.240  19.325  66.108  1.00  0.00    -0.549 A  
ENDBRANCH   6   9
ENDBRANCH   2   6
TORSDOF 2
ENDMDL
MODEL       55
REMARK 921   NORMALIZED FREE ENERGY PREDICTED BY IDOCK:   -4.24 KCAL/MOL
REMARK 922        TOTAL FREE ENERGY PREDICTED BY IDOCK:   -4.94 KCAL/MOL
REMARK 923 INTER-LIGAND FREE ENERGY PREDICTED BY IDOCK:   -4.73 KCAL/MOL
REMARK 924 INTRA-LIGAND FREE ENERGY PREDICTED BY IDOCK:   -0.20 KCAL/MOL
REMARK 927      BINDING AFFINITY PREDICTED BY RF-SCORE:    0.00 PKD
ROOT
HETATM    1  C   UNL     1     -11.113  13.744  68.754  1.00  0.00    -0.295 C  
HETATM    2  C   UNL     1      -9.645  13.851  68.331  1.00  0.00    -0.215 C  
HETATM    3  N   UNL     1      -8.938  14.698  69.314  1.00  0.00    -0.395 NA 
HETATM    4  H1  UNL     1      -7.960  14.769  69.033  1.00  0.00     0.000 HD 
HETATM    5  H2  UNL     1      -9.048  14.364  70.271  1.00  0.00     0.000 HD 
ENDROOT
BRANCH   2   6
HETATM    6  C   UNL     1      -9.459  14.427  66.893  1.00  0.00    -0.258 C  
HETATM    7  H   UNL     1      -9.802  16.137  65.965  1.00  0.00     0.000 HD 
HETATM    8  O   UNL     1      -9.916  15.786  66.840  1.00  0.00    -0.234 OA 
BRANCH   6   9
HETATM    9  C   UNL     1     -10.143  13.599  65.822  1.00  0.00    -0.311 A  
HETATM   10  C   UNL     1     -11.042  14.177  64.909  1.00  0.00    -0.389 A  
HETATM   11  C   UNL     1     -11.686  13.385  63.964  1.00  0.00    -0.416 A  
HETATM   12  C   UNL     1     -11.446  12.018  63.898  1.00  0.00    -0.518 A  
HETATM   13  O   UNL     1     -12.577  13.920  63.082  1.00  0.00    -1.057 OA 
HETATM   14  C   UNL     1     -10.558  11.431  64.797  1.00  0.00    -0.377 A  
HETATM   15  H   UNL     1     -13.016  13.378  62.437  1.00  0.00     0.000 HD 
HETATM   16  C   UNL     1      -9.913  12.215  65.756  1.00  0.00    -0.271 A  
ENDBRANCH   6   9
ENDBRANCH   2   6
TORSDOF 2
ENDMDL
MODEL       56
REMARK 921   NORMALIZED FREE ENERGY PREDICTED BY IDOCK:   -4.22 KCAL/MOL
REMARK 922        TOTAL FREE ENERGY PREDICTED BY IDOCK:   -4.92 KCAL/MOL
REMARK 923 INTER-LIGAND FREE ENERGY PREDICTED BY IDOCK:   -4.72 KCAL/MOL
REMARK 924 INTRA-LIGAND FREE ENERGY PREDICTED BY IDOCK:   -0.20 KCAL/MOL
REMARK 927      BINDING AFFINITY PREDICTED BY RF-SCORE:    0.00 PKD
ROOT
HETATM    1  C   UNL     1     -12.425  12.872  65.001  1.00  0.00    -0.553 C  
HETATM    2  C   UNL     1     -11.256  13.386  65.847  1.00  0.00    -0.300 C  
HETATM    3  N   UNL     1     -10.122  13.679  64.945  1.00  0.00    -0.600 NA 
HETATM    4  H1  UNL     1      -9.344  14.022  65.509  1.00  0.00     0.000 HD 
HETATM    5  H2  UNL     1     -10.373  14.320  64.194  1.00  0.00     0.000 HD 
ENDROOT
BRANCH   2   6
HETATM    6  C   UNL     1     -10.814  12.384  66.958  1.00  0.00    -0.246 C  
HETATM    7  H   UNL     1     -10.786  10.425  67.211  1.00  0.00     0.000 HD 
HETATM    8  O   UNL     1     -11.056  11.034  66.535  1.00  0.00    -0.226 OA 
BRANCH   6   9
HETATM    9  C   UNL     1     -11.476  12.643  68.298  1.00  0.00    -0.356 A  
HETATM   10  C   UNL     1     -11.886  13.933  68.676  1.00  0.00    -0.407 A  
HETATM   11  C   UNL     1     -12.454  14.147  69.929  1.00  0.00    -0.260 A  
HETATM   12  C   UNL     1     -12.634  13.096  70.818  1.00  0.00    -0.338 A  
HETATM   13  O   UNL     1     -12.840  15.393  70.327  1.00  0.00    -0.602 OA 
HETATM   14  C   UNL     1     -12.232  11.812  70.456  1.00  0.00    -0.438 A  
HETATM   15  H   UNL     1     -13.227  15.539  71.181  1.00  0.00     0.000 HD 
HETATM   16  C   UNL     1     -11.653  11.586  69.205  1.00  0.00    -0.388 A  
ENDBRANCH   6   9
ENDBRANCH   2   6
TORSDOF 2
ENDMDL
MODEL       57
REMARK 921   NORMALIZED FREE ENERGY PREDICTED BY IDOCK:   -4.21 KCAL/MOL
REMARK 922        TOTAL FREE ENERGY PREDICTED BY IDOCK:   -4.90 KCAL/MOL
REMARK 923 INTER-LIGAND FREE ENERGY PREDICTED BY IDOCK:   -4.70 KCAL/MOL
REMARK 924 INTRA-LIGAND FREE ENERGY PREDICTED BY IDOCK:   -0.21 KCAL/MOL
REMARK 927      BINDING AFFINITY PREDICTED BY RF-SCORE:    0.00 PKD
ROOT
HETATM    1  C   UNL     1     -10.693  19.527  65.841  1.00  0.00    -0.518 C  
HETATM    2  C   UNL     1      -9.560  19.370  66.861  1.00  0.00    -0.339 C  
HETATM    3  N   UNL     1      -8.530  20.390  66.572  1.00  0.00    -0.540 NA 
HETATM    4  H1  UNL     1      -7.776  20.286  67.252  1.00  0.00     0.000 HD 
HETATM    5  H2  UNL     1      -8.909  21.336  66.550  1.00  0.00     0.000 HD 
ENDROOT
BRANCH   2   6
HETATM    6  C   UNL     1      -8.923  17.947  66.858  1.00  0.00    -0.257 C  
HETATM    7  H   UNL     1      -7.745  16.891  65.673  1.00  0.00     0.000 HD 
HETATM    8  O   UNL     1      -8.133  17.758  65.675  1.00  0.00    -0.518 OA 
BRANCH   6   9
HETATM    9  C   UNL     1      -9.943  16.832  66.993  1.00  0.00    -0.269 A  
HETATM   10  C   UNL     1     -10.644  16.621  68.193  1.00  0.00    -0.336 A  
HETATM   11  C   UNL     1     -11.544  15.565  68.301  1.00  0.00    -0.334 A  
HETATM   12  C   UNL     1     -11.773  14.712  67.229  1.00  0.00    -0.406 A  
HETATM   13  O   UNL     1     -12.220  15.327  69.461  1.00  0.00    -0.472 OA 
HETATM   14  C   UNL     1     -11.085  14.910  66.033  1.00  0.00    -0.334 A  
HETATM   15  H   UNL     1     -12.834  14.607  69.534  1.00  0.00     0.000 HD 
HETATM   16  C   UNL     1     -10.173  15.961  65.916  1.00  0.00    -0.373 A  
ENDBRANCH   6   9
ENDBRANCH   2   6
TORSDOF 2
ENDMDL
MODEL       58
REMARK 921   NORMALIZED FREE ENERGY PREDICTED BY IDOCK:   -4.21 KCAL/MOL
REMARK 922        TOTAL FREE ENERGY PREDICTED BY IDOCK:   -4.90 KCAL/MOL
REMARK 923 INTER-LIGAND FREE ENERGY PREDICTED BY IDOCK:   -4.72 KCAL/MOL
REMARK 924 INTRA-LIGAND FREE ENERGY PREDICTED BY IDOCK:   -0.18 KCAL/MOL
REMARK 927      BINDING AFFINITY PREDICTED BY RF-SCORE:    0.00 PKD
ROOT
HETATM    1  C   UNL     1     -10.176   9.108  66.563  1.00  0.00    -0.322 C  
HETATM    2  C   UNL     1     -10.055  10.538  66.027  1.00  0.00    -0.256 C  
HETATM    3  N   UNL     1      -8.627  10.818  65.767  1.00  0.00    -0.181 NA 
HETATM    4  H1  UNL     1      -8.546  11.770  65.410  1.00  0.00     0.000 HD 
HETATM    5  H2  UNL     1      -8.199  10.130  65.148  1.00  0.00     0.000 HD 
ENDROOT
BRANCH   2   6
HETATM    6  C   UNL     1     -10.643  11.610  66.996  1.00  0.00    -0.237 C  
HETATM    7  H   UNL     1     -12.192  11.765  68.214  1.00  0.00     0.000 HD 
HETATM    8  O   UNL     1     -11.834  11.113  67.624  1.00  0.00    -0.612 OA 
BRANCH   6   9
HETATM    9  C   UNL     1     -10.920  12.940  66.322  1.00  0.00    -0.305 A  
HETATM   10  C   UNL     1     -11.582  13.012  65.084  1.00  0.00    -0.357 A  
HETATM   11  C   UNL     1     -11.785  14.244  64.470  1.00  0.00    -0.418 A  
HETATM   12  C   UNL     1     -11.350  15.419  65.069  1.00  0.00    -0.334 A  
HETATM   13  O   UNL     1     -12.407  14.337  63.260  1.00  0.00    -1.118 OA 
HETATM   14  C   UNL     1     -10.692  15.363  66.296  1.00  0.00    -0.312 A  
HETATM   15  H   UNL     1     -12.545  15.178  62.841  1.00  0.00     0.000 HD 
HETATM   16  C   UNL     1     -10.474  14.131  66.918  1.00  0.00    -0.272 A  
ENDBRANCH   6   9
ENDBRANCH   2   6
TORSDOF 2
ENDMDL
MODEL       59
REMARK 921   NORMALIZED FREE ENERGY PREDICTED BY IDOCK:   -4.20 KCAL/MOL
REMARK 922        TOTAL FREE ENERGY PREDICTED BY IDOCK:   -4.89 KCAL/MOL
REMARK 923 INTER-LIGAND FREE ENERGY PREDICTED BY IDOCK:   -4.76 KCAL/MOL
REMARK 924 INTRA-LIGAND FREE ENERGY PREDICTED BY IDOCK:   -0.14 KCAL/MOL
REMARK 927      BINDING AFFINITY PREDICTED BY RF-SCORE:    0.00 PKD
ROOT
HETATM    1  C   UNL     1     -10.076   5.157  70.268  1.00  0.00    -0.338 C  
HETATM    2  C   UNL     1     -11.068   6.290  70.546  1.00  0.00    -0.335 C  
HETATM    3  N   UNL     1     -11.678   6.700  69.263  1.00  0.00    -0.628 NA 
HETATM    4  H1  UNL     1     -12.339   7.455  69.448  1.00  0.00     0.000 HD 
HETATM    5  H2  UNL     1     -12.103   5.920  68.764  1.00  0.00     0.000 HD 
ENDROOT
BRANCH   2   6
HETATM    6  C   UNL     1     -10.415   7.521  71.248  1.00  0.00    -0.207 C  
HETATM    7  H   UNL     1      -9.586   7.919  72.997  1.00  0.00     0.000 HD 
HETATM    8  O   UNL     1      -9.984   7.170  72.570  1.00  0.00    -0.163 OA 
BRANCH   6   9
HETATM    9  C   UNL     1     -11.323   8.736  71.295  1.00  0.00    -0.357 A  
HETATM   10  C   UNL     1     -11.023   9.905  70.576  1.00  0.00    -0.391 A  
HETATM   11  C   UNL     1     -11.853  11.018  70.672  1.00  0.00    -0.333 A  
HETATM   12  C   UNL     1     -12.992  10.991  71.467  1.00  0.00    -0.553 A  
HETATM   13  O   UNL     1     -11.572  12.171  70.000  1.00  0.00    -0.468 OA 
HETATM   14  C   UNL     1     -13.301   9.838  72.186  1.00  0.00    -0.527 A  
HETATM   15  H   UNL     1     -12.139  12.930  70.066  1.00  0.00     0.000 HD 
HETATM   16  C   UNL     1     -12.471   8.718  72.104  1.00  0.00    -0.460 A  
ENDBRANCH   6   9
ENDBRANCH   2   6
TORSDOF 2
ENDMDL
MODEL       60
REMARK 921   NORMALIZED FREE ENERGY PREDICTED BY IDOCK:   -4.12 KCAL/MOL
REMARK 922        TOTAL FREE ENERGY PREDICTED BY IDOCK:   -4.80 KCAL/MOL
REMARK 923 INTER-LIGAND FREE ENERGY PREDICTED BY IDOCK:   -4.58 KCAL/MOL
REMARK 924 INTRA-LIGAND FREE ENERGY PREDICTED BY IDOCK:   -0.23 KCAL/MOL
REMARK 927      BINDING AFFINITY PREDICTED BY RF-SCORE:    0.00 PKD
ROOT
HETATM    1  C   UNL     1     -10.031   7.867  72.888  1.00  0.00    -0.360 C  
HETATM    2  C   UNL     1     -11.482   7.415  72.698  1.00  0.00    -0.291 C  
HETATM    3  N   UNL     1     -11.539   5.947  72.867  1.00  0.00    -0.504 NA 
HETATM    4  H1  UNL     1     -12.505   5.647  72.741  1.00  0.00     0.000 HD 
HETATM    5  H2  UNL     1     -11.146   5.640  73.756  1.00  0.00     0.000 HD 
ENDROOT
BRANCH   2   6
HETATM    6  C   UNL     1     -12.075   7.819  71.312  1.00  0.00    -0.306 C  
HETATM    7  H   UNL     1     -11.635   7.523  69.409  1.00  0.00     0.000 HD 
HETATM    8  O   UNL     1     -11.274   7.278  70.252  1.00  0.00    -0.270 OA 
BRANCH   6   9
HETATM    9  C   UNL     1     -12.232   9.318  71.141  1.00  0.00    -0.373 A  
HETATM   10  C   UNL     1     -11.460  10.036  70.212  1.00  0.00    -0.372 A  
HETATM   11  C   UNL     1     -11.597  11.416  70.107  1.00  0.00    -0.280 A  
HETATM   12  C   UNL     1     -12.501  12.105  70.905  1.00  0.00    -0.374 A  
HETATM   13  O   UNL     1     -10.844  12.137  69.228  1.00  0.00    -0.401 OA 
HETATM   14  C   UNL     1     -13.273  11.406  71.831  1.00  0.00    -0.485 A  
HETATM   15  H   UNL     1     -10.938  13.079  69.156  1.00  0.00     0.000 HD 
HETATM   16  C   UNL     1     -13.138  10.021  71.952  1.00  0.00    -0.563 A  
ENDBRANCH   6   9
ENDBRANCH   2   6
TORSDOF 2
ENDMDL
MODEL       61
REMARK 921   NORMALIZED FREE ENERGY PREDICTED BY IDOCK:   -4.12 KCAL/MOL
REMARK 922        TOTAL FREE ENERGY PREDICTED BY IDOCK:   -4.80 KCAL/MOL
REMARK 923 INTER-LIGAND FREE ENERGY PREDICTED BY IDOCK:   -4.86 KCAL/MOL
REMARK 924 INTRA-LIGAND FREE ENERGY PREDICTED BY IDOCK:    0.06 KCAL/MOL
REMARK 927      BINDING AFFINITY PREDICTED BY RF-SCORE:    0.00 PKD
ROOT
HETATM    1  C   UNL     1     -10.207  14.008  64.594  1.00  0.00    -0.242 C  
HETATM    2  C   UNL     1     -11.034  15.114  65.258  1.00  0.00    -0.395 C  
HETATM    3  N   UNL     1     -11.118  16.257  64.324  1.00  0.00    -1.192 NA 
HETATM    4  H1  UNL     1     -11.669  16.993  64.766  1.00  0.00     0.000 HD 
HETATM    5  H2  UNL     1     -11.481  15.991  63.410  1.00  0.00     0.000 HD 
ENDROOT
BRANCH   2   6
HETATM    6  C   UNL     1     -10.450  15.580  66.627  1.00  0.00    -0.299 C  
HETATM    7  H   UNL     1     -11.154  16.095  68.400  1.00  0.00     0.000 HD 
HETATM    8  O   UNL     1     -11.509  15.812  67.567  1.00  0.00    -0.216 OA 
BRANCH   6   9
HETATM    9  C   UNL     1      -9.568  16.810  66.515  1.00  0.00    -0.285 A  
HETATM   10  C   UNL     1     -10.089  18.104  66.681  1.00  0.00    -0.376 A  
HETATM   11  C   UNL     1      -9.263  19.215  66.532  1.00  0.00    -0.345 A  
HETATM   12  C   UNL     1      -7.916  19.066  66.228  1.00  0.00    -0.302 A  
HETATM   13  O   UNL     1      -9.750  20.481  66.668  1.00  0.00    -0.602 OA 
HETATM   14  C   UNL     1      -7.387  17.788  66.059  1.00  0.00    -0.307 A  
HETATM   15  H   UNL     1      -9.186  21.239  66.566  1.00  0.00     0.000 HD 
HETATM   16  C   UNL     1      -8.207  16.666  66.198  1.00  0.00    -0.295 A  
ENDBRANCH   6   9
ENDBRANCH   2   6
TORSDOF 2
ENDMDL
MODEL       62
REMARK 921   NORMALIZED FREE ENERGY PREDICTED BY IDOCK:   -4.09 KCAL/MOL
REMARK 922        TOTAL FREE ENERGY PREDICTED BY IDOCK:   -4.77 KCAL/MOL
REMARK 923 INTER-LIGAND FREE ENERGY PREDICTED BY IDOCK:   -4.67 KCAL/MOL
REMARK 924 INTRA-LIGAND FREE ENERGY PREDICTED BY IDOCK:   -0.11 KCAL/MOL
REMARK 927      BINDING AFFINITY PREDICTED BY RF-SCORE:    0.00 PKD
ROOT
HETATM    1  C   UNL     1     -10.099  10.436  66.643  1.00  0.00    -0.279 C  
HETATM    2  C   UNL     1     -11.161  10.596  67.735  1.00  0.00    -0.321 C  
HETATM    3  N   UNL     1     -12.027  11.740  67.378  1.00  0.00    -0.612 NA 
HETATM    4  H1  UNL     1     -12.734  11.846  68.105  1.00  0.00     0.000 HD 
HETATM    5  H2  UNL     1     -12.432  11.650  66.447  1.00  0.00     0.000 HD 
ENDROOT
BRANCH   2   6
HETATM    6  C   UNL     1     -10.554  10.805  69.157  1.00  0.00    -0.222 C  
HETATM    7  H   UNL     1      -8.942  10.225  70.142  1.00  0.00     0.000 HD 
HETATM    8  O   UNL     1      -9.312  10.098  69.277  1.00  0.00    -0.192 OA 
BRANCH   6   9
HETATM    9  C   UNL     1     -11.498  10.406  70.276  1.00  0.00    -0.406 A  
HETATM   10  C   UNL     1     -11.533   9.091  70.772  1.00  0.00    -0.331 A  
HETATM   11  C   UNL     1     -12.438   8.745  71.771  1.00  0.00    -0.350 A  
HETATM   12  C   UNL     1     -13.310   9.687  72.301  1.00  0.00    -0.498 A  
HETATM   13  O   UNL     1     -12.506   7.471  72.253  1.00  0.00    -0.466 OA 
HETATM   14  C   UNL     1     -13.286  10.994  71.818  1.00  0.00    -0.505 A  
HETATM   15  H   UNL     1     -13.124   7.235  72.934  1.00  0.00     0.000 HD 
HETATM   16  C   UNL     1     -12.388  11.352  70.810  1.00  0.00    -0.483 A  
ENDBRANCH   6   9
ENDBRANCH   2   6
TORSDOF 2
ENDMDL
MODEL       63
REMARK 921   NORMALIZED FREE ENERGY PREDICTED BY IDOCK:   -4.09 KCAL/MOL
REMARK 922        TOTAL FREE ENERGY PREDICTED BY IDOCK:   -4.77 KCAL/MOL
REMARK 923 INTER-LIGAND FREE ENERGY PREDICTED BY IDOCK:   -4.60 KCAL/MOL
REMARK 924 INTRA-LIGAND FREE ENERGY PREDICTED BY IDOCK:   -0.17 KCAL/MOL
REMARK 927      BINDING AFFINITY PREDICTED BY RF-SCORE:    0.00 PKD
ROOT
HETATM    1  C   UNL     1      -9.726  11.041  63.036  1.00  0.00    -0.381 C  
HETATM    2  C   UNL     1     -10.042  11.258  64.520  1.00  0.00    -0.295 C  
HETATM    3  N   UNL     1     -10.030   9.942  65.195  1.00  0.00    -0.362 NA 
HETATM    4  H1  UNL     1     -10.239  10.087  66.183  1.00  0.00     0.000 HD 
HETATM    5  H2  UNL     1      -9.158   9.435  65.050  1.00  0.00     0.000 HD 
ENDROOT
BRANCH   2   6
HETATM    6  C   UNL     1     -11.408  11.971  64.760  1.00  0.00    -0.313 C  
HETATM    7  H   UNL     1     -12.876  12.697  63.653  1.00  0.00     0.000 HD 
HETATM    8  O   UNL     1     -12.045  12.262  63.507  1.00  0.00    -0.494 OA 
BRANCH   6   9
HETATM    9  C   UNL     1     -11.288  13.232  65.595  1.00  0.00    -0.325 A  
HETATM   10  C   UNL     1     -11.857  13.321  66.877  1.00  0.00    -0.446 A  
HETATM   11  C   UNL     1     -11.765  14.505  67.603  1.00  0.00    -0.382 A  
HETATM   12  C   UNL     1     -11.105  15.610  67.082  1.00  0.00    -0.218 A  
HETATM   13  O   UNL     1     -12.327  14.621  68.840  1.00  0.00    -0.565 OA 
HETATM   14  C   UNL     1     -10.536  15.536  65.812  1.00  0.00    -0.370 A  
HETATM   15  H   UNL     1     -12.264  15.429  69.334  1.00  0.00     0.000 HD 
HETATM   16  C   UNL     1     -10.630  14.356  65.070  1.00  0.00    -0.452 A  
ENDBRANCH   6   9
ENDBRANCH   2   6
TORSDOF 2
ENDMDL
MODEL       64
REMARK 921   NORMALIZED FREE ENERGY PREDICTED BY IDOCK:   -4.08 KCAL/MOL
REMARK 922        TOTAL FREE ENERGY PREDICTED BY IDOCK:   -4.76 KCAL/MOL
REMARK 923 INTER-LIGAND FREE ENERGY PREDICTED BY IDOCK:   -4.58 KCAL/MOL
REMARK 924 INTRA-LIGAND FREE ENERGY PREDICTED BY IDOCK:   -0.18 KCAL/MOL
REMARK 927      BINDING AFFINITY PREDICTED BY RF-SCORE:    0.00 PKD
ROOT
HETATM    1  C   UNL     1     -13.353   7.373  71.440  1.00  0.00    -0.398 C  
HETATM    2  C   UNL     1     -13.041   8.537  72.387  1.00  0.00    -0.297 C  
HETATM    3  N   UNL     1     -14.272   8.872  73.133  1.00  0.00    -1.200 NA 
HETATM    4  H1  UNL     1     -14.064   9.646  73.764  1.00  0.00     0.000 HD 
HETATM    5  H2  UNL     1     -14.668   8.067  73.618  1.00  0.00     0.000 HD 
ENDROOT
BRANCH   2   6
HETATM    6  C   UNL     1     -12.499   9.801  71.650  1.00  0.00    -0.410 C  
HETATM    7  H   UNL     1     -13.056  10.943  70.137  1.00  0.00     0.000 HD 
HETATM    8  O   UNL     1     -13.386  10.174  70.585  1.00  0.00    -0.310 OA 
BRANCH   6   9
HETATM    9  C   UNL     1     -11.087   9.628  71.124  1.00  0.00    -0.444 A  
HETATM   10  C   UNL     1     -10.113   8.925  71.853  1.00  0.00    -0.393 A  
HETATM   11  C   UNL     1      -8.814   8.819  71.364  1.00  0.00    -0.225 A  
HETATM   12  C   UNL     1      -8.461   9.393  70.149  1.00  0.00    -0.224 A  
HETATM   13  O   UNL     1      -7.847   8.160  72.063  1.00  0.00    -0.100 OA 
HETATM   14  C   UNL     1      -9.417  10.093  69.416  1.00  0.00    -0.240 A  
HETATM   15  H   UNL     1      -6.961   8.088  71.729  1.00  0.00     0.000 HD 
HETATM   16  C   UNL     1     -10.721  10.214  69.901  1.00  0.00    -0.340 A  
ENDBRANCH   6   9
ENDBRANCH   2   6
TORSDOF 2
ENDMDL
MODEL       65
REMARK 921   NORMALIZED FREE ENERGY PREDICTED BY IDOCK:   -4.08 KCAL/MOL
REMARK 922        TOTAL FREE ENERGY PREDICTED BY IDOCK:   -4.76 KCAL/MOL
REMARK 923 INTER-LIGAND FREE ENERGY PREDICTED BY IDOCK:   -4.57 KCAL/MOL
REMARK 924 INTRA-LIGAND FREE ENERGY PREDICTED BY IDOCK:   -0.19 KCAL/MOL
REMARK 927      BINDING AFFINITY PREDICTED BY RF-SCORE:    0.00 PKD
ROOT
HETATM    1  C   UNL     1     -12.380  12.344  70.528  1.00  0.00    -0.346 C  
HETATM    2  C   UNL     1     -11.869  10.968  70.087  1.00  0.00    -0.357 C  
HETATM    3  N   UNL     1     -12.220  10.776  68.664  1.00  0.00    -0.827 NA 
HETATM    4  H1  UNL     1     -11.880   9.860  68.370  1.00  0.00     0.000 HD 
HETATM    5  H2  UNL     1     -11.878  11.530  68.070  1.00  0.00     0.000 HD 
ENDROOT
BRANCH   2   6
HETATM    6  C   UNL     1     -12.440   9.797  70.944  1.00  0.00    -0.277 C  
HETATM    7  H   UNL     1     -13.803   9.567  72.357  1.00  0.00     0.000 HD 
HETATM    8  O   UNL     1     -13.455  10.281  71.835  1.00  0.00    -0.377 OA 
BRANCH   6   9
HETATM    9  C   UNL     1     -11.374   9.046  71.719  1.00  0.00    -0.447 A  
HETATM   10  C   UNL     1     -10.006   9.304  71.524  1.00  0.00    -0.281 A  
HETATM   11  C   UNL     1      -9.049   8.570  72.219  1.00  0.00    -0.248 A  
HETATM   12  C   UNL     1      -9.425   7.583  73.121  1.00  0.00    -0.272 A  
HETATM   13  O   UNL     1      -7.716   8.788  72.031  1.00  0.00    -0.290 OA 
HETATM   14  C   UNL     1     -10.778   7.317  73.324  1.00  0.00    -0.428 A  
HETATM   15  H   UNL     1      -7.064   8.287  72.506  1.00  0.00     0.000 HD 
HETATM   16  C   UNL     1     -11.747   8.040  72.626  1.00  0.00    -0.418 A  
ENDBRANCH   6   9
ENDBRANCH   2   6
TORSDOF 2
ENDMDL
MODEL       66
REMARK 921   NORMALIZED FREE ENERGY PREDICTED BY IDOCK:   -4.07 KCAL/MOL
REMARK 922        TOTAL FREE ENERGY PREDICTED BY IDOCK:   -4.75 KCAL/MOL
REMARK 923 INTER-LIGAND FREE ENERGY PREDICTED BY IDOCK:   -4.58 KCAL/MOL
REMARK 924 INTRA-LIGAND FREE ENERGY PREDICTED BY IDOCK:   -0.17 KCAL/MOL
REMARK 927      BINDING AFFINITY PREDICTED BY RF-SCORE:    0.00 PKD
ROOT
HETATM    1  C   UNL     1      -9.587  10.693  62.768  1.00  0.00    -0.333 C  
HETATM    2  C   UNL     1      -9.948  11.000  64.225  1.00  0.00    -0.317 C  
HETATM    3  N   UNL     1      -9.898   9.738  64.993  1.00  0.00    -0.421 NA 
HETATM    4  H1  UNL     1     -10.138   9.943  65.963  1.00  0.00     0.000 HD 
HETATM    5  H2  UNL     1      -9.002   9.260  64.903  1.00  0.00     0.000 HD 
ENDROOT
BRANCH   2   6
HETATM    6  C   UNL     1     -11.349  11.669  64.382  1.00  0.00    -0.260 C  
HETATM    7  H   UNL     1     -12.757  12.378  63.191  1.00  0.00     0.000 HD 
HETATM    8  O   UNL     1     -11.904  11.971  63.094  1.00  0.00    -0.355 OA 
BRANCH   6   9
HETATM    9  C   UNL     1     -11.324  12.914  65.250  1.00  0.00    -0.333 A  
HETATM   10  C   UNL     1     -10.968  14.168  64.725  1.00  0.00    -0.409 A  
HETATM   11  C   UNL     1     -10.915  15.284  65.554  1.00  0.00    -0.359 A  
HETATM   12  C   UNL     1     -11.221  15.183  66.905  1.00  0.00    -0.292 A  
HETATM   13  O   UNL     1     -10.552  16.507  65.072  1.00  0.00    -0.670 OA 
HETATM   14  C   UNL     1     -11.575  13.946  67.439  1.00  0.00    -0.398 A  
HETATM   15  H   UNL     1     -10.516  17.268  65.638  1.00  0.00     0.000 HD 
HETATM   16  C   UNL     1     -11.623  12.817  66.619  1.00  0.00    -0.430 A  
ENDBRANCH   6   9
ENDBRANCH   2   6
TORSDOF 2
ENDMDL
MODEL       67
REMARK 921   NORMALIZED FREE ENERGY PREDICTED BY IDOCK:   -4.07 KCAL/MOL
REMARK 922        TOTAL FREE ENERGY PREDICTED BY IDOCK:   -4.75 KCAL/MOL
REMARK 923 INTER-LIGAND FREE ENERGY PREDICTED BY IDOCK:   -4.55 KCAL/MOL
REMARK 924 INTRA-LIGAND FREE ENERGY PREDICTED BY IDOCK:   -0.20 KCAL/MOL
REMARK 927      BINDING AFFINITY PREDICTED BY RF-SCORE:    0.00 PKD
ROOT
HETATM    1  C   UNL     1      -8.153  10.952  67.872  1.00  0.00    -0.113 C  
HETATM    2  C   UNL     1      -9.632  11.216  68.173  1.00  0.00    -0.179 C  
HETATM    3  N   UNL     1      -9.908  10.792  69.562  1.00  0.00    -0.433 NA 
HETATM    4  H1  UNL     1     -10.892  10.968  69.762  1.00  0.00     0.000 HD 
HETATM    5  H2  UNL     1      -9.285  11.233  70.238  1.00  0.00     0.000 HD 
ENDROOT
BRANCH   2   6
HETATM    6  C   UNL     1     -10.599  10.489  67.188  1.00  0.00    -0.264 C  
HETATM    7  H   UNL     1     -10.596   8.826  66.120  1.00  0.00     0.000 HD 
HETATM    8  O   UNL     1     -10.007   9.269  66.719  1.00  0.00    -0.205 OA 
BRANCH   6   9
HETATM    9  C   UNL     1     -11.021  11.353  66.015  1.00  0.00    -0.286 A  
HETATM   10  C   UNL     1     -11.961  12.388  66.166  1.00  0.00    -0.397 A  
HETATM   11  C   UNL     1     -12.360  13.137  65.063  1.00  0.00    -0.459 A  
HETATM   12  C   UNL     1     -11.832  12.887  63.803  1.00  0.00    -0.571 A  
HETATM   13  O   UNL     1     -13.285  14.131  65.181  1.00  0.00    -0.743 OA 
HETATM   14  C   UNL     1     -10.900  11.864  63.639  1.00  0.00    -0.510 A  
HETATM   15  H   UNL     1     -13.557  14.643  64.428  1.00  0.00     0.000 HD 
HETATM   16  C   UNL     1     -10.499  11.099  64.736  1.00  0.00    -0.388 A  
ENDBRANCH   6   9
ENDBRANCH   2   6
TORSDOF 2
ENDMDL
MODEL       68
REMARK 921   NORMALIZED FREE ENERGY PREDICTED BY IDOCK:   -4.02 KCAL/MOL
REMARK 922        TOTAL FREE ENERGY PREDICTED BY IDOCK:   -4.70 KCAL/MOL
REMARK 923 INTER-LIGAND FREE ENERGY PREDICTED BY IDOCK:   -4.69 KCAL/MOL
REMARK 924 INTRA-LIGAND FREE ENERGY PREDICTED BY IDOCK:   -0.01 KCAL/MOL
REMARK 927      BINDING AFFINITY PREDICTED BY RF-SCORE:    0.00 PKD
ROOT
HETATM    1  C   UNL     1      -9.616  11.844  65.992  1.00  0.00    -0.251 C  
HETATM    2  C   UNL     1     -10.677  12.179  64.939  1.00  0.00    -0.295 C  
HETATM    3  N   UNL     1     -10.060  13.051  63.917  1.00  0.00    -0.757 NA 
HETATM    4  H1  UNL     1     -10.766  13.274  63.216  1.00  0.00     0.000 HD 
HETATM    5  H2  UNL     1      -9.219  12.643  63.510  1.00  0.00     0.000 HD 
ENDROOT
BRANCH   2   6
HETATM    6  C   UNL     1     -11.942  12.869  65.539  1.00  0.00    -0.436 C  
HETATM    7  H   UNL     1     -13.433  13.984  64.877  1.00  0.00     0.000 HD 
HETATM    8  O   UNL     1     -12.663  13.565  64.512  1.00  0.00    -0.635 OA 
BRANCH   6   9
HETATM    9  C   UNL     1     -11.625  13.806  66.688  1.00  0.00    -0.392 A  
HETATM   10  C   UNL     1     -11.025  15.059  66.470  1.00  0.00    -0.327 A  
HETATM   11  C   UNL     1     -10.709  15.880  67.548  1.00  0.00    -0.318 A  
HETATM   12  C   UNL     1     -10.988  15.486  68.850  1.00  0.00    -0.266 A  
HETATM   13  O   UNL     1     -10.108  17.090  67.363  1.00  0.00    -0.275 OA 
HETATM   14  C   UNL     1     -11.582  14.247  69.081  1.00  0.00    -0.346 A  
HETATM   15  H   UNL     1      -9.892  17.650  68.099  1.00  0.00     0.000 HD 
HETATM   16  C   UNL     1     -11.896  13.410  68.008  1.00  0.00    -0.392 A  
ENDBRANCH   6   9
ENDBRANCH   2   6
TORSDOF 2
ENDMDL
MODEL       69
REMARK 921   NORMALIZED FREE ENERGY PREDICTED BY IDOCK:   -4.01 KCAL/MOL
REMARK 922        TOTAL FREE ENERGY PREDICTED BY IDOCK:   -4.68 KCAL/MOL
REMARK 923 INTER-LIGAND FREE ENERGY PREDICTED BY IDOCK:   -4.49 KCAL/MOL
REMARK 924 INTRA-LIGAND FREE ENERGY PREDICTED BY IDOCK:   -0.19 KCAL/MOL
REMARK 927      BINDING AFFINITY PREDICTED BY RF-SCORE:    0.00 PKD
ROOT
HETATM    1  C   UNL     1      -9.940  12.283  66.366  1.00  0.00    -0.243 C  
HETATM    2  C   UNL     1     -11.360  12.203  66.934  1.00  0.00    -0.343 C  
HETATM    3  N   UNL     1     -12.313  12.542  65.856  1.00  0.00    -0.603 NA 
HETATM    4  H1  UNL     1     -13.259  12.488  66.234  1.00  0.00     0.000 HD 
HETATM    5  H2  UNL     1     -12.189  11.962  65.027  1.00  0.00     0.000 HD 
ENDROOT
BRANCH   2   6
HETATM    6  C   UNL     1     -11.585  13.138  68.163  1.00  0.00    -0.339 C  
HETATM    7  H   UNL     1     -10.550  14.498  69.155  1.00  0.00     0.000 HD 
HETATM    8  O   UNL     1     -10.413  13.928  68.407  1.00  0.00    -0.235 OA 
BRANCH   6   9
HETATM    9  C   UNL     1     -11.989  12.391  69.419  1.00  0.00    -0.319 A  
HETATM   10  C   UNL     1     -11.920  10.989  69.494  1.00  0.00    -0.413 A  
HETATM   11  C   UNL     1     -12.336  10.328  70.646  1.00  0.00    -0.325 A  
HETATM   12  C   UNL     1     -12.814  11.037  71.740  1.00  0.00    -0.496 A  
HETATM   13  O   UNL     1     -12.298   8.968  70.734  1.00  0.00    -0.478 OA 
HETATM   14  C   UNL     1     -12.887  12.427  71.680  1.00  0.00    -0.375 A  
HETATM   15  H   UNL     1     -12.582   8.518  71.520  1.00  0.00     0.000 HD 
HETATM   16  C   UNL     1     -12.481  13.101  70.526  1.00  0.00    -0.322 A  
ENDBRANCH   6   9
ENDBRANCH   2   6
TORSDOF 2
ENDMDL
MODEL       70
REMARK 921   NORMALIZED FREE ENERGY PREDICTED BY IDOCK:   -4.00 KCAL/MOL
REMARK 922        TOTAL FREE ENERGY PREDICTED BY IDOCK:   -4.67 KCAL/MOL
REMARK 923 INTER-LIGAND FREE ENERGY PREDICTED BY IDOCK:   -4.48 KCAL/MOL
REMARK 924 INTRA-LIGAND FREE ENERGY PREDICTED BY IDOCK:   -0.18 KCAL/MOL
REMARK 927      BINDING AFFINITY PREDICTED BY RF-SCORE:    0.00 PKD
ROOT
HETATM    1  C   UNL     1      -9.702   9.424  66.231  1.00  0.00    -0.330 C  
HETATM    2  C   UNL     1     -10.086  10.352  65.075  1.00  0.00    -0.309 C  
HETATM    3  N   UNL     1      -9.562   9.773  63.819  1.00  0.00    -0.471 NA 
HETATM    4  H1  UNL     1      -9.819  10.391  63.049  1.00  0.00     0.000 HD 
HETATM    5  H2  UNL     1      -9.872   8.813  63.671  1.00  0.00     0.000 HD 
ENDROOT
BRANCH   2   6
HETATM    6  C   UNL     1      -9.559  11.809  65.254  1.00  0.00    -0.168 C  
HETATM    7  H   UNL     1      -8.626  12.848  66.652  1.00  0.00     0.000 HD 
HETATM    8  O   UNL     1      -8.947  11.962  66.543  1.00  0.00    -0.200 OA 
BRANCH   6   9
HETATM    9  C   UNL     1     -10.631  12.864  65.053  1.00  0.00    -0.333 A  
HETATM   10  C   UNL     1     -10.303  14.187  64.709  1.00  0.00    -0.387 A  
HETATM   11  C   UNL     1     -11.306  15.142  64.571  1.00  0.00    -0.290 A  
HETATM   12  C   UNL     1     -12.640  14.806  64.758  1.00  0.00    -0.108 A  
HETATM   13  O   UNL     1     -11.011  16.436  64.259  1.00  0.00    -1.132 OA 
HETATM   14  C   UNL     1     -12.979  13.498  65.099  1.00  0.00    -0.263 A  
HETATM   15  H   UNL     1     -11.695  17.088  64.165  1.00  0.00     0.000 HD 
HETATM   16  C   UNL     1     -11.981  12.533  65.249  1.00  0.00    -0.490 A  
ENDBRANCH   6   9
ENDBRANCH   2   6
TORSDOF 2
ENDMDL
MODEL       71
REMARK 921   NORMALIZED FREE ENERGY PREDICTED BY IDOCK:   -3.98 KCAL/MOL
REMARK 922        TOTAL FREE ENERGY PREDICTED BY IDOCK:   -4.65 KCAL/MOL
REMARK 923 INTER-LIGAND FREE ENERGY PREDICTED BY IDOCK:   -4.45 KCAL/MOL
REMARK 924 INTRA-LIGAND FREE ENERGY PREDICTED BY IDOCK:   -0.20 KCAL/MOL
REMARK 927      BINDING AFFINITY PREDICTED BY RF-SCORE:    0.00 PKD
ROOT
HETATM    1  C   UNL     1     -11.217  14.814  65.751  1.00  0.00    -0.337 C  
HETATM    2  C   UNL     1      -9.882  15.347  66.283  1.00  0.00    -0.297 C  
HETATM    3  N   UNL     1      -8.952  14.208  66.430  1.00  0.00    -0.482 NA 
HETATM    4  H1  UNL     1      -8.063  14.563  66.784  1.00  0.00     0.000 HD 
HETATM    5  H2  UNL     1      -8.845  13.674  65.568  1.00  0.00     0.000 HD 
ENDROOT
BRANCH   2   6
HETATM    6  C   UNL     1     -10.020  16.106  67.639  1.00  0.00    -0.241 C  
HETATM    7  H   UNL     1     -11.406  16.351  69.026  1.00  0.00     0.000 HD 
HETATM    8  O   UNL     1     -11.323  15.889  68.201  1.00  0.00    -0.345 OA 
BRANCH   6   9
HETATM    9  C   UNL     1      -9.737  17.592  67.525  1.00  0.00    -0.280 A  
HETATM   10  C   UNL     1      -9.025  18.123  66.436  1.00  0.00    -0.256 A  
HETATM   11  C   UNL     1      -8.745  19.485  66.380  1.00  0.00    -0.361 A  
HETATM   12  C   UNL     1      -9.170  20.342  67.387  1.00  0.00    -0.507 A  
HETATM   13  O   UNL     1      -8.037  20.019  65.344  1.00  0.00    -0.428 OA 
HETATM   14  C   UNL     1      -9.877  19.829  68.473  1.00  0.00    -0.506 A  
HETATM   15  H   UNL     1      -7.846  20.948  65.306  1.00  0.00     0.000 HD 
HETATM   16  C   UNL     1     -10.157  18.463  68.545  1.00  0.00    -0.413 A  
ENDBRANCH   6   9
ENDBRANCH   2   6
TORSDOF 2
ENDMDL
MODEL       72
REMARK 921   NORMALIZED FREE ENERGY PREDICTED BY IDOCK:   -3.98 KCAL/MOL
REMARK 922        TOTAL FREE ENERGY PREDICTED BY IDOCK:   -4.65 KCAL/MOL
REMARK 923 INTER-LIGAND FREE ENERGY PREDICTED BY IDOCK:   -4.65 KCAL/MOL
REMARK 924 INTRA-LIGAND FREE ENERGY PREDICTED BY IDOCK:   -0.00 KCAL/MOL
REMARK 927      BINDING AFFINITY PREDICTED BY RF-SCORE:    0.00 PKD
ROOT
HETATM    1  C   UNL     1     -11.731  14.593  67.404  1.00  0.00    -0.413 C  
HETATM    2  C   UNL     1     -10.545  15.470  66.989  1.00  0.00    -0.311 C  
HETATM    3  N   UNL     1     -10.845  16.867  67.367  1.00  0.00    -0.230 NA 
HETATM    4  H1  UNL     1     -10.056  17.451  67.090  1.00  0.00     0.000 HD 
HETATM    5  H2  UNL     1     -11.078  16.965  68.354  1.00  0.00     0.000 HD 
ENDROOT
BRANCH   2   6
HETATM    6  C   UNL     1     -10.221  15.383  65.465  1.00  0.00    -0.382 C  
HETATM    7  H   UNL     1     -10.513  16.495  63.858  1.00  0.00     0.000 HD 
HETATM    8  O   UNL     1     -10.711  16.548  64.785  1.00  0.00    -0.719 OA 
BRANCH   6   9
HETATM    9  C   UNL     1     -10.757  14.125  64.809  1.00  0.00    -0.436 A  
HETATM   10  C   UNL     1     -10.119  12.883  64.971  1.00  0.00    -0.235 A  
HETATM   11  C   UNL     1     -10.611  11.754  64.323  1.00  0.00    -0.335 A  
HETATM   12  C   UNL     1     -11.739  11.830  63.517  1.00  0.00    -0.485 A  
HETATM   13  O   UNL     1      -9.996  10.543  64.448  1.00  0.00    -0.321 OA 
HETATM   14  C   UNL     1     -12.382  13.055  63.347  1.00  0.00    -0.478 A  
HETATM   15  H   UNL     1     -10.332   9.773  64.006  1.00  0.00     0.000 HD 
HETATM   16  C   UNL     1     -11.893  14.197  63.986  1.00  0.00    -0.301 A  
ENDBRANCH   6   9
ENDBRANCH   2   6
TORSDOF 2
ENDMDL
MODEL       73
REMARK 921   NORMALIZED FREE ENERGY PREDICTED BY IDOCK:   -3.96 KCAL/MOL
REMARK 922        TOTAL FREE ENERGY PREDICTED BY IDOCK:   -4.63 KCAL/MOL
REMARK 923 INTER-LIGAND FREE ENERGY PREDICTED BY IDOCK:   -4.46 KCAL/MOL
REMARK 924 INTRA-LIGAND FREE ENERGY PREDICTED BY IDOCK:   -0.17 KCAL/MOL
REMARK 927      BINDING AFFINITY PREDICTED BY RF-SCORE:    0.00 PKD
ROOT
HETATM    1  C   UNL     1     -13.092  11.514  71.591  1.00  0.00    -0.478 C  
HETATM    2  C   UNL     1     -12.382  10.344  70.903  1.00  0.00    -0.381 C  
HETATM    3  N   UNL     1     -12.430  10.565  69.443  1.00  0.00    -0.693 NA 
HETATM    4  H1  UNL     1     -11.957   9.786  68.985  1.00  0.00     0.000 HD 
HETATM    5  H2  UNL     1     -12.048  11.470  69.170  1.00  0.00     0.000 HD 
ENDROOT
BRANCH   2   6
HETATM    6  C   UNL     1     -13.001   8.956  71.257  1.00  0.00    -0.211 C  
HETATM    7  H   UNL     1     -14.291   8.239  72.570  1.00  0.00     0.000 HD 
HETATM    8  O   UNL     1     -13.915   9.084  72.356  1.00  0.00    -0.465 OA 
BRANCH   6   9
HETATM    9  C   UNL     1     -11.959   7.895  71.560  1.00  0.00    -0.333 A  
HETATM   10  C   UNL     1     -11.684   6.857  70.653  1.00  0.00    -0.417 A  
HETATM   11  C   UNL     1     -10.753   5.874  70.976  1.00  0.00    -0.267 A  
HETATM   12  C   UNL     1     -10.074   5.907  72.187  1.00  0.00    -0.210 A  
HETATM   13  O   UNL     1     -10.485   4.846  70.122  1.00  0.00    -0.244 OA 
HETATM   14  C   UNL     1     -10.337   6.931  73.096  1.00  0.00    -0.293 A  
HETATM   15  H   UNL     1      -9.850   4.176  70.343  1.00  0.00     0.000 HD 
HETATM   16  C   UNL     1     -11.276   7.917  72.786  1.00  0.00    -0.466 A  
ENDBRANCH   6   9
ENDBRANCH   2   6
TORSDOF 2
ENDMDL
MODEL       74
REMARK 921   NORMALIZED FREE ENERGY PREDICTED BY IDOCK:   -3.96 KCAL/MOL
REMARK 922        TOTAL FREE ENERGY PREDICTED BY IDOCK:   -4.62 KCAL/MOL
REMARK 923 INTER-LIGAND FREE ENERGY PREDICTED BY IDOCK:   -4.43 KCAL/MOL
REMARK 924 INTRA-LIGAND FREE ENERGY PREDICTED BY IDOCK:   -0.19 KCAL/MOL
REMARK 927      BINDING AFFINITY PREDICTED BY RF-SCORE:    0.00 PKD
ROOT
HETATM    1  C   UNL     1     -11.723  14.865  70.034  1.00  0.00    -0.338 C  
HETATM    2  C   UNL     1     -11.566  15.563  68.679  1.00  0.00    -0.368 C  
HETATM    3  N   UNL     1     -12.186  14.711  67.642  1.00  0.00    -0.587 NA 
HETATM    4  H1  UNL     1     -12.081  15.176  66.740  1.00  0.00     0.000 HD 
HETATM    5  H2  UNL     1     -13.156  14.479  67.853  1.00  0.00     0.000 HD 
ENDROOT
BRANCH   2   6
HETATM    6  C   UNL     1     -10.080  15.861  68.310  1.00  0.00    -0.224 C  
HETATM    7  H   UNL     1      -8.299  15.537  69.103  1.00  0.00     0.000 HD 
HETATM    8  O   UNL     1      -9.203  15.355  69.328  1.00  0.00    -0.230 OA 
BRANCH   6   9
HETATM    9  C   UNL     1      -9.807  17.333  68.065  1.00  0.00    -0.284 A  
HETATM   10  C   UNL     1      -8.610  17.938  68.485  1.00  0.00    -0.298 A  
HETATM   11  C   UNL     1      -8.405  19.300  68.283  1.00  0.00    -0.338 A  
HETATM   12  C   UNL     1      -9.369  20.080  67.657  1.00  0.00    -0.476 A  
HETATM   13  O   UNL     1      -7.261  19.913  68.700  1.00  0.00    -0.321 OA 
HETATM   14  C   UNL     1     -10.562  19.493  67.237  1.00  0.00    -0.610 A  
HETATM   15  H   UNL     1      -7.122  20.842  68.561  1.00  0.00     0.000 HD 
HETATM   16  C   UNL     1     -10.782  18.130  67.442  1.00  0.00    -0.355 A  
ENDBRANCH   6   9
ENDBRANCH   2   6
TORSDOF 2
ENDMDL
MODEL       75
REMARK 921   NORMALIZED FREE ENERGY PREDICTED BY IDOCK:   -3.96 KCAL/MOL
REMARK 922        TOTAL FREE ENERGY PREDICTED BY IDOCK:   -4.62 KCAL/MOL
REMARK 923 INTER-LIGAND FREE ENERGY PREDICTED BY IDOCK:   -4.46 KCAL/MOL
REMARK 924 INTRA-LIGAND FREE ENERGY PREDICTED BY IDOCK:   -0.16 KCAL/MOL
REMARK 927      BINDING AFFINITY PREDICTED BY RF-SCORE:    0.00 PKD
ROOT
HETATM    1  C   UNL     1     -10.483  10.601  69.924  1.00  0.00    -0.136 C  
HETATM    2  C   UNL     1     -10.910  10.532  68.455  1.00  0.00    -0.240 C  
HETATM    3  N   UNL     1     -10.994   9.110  68.061  1.00  0.00    -0.493 NA 
HETATM    4  H1  UNL     1     -11.278   9.064  67.083  1.00  0.00     0.000 HD 
HETATM    5  H2  UNL     1     -11.604   8.569  68.672  1.00  0.00     0.000 HD 
ENDROOT
BRANCH   2   6
HETATM    6  C   UNL     1      -9.945  11.298  67.498  1.00  0.00    -0.182 C  
HETATM    7  H   UNL     1      -8.847  12.940  67.560  1.00  0.00     0.000 HD 
HETATM    8  O   UNL     1      -9.434  12.474  68.142  1.00  0.00    -0.206 OA 
BRANCH   6   9
HETATM    9  C   UNL     1     -10.581  11.660  66.169  1.00  0.00    -0.306 A  
HETATM   10  C   UNL     1     -11.536  12.686  66.068  1.00  0.00    -0.443 A  
HETATM   11  C   UNL     1     -12.133  12.968  64.842  1.00  0.00    -0.413 A  
HETATM   12  C   UNL     1     -11.791  12.253  63.702  1.00  0.00    -0.610 A  
HETATM   13  O   UNL     1     -13.077  13.945  64.724  1.00  0.00    -0.640 OA 
HETATM   14  C   UNL     1     -10.845  11.233  63.788  1.00  0.00    -0.424 A  
HETATM   15  H   UNL     1     -13.484  14.137  63.888  1.00  0.00     0.000 HD 
HETATM   16  C   UNL     1     -10.246  10.935  65.014  1.00  0.00    -0.367 A  
ENDBRANCH   6   9
ENDBRANCH   2   6
TORSDOF 2
ENDMDL
MODEL       76
REMARK 921   NORMALIZED FREE ENERGY PREDICTED BY IDOCK:   -3.92 KCAL/MOL
REMARK 922        TOTAL FREE ENERGY PREDICTED BY IDOCK:   -4.58 KCAL/MOL
REMARK 923 INTER-LIGAND FREE ENERGY PREDICTED BY IDOCK:   -4.41 KCAL/MOL
REMARK 924 INTRA-LIGAND FREE ENERGY PREDICTED BY IDOCK:   -0.17 KCAL/MOL
REMARK 927      BINDING AFFINITY PREDICTED BY RF-SCORE:    0.00 PKD
ROOT
HETATM    1  C   UNL     1      -9.206  17.566  67.355  1.00  0.00    -0.238 C  
HETATM    2  C   UNL     1      -9.904  16.661  66.334  1.00  0.00    -0.292 C  
HETATM    3  N   UNL     1     -10.652  17.516  65.388  1.00  0.00    -0.631 NA 
HETATM    4  H1  UNL     1     -11.116  16.913  64.709  1.00  0.00     0.000 HD 
HETATM    5  H2  UNL     1     -10.063  18.222  64.948  1.00  0.00     0.000 HD 
ENDROOT
BRANCH   2   6
HETATM    6  C   UNL     1     -10.863  15.620  66.991  1.00  0.00    -0.294 C  
HETATM    7  H   UNL     1     -10.988  14.649  68.707  1.00  0.00     0.000 HD 
HETATM    8  O   UNL     1     -10.404  15.282  68.308  1.00  0.00    -0.229 OA 
BRANCH   6   9
HETATM    9  C   UNL     1     -11.045  14.365  66.159  1.00  0.00    -0.330 A  
HETATM   10  C   UNL     1      -9.974  13.492  65.902  1.00  0.00    -0.295 A  
HETATM   11  C   UNL     1     -10.163  12.370  65.100  1.00  0.00    -0.281 A  
HETATM   12  C   UNL     1     -11.407  12.088  64.552  1.00  0.00    -0.393 A  
HETATM   13  O   UNL     1      -9.134  11.520  64.820  1.00  0.00    -0.405 OA 
HETATM   14  C   UNL     1     -12.478  12.945  64.798  1.00  0.00    -0.517 A  
HETATM   15  H   UNL     1      -9.263  10.755  64.273  1.00  0.00     0.000 HD 
HETATM   16  C   UNL     1     -12.299  14.079  65.593  1.00  0.00    -0.502 A  
ENDBRANCH   6   9
ENDBRANCH   2   6
TORSDOF 2
ENDMDL
MODEL       77
REMARK 921   NORMALIZED FREE ENERGY PREDICTED BY IDOCK:   -3.91 KCAL/MOL
REMARK 922        TOTAL FREE ENERGY PREDICTED BY IDOCK:   -4.57 KCAL/MOL
REMARK 923 INTER-LIGAND FREE ENERGY PREDICTED BY IDOCK:   -4.66 KCAL/MOL
REMARK 924 INTRA-LIGAND FREE ENERGY PREDICTED BY IDOCK:    0.09 KCAL/MOL
REMARK 927      BINDING AFFINITY PREDICTED BY RF-SCORE:    0.00 PKD
ROOT
HETATM    1  C   UNL     1     -11.391   6.536  69.405  1.00  0.00    -0.395 C  
HETATM    2  C   UNL     1     -11.812   6.709  70.868  1.00  0.00    -0.377 C  
HETATM    3  N   UNL     1     -13.258   7.014  70.903  1.00  0.00    -0.479 NA 
HETATM    4  H1  UNL     1     -13.538   7.128  71.877  1.00  0.00     0.000 HD 
HETATM    5  H2  UNL     1     -13.818   6.317  70.414  1.00  0.00     0.000 HD 
ENDROOT
BRANCH   2   6
HETATM    6  C   UNL     1     -11.010   7.821  71.611  1.00  0.00    -0.235 C  
HETATM    7  H   UNL     1     -10.618   8.316  73.484  1.00  0.00     0.000 HD 
HETATM    8  O   UNL     1     -11.106   7.639  73.031  1.00  0.00    -0.387 OA 
BRANCH   6   9
HETATM    9  C   UNL     1     -11.440   9.226  71.231  1.00  0.00    -0.418 A  
HETATM   10  C   UNL     1     -12.416   9.919  71.966  1.00  0.00    -0.353 A  
HETATM   11  C   UNL     1     -12.820  11.190  71.568  1.00  0.00    -0.437 A  
HETATM   12  C   UNL     1     -12.261  11.798  70.451  1.00  0.00    -0.416 A  
HETATM   13  O   UNL     1     -13.780  11.874  72.253  1.00  0.00    -0.469 OA 
HETATM   14  C   UNL     1     -11.292  11.122  69.713  1.00  0.00    -0.354 A  
HETATM   15  H   UNL     1     -14.055  12.742  71.981  1.00  0.00     0.000 HD 
HETATM   16  C   UNL     1     -10.885   9.842  70.097  1.00  0.00    -0.340 A  
ENDBRANCH   6   9
ENDBRANCH   2   6
TORSDOF 2
ENDMDL
MODEL       78
REMARK 921   NORMALIZED FREE ENERGY PREDICTED BY IDOCK:   -3.89 KCAL/MOL
REMARK 922        TOTAL FREE ENERGY PREDICTED BY IDOCK:   -4.55 KCAL/MOL
REMARK 923 INTER-LIGAND FREE ENERGY PREDICTED BY IDOCK:   -4.35 KCAL/MOL
REMARK 924 INTRA-LIGAND FREE ENERGY PREDICTED BY IDOCK:   -0.20 KCAL/MOL
REMARK 927      BINDING AFFINITY PREDICTED BY RF-SCORE:    0.00 PKD
ROOT
HETATM    1  C   UNL     1      -9.353   9.702  70.033  1.00  0.00    -0.276 C  
HETATM    2  C   UNL     1     -10.790  10.097  69.676  1.00  0.00    -0.263 C  
HETATM    3  N   UNL     1     -11.705   9.083  70.240  1.00  0.00    -0.468 NA 
HETATM    4  H1  UNL     1     -12.662   9.346  70.004  1.00  0.00     0.000 HD 
HETATM    5  H2  UNL     1     -11.573   8.949  71.242  1.00  0.00     0.000 HD 
ENDROOT
BRANCH   2   6
HETATM    6  C   UNL     1     -11.026  10.238  68.140  1.00  0.00    -0.274 C  
HETATM    7  H   UNL     1     -10.037   9.824  66.481  1.00  0.00     0.000 HD 
HETATM    8  O   UNL     1      -9.893   9.738  67.415  1.00  0.00    -0.160 OA 
BRANCH   6   9
HETATM    9  C   UNL     1     -11.342  11.658  67.710  1.00  0.00    -0.356 A  
HETATM   10  C   UNL     1     -11.666  12.654  68.647  1.00  0.00    -0.364 A  
HETATM   11  C   UNL     1     -11.992  13.937  68.219  1.00  0.00    -0.357 A  
HETATM   12  C   UNL     1     -11.993  14.259  66.868  1.00  0.00    -0.467 A  
HETATM   13  O   UNL     1     -12.330  14.915  69.108  1.00  0.00    -0.549 OA 
HETATM   14  C   UNL     1     -11.674  13.281  65.928  1.00  0.00    -0.403 A  
HETATM   15  H   UNL     1     -12.552  15.790  68.816  1.00  0.00     0.000 HD 
HETATM   16  C   UNL     1     -11.354  11.987  66.345  1.00  0.00    -0.411 A  
ENDBRANCH   6   9
ENDBRANCH   2   6
TORSDOF 2
ENDMDL
MODEL       79
REMARK 921   NORMALIZED FREE ENERGY PREDICTED BY IDOCK:   -3.88 KCAL/MOL
REMARK 922        TOTAL FREE ENERGY PREDICTED BY IDOCK:   -4.54 KCAL/MOL
REMARK 923 INTER-LIGAND FREE ENERGY PREDICTED BY IDOCK:   -4.34 KCAL/MOL
REMARK 924 INTRA-LIGAND FREE ENERGY PREDICTED BY IDOCK:   -0.20 KCAL/MOL
REMARK 927      BINDING AFFINITY PREDICTED BY RF-SCORE:    0.00 PKD
ROOT
HETATM    1  C   UNL     1     -10.692  14.184  65.309  1.00  0.00    -0.374 C  
HETATM    2  C   UNL     1      -9.570  14.792  66.157  1.00  0.00    -0.309 C  
HETATM    3  N   UNL     1      -8.649  13.707  66.557  1.00  0.00    -0.427 NA 
HETATM    4  H1  UNL     1      -7.902  14.111  67.122  1.00  0.00     0.000 HD 
HETATM    5  H2  UNL     1      -8.296  13.179  65.760  1.00  0.00     0.000 HD 
ENDROOT
BRANCH   2   6
HETATM    6  C   UNL     1     -10.093  15.544  67.420  1.00  0.00    -0.246 C  
HETATM    7  H   UNL     1     -11.833  15.848  68.306  1.00  0.00     0.000 HD 
HETATM    8  O   UNL     1     -11.515  15.390  67.538  1.00  0.00    -0.318 OA 
BRANCH   6   9
HETATM    9  C   UNL     1      -9.719  17.014  67.439  1.00  0.00    -0.252 A  
HETATM   10  C   UNL     1     -10.274  17.901  68.378  1.00  0.00    -0.398 A  
HETATM   11  C   UNL     1      -9.944  19.252  68.345  1.00  0.00    -0.419 A  
HETATM   12  C   UNL     1      -9.057  19.745  67.397  1.00  0.00    -0.415 A  
HETATM   13  O   UNL     1     -10.485  20.135  69.232  1.00  0.00    -0.582 OA 
HETATM   14  C   UNL     1      -8.499  18.878  66.460  1.00  0.00    -0.310 A  
HETATM   15  H   UNL     1     -10.259  21.057  69.209  1.00  0.00     0.000 HD 
HETATM   16  C   UNL     1      -8.830  17.521  66.477  1.00  0.00    -0.291 A  
ENDBRANCH   6   9
ENDBRANCH   2   6
TORSDOF 2
ENDMDL
MODEL       80
REMARK 921   NORMALIZED FREE ENERGY PREDICTED BY IDOCK:   -3.86 KCAL/MOL
REMARK 922        TOTAL FREE ENERGY PREDICTED BY IDOCK:   -4.51 KCAL/MOL
REMARK 923 INTER-LIGAND FREE ENERGY PREDICTED BY IDOCK:   -4.38 KCAL/MOL
REMARK 924 INTRA-LIGAND FREE ENERGY PREDICTED BY IDOCK:   -0.13 KCAL/MOL
REMARK 927      BINDING AFFINITY PREDICTED BY RF-SCORE:    0.00 PKD
ROOT
HETATM    1  C   UNL     1     -10.636  13.722  65.163  1.00  0.00    -0.385 C  
HETATM    2  C   UNL     1     -10.998  15.112  65.695  1.00  0.00    -0.355 C  
HETATM    3  N   UNL     1     -10.770  16.098  64.618  1.00  0.00    -0.821 NA 
HETATM    4  H1  UNL     1     -11.012  17.023  64.972  1.00  0.00     0.000 HD 
HETATM    5  H2  UNL     1     -11.269  15.864  63.760  1.00  0.00     0.000 HD 
ENDROOT
BRANCH   2   6
HETATM    6  C   UNL     1     -10.191  15.512  66.969  1.00  0.00    -0.271 C  
HETATM    7  H   UNL     1      -8.383  15.186  67.698  1.00  0.00     0.000 HD 
HETATM    8  O   UNL     1      -8.875  14.942  66.923  1.00  0.00    -0.229 OA 
BRANCH   6   9
HETATM    9  C   UNL     1     -10.884  15.132  68.263  1.00  0.00    -0.262 A  
HETATM   10  C   UNL     1     -10.856  13.814  68.751  1.00  0.00    -0.281 A  
HETATM   11  C   UNL     1     -11.536  13.486  69.920  1.00  0.00    -0.201 A  
HETATM   12  C   UNL     1     -12.243  14.450  70.627  1.00  0.00    -0.414 A  
HETATM   13  O   UNL     1     -11.541  12.210  70.402  1.00  0.00    -0.526 OA 
HETATM   14  C   UNL     1     -12.280  15.761  70.155  1.00  0.00    -0.340 A  
HETATM   15  H   UNL     1     -12.005  11.987  71.200  1.00  0.00     0.000 HD 
HETATM   16  C   UNL     1     -11.608  16.100  68.978  1.00  0.00    -0.298 A  
ENDBRANCH   6   9
ENDBRANCH   2   6
TORSDOF 2
ENDMDL
MODEL       81
REMARK 921   NORMALIZED FREE ENERGY PREDICTED BY IDOCK:   -3.84 KCAL/MOL
REMARK 922        TOTAL FREE ENERGY PREDICTED BY IDOCK:   -4.49 KCAL/MOL
REMARK 923 INTER-LIGAND FREE ENERGY PREDICTED BY IDOCK:   -4.27 KCAL/MOL
REMARK 924 INTRA-LIGAND FREE ENERGY PREDICTED BY IDOCK:   -0.22 KCAL/MOL
REMARK 927      BINDING AFFINITY PREDICTED BY RF-SCORE:    0.00 PKD
ROOT
HETATM    1  C   UNL     1     -10.040  10.062  69.852  1.00  0.00    -0.289 C  
HETATM    2  C   UNL     1     -11.456  10.548  70.179  1.00  0.00    -0.325 C  
HETATM    3  N   UNL     1     -12.260   9.385  70.610  1.00  0.00    -0.478 NA 
HETATM    4  H1  UNL     1     -13.202   9.709  70.829  1.00  0.00     0.000 HD 
HETATM    5  H2  UNL     1     -11.831   8.877  71.383  1.00  0.00     0.000 HD 
ENDROOT
BRANCH   2   6
HETATM    6  C   UNL     1     -12.151  11.267  68.982  1.00  0.00    -0.257 C  
HETATM    7  H   UNL     1     -12.175  11.104  67.013  1.00  0.00     0.000 HD 
HETATM    8  O   UNL     1     -11.752  10.667  67.741  1.00  0.00    -0.503 OA 
BRANCH   6   9
HETATM    9  C   UNL     1     -11.895  12.762  68.950  1.00  0.00    -0.351 A  
HETATM   10  C   UNL     1     -11.419  13.401  67.792  1.00  0.00    -0.351 A  
HETATM   11  C   UNL     1     -11.155  14.767  67.805  1.00  0.00    -0.299 A  
HETATM   12  C   UNL     1     -11.365  15.522  68.951  1.00  0.00    -0.329 A  
HETATM   13  O   UNL     1     -10.672  15.405  66.700  1.00  0.00    -0.304 OA 
HETATM   14  C   UNL     1     -11.837  14.902  70.106  1.00  0.00    -0.357 A  
HETATM   15  H   UNL     1     -10.492  16.337  66.710  1.00  0.00     0.000 HD 
HETATM   16  C   UNL     1     -12.097  13.530  70.108  1.00  0.00    -0.425 A  
ENDBRANCH   6   9
ENDBRANCH   2   6
TORSDOF 2
ENDMDL
MODEL       82
REMARK 921   NORMALIZED FREE ENERGY PREDICTED BY IDOCK:   -3.80 KCAL/MOL
REMARK 922        TOTAL FREE ENERGY PREDICTED BY IDOCK:   -4.45 KCAL/MOL
REMARK 923 INTER-LIGAND FREE ENERGY PREDICTED BY IDOCK:   -4.28 KCAL/MOL
REMARK 924 INTRA-LIGAND FREE ENERGY PREDICTED BY IDOCK:   -0.17 KCAL/MOL
REMARK 927      BINDING AFFINITY PREDICTED BY RF-SCORE:    0.00 PKD
ROOT
HETATM    1  C   UNL     1      -7.280   6.859  72.810  1.00  0.00    -0.074 C  
HETATM    2  C   UNL     1      -8.415   7.876  72.660  1.00  0.00    -0.150 C  
HETATM    3  N   UNL     1      -8.529   8.636  73.922  1.00  0.00    -0.274 NA 
HETATM    4  H1  UNL     1      -9.285   9.314  73.822  1.00  0.00     0.000 HD 
HETATM    5  H2  UNL     1      -7.649   9.069  74.201  1.00  0.00     0.000 HD 
ENDROOT
BRANCH   2   6
HETATM    6  C   UNL     1      -9.785   7.220  72.302  1.00  0.00    -0.149 C  
HETATM    7  H   UNL     1     -10.461   5.903  70.993  1.00  0.00     0.000 HD 
HETATM    8  O   UNL     1      -9.627   6.303  71.211  1.00  0.00    -0.172 OA 
BRANCH   6   9
HETATM    9  C   UNL     1     -10.870   8.233  71.987  1.00  0.00    -0.370 A  
HETATM   10  C   UNL     1     -12.149   8.141  72.562  1.00  0.00    -0.377 A  
HETATM   11  C   UNL     1     -13.137   9.060  72.222  1.00  0.00    -0.445 A  
HETATM   12  C   UNL     1     -12.876  10.085  71.322  1.00  0.00    -0.500 A  
HETATM   13  O   UNL     1     -14.391   8.979  72.750  1.00  0.00    -0.940 OA 
HETATM   14  C   UNL     1     -11.612  10.188  70.744  1.00  0.00    -0.445 A  
HETATM   15  H   UNL     1     -15.065   9.607  72.518  1.00  0.00     0.000 HD 
HETATM   16  C   UNL     1     -10.616   9.266  71.071  1.00  0.00    -0.386 A  
ENDBRANCH   6   9
ENDBRANCH   2   6
TORSDOF 2
ENDMDL
MODEL       83
REMARK 921   NORMALIZED FREE ENERGY PREDICTED BY IDOCK:   -3.80 KCAL/MOL
REMARK 922        TOTAL FREE ENERGY PREDICTED BY IDOCK:   -4.45 KCAL/MOL
REMARK 923 INTER-LIGAND FREE ENERGY PREDICTED BY IDOCK:   -4.28 KCAL/MOL
REMARK 924 INTRA-LIGAND FREE ENERGY PREDICTED BY IDOCK:   -0.17 KCAL/MOL
REMARK 927      BINDING AFFINITY PREDICTED BY RF-SCORE:    0.00 PKD
ROOT
HETATM    1  C   UNL     1     -14.381   8.438  71.950  1.00  0.00    -0.561 C  
HETATM    2  C   UNL     1     -12.994   9.028  72.220  1.00  0.00    -0.424 C  
HETATM    3  N   UNL     1     -12.976  10.422  71.728  1.00  0.00    -0.454 NA 
HETATM    4  H1  UNL     1     -12.052  10.815  71.908  1.00  0.00     0.000 HD 
HETATM    5  H2  UNL     1     -13.727  10.987  72.123  1.00  0.00     0.000 HD 
ENDROOT
BRANCH   2   6
HETATM    6  C   UNL     1     -11.839   8.211  71.562  1.00  0.00    -0.294 C  
HETATM    7  H   UNL     1     -11.649   6.506  70.582  1.00  0.00     0.000 HD 
HETATM    8  O   UNL     1     -12.352   7.002  70.983  1.00  0.00    -0.370 OA 
BRANCH   6   9
HETATM    9  C   UNL     1     -10.705   7.897  72.519  1.00  0.00    -0.391 A  
HETATM   10  C   UNL     1      -9.459   8.540  72.418  1.00  0.00    -0.350 A  
HETATM   11  C   UNL     1      -8.425   8.201  73.285  1.00  0.00    -0.230 A  
HETATM   12  C   UNL     1      -8.605   7.235  74.267  1.00  0.00    -0.240 A  
HETATM   13  O   UNL     1      -7.201   8.796  73.193  1.00  0.00    -0.347 OA 
HETATM   14  C   UNL     1      -9.835   6.589  74.378  1.00  0.00    -0.355 A  
HETATM   15  H   UNL     1      -6.496   8.564  73.784  1.00  0.00     0.000 HD 
HETATM   16  C   UNL     1     -10.878   6.915  73.508  1.00  0.00    -0.265 A  
ENDBRANCH   6   9
ENDBRANCH   2   6
TORSDOF 2
ENDMDL
MODEL       84
REMARK 921   NORMALIZED FREE ENERGY PREDICTED BY IDOCK:   -3.79 KCAL/MOL
REMARK 922        TOTAL FREE ENERGY PREDICTED BY IDOCK:   -4.43 KCAL/MOL
REMARK 923 INTER-LIGAND FREE ENERGY PREDICTED BY IDOCK:   -4.26 KCAL/MOL
REMARK 924 INTRA-LIGAND FREE ENERGY PREDICTED BY IDOCK:   -0.17 KCAL/MOL
REMARK 927      BINDING AFFINITY PREDICTED BY RF-SCORE:    0.00 PKD
ROOT
HETATM    1  C   UNL     1      -9.138  12.310  66.930  1.00  0.00    -0.208 C  
HETATM    2  C   UNL     1      -9.783  12.021  68.288  1.00  0.00    -0.205 C  
HETATM    3  N   UNL     1      -8.749  11.465  69.186  1.00  0.00    -0.374 NA 
HETATM    4  H1  UNL     1      -9.178  11.273  70.091  1.00  0.00     0.000 HD 
HETATM    5  H2  UNL     1      -7.930  12.067  69.261  1.00  0.00     0.000 HD 
ENDROOT
BRANCH   2   6
HETATM    6  C   UNL     1     -10.996  11.043  68.198  1.00  0.00    -0.247 C  
HETATM    7  H   UNL     1     -12.699  10.939  67.200  1.00  0.00     0.000 HD 
HETATM    8  O   UNL     1     -11.961  11.534  67.256  1.00  0.00    -0.605 OA 
BRANCH   6   9
HETATM    9  C   UNL     1     -11.656  10.780  69.538  1.00  0.00    -0.375 A  
HETATM   10  C   UNL     1     -12.240  11.817  70.285  1.00  0.00    -0.381 A  
HETATM   11  C   UNL     1     -12.801  11.552  71.531  1.00  0.00    -0.380 A  
HETATM   12  C   UNL     1     -12.804  10.264  72.051  1.00  0.00    -0.457 A  
HETATM   13  O   UNL     1     -13.354  12.546  72.283  1.00  0.00    -0.525 OA 
HETATM   14  C   UNL     1     -12.228   9.226  71.321  1.00  0.00    -0.410 A  
HETATM   15  H   UNL     1     -13.737  12.364  73.133  1.00  0.00     0.000 HD 
HETATM   16  C   UNL     1     -11.654   9.482  70.074  1.00  0.00    -0.091 A  
ENDBRANCH   6   9
ENDBRANCH   2   6
TORSDOF 2
ENDMDL
MODEL       85
REMARK 921   NORMALIZED FREE ENERGY PREDICTED BY IDOCK:   -3.79 KCAL/MOL
REMARK 922        TOTAL FREE ENERGY PREDICTED BY IDOCK:   -4.43 KCAL/MOL
REMARK 923 INTER-LIGAND FREE ENERGY PREDICTED BY IDOCK:   -4.34 KCAL/MOL
REMARK 924 INTRA-LIGAND FREE ENERGY PREDICTED BY IDOCK:   -0.09 KCAL/MOL
REMARK 927      BINDING AFFINITY PREDICTED BY RF-SCORE:    0.00 PKD
ROOT
HETATM    1  C   UNL     1     -10.514  19.276  65.989  1.00  0.00    -0.573 C  
HETATM    2  C   UNL     1     -10.394  17.749  65.995  1.00  0.00    -0.304 C  
HETATM    3  N   UNL     1     -11.123  17.221  64.822  1.00  0.00    -0.920 NA 
HETATM    4  H1  UNL     1     -11.043  16.204  64.825  1.00  0.00     0.000 HD 
HETATM    5  H2  UNL     1     -10.809  17.635  63.945  1.00  0.00     0.000 HD 
ENDROOT
BRANCH   2   6
HETATM    6  C   UNL     1     -10.936  17.094  67.303  1.00  0.00    -0.006 C  
HETATM    7  H   UNL     1     -10.778  17.403  69.248  1.00  0.00     0.000 HD 
HETATM    8  O   UNL     1     -10.448  17.801  68.452  1.00  0.00    -0.369 OA 
BRANCH   6   9
HETATM    9  C   UNL     1     -10.609  15.617  67.414  1.00  0.00    -0.301 A  
HETATM   10  C   UNL     1     -11.527  14.630  67.018  1.00  0.00    -0.379 A  
HETATM   11  C   UNL     1     -11.214  13.282  67.170  1.00  0.00    -0.299 A  
HETATM   12  C   UNL     1      -9.993  12.890  67.704  1.00  0.00    -0.218 A  
HETATM   13  O   UNL     1     -12.097  12.306  66.813  1.00  0.00    -0.593 OA 
HETATM   14  C   UNL     1      -9.074  13.859  68.102  1.00  0.00    -0.193 A  
HETATM   15  H   UNL     1     -11.883  11.387  66.917  1.00  0.00     0.000 HD 
HETATM   16  C   UNL     1      -9.380  15.214  67.962  1.00  0.00    -0.187 A  
ENDBRANCH   6   9
ENDBRANCH   2   6
TORSDOF 2
ENDMDL
MODEL       86
REMARK 921   NORMALIZED FREE ENERGY PREDICTED BY IDOCK:   -3.78 KCAL/MOL
REMARK 922        TOTAL FREE ENERGY PREDICTED BY IDOCK:   -4.43 KCAL/MOL
REMARK 923 INTER-LIGAND FREE ENERGY PREDICTED BY IDOCK:   -4.26 KCAL/MOL
REMARK 924 INTRA-LIGAND FREE ENERGY PREDICTED BY IDOCK:   -0.17 KCAL/MOL
REMARK 927      BINDING AFFINITY PREDICTED BY RF-SCORE:    0.00 PKD
ROOT
HETATM    1  C   UNL     1      -8.548   5.090  69.969  1.00  0.00    -0.111 C  
HETATM    2  C   UNL     1      -9.586   5.388  71.056  1.00  0.00    -0.172 C  
HETATM    3  N   UNL     1      -9.723   4.188  71.909  1.00  0.00    -0.159 NA 
HETATM    4  H1  UNL     1     -10.413   4.387  72.633  1.00  0.00     0.000 HD 
HETATM    5  H2  UNL     1      -8.832   3.876  72.293  1.00  0.00     0.000 HD 
ENDROOT
BRANCH   2   6
HETATM    6  C   UNL     1     -10.977   5.800  70.482  1.00  0.00    -0.249 C  
HETATM    7  H   UNL     1     -11.810   5.983  68.700  1.00  0.00     0.000 HD 
HETATM    8  O   UNL     1     -10.964   5.732  69.049  1.00  0.00    -0.304 OA 
BRANCH   6   9
HETATM    9  C   UNL     1     -11.431   7.173  70.940  1.00  0.00    -0.333 A  
HETATM   10  C   UNL     1     -12.536   7.333  71.793  1.00  0.00    -0.376 A  
HETATM   11  C   UNL     1     -12.955   8.608  72.164  1.00  0.00    -0.387 A  
HETATM   12  C   UNL     1     -12.287   9.737  71.708  1.00  0.00    -0.470 A  
HETATM   13  O   UNL     1     -14.037   8.789  72.973  1.00  0.00    -1.035 OA 
HETATM   14  C   UNL     1     -11.190   9.593  70.862  1.00  0.00    -0.422 A  
HETATM   15  H   UNL     1     -14.322   9.659  73.226  1.00  0.00     0.000 HD 
HETATM   16  C   UNL     1     -10.766   8.319  70.476  1.00  0.00    -0.238 A  
ENDBRANCH   6   9
ENDBRANCH   2   6
TORSDOF 2
ENDMDL
MODEL       87
REMARK 921   NORMALIZED FREE ENERGY PREDICTED BY IDOCK:   -3.77 KCAL/MOL
REMARK 922        TOTAL FREE ENERGY PREDICTED BY IDOCK:   -4.41 KCAL/MOL
REMARK 923 INTER-LIGAND FREE ENERGY PREDICTED BY IDOCK:   -4.24 KCAL/MOL
REMARK 924 INTRA-LIGAND FREE ENERGY PREDICTED BY IDOCK:   -0.17 KCAL/MOL
REMARK 927      BINDING AFFINITY PREDICTED BY RF-SCORE:    0.00 PKD
ROOT
HETATM    1  C   UNL     1     -10.968  12.472  68.869  1.00  0.00    -0.272 C  
HETATM    2  C   UNL     1     -11.090  10.948  68.961  1.00  0.00    -0.246 C  
HETATM    3  N   UNL     1     -11.518  10.434  67.643  1.00  0.00    -0.592 NA 
HETATM    4  H1  UNL     1     -11.598   9.419  67.704  1.00  0.00     0.000 HD 
HETATM    5  H2  UNL     1     -10.903  10.733  66.887  1.00  0.00     0.000 HD 
ENDROOT
BRANCH   2   6
HETATM    6  C   UNL     1     -12.083  10.476  70.069  1.00  0.00    -0.274 C  
HETATM    7  H   UNL     1     -13.087  11.300  71.557  1.00  0.00     0.000 HD 
HETATM    8  O   UNL     1     -12.483  11.587  70.884  1.00  0.00    -0.379 OA 
BRANCH   6   9
HETATM    9  C   UNL     1     -11.529   9.360  70.934  1.00  0.00    -0.382 A  
HETATM   10  C   UNL     1     -12.324   8.267  71.321  1.00  0.00    -0.285 A  
HETATM   11  C   UNL     1     -11.801   7.280  72.149  1.00  0.00    -0.286 A  
HETATM   12  C   UNL     1     -10.488   7.349  72.599  1.00  0.00    -0.303 A  
HETATM   13  O   UNL     1     -12.559   6.221  72.554  1.00  0.00    -0.541 OA 
HETATM   14  C   UNL     1      -9.689   8.427  72.224  1.00  0.00    -0.386 A  
HETATM   15  H   UNL     1     -12.201   5.547  73.120  1.00  0.00     0.000 HD 
HETATM   16  C   UNL     1     -10.206   9.429  71.400  1.00  0.00    -0.297 A  
ENDBRANCH   6   9
ENDBRANCH   2   6
TORSDOF 2
ENDMDL
MODEL       88
REMARK 921   NORMALIZED FREE ENERGY PREDICTED BY IDOCK:   -3.69 KCAL/MOL
REMARK 922        TOTAL FREE ENERGY PREDICTED BY IDOCK:   -4.32 KCAL/MOL
REMARK 923 INTER-LIGAND FREE ENERGY PREDICTED BY IDOCK:   -4.15 KCAL/MOL
REMARK 924 INTRA-LIGAND FREE ENERGY PREDICTED BY IDOCK:   -0.17 KCAL/MOL
REMARK 927      BINDING AFFINITY PREDICTED BY RF-SCORE:    0.00 PKD
ROOT
HETATM    1  C   UNL     1      -9.757  18.747  66.161  1.00  0.00    -0.280 C  
HETATM    2  C   UNL     1      -8.974  17.450  66.391  1.00  0.00    -0.246 C  
HETATM    3  N   UNL     1      -7.623  17.613  65.815  1.00  0.00    -0.527 NA 
HETATM    4  H1  UNL     1      -7.102  16.750  65.968  1.00  0.00     0.000 HD 
HETATM    5  H2  UNL     1      -7.138  18.433  66.178  1.00  0.00     0.000 HD 
ENDROOT
BRANCH   2   6
HETATM    6  C   UNL     1      -9.671  16.195  65.778  1.00  0.00    -0.290 C  
HETATM    7  H   UNL     1     -11.214  15.827  64.600  1.00  0.00     0.000 HD 
HETATM    8  O   UNL     1     -10.790  16.591  64.973  1.00  0.00    -0.622 OA 
BRANCH   6   9
HETATM    9  C   UNL     1     -10.104  15.181  66.820  1.00  0.00    -0.261 A  
HETATM   10  C   UNL     1     -11.273  15.362  67.579  1.00  0.00    -0.302 A  
HETATM   11  C   UNL     1     -11.623  14.435  68.557  1.00  0.00    -0.314 A  
HETATM   12  C   UNL     1     -10.834  13.316  68.793  1.00  0.00    -0.273 A  
HETATM   13  O   UNL     1     -12.741  14.600  69.320  1.00  0.00    -0.554 OA 
HETATM   14  C   UNL     1      -9.672  13.125  68.048  1.00  0.00    -0.224 A  
HETATM   15  H   UNL     1     -12.979  13.967  69.987  1.00  0.00     0.000 HD 
HETATM   16  C   UNL     1      -9.306  14.053  67.070  1.00  0.00    -0.256 A  
ENDBRANCH   6   9
ENDBRANCH   2   6
TORSDOF 2
ENDMDL
MODEL       89
REMARK 921   NORMALIZED FREE ENERGY PREDICTED BY IDOCK:   -3.67 KCAL/MOL
REMARK 922        TOTAL FREE ENERGY PREDICTED BY IDOCK:   -4.30 KCAL/MOL
REMARK 923 INTER-LIGAND FREE ENERGY PREDICTED BY IDOCK:   -4.13 KCAL/MOL
REMARK 924 INTRA-LIGAND FREE ENERGY PREDICTED BY IDOCK:   -0.17 KCAL/MOL
REMARK 927      BINDING AFFINITY PREDICTED BY RF-SCORE:    0.00 PKD
ROOT
HETATM    1  C   UNL     1      -6.158  15.358  69.430  1.00  0.00    -0.120 C  
HETATM    2  C   UNL     1      -6.695  15.822  68.073  1.00  0.00    -0.132 C  
HETATM    3  N   UNL     1      -5.846  16.932  67.591  1.00  0.00    -0.130 NA 
HETATM    4  H1  UNL     1      -6.203  17.241  66.687  1.00  0.00     0.000 HD 
HETATM    5  H2  UNL     1      -4.858  16.684  67.558  1.00  0.00     0.000 HD 
ENDROOT
BRANCH   2   6
HETATM    6  C   UNL     1      -8.188  16.270  68.123  1.00  0.00    -0.163 C  
HETATM    7  H   UNL     1      -9.663  16.246  69.438  1.00  0.00     0.000 HD 
HETATM    8  O   UNL     1      -8.754  15.973  69.408  1.00  0.00    -0.245 OA 
BRANCH   6   9
HETATM    9  C   UNL     1      -9.034  15.662  67.021  1.00  0.00    -0.244 A  
HETATM   10  C   UNL     1      -9.742  16.465  66.110  1.00  0.00    -0.355 A  
HETATM   11  C   UNL     1     -10.543  15.878  65.135  1.00  0.00    -0.397 A  
HETATM   12  C   UNL     1     -10.650  14.497  65.037  1.00  0.00    -0.458 A  
HETATM   13  O   UNL     1     -11.255  16.637  64.254  1.00  0.00    -1.314 OA 
HETATM   14  C   UNL     1      -9.954  13.688  65.934  1.00  0.00    -0.304 A  
HETATM   15  H   UNL     1     -11.801  16.236  63.589  1.00  0.00     0.000 HD 
HETATM   16  C   UNL     1      -9.154  14.266  66.922  1.00  0.00    -0.268 A  
ENDBRANCH   6   9
ENDBRANCH   2   6
TORSDOF 2
ENDMDL
MODEL       90
REMARK 921   NORMALIZED FREE ENERGY PREDICTED BY IDOCK:   -3.61 KCAL/MOL
REMARK 922        TOTAL FREE ENERGY PREDICTED BY IDOCK:   -4.24 KCAL/MOL
REMARK 923 INTER-LIGAND FREE ENERGY PREDICTED BY IDOCK:   -4.09 KCAL/MOL
REMARK 924 INTRA-LIGAND FREE ENERGY PREDICTED BY IDOCK:   -0.15 KCAL/MOL
REMARK 927      BINDING AFFINITY PREDICTED BY RF-SCORE:    0.00 PKD
ROOT
HETATM    1  C   UNL     1      -8.226   7.701  69.219  1.00  0.00    -0.133 C  
HETATM    2  C   UNL     1      -9.149   8.582  70.068  1.00  0.00    -0.147 C  
HETATM    3  N   UNL     1      -8.358   9.716  70.590  1.00  0.00    -0.335 NA 
HETATM    4  H1  UNL     1      -8.972  10.303  71.155  1.00  0.00     0.000 HD 
HETATM    5  H2  UNL     1      -7.886  10.238  69.853  1.00  0.00     0.000 HD 
ENDROOT
BRANCH   2   6
HETATM    6  C   UNL     1      -9.824   7.811  71.244  1.00  0.00    -0.171 C  
HETATM    7  H   UNL     1     -10.054   5.928  71.797  1.00  0.00     0.000 HD 
HETATM    8  O   UNL     1      -9.644   6.397  71.081  1.00  0.00    -0.173 OA 
BRANCH   6   9
HETATM    9  C   UNL     1     -11.296   8.139  71.408  1.00  0.00    -0.299 A  
HETATM   10  C   UNL     1     -11.728   9.436  71.732  1.00  0.00    -0.444 A  
HETATM   11  C   UNL     1     -13.082   9.697  71.917  1.00  0.00    -0.436 A  
HETATM   12  C   UNL     1     -14.028   8.690  71.776  1.00  0.00    -0.492 A  
HETATM   13  O   UNL     1     -13.523  10.944  72.251  1.00  0.00    -0.599 OA 
HETATM   14  C   UNL     1     -13.614   7.398  71.456  1.00  0.00    -0.454 A  
HETATM   15  H   UNL     1     -14.447  11.121  72.377  1.00  0.00     0.000 HD 
HETATM   16  C   UNL     1     -12.256   7.122  71.276  1.00  0.00    -0.403 A  
ENDBRANCH   6   9
ENDBRANCH   2   6
TORSDOF 2
ENDMDL
MODEL       91
REMARK 921   NORMALIZED FREE ENERGY PREDICTED BY IDOCK:   -3.60 KCAL/MOL
REMARK 922        TOTAL FREE ENERGY PREDICTED BY IDOCK:   -4.22 KCAL/MOL
REMARK 923 INTER-LIGAND FREE ENERGY PREDICTED BY IDOCK:   -4.05 KCAL/MOL
REMARK 924 INTRA-LIGAND FREE ENERGY PREDICTED BY IDOCK:   -0.17 KCAL/MOL
REMARK 927      BINDING AFFINITY PREDICTED BY RF-SCORE:    0.00 PKD
ROOT
HETATM    1  C   UNL     1      -9.726   9.519  69.350  1.00  0.00    -0.190 C  
HETATM    2  C   UNL     1     -10.624   9.390  68.116  1.00  0.00    -0.212 C  
HETATM    3  N   UNL     1     -10.968   7.963  67.938  1.00  0.00    -0.478 NA 
HETATM    4  H1  UNL     1     -11.567   7.877  67.116  1.00  0.00     0.000 HD 
HETATM    5  H2  UNL     1     -11.387   7.553  68.772  1.00  0.00     0.000 HD 
ENDROOT
BRANCH   2   6
HETATM    6  C   UNL     1      -9.968   9.950  66.816  1.00  0.00    -0.214 C  
HETATM    7  H   UNL     1      -8.171  10.537  66.240  1.00  0.00     0.000 HD 
HETATM    8  O   UNL     1      -8.571  10.196  67.031  1.00  0.00    -0.128 OA 
BRANCH   6   9
HETATM    9  C   UNL     1     -10.648  11.199  66.291  1.00  0.00    -0.309 A  
HETATM   10  C   UNL     1     -10.632  11.525  64.924  1.00  0.00    -0.360 A  
HETATM   11  C   UNL     1     -11.230  12.700  64.478  1.00  0.00    -0.333 A  
HETATM   12  C   UNL     1     -11.859  13.561  65.367  1.00  0.00    -0.379 A  
HETATM   13  O   UNL     1     -11.209  13.047  63.159  1.00  0.00    -0.625 OA 
HETATM   14  C   UNL     1     -11.883  13.251  66.725  1.00  0.00    -0.448 A  
HETATM   15  H   UNL     1     -11.617  13.849  62.855  1.00  0.00     0.000 HD 
HETATM   16  C   UNL     1     -11.278  12.080  67.186  1.00  0.00    -0.374 A  
ENDBRANCH   6   9
ENDBRANCH   2   6
TORSDOF 2
ENDMDL
MODEL       92
REMARK 921   NORMALIZED FREE ENERGY PREDICTED BY IDOCK:   -3.59 KCAL/MOL
REMARK 922        TOTAL FREE ENERGY PREDICTED BY IDOCK:   -4.21 KCAL/MOL
REMARK 923 INTER-LIGAND FREE ENERGY PREDICTED BY IDOCK:   -4.07 KCAL/MOL
REMARK 924 INTRA-LIGAND FREE ENERGY PREDICTED BY IDOCK:   -0.15 KCAL/MOL
REMARK 927      BINDING AFFINITY PREDICTED BY RF-SCORE:    0.00 PKD
ROOT
HETATM    1  C   UNL     1     -11.949  13.890  69.546  1.00  0.00    -0.396 C  
HETATM    2  C   UNL     1     -10.742  12.952  69.453  1.00  0.00     0.196 C  
HETATM    3  N   UNL     1      -9.772  13.534  68.501  1.00  0.00    -0.333 NA 
HETATM    4  H1  UNL     1      -8.968  12.910  68.439  1.00  0.00     0.000 HD 
HETATM    5  H2  UNL     1      -9.510  14.489  68.744  1.00  0.00     0.000 HD 
ENDROOT
BRANCH   2   6
HETATM    6  C   UNL     1     -11.121  11.504  69.014  1.00  0.00    -0.245 C  
HETATM    7  H   UNL     1     -12.401  10.657  67.769  1.00  0.00     0.000 HD 
HETATM    8  O   UNL     1     -12.171  11.539  68.036  1.00  0.00    -0.582 OA 
BRANCH   6   9
HETATM    9  C   UNL     1     -11.512  10.608  70.174  1.00  0.00    -0.411 A  
HETATM   10  C   UNL     1     -10.583   9.745  70.781  1.00  0.00    -0.371 A  
HETATM   11  C   UNL     1     -10.981   8.906  71.817  1.00  0.00    -0.361 A  
HETATM   12  C   UNL     1     -12.292   8.912  72.275  1.00  0.00    -0.430 A  
HETATM   13  O   UNL     1     -10.103   8.045  72.407  1.00  0.00    -0.218 OA 
HETATM   14  C   UNL     1     -13.224   9.762  71.682  1.00  0.00    -0.514 A  
HETATM   15  H   UNL     1     -10.375   7.472  73.113  1.00  0.00     0.000 HD 
HETATM   16  C   UNL     1     -12.838  10.603  70.636  1.00  0.00    -0.404 A  
ENDBRANCH   6   9
ENDBRANCH   2   6
TORSDOF 2
ENDMDL
MODEL       93
REMARK 921   NORMALIZED FREE ENERGY PREDICTED BY IDOCK:   -3.58 KCAL/MOL
REMARK 922        TOTAL FREE ENERGY PREDICTED BY IDOCK:   -4.20 KCAL/MOL
REMARK 923 INTER-LIGAND FREE ENERGY PREDICTED BY IDOCK:   -4.02 KCAL/MOL
REMARK 924 INTRA-LIGAND FREE ENERGY PREDICTED BY IDOCK:   -0.18 KCAL/MOL
REMARK 927      BINDING AFFINITY PREDICTED BY RF-SCORE:    0.00 PKD
ROOT
HETATM    1  C   UNL     1      -9.847   4.508  67.473  1.00  0.00    -0.191 C  
HETATM    2  C   UNL     1     -10.682   5.732  67.862  1.00  0.00    -0.213 C  
HETATM    3  N   UNL     1     -11.314   6.271  66.639  1.00  0.00    -0.715 NA 
HETATM    4  H1  UNL     1     -11.871   7.086  66.898  1.00  0.00     0.000 HD 
HETATM    5  H2  UNL     1     -11.857   5.570  66.136  1.00  0.00     0.000 HD 
ENDROOT
BRANCH   2   6
HETATM    6  C   UNL     1      -9.849   6.844  68.571  1.00  0.00    -0.144 C  
HETATM    7  H   UNL     1      -8.014   7.052  69.275  1.00  0.00     0.000 HD 
HETATM    8  O   UNL     1      -8.521   6.374  68.844  1.00  0.00    -0.120 OA 
BRANCH   6   9
HETATM    9  C   UNL     1     -10.497   7.360  69.842  1.00  0.00    -0.238 A  
HETATM   10  C   UNL     1     -11.451   6.599  70.540  1.00  0.00    -0.432 A  
HETATM   11  C   UNL     1     -12.058   7.116  71.681  1.00  0.00    -0.336 A  
HETATM   12  C   UNL     1     -11.728   8.379  72.154  1.00  0.00    -0.442 A  
HETATM   13  O   UNL     1     -13.001   6.405  72.363  1.00  0.00    -0.537 OA 
HETATM   14  C   UNL     1     -10.785   9.144  71.471  1.00  0.00    -0.437 A  
HETATM   15  H   UNL     1     -13.416   6.758  73.141  1.00  0.00     0.000 HD 
HETATM   16  C   UNL     1     -10.175   8.640  70.320  1.00  0.00    -0.213 A  
ENDBRANCH   6   9
ENDBRANCH   2   6
TORSDOF 2
ENDMDL
MODEL       94
REMARK 921   NORMALIZED FREE ENERGY PREDICTED BY IDOCK:   -3.57 KCAL/MOL
REMARK 922        TOTAL FREE ENERGY PREDICTED BY IDOCK:   -4.19 KCAL/MOL
REMARK 923 INTER-LIGAND FREE ENERGY PREDICTED BY IDOCK:   -3.97 KCAL/MOL
REMARK 924 INTRA-LIGAND FREE ENERGY PREDICTED BY IDOCK:   -0.22 KCAL/MOL
REMARK 927      BINDING AFFINITY PREDICTED BY RF-SCORE:    0.00 PKD
ROOT
HETATM    1  C   UNL     1     -10.023  11.959  63.433  1.00  0.00    -0.435 C  
HETATM    2  C   UNL     1     -11.362  12.512  63.934  1.00  0.00    -0.438 C  
HETATM    3  N   UNL     1     -12.005  13.249  62.826  1.00  0.00    -0.578 NA 
HETATM    4  H1  UNL     1     -12.896  13.617  63.159  1.00  0.00     0.000 HD 
HETATM    5  H2  UNL     1     -12.104  12.684  61.983  1.00  0.00     0.000 HD 
ENDROOT
BRANCH   2   6
HETATM    6  C   UNL     1     -11.218  13.436  65.182  1.00  0.00    -0.305 C  
HETATM    7  H   UNL     1     -10.227  15.078  65.660  1.00  0.00     0.000 HD 
HETATM    8  O   UNL     1     -10.315  14.515  64.900  1.00  0.00    -0.417 OA 
BRANCH   6   9
HETATM    9  C   UNL     1     -10.778  12.694  66.430  1.00  0.00    -0.278 A  
HETATM   10  C   UNL     1      -9.501  12.883  66.985  1.00  0.00    -0.235 A  
HETATM   11  C   UNL     1      -9.111  12.158  68.107  1.00  0.00    -0.196 A  
HETATM   12  C   UNL     1      -9.975  11.247  68.702  1.00  0.00    -0.210 A  
HETATM   13  O   UNL     1      -7.870  12.308  68.650  1.00  0.00    -0.193 OA 
HETATM   14  C   UNL     1     -11.245  11.050  68.162  1.00  0.00    -0.364 A  
HETATM   15  H   UNL     1      -7.605  11.813  69.416  1.00  0.00     0.000 HD 
HETATM   16  C   UNL     1     -11.644  11.765  67.031  1.00  0.00    -0.321 A  
ENDBRANCH   6   9
ENDBRANCH   2   6
TORSDOF 2
ENDMDL
MODEL       95
REMARK 921   NORMALIZED FREE ENERGY PREDICTED BY IDOCK:   -3.56 KCAL/MOL
REMARK 922        TOTAL FREE ENERGY PREDICTED BY IDOCK:   -4.18 KCAL/MOL
REMARK 923 INTER-LIGAND FREE ENERGY PREDICTED BY IDOCK:   -4.01 KCAL/MOL
REMARK 924 INTRA-LIGAND FREE ENERGY PREDICTED BY IDOCK:   -0.17 KCAL/MOL
REMARK 927      BINDING AFFINITY PREDICTED BY RF-SCORE:    0.00 PKD
ROOT
HETATM    1  C   UNL     1     -10.612  20.038  65.473  1.00  0.00    -0.300 C  
HETATM    2  C   UNL     1     -10.289  18.598  65.881  1.00  0.00    -0.323 C  
HETATM    3  N   UNL     1     -11.030  17.683  64.988  1.00  0.00    -0.733 NA 
HETATM    4  H1  UNL     1     -10.814  16.724  65.259  1.00  0.00     0.000 HD 
HETATM    5  H2  UNL     1     -10.844  17.862  64.002  1.00  0.00     0.000 HD 
ENDROOT
BRANCH   2   6
HETATM    6  C   UNL     1     -10.634  18.289  67.371  1.00  0.00    -0.401 C  
HETATM    7  H   UNL     1     -10.805  19.305  69.058  1.00  0.00     0.000 HD 
HETATM    8  O   UNL     1     -10.594  19.493  68.151  1.00  0.00    -0.405 OA 
BRANCH   6   9
HETATM    9  C   UNL     1      -9.737  17.232  67.988  1.00  0.00    -0.277 A  
HETATM   10  C   UNL     1     -10.161  15.899  68.125  1.00  0.00    -0.229 A  
HETATM   11  C   UNL     1      -9.331  14.961  68.732  1.00  0.00    -0.203 A  
HETATM   12  C   UNL     1      -8.074  15.319  69.201  1.00  0.00    -0.228 A  
HETATM   13  O   UNL     1      -9.729  13.667  68.895  1.00  0.00    -0.405 OA 
HETATM   14  C   UNL     1      -7.642  16.637  69.072  1.00  0.00    -0.226 A  
HETATM   15  H   UNL     1      -9.163  13.027  69.310  1.00  0.00     0.000 HD 
HETATM   16  C   UNL     1      -8.468  17.590  68.473  1.00  0.00    -0.280 A  
ENDBRANCH   6   9
ENDBRANCH   2   6
TORSDOF 2
ENDMDL
MODEL       96
REMARK 921   NORMALIZED FREE ENERGY PREDICTED BY IDOCK:   -3.55 KCAL/MOL
REMARK 922        TOTAL FREE ENERGY PREDICTED BY IDOCK:   -4.17 KCAL/MOL
REMARK 923 INTER-LIGAND FREE ENERGY PREDICTED BY IDOCK:   -3.97 KCAL/MOL
REMARK 924 INTRA-LIGAND FREE ENERGY PREDICTED BY IDOCK:   -0.20 KCAL/MOL
REMARK 927      BINDING AFFINITY PREDICTED BY RF-SCORE:    0.00 PKD
ROOT
HETATM    1  C   UNL     1      -7.708  18.172  68.131  1.00  0.00    -0.280 C  
HETATM    2  C   UNL     1      -8.638  18.143  66.914  1.00  0.00    -0.258 C  
HETATM    3  N   UNL     1      -8.311  19.297  66.050  1.00  0.00    -0.455 NA 
HETATM    4  H1  UNL     1      -8.929  19.277  65.240  1.00  0.00     0.000 HD 
HETATM    5  H2  UNL     1      -7.326  19.325  65.790  1.00  0.00     0.000 HD 
ENDROOT
BRANCH   2   6
HETATM    6  C   UNL     1     -10.151  18.169  67.295  1.00  0.00    -0.347 C  
HETATM    7  H   UNL     1     -11.347  19.297  68.391  1.00  0.00     0.000 HD 
HETATM    8  O   UNL     1     -10.427  19.281  68.159  1.00  0.00    -0.399 OA 
BRANCH   6   9
HETATM    9  C   UNL     1     -10.632  16.877  67.928  1.00  0.00    -0.361 A  
HETATM   10  C   UNL     1     -10.881  15.730  67.156  1.00  0.00    -0.289 A  
HETATM   11  C   UNL     1     -11.361  14.571  67.760  1.00  0.00    -0.317 A  
HETATM   12  C   UNL     1     -11.593  14.524  69.128  1.00  0.00    -0.331 A  
HETATM   13  O   UNL     1     -11.630  13.452  67.028  1.00  0.00    -0.320 OA 
HETATM   14  C   UNL     1     -11.351  15.655  69.906  1.00  0.00    -0.340 A  
HETATM   15  H   UNL     1     -11.957  12.662  67.441  1.00  0.00     0.000 HD 
HETATM   16  C   UNL     1     -10.877  16.826  69.310  1.00  0.00    -0.275 A  
ENDBRANCH   6   9
ENDBRANCH   2   6
TORSDOF 2
ENDMDL
MODEL       97
REMARK 921   NORMALIZED FREE ENERGY PREDICTED BY IDOCK:   -3.53 KCAL/MOL
REMARK 922        TOTAL FREE ENERGY PREDICTED BY IDOCK:   -4.14 KCAL/MOL
REMARK 923 INTER-LIGAND FREE ENERGY PREDICTED BY IDOCK:   -4.03 KCAL/MOL
REMARK 924 INTRA-LIGAND FREE ENERGY PREDICTED BY IDOCK:   -0.11 KCAL/MOL
REMARK 927      BINDING AFFINITY PREDICTED BY RF-SCORE:    0.00 PKD
ROOT
HETATM    1  C   UNL     1     -10.786  10.978  66.879  1.00  0.00    -0.325 C  
HETATM    2  C   UNL     1     -10.671  10.093  68.125  1.00  0.00    -0.244 C  
HETATM    3  N   UNL     1     -10.962   8.698  67.733  1.00  0.00    -0.487 NA 
HETATM    4  H1  UNL     1     -10.886   8.109  68.562  1.00  0.00     0.000 HD 
HETATM    5  H2  UNL     1     -10.373   8.374  66.967  1.00  0.00     0.000 HD 
ENDROOT
BRANCH   2   6
HETATM    6  C   UNL     1     -11.620  10.535  69.282  1.00  0.00    -0.236 C  
HETATM    7  H   UNL     1     -11.999  12.191  70.290  1.00  0.00     0.000 HD 
HETATM    8  O   UNL     1     -11.421  11.923  69.586  1.00  0.00    -0.285 OA 
BRANCH   6   9
HETATM    9  C   UNL     1     -11.468   9.694  70.535  1.00  0.00    -0.352 A  
HETATM   10  C   UNL     1     -10.202   9.327  71.025  1.00  0.00    -0.384 A  
HETATM   11  C   UNL     1     -10.095   8.521  72.154  1.00  0.00    -0.323 A  
HETATM   12  C   UNL     1     -11.229   8.075  72.820  1.00  0.00    -0.448 A  
HETATM   13  O   UNL     1      -8.879   8.135  72.634  1.00  0.00    -0.177 OA 
HETATM   14  C   UNL     1     -12.490   8.430  72.346  1.00  0.00    -0.390 A  
HETATM   15  H   UNL     1      -8.807   7.585  73.405  1.00  0.00     0.000 HD 
HETATM   16  C   UNL     1     -12.610   9.232  71.209  1.00  0.00    -0.377 A  
ENDBRANCH   6   9
ENDBRANCH   2   6
TORSDOF 2
ENDMDL
MODEL       98
REMARK 921   NORMALIZED FREE ENERGY PREDICTED BY IDOCK:   -3.52 KCAL/MOL
REMARK 922        TOTAL FREE ENERGY PREDICTED BY IDOCK:   -4.13 KCAL/MOL
REMARK 923 INTER-LIGAND FREE ENERGY PREDICTED BY IDOCK:   -3.96 KCAL/MOL
REMARK 924 INTRA-LIGAND FREE ENERGY PREDICTED BY IDOCK:   -0.17 KCAL/MOL
REMARK 927      BINDING AFFINITY PREDICTED BY RF-SCORE:    0.00 PKD
ROOT
HETATM    1  C   UNL     1     -10.794  13.764  68.533  1.00  0.00    -0.280 C  
HETATM    2  C   UNL     1     -10.324  15.039  67.825  1.00  0.00    -0.245 C  
HETATM    3  N   UNL     1      -9.114  14.717  67.041  1.00  0.00    -0.226 NA 
HETATM    4  H1  UNL     1      -8.801  15.566  66.569  1.00  0.00     0.000 HD 
HETATM    5  H2  UNL     1      -9.259  13.941  66.396  1.00  0.00     0.000 HD 
ENDROOT
BRANCH   2   6
HETATM    6  C   UNL     1     -10.030  16.215  68.808  1.00  0.00    -0.231 C  
HETATM    7  H   UNL     1     -10.917  17.063  70.356  1.00  0.00     0.000 HD 
HETATM    8  O   UNL     1     -11.097  16.347  69.759  1.00  0.00    -0.338 OA 
BRANCH   6   9
HETATM    9  C   UNL     1      -9.785  17.536  68.104  1.00  0.00    -0.302 A  
HETATM   10  C   UNL     1     -10.632  17.991  67.079  1.00  0.00    -0.320 A  
HETATM   11  C   UNL     1     -10.357  19.188  66.424  1.00  0.00    -0.455 A  
HETATM   12  C   UNL     1      -9.255  19.956  66.776  1.00  0.00    -0.480 A  
HETATM   13  O   UNL     1     -11.153  19.639  65.412  1.00  0.00    -0.412 OA 
HETATM   14  C   UNL     1      -8.407  19.517  67.790  1.00  0.00    -0.345 A  
HETATM   15  H   UNL     1     -10.965  20.455  64.966  1.00  0.00     0.000 HD 
HETATM   16  C   UNL     1      -8.667  18.313  68.449  1.00  0.00    -0.325 A  
ENDBRANCH   6   9
ENDBRANCH   2   6
TORSDOF 2
ENDMDL
MODEL       99
REMARK 921   NORMALIZED FREE ENERGY PREDICTED BY IDOCK:   -3.51 KCAL/MOL
REMARK 922        TOTAL FREE ENERGY PREDICTED BY IDOCK:   -4.13 KCAL/MOL
REMARK 923 INTER-LIGAND FREE ENERGY PREDICTED BY IDOCK:   -3.93 KCAL/MOL
REMARK 924 INTRA-LIGAND FREE ENERGY PREDICTED BY IDOCK:   -0.20 KCAL/MOL
REMARK 927      BINDING AFFINITY PREDICTED BY RF-SCORE:    0.00 PKD
ROOT
HETATM    1  C   UNL     1      -9.887   4.929  68.346  1.00  0.00    -0.200 C  
HETATM    2  C   UNL     1     -10.831   6.133  68.276  1.00  0.00    -0.306 C  
HETATM    3  N   UNL     1     -11.174   6.374  66.858  1.00  0.00    -0.737 NA 
HETATM    4  H1  UNL     1     -11.804   7.176  66.812  1.00  0.00     0.000 HD 
HETATM    5  H2  UNL     1     -11.559   5.547  66.402  1.00  0.00     0.000 HD 
ENDROOT
BRANCH   2   6
HETATM    6  C   UNL     1     -10.228   7.426  68.909  1.00  0.00    -0.196 C  
HETATM    7  H   UNL     1      -8.478   8.343  68.935  1.00  0.00     0.000 HD 
HETATM    8  O   UNL     1      -8.845   7.556  68.550  1.00  0.00    -0.128 OA 
BRANCH   6   9
HETATM    9  C   UNL     1     -10.389   7.486  70.416  1.00  0.00    -0.216 A  
HETATM   10  C   UNL     1     -11.597   7.891  71.010  1.00  0.00    -0.299 A  
HETATM   11  C   UNL     1     -11.702   7.976  72.395  1.00  0.00    -0.386 A  
HETATM   12  C   UNL     1     -10.625   7.656  73.212  1.00  0.00    -0.411 A  
HETATM   13  O   UNL     1     -12.857   8.386  72.993  1.00  0.00    -0.706 OA 
HETATM   14  C   UNL     1      -9.421   7.253  72.637  1.00  0.00    -0.186 A  
HETATM   15  H   UNL     1     -12.928   8.444  73.938  1.00  0.00     0.000 HD 
HETATM   16  C   UNL     1      -9.301   7.172  71.248  1.00  0.00    -0.155 A  
ENDBRANCH   6   9
ENDBRANCH   2   6
TORSDOF 2
ENDMDL
MODEL      100
REMARK 921   NORMALIZED FREE ENERGY PREDICTED BY IDOCK:   -3.51 KCAL/MOL
REMARK 922        TOTAL FREE ENERGY PREDICTED BY IDOCK:   -4.12 KCAL/MOL
REMARK 923 INTER-LIGAND FREE ENERGY PREDICTED BY IDOCK:   -4.31 KCAL/MOL
REMARK 924 INTRA-LIGAND FREE ENERGY PREDICTED BY IDOCK:    0.19 KCAL/MOL
REMARK 927      BINDING AFFINITY PREDICTED BY RF-SCORE:    0.00 PKD
ROOT
HETATM    1  C   UNL     1     -11.021  14.945  67.791  1.00  0.00    -0.294 C  
HETATM    2  C   UNL     1     -10.363  13.608  67.435  1.00  0.00    -0.244 C  
HETATM    3  N   UNL     1      -9.295  13.864  66.445  1.00  0.00    -0.431 NA 
HETATM    4  H1  UNL     1      -8.857  12.974  66.208  1.00  0.00     0.000 HD 
HETATM    5  H2  UNL     1      -8.621  14.559  66.766  1.00  0.00     0.000 HD 
ENDROOT
BRANCH   2   6
HETATM    6  C   UNL     1     -11.371  12.557  66.876  1.00  0.00    -0.326 C  
HETATM    7  H   UNL     1     -12.401  11.024  67.579  1.00  0.00     0.000 HD 
HETATM    8  O   UNL     1     -11.788  11.664  67.919  1.00  0.00    -0.543 OA 
BRANCH   6   9
HETATM    9  C   UNL     1     -10.828  11.773  65.697  1.00  0.00    -0.342 A  
HETATM   10  C   UNL     1     -10.165  10.546  65.873  1.00  0.00    -0.311 A  
HETATM   11  C   UNL     1      -9.641   9.870  64.776  1.00  0.00    -0.271 A  
HETATM   12  C   UNL     1      -9.771  10.385  63.493  1.00  0.00    -0.333 A  
HETATM   13  O   UNL     1      -8.976   8.688  64.925  1.00  0.00    -0.401 OA 
HETATM   14  C   UNL     1     -10.425  11.601  63.303  1.00  0.00    -0.438 A  
HETATM   15  H   UNL     1      -8.618   8.227  64.176  1.00  0.00     0.000 HD 
HETATM   16  C   UNL     1     -10.948  12.293  64.397  1.00  0.00    -0.374 A  
ENDBRANCH   6   9
ENDBRANCH   2   6
TORSDOF 2
ENDMDL
MODEL      101
REMARK 921   NORMALIZED FREE ENERGY PREDICTED BY IDOCK:   -3.51 KCAL/MOL
REMARK 922        TOTAL FREE ENERGY PREDICTED BY IDOCK:   -4.12 KCAL/MOL
REMARK 923 INTER-LIGAND FREE ENERGY PREDICTED BY IDOCK:   -4.14 KCAL/MOL
REMARK 924 INTRA-LIGAND FREE ENERGY PREDICTED BY IDOCK:    0.02 KCAL/MOL
REMARK 927      BINDING AFFINITY PREDICTED BY RF-SCORE:    0.00 PKD
ROOT
HETATM    1  C   UNL     1      -8.920  16.088  67.462  1.00  0.00    -0.201 C  
HETATM    2  C   UNL     1      -9.609  15.349  68.614  1.00  0.00    -0.204 C  
HETATM    3  N   UNL     1      -8.779  14.182  68.981  1.00  0.00    -0.370 NA 
HETATM    4  H1  UNL     1      -9.238  13.691  69.748  1.00  0.00     0.000 HD 
HETATM    5  H2  UNL     1      -7.817  14.438  69.198  1.00  0.00     0.000 HD 
ENDROOT
BRANCH   2   6
HETATM    6  C   UNL     1     -11.060  14.890  68.270  1.00  0.00    -0.282 C  
HETATM    7  H   UNL     1     -12.868  15.687  68.268  1.00  0.00     0.000 HD 
HETATM    8  O   UNL     1     -11.985  15.967  68.477  1.00  0.00    -0.306 OA 
BRANCH   6   9
HETATM    9  C   UNL     1     -11.499  13.662  69.045  1.00  0.00    -0.346 A  
HETATM   10  C   UNL     1     -11.436  12.376  68.480  1.00  0.00    -0.350 A  
HETATM   11  C   UNL     1     -11.885  11.273  69.200  1.00  0.00    -0.355 A  
HETATM   12  C   UNL     1     -12.390  11.419  70.485  1.00  0.00    -0.439 A  
HETATM   13  O   UNL     1     -11.853  10.019  68.665  1.00  0.00    -0.548 OA 
HETATM   14  C   UNL     1     -12.459  12.688  71.057  1.00  0.00    -0.354 A  
HETATM   15  H   UNL     1     -12.159   9.267  69.157  1.00  0.00     0.000 HD 
HETATM   16  C   UNL     1     -12.020  13.804  70.341  1.00  0.00    -0.385 A  
ENDBRANCH   6   9
ENDBRANCH   2   6
TORSDOF 2
ENDMDL
MODEL      102
REMARK 921   NORMALIZED FREE ENERGY PREDICTED BY IDOCK:   -3.49 KCAL/MOL
REMARK 922        TOTAL FREE ENERGY PREDICTED BY IDOCK:   -4.10 KCAL/MOL
REMARK 923 INTER-LIGAND FREE ENERGY PREDICTED BY IDOCK:   -4.00 KCAL/MOL
REMARK 924 INTRA-LIGAND FREE ENERGY PREDICTED BY IDOCK:   -0.10 KCAL/MOL
REMARK 927      BINDING AFFINITY PREDICTED BY RF-SCORE:    0.00 PKD
ROOT
HETATM    1  C   UNL     1      -8.930   5.388  66.119  1.00  0.00    -0.142 C  
HETATM    2  C   UNL     1     -10.338   5.222  66.699  1.00  0.00    -0.283 C  
HETATM    3  N   UNL     1     -11.250   4.833  65.602  1.00  0.00    -0.927 NA 
HETATM    4  H1  UNL     1     -12.188   4.722  65.989  1.00  0.00     0.000 HD 
HETATM    5  H2  UNL     1     -10.932   4.004  65.102  1.00  0.00     0.000 HD 
ENDROOT
BRANCH   2   6
HETATM    6  C   UNL     1     -10.866   6.507  67.407  1.00  0.00    -0.373 C  
HETATM    7  H   UNL     1     -10.642   8.461  67.216  1.00  0.00     0.000 HD 
HETATM    8  O   UNL     1     -10.320   7.679  66.785  1.00  0.00    -0.297 OA 
BRANCH   6   9
HETATM    9  C   UNL     1     -10.590   6.526  68.899  1.00  0.00    -0.280 A  
HETATM   10  C   UNL     1     -11.633   6.465  69.839  1.00  0.00    -0.422 A  
HETATM   11  C   UNL     1     -11.352   6.526  71.201  1.00  0.00    -0.314 A  
HETATM   12  C   UNL     1     -10.043   6.637  71.654  1.00  0.00    -0.201 A  
HETATM   13  O   UNL     1     -12.348   6.490  72.131  1.00  0.00    -0.471 OA 
HETATM   14  C   UNL     1      -9.000   6.699  70.732  1.00  0.00    -0.151 A  
HETATM   15  H   UNL     1     -12.155   6.532  73.060  1.00  0.00     0.000 HD 
HETATM   16  C   UNL     1      -9.270   6.647  69.363  1.00  0.00    -0.142 A  
ENDBRANCH   6   9
ENDBRANCH   2   6
TORSDOF 2
ENDMDL
MODEL      103
REMARK 921   NORMALIZED FREE ENERGY PREDICTED BY IDOCK:   -3.49 KCAL/MOL
REMARK 922        TOTAL FREE ENERGY PREDICTED BY IDOCK:   -4.09 KCAL/MOL
REMARK 923 INTER-LIGAND FREE ENERGY PREDICTED BY IDOCK:   -3.93 KCAL/MOL
REMARK 924 INTRA-LIGAND FREE ENERGY PREDICTED BY IDOCK:   -0.17 KCAL/MOL
REMARK 927      BINDING AFFINITY PREDICTED BY RF-SCORE:    0.00 PKD
ROOT
HETATM    1  C   UNL     1      -9.368   9.688  68.681  1.00  0.00    -0.143 C  
HETATM    2  C   UNL     1      -9.899  11.045  68.208  1.00  0.00    -0.178 C  
HETATM    3  N   UNL     1     -10.708  11.633  69.297  1.00  0.00    -0.409 NA 
HETATM    4  H1  UNL     1     -11.060  12.537  68.982  1.00  0.00     0.000 HD 
HETATM    5  H2  UNL     1     -10.195  11.697  70.176  1.00  0.00     0.000 HD 
ENDROOT
BRANCH   2   6
HETATM    6  C   UNL     1     -10.744  10.954  66.901  1.00  0.00    -0.264 C  
HETATM    7  H   UNL     1     -10.661   9.969  65.190  1.00  0.00     0.000 HD 
HETATM    8  O   UNL     1     -10.146  10.025  65.985  1.00  0.00    -0.254 OA 
BRANCH   6   9
HETATM    9  C   UNL     1     -10.954  12.296  66.226  1.00  0.00    -0.327 A  
HETATM   10  C   UNL     1      -9.926  13.254  66.163  1.00  0.00    -0.295 A  
HETATM   11  C   UNL     1     -10.161  14.493  65.574  1.00  0.00    -0.366 A  
HETATM   12  C   UNL     1     -11.402  14.801  65.033  1.00  0.00    -0.391 A  
HETATM   13  O   UNL     1      -9.186  15.445  65.519  1.00  0.00    -0.345 OA 
HETATM   14  C   UNL     1     -12.429  13.862  65.089  1.00  0.00    -0.479 A  
HETATM   15  H   UNL     1      -9.346  16.290  65.118  1.00  0.00     0.000 HD 
HETATM   16  C   UNL     1     -12.209  12.618  65.685  1.00  0.00    -0.474 A  
ENDBRANCH   6   9
ENDBRANCH   2   6
TORSDOF 2
ENDMDL
MODEL      104
REMARK 921   NORMALIZED FREE ENERGY PREDICTED BY IDOCK:   -3.47 KCAL/MOL
REMARK 922        TOTAL FREE ENERGY PREDICTED BY IDOCK:   -4.08 KCAL/MOL
REMARK 923 INTER-LIGAND FREE ENERGY PREDICTED BY IDOCK:   -3.90 KCAL/MOL
REMARK 924 INTRA-LIGAND FREE ENERGY PREDICTED BY IDOCK:   -0.18 KCAL/MOL
REMARK 927      BINDING AFFINITY PREDICTED BY RF-SCORE:    0.00 PKD
ROOT
HETATM    1  C   UNL     1     -10.784  19.648  67.276  1.00  0.00    -0.583 C  
HETATM    2  C   UNL     1      -9.424  19.046  66.909  1.00  0.00    -0.316 C  
HETATM    3  N   UNL     1      -8.634  20.078  66.204  1.00  0.00    -0.519 NA 
HETATM    4  H1  UNL     1      -7.728  19.677  65.960  1.00  0.00     0.000 HD 
HETATM    5  H2  UNL     1      -8.549  20.941  66.740  1.00  0.00     0.000 HD 
ENDROOT
BRANCH   2   6
HETATM    6  C   UNL     1      -9.537  17.762  66.030  1.00  0.00    -0.093 C  
HETATM    7  H   UNL     1     -10.792  17.032  64.690  1.00  0.00     0.000 HD 
HETATM    8  O   UNL     1     -10.724  17.813  65.225  1.00  0.00    -0.649 OA 
BRANCH   6   9
HETATM    9  C   UNL     1      -9.502  16.478  66.836  1.00  0.00    -0.250 A  
HETATM   10  C   UNL     1      -9.792  15.234  66.249  1.00  0.00    -0.316 A  
HETATM   11  C   UNL     1      -9.792  14.078  67.024  1.00  0.00    -0.260 A  
HETATM   12  C   UNL     1      -9.498  14.129  68.380  1.00  0.00    -0.214 A  
HETATM   13  O   UNL     1     -10.090  12.863  66.481  1.00  0.00    -0.249 OA 
HETATM   14  C   UNL     1      -9.209  15.356  68.976  1.00  0.00    -0.235 A  
HETATM   15  H   UNL     1     -10.090  12.075  67.010  1.00  0.00     0.000 HD 
HETATM   16  C   UNL     1      -9.215  16.524  68.210  1.00  0.00    -0.214 A  
ENDBRANCH   6   9
ENDBRANCH   2   6
TORSDOF 2
ENDMDL
MODEL      105
REMARK 921   NORMALIZED FREE ENERGY PREDICTED BY IDOCK:   -3.46 KCAL/MOL
REMARK 922        TOTAL FREE ENERGY PREDICTED BY IDOCK:   -4.07 KCAL/MOL
REMARK 923 INTER-LIGAND FREE ENERGY PREDICTED BY IDOCK:   -3.92 KCAL/MOL
REMARK 924 INTRA-LIGAND FREE ENERGY PREDICTED BY IDOCK:   -0.15 KCAL/MOL
REMARK 927      BINDING AFFINITY PREDICTED BY RF-SCORE:    0.00 PKD
ROOT
HETATM    1  C   UNL     1     -11.836  13.829  64.431  1.00  0.00    -0.458 C  
HETATM    2  C   UNL     1     -11.426  14.262  65.842  1.00  0.00    -0.335 C  
HETATM    3  N   UNL     1     -12.568  14.028  66.751  1.00  0.00    -0.490 NA 
HETATM    4  H1  UNL     1     -12.294  14.315  67.691  1.00  0.00     0.000 HD 
HETATM    5  H2  UNL     1     -12.905  13.066  66.718  1.00  0.00     0.000 HD 
ENDROOT
BRANCH   2   6
HETATM    6  C   UNL     1     -10.974  15.753  65.921  1.00  0.00    -0.191 C  
HETATM    7  H   UNL     1     -10.442  17.172  64.654  1.00  0.00     0.000 HD 
HETATM    8  O   UNL     1     -10.716  16.265  64.606  1.00  0.00    -0.670 OA 
BRANCH   6   9
HETATM    9  C   UNL     1      -9.767  15.967  66.815  1.00  0.00    -0.253 A  
HETATM   10  C   UNL     1      -8.483  16.164  66.280  1.00  0.00    -0.357 A  
HETATM   11  C   UNL     1      -7.389  16.317  67.126  1.00  0.00    -0.209 A  
HETATM   12  C   UNL     1      -7.545  16.288  68.506  1.00  0.00    -0.179 A  
HETATM   13  O   UNL     1      -6.130  16.489  66.630  1.00  0.00    -0.307 OA 
HETATM   14  C   UNL     1      -8.813  16.093  69.050  1.00  0.00    -0.251 A  
HETATM   15  H   UNL     1      -5.383  16.593  67.208  1.00  0.00     0.000 HD 
HETATM   16  C   UNL     1      -9.917  15.930  68.211  1.00  0.00    -0.222 A  
ENDBRANCH   6   9
ENDBRANCH   2   6
TORSDOF 2
ENDMDL
MODEL      106
REMARK 921   NORMALIZED FREE ENERGY PREDICTED BY IDOCK:   -3.45 KCAL/MOL
REMARK 922        TOTAL FREE ENERGY PREDICTED BY IDOCK:   -4.06 KCAL/MOL
REMARK 923 INTER-LIGAND FREE ENERGY PREDICTED BY IDOCK:   -4.18 KCAL/MOL
REMARK 924 INTRA-LIGAND FREE ENERGY PREDICTED BY IDOCK:    0.13 KCAL/MOL
REMARK 927      BINDING AFFINITY PREDICTED BY RF-SCORE:    0.00 PKD
ROOT
HETATM    1  C   UNL     1      -8.955  10.643  64.146  1.00  0.00    -0.214 C  
HETATM    2  C   UNL     1      -9.762  10.603  65.447  1.00  0.00    -0.252 C  
HETATM    3  N   UNL     1     -10.278   9.231  65.634  1.00  0.00    -0.255 NA 
HETATM    4  H1  UNL     1     -10.814   9.205  66.501  1.00  0.00     0.000 HD 
HETATM    5  H2  UNL     1      -9.540   8.528  65.609  1.00  0.00     0.000 HD 
ENDROOT
BRANCH   2   6
HETATM    6  C   UNL     1     -10.939  11.627  65.472  1.00  0.00    -0.270 C  
HETATM    7  H   UNL     1     -11.329  13.403  64.698  1.00  0.00     0.000 HD 
HETATM    8  O   UNL     1     -10.613  12.780  64.683  1.00  0.00    -0.312 OA 
BRANCH   6   9
HETATM    9  C   UNL     1     -11.341  12.045  66.874  1.00  0.00    -0.400 A  
HETATM   10  C   UNL     1     -11.709  13.369  67.169  1.00  0.00    -0.424 A  
HETATM   11  C   UNL     1     -12.033  13.731  68.473  1.00  0.00    -0.367 A  
HETATM   12  C   UNL     1     -12.009  12.796  69.499  1.00  0.00    -0.338 A  
HETATM   13  O   UNL     1     -12.372  15.014  68.786  1.00  0.00    -0.587 OA 
HETATM   14  C   UNL     1     -11.647  11.479  69.221  1.00  0.00    -0.388 A  
HETATM   15  H   UNL     1     -12.593  15.261  69.676  1.00  0.00     0.000 HD 
HETATM   16  C   UNL     1     -11.311  11.106  67.918  1.00  0.00    -0.378 A  
ENDBRANCH   6   9
ENDBRANCH   2   6
TORSDOF 2
ENDMDL
MODEL      107
REMARK 921   NORMALIZED FREE ENERGY PREDICTED BY IDOCK:   -3.44 KCAL/MOL
REMARK 922        TOTAL FREE ENERGY PREDICTED BY IDOCK:   -4.04 KCAL/MOL
REMARK 923 INTER-LIGAND FREE ENERGY PREDICTED BY IDOCK:   -3.86 KCAL/MOL
REMARK 924 INTRA-LIGAND FREE ENERGY PREDICTED BY IDOCK:   -0.18 KCAL/MOL
REMARK 927      BINDING AFFINITY PREDICTED BY RF-SCORE:    0.00 PKD
ROOT
HETATM    1  C   UNL     1      -6.696  20.713  67.897  1.00  0.00    -0.348 C  
HETATM    2  C   UNL     1      -7.151  19.466  67.133  1.00  0.00    -0.199 C  
HETATM    3  N   UNL     1      -7.010  19.729  65.686  1.00  0.00    -0.294 NA 
HETATM    4  H1  UNL     1      -7.313  18.899  65.177  1.00  0.00     0.000 HD 
HETATM    5  H2  UNL     1      -6.068  20.023  65.430  1.00  0.00     0.000 HD 
ENDROOT
BRANCH   2   6
HETATM    6  C   UNL     1      -8.617  19.044  67.462  1.00  0.00    -0.286 C  
HETATM    7  H   UNL     1      -9.715  18.770  69.082  1.00  0.00     0.000 HD 
HETATM    8  O   UNL     1      -8.823  19.027  68.882  1.00  0.00    -0.331 OA 
BRANCH   6   9
HETATM    9  C   UNL     1      -9.007  17.709  66.857  1.00  0.00    -0.258 A  
HETATM   10  C   UNL     1     -10.005  17.612  65.872  1.00  0.00    -0.139 A  
HETATM   11  C   UNL     1     -10.370  16.369  65.365  1.00  0.00    -0.262 A  
HETATM   12  C   UNL     1      -9.752  15.208  65.812  1.00  0.00    -0.379 A  
HETATM   13  O   UNL     1     -11.350  16.248  64.425  1.00  0.00    -0.866 OA 
HETATM   14  C   UNL     1      -8.760  15.289  66.788  1.00  0.00    -0.304 A  
HETATM   15  H   UNL     1     -11.599  15.399  64.079  1.00  0.00     0.000 HD 
HETATM   16  C   UNL     1      -8.392  16.530  67.311  1.00  0.00    -0.197 A  
ENDBRANCH   6   9
ENDBRANCH   2   6
TORSDOF 2
ENDMDL
MODEL      108
REMARK 921   NORMALIZED FREE ENERGY PREDICTED BY IDOCK:   -3.41 KCAL/MOL
REMARK 922        TOTAL FREE ENERGY PREDICTED BY IDOCK:   -4.01 KCAL/MOL
REMARK 923 INTER-LIGAND FREE ENERGY PREDICTED BY IDOCK:   -3.84 KCAL/MOL
REMARK 924 INTRA-LIGAND FREE ENERGY PREDICTED BY IDOCK:   -0.17 KCAL/MOL
REMARK 927      BINDING AFFINITY PREDICTED BY RF-SCORE:    0.00 PKD
ROOT
HETATM    1  C   UNL     1      -7.691   8.277  63.669  1.00  0.00    -0.146 C  
HETATM    2  C   UNL     1      -8.323   9.673  63.657  1.00  0.00    -0.172 C  
HETATM    3  N   UNL     1      -7.345  10.622  63.084  1.00  0.00    -0.344 NA 
HETATM    4  H1  UNL     1      -7.766  11.551  63.076  1.00  0.00     0.000 HD 
HETATM    5  H2  UNL     1      -7.013  10.334  62.164  1.00  0.00     0.000 HD 
ENDROOT
BRANCH   2   6
HETATM    6  C   UNL     1      -8.773  10.155  65.071  1.00  0.00    -0.173 C  
HETATM    7  H   UNL     1      -9.280   9.324  66.790  1.00  0.00     0.000 HD 
HETATM    8  O   UNL     1      -9.006   9.030  65.930  1.00  0.00    -0.164 OA 
BRANCH   6   9
HETATM    9  C   UNL     1      -9.995  11.054  65.037  1.00  0.00    -0.340 A  
HETATM   10  C   UNL     1     -10.880  11.048  63.945  1.00  0.00    -0.221 A  
HETATM   11  C   UNL     1     -11.970  11.913  63.924  1.00  0.00    -0.402 A  
HETATM   12  C   UNL     1     -12.209  12.785  64.978  1.00  0.00    -0.527 A  
HETATM   13  O   UNL     1     -12.831  11.940  62.866  1.00  0.00    -0.729 OA 
HETATM   14  C   UNL     1     -11.339  12.802  66.067  1.00  0.00    -0.363 A  
HETATM   15  H   UNL     1     -13.575  12.530  62.852  1.00  0.00     0.000 HD 
HETATM   16  C   UNL     1     -10.236  11.945  66.095  1.00  0.00    -0.258 A  
ENDBRANCH   6   9
ENDBRANCH   2   6
TORSDOF 2
ENDMDL
MODEL      109
REMARK 921   NORMALIZED FREE ENERGY PREDICTED BY IDOCK:   -3.41 KCAL/MOL
REMARK 922        TOTAL FREE ENERGY PREDICTED BY IDOCK:   -4.01 KCAL/MOL
REMARK 923 INTER-LIGAND FREE ENERGY PREDICTED BY IDOCK:   -4.01 KCAL/MOL
REMARK 924 INTRA-LIGAND FREE ENERGY PREDICTED BY IDOCK:    0.01 KCAL/MOL
REMARK 927      BINDING AFFINITY PREDICTED BY RF-SCORE:    0.00 PKD
ROOT
HETATM    1  C   UNL     1      -8.577   8.950  65.512  1.00  0.00    -0.191 C  
HETATM    2  C   UNL     1      -8.524  10.342  64.874  1.00  0.00    -0.177 C  
HETATM    3  N   UNL     1      -7.759  11.235  65.770  1.00  0.00    -0.367 NA 
HETATM    4  H1  UNL     1      -7.723  12.162  65.345  1.00  0.00     0.000 HD 
HETATM    5  H2  UNL     1      -6.833  10.869  65.991  1.00  0.00     0.000 HD 
ENDROOT
BRANCH   2   6
HETATM    6  C   UNL     1      -9.935  10.944  64.593  1.00  0.00    -0.310 C  
HETATM    7  H   UNL     1     -10.733  12.229  63.322  1.00  0.00     0.000 HD 
HETATM    8  O   UNL     1      -9.874  11.863  63.493  1.00  0.00    -0.361 OA 
BRANCH   6   9
HETATM    9  C   UNL     1     -10.553  11.615  65.806  1.00  0.00    -0.320 A  
HETATM   10  C   UNL     1     -11.136  10.866  66.842  1.00  0.00    -0.236 A  
HETATM   11  C   UNL     1     -11.732  11.510  67.922  1.00  0.00    -0.247 A  
HETATM   12  C   UNL     1     -11.752  12.897  68.001  1.00  0.00    -0.401 A  
HETATM   13  O   UNL     1     -12.323  10.805  68.928  1.00  0.00    -0.788 OA 
HETATM   14  C   UNL     1     -11.177  13.652  66.981  1.00  0.00    -0.328 A  
HETATM   15  H   UNL     1     -12.729  11.245  69.665  1.00  0.00     0.000 HD 
HETATM   16  C   UNL     1     -10.584  13.017  65.888  1.00  0.00    -0.288 A  
ENDBRANCH   6   9
ENDBRANCH   2   6
TORSDOF 2
ENDMDL
MODEL      110
REMARK 921   NORMALIZED FREE ENERGY PREDICTED BY IDOCK:   -3.40 KCAL/MOL
REMARK 922        TOTAL FREE ENERGY PREDICTED BY IDOCK:   -4.00 KCAL/MOL
REMARK 923 INTER-LIGAND FREE ENERGY PREDICTED BY IDOCK:   -3.80 KCAL/MOL
REMARK 924 INTRA-LIGAND FREE ENERGY PREDICTED BY IDOCK:   -0.20 KCAL/MOL
REMARK 927      BINDING AFFINITY PREDICTED BY RF-SCORE:    0.00 PKD
ROOT
HETATM    1  C   UNL     1      -7.178  11.491  67.314  1.00  0.00    -0.132 C  
HETATM    2  C   UNL     1      -8.357  11.632  68.281  1.00  0.00    -0.159 C  
HETATM    3  N   UNL     1      -7.987  10.994  69.563  1.00  0.00    -0.374 NA 
HETATM    4  H1  UNL     1      -8.772  11.088  70.207  1.00  0.00     0.000 HD 
HETATM    5  H2  UNL     1      -7.118  11.362  69.947  1.00  0.00     0.000 HD 
ENDROOT
BRANCH   2   6
HETATM    6  C   UNL     1      -9.679  11.009  67.734  1.00  0.00    -0.170 C  
HETATM    7  H   UNL     1     -10.193   9.650  66.395  1.00  0.00     0.000 HD 
HETATM    8  O   UNL     1      -9.388  10.029  66.728  1.00  0.00    -0.154 OA 
BRANCH   6   9
HETATM    9  C   UNL     1     -10.651  12.043  67.197  1.00  0.00    -0.255 A  
HETATM   10  C   UNL     1     -10.999  13.182  67.944  1.00  0.00    -0.271 A  
HETATM   11  C   UNL     1     -11.924  14.092  67.442  1.00  0.00    -0.404 A  
HETATM   12  C   UNL     1     -12.510  13.899  66.198  1.00  0.00    -0.478 A  
HETATM   13  O   UNL     1     -12.293  15.193  68.157  1.00  0.00    -0.499 OA 
HETATM   14  C   UNL     1     -12.175  12.774  65.446  1.00  0.00    -0.532 A  
HETATM   15  H   UNL     1     -12.925  15.813  67.814  1.00  0.00     0.000 HD 
HETATM   16  C   UNL     1     -11.254  11.850  65.943  1.00  0.00    -0.373 A  
ENDBRANCH   6   9
ENDBRANCH   2   6
TORSDOF 2
ENDMDL
MODEL      111
REMARK 921   NORMALIZED FREE ENERGY PREDICTED BY IDOCK:   -3.40 KCAL/MOL
REMARK 922        TOTAL FREE ENERGY PREDICTED BY IDOCK:   -4.00 KCAL/MOL
REMARK 923 INTER-LIGAND FREE ENERGY PREDICTED BY IDOCK:   -3.92 KCAL/MOL
REMARK 924 INTRA-LIGAND FREE ENERGY PREDICTED BY IDOCK:   -0.09 KCAL/MOL
REMARK 927      BINDING AFFINITY PREDICTED BY RF-SCORE:    0.00 PKD
ROOT
HETATM    1  C   UNL     1     -10.344   8.195  67.813  1.00  0.00    -0.295 C  
HETATM    2  C   UNL     1     -10.518   9.716  67.751  1.00  0.00    -0.256 C  
HETATM    3  N   UNL     1      -9.724  10.229  66.615  1.00  0.00    -0.178 NA 
HETATM    4  H1  UNL     1      -9.841  11.242  66.573  1.00  0.00     0.000 HD 
HETATM    5  H2  UNL     1      -9.959   9.772  65.734  1.00  0.00     0.000 HD 
ENDROOT
BRANCH   2   6
HETATM    6  C   UNL     1     -10.097  10.437  69.069  1.00  0.00    -0.213 C  
HETATM    7  H   UNL     1      -8.671  10.257  70.426  1.00  0.00     0.000 HD 
HETATM    8  O   UNL     1      -8.928   9.817  69.624  1.00  0.00    -0.184 OA 
BRANCH   6   9
HETATM    9  C   UNL     1     -11.205  10.491  70.103  1.00  0.00    -0.389 A  
HETATM   10  C   UNL     1     -11.921  11.675  70.351  1.00  0.00    -0.448 A  
HETATM   11  C   UNL     1     -12.905  11.705  71.335  1.00  0.00    -0.356 A  
HETATM   12  C   UNL     1     -13.203  10.571  72.079  1.00  0.00    -0.483 A  
HETATM   13  O   UNL     1     -13.598  12.848  71.607  1.00  0.00    -0.264 OA 
HETATM   14  C   UNL     1     -12.501   9.391  71.844  1.00  0.00    -0.468 A  
HETATM   15  H   UNL     1     -14.269  12.868  72.279  1.00  0.00     0.000 HD 
HETATM   16  C   UNL     1     -11.505   9.351  70.866  1.00  0.00    -0.382 A  
ENDBRANCH   6   9
ENDBRANCH   2   6
TORSDOF 2
ENDMDL
MODEL      112
REMARK 921   NORMALIZED FREE ENERGY PREDICTED BY IDOCK:   -3.40 KCAL/MOL
REMARK 922        TOTAL FREE ENERGY PREDICTED BY IDOCK:   -4.00 KCAL/MOL
REMARK 923 INTER-LIGAND FREE ENERGY PREDICTED BY IDOCK:   -3.81 KCAL/MOL
REMARK 924 INTRA-LIGAND FREE ENERGY PREDICTED BY IDOCK:   -0.19 KCAL/MOL
REMARK 927      BINDING AFFINITY PREDICTED BY RF-SCORE:    0.00 PKD
ROOT
HETATM    1  C   UNL     1     -11.605  14.999  71.965  1.00  0.00    -0.419 C  
HETATM    2  C   UNL     1     -12.211  14.687  70.593  1.00  0.00    -0.325 C  
HETATM    3  N   UNL     1     -13.244  15.702  70.298  1.00  0.00    -0.713 NA 
HETATM    4  H1  UNL     1     -13.646  15.495  69.384  1.00  0.00     0.000 HD 
HETATM    5  H2  UNL     1     -12.886  16.655  70.361  1.00  0.00     0.000 HD 
ENDROOT
BRANCH   2   6
HETATM    6  C   UNL     1     -12.824  13.255  70.503  1.00  0.00     0.011 C  
HETATM    7  H   UNL     1     -13.363  11.831  71.762  1.00  0.00     0.000 HD 
HETATM    8  O   UNL     1     -12.989  12.702  71.817  1.00  0.00    -0.370 OA 
BRANCH   6   9
HETATM    9  C   UNL     1     -12.019  12.311  69.631  1.00  0.00    -0.347 A  
HETATM   10  C   UNL     1     -11.392  11.173  70.166  1.00  0.00    -0.295 A  
HETATM   11  C   UNL     1     -10.625  10.348  69.349  1.00  0.00    -0.239 A  
HETATM   12  C   UNL     1     -10.475  10.625  67.996  1.00  0.00    -0.228 A  
HETATM   13  O   UNL     1      -9.990   9.249  69.849  1.00  0.00    -0.183 OA 
HETATM   14  C   UNL     1     -11.091  11.751  67.453  1.00  0.00    -0.338 A  
HETATM   15  H   UNL     1      -9.467   8.687  69.291  1.00  0.00     0.000 HD 
HETATM   16  C   UNL     1     -11.855  12.591  68.265  1.00  0.00    -0.361 A  
ENDBRANCH   6   9
ENDBRANCH   2   6
TORSDOF 2
ENDMDL
MODEL      113
REMARK 921   NORMALIZED FREE ENERGY PREDICTED BY IDOCK:   -3.39 KCAL/MOL
REMARK 922        TOTAL FREE ENERGY PREDICTED BY IDOCK:   -3.99 KCAL/MOL
REMARK 923 INTER-LIGAND FREE ENERGY PREDICTED BY IDOCK:   -3.81 KCAL/MOL
REMARK 924 INTRA-LIGAND FREE ENERGY PREDICTED BY IDOCK:   -0.18 KCAL/MOL
REMARK 927      BINDING AFFINITY PREDICTED BY RF-SCORE:    0.00 PKD
ROOT
HETATM    1  C   UNL     1     -12.946  11.319  71.489  1.00  0.00    -0.520 C  
HETATM    2  C   UNL     1     -11.808  10.305  71.332  1.00  0.00    -0.283 C  
HETATM    3  N   UNL     1     -11.016  10.676  70.140  1.00  0.00    -0.429 NA 
HETATM    4  H1  UNL     1     -10.258  10.002  70.036  1.00  0.00     0.000 HD 
HETATM    5  H2  UNL     1     -10.682  11.639  70.176  1.00  0.00     0.000 HD 
ENDROOT
BRANCH   2   6
HETATM    6  C   UNL     1     -12.309   8.833  71.206  1.00  0.00    -0.270 C  
HETATM    7  H   UNL     1     -13.936   7.813  71.673  1.00  0.00     0.000 HD 
HETATM    8  O   UNL     1     -13.631   8.709  71.750  1.00  0.00    -0.367 OA 
BRANCH   6   9
HETATM    9  C   UNL     1     -11.377   7.826  71.853  1.00  0.00    -0.315 A  
HETATM   10  C   UNL     1     -10.434   8.213  72.819  1.00  0.00    -0.385 A  
HETATM   11  C   UNL     1      -9.564   7.274  73.365  1.00  0.00    -0.226 A  
HETATM   12  C   UNL     1      -9.619   5.942  72.975  1.00  0.00    -0.158 A  
HETATM   13  O   UNL     1      -8.626   7.630  74.288  1.00  0.00    -0.224 OA 
HETATM   14  C   UNL     1     -10.550   5.543  72.017  1.00  0.00    -0.284 A  
HETATM   15  H   UNL     1      -8.033   6.988  74.660  1.00  0.00     0.000 HD 
HETATM   16  C   UNL     1     -11.421   6.479  71.456  1.00  0.00    -0.351 A  
ENDBRANCH   6   9
ENDBRANCH   2   6
TORSDOF 2
ENDMDL
MODEL      114
REMARK 921   NORMALIZED FREE ENERGY PREDICTED BY IDOCK:   -3.37 KCAL/MOL
REMARK 922        TOTAL FREE ENERGY PREDICTED BY IDOCK:   -3.97 KCAL/MOL
REMARK 923 INTER-LIGAND FREE ENERGY PREDICTED BY IDOCK:   -3.93 KCAL/MOL
REMARK 924 INTRA-LIGAND FREE ENERGY PREDICTED BY IDOCK:   -0.03 KCAL/MOL
REMARK 927      BINDING AFFINITY PREDICTED BY RF-SCORE:    0.00 PKD
ROOT
HETATM    1  C   UNL     1     -11.564  12.642  67.111  1.00  0.00    -0.434 C  
HETATM    2  C   UNL     1     -10.478  12.980  68.138  1.00  0.00    -0.245 C  
HETATM    3  N   UNL     1     -10.399  11.873  69.114  1.00  0.00    -0.420 NA 
HETATM    4  H1  UNL     1      -9.676  12.098  69.797  1.00  0.00     0.000 HD 
HETATM    5  H2  UNL     1     -10.249  10.968  68.669  1.00  0.00     0.000 HD 
ENDROOT
BRANCH   2   6
HETATM    6  C   UNL     1     -10.731  14.331  68.877  1.00  0.00    -0.257 C  
HETATM    7  H   UNL     1     -12.284  15.315  69.602  1.00  0.00     0.000 HD 
HETATM    8  O   UNL     1     -12.130  14.493  69.152  1.00  0.00    -0.308 OA 
BRANCH   6   9
HETATM    9  C   UNL     1     -10.199  15.535  68.124  1.00  0.00    -0.227 A  
HETATM   10  C   UNL     1     -10.785  15.967  66.922  1.00  0.00    -0.262 A  
HETATM   11  C   UNL     1     -10.249  17.051  66.232  1.00  0.00    -0.329 A  
HETATM   12  C   UNL     1      -9.139  17.728  66.721  1.00  0.00    -0.273 A  
HETATM   13  O   UNL     1     -10.787  17.475  65.053  1.00  0.00    -0.727 OA 
HETATM   14  C   UNL     1      -8.548  17.310  67.912  1.00  0.00    -0.223 A  
HETATM   15  H   UNL     1     -10.421  18.214  64.583  1.00  0.00     0.000 HD 
HETATM   16  C   UNL     1      -9.071  16.219  68.608  1.00  0.00    -0.228 A  
ENDBRANCH   6   9
ENDBRANCH   2   6
TORSDOF 2
ENDMDL
MODEL      115
REMARK 921   NORMALIZED FREE ENERGY PREDICTED BY IDOCK:   -3.37 KCAL/MOL
REMARK 922        TOTAL FREE ENERGY PREDICTED BY IDOCK:   -3.96 KCAL/MOL
REMARK 923 INTER-LIGAND FREE ENERGY PREDICTED BY IDOCK:   -3.76 KCAL/MOL
REMARK 924 INTRA-LIGAND FREE ENERGY PREDICTED BY IDOCK:   -0.21 KCAL/MOL
REMARK 927      BINDING AFFINITY PREDICTED BY RF-SCORE:    0.00 PKD
ROOT
HETATM    1  C   UNL     1     -10.025   9.046  66.703  1.00  0.00    -0.349 C  
HETATM    2  C   UNL     1     -10.031  10.131  65.622  1.00  0.00    -0.279 C  
HETATM    3  N   UNL     1      -9.403   9.577  64.404  1.00  0.00    -0.429 NA 
HETATM    4  H1  UNL     1      -9.407  10.300  63.684  1.00  0.00     0.000 HD 
HETATM    5  H2  UNL     1      -9.844   8.712  64.093  1.00  0.00     0.000 HD 
ENDROOT
BRANCH   2   6
HETATM    6  C   UNL     1      -9.298  11.437  66.058  1.00  0.00    -0.217 C  
HETATM    7  H   UNL     1      -7.748  11.919  67.185  1.00  0.00     0.000 HD 
HETATM    8  O   UNL     1      -8.194  11.124  66.920  1.00  0.00    -0.136 OA 
BRANCH   6   9
HETATM    9  C   UNL     1     -10.215  12.446  66.722  1.00  0.00    -0.234 A  
HETATM   10  C   UNL     1     -10.057  12.805  68.072  1.00  0.00    -0.230 A  
HETATM   11  C   UNL     1     -10.940  13.702  68.665  1.00  0.00    -0.267 A  
HETATM   12  C   UNL     1     -11.980  14.265  67.937  1.00  0.00    -0.364 A  
HETATM   13  O   UNL     1     -10.819  14.050  69.979  1.00  0.00    -0.448 OA 
HETATM   14  C   UNL     1     -12.149  13.918  66.598  1.00  0.00    -0.485 A  
HETATM   15  H   UNL     1     -11.422  14.662  70.383  1.00  0.00     0.000 HD 
HETATM   16  C   UNL     1     -11.275  13.012  65.994  1.00  0.00    -0.320 A  
ENDBRANCH   6   9
ENDBRANCH   2   6
TORSDOF 2
ENDMDL
MODEL      116
REMARK 921   NORMALIZED FREE ENERGY PREDICTED BY IDOCK:   -3.36 KCAL/MOL
REMARK 922        TOTAL FREE ENERGY PREDICTED BY IDOCK:   -3.96 KCAL/MOL
REMARK 923 INTER-LIGAND FREE ENERGY PREDICTED BY IDOCK:   -3.79 KCAL/MOL
REMARK 924 INTRA-LIGAND FREE ENERGY PREDICTED BY IDOCK:   -0.17 KCAL/MOL
REMARK 927      BINDING AFFINITY PREDICTED BY RF-SCORE:    0.00 PKD
ROOT
HETATM    1  C   UNL     1      -9.704   4.866  67.451  1.00  0.00    -0.195 C  
HETATM    2  C   UNL     1     -10.659   5.977  67.902  1.00  0.00    -0.267 C  
HETATM    3  N   UNL     1     -11.351   6.508  66.708  1.00  0.00    -0.800 NA 
HETATM    4  H1  UNL     1     -11.987   7.247  67.008  1.00  0.00     0.000 HD 
HETATM    5  H2  UNL     1     -11.821   5.780  66.171  1.00  0.00     0.000 HD 
ENDROOT
BRANCH   2   6
HETATM    6  C   UNL     1      -9.942   7.133  68.665  1.00  0.00    -0.159 C  
HETATM    7  H   UNL     1      -8.207   7.411  69.570  1.00  0.00     0.000 HD 
HETATM    8  O   UNL     1      -8.644   6.708  69.105  1.00  0.00    -0.129 OA 
BRANCH   6   9
HETATM    9  C   UNL     1     -10.746   7.668  69.835  1.00  0.00    -0.253 A  
HETATM   10  C   UNL     1     -11.029   9.039  69.964  1.00  0.00    -0.230 A  
HETATM   11  C   UNL     1     -11.733   9.506  71.070  1.00  0.00    -0.343 A  
HETATM   12  C   UNL     1     -12.176   8.632  72.054  1.00  0.00    -0.439 A  
HETATM   13  O   UNL     1     -12.002  10.834  71.228  1.00  0.00    -0.304 OA 
HETATM   14  C   UNL     1     -11.902   7.270  71.938  1.00  0.00    -0.333 A  
HETATM   15  H   UNL     1     -12.483  11.152  71.982  1.00  0.00     0.000 HD 
HETATM   16  C   UNL     1     -11.188   6.791  70.838  1.00  0.00    -0.338 A  
ENDBRANCH   6   9
ENDBRANCH   2   6
TORSDOF 2
ENDMDL
MODEL      117
REMARK 921   NORMALIZED FREE ENERGY PREDICTED BY IDOCK:   -3.34 KCAL/MOL
REMARK 922        TOTAL FREE ENERGY PREDICTED BY IDOCK:   -3.93 KCAL/MOL
REMARK 923 INTER-LIGAND FREE ENERGY PREDICTED BY IDOCK:   -3.98 KCAL/MOL
REMARK 924 INTRA-LIGAND FREE ENERGY PREDICTED BY IDOCK:    0.05 KCAL/MOL
REMARK 927      BINDING AFFINITY PREDICTED BY RF-SCORE:    0.00 PKD
ROOT
HETATM    1  C   UNL     1     -10.763  19.019  67.407  1.00  0.00    -0.559 C  
HETATM    2  C   UNL     1      -9.338  18.660  67.839  1.00  0.00    -0.298 C  
HETATM    3  N   UNL     1      -8.433  18.880  66.691  1.00  0.00    -0.292 NA 
HETATM    4  H1  UNL     1      -7.484  18.641  66.979  1.00  0.00     0.000 HD 
HETATM    5  H2  UNL     1      -8.502  19.824  66.313  1.00  0.00     0.000 HD 
ENDROOT
BRANCH   2   6
HETATM    6  C   UNL     1      -9.203  17.194  68.355  1.00  0.00    -0.266 C  
HETATM    7  H   UNL     1      -7.754  15.872  68.598  1.00  0.00     0.000 HD 
HETATM    8  O   UNL     1      -7.836  16.765  68.284  1.00  0.00    -0.179 OA 
BRANCH   6   9
HETATM    9  C   UNL     1     -10.101  16.215  67.621  1.00  0.00    -0.248 A  
HETATM   10  C   UNL     1      -9.921  15.936  66.256  1.00  0.00    -0.318 A  
HETATM   11  C   UNL     1     -10.786  15.065  65.600  1.00  0.00    -0.354 A  
HETATM   12  C   UNL     1     -11.830  14.452  66.280  1.00  0.00    -0.391 A  
HETATM   13  O   UNL     1     -10.644  14.795  64.271  1.00  0.00    -0.477 OA 
HETATM   14  C   UNL     1     -12.020  14.720  67.634  1.00  0.00    -0.244 A  
HETATM   15  H   UNL     1     -11.234  14.201  63.823  1.00  0.00     0.000 HD 
HETATM   16  C   UNL     1     -11.164  15.599  68.301  1.00  0.00    -0.353 A  
ENDBRANCH   6   9
ENDBRANCH   2   6
TORSDOF 2
ENDMDL
MODEL      118
REMARK 921   NORMALIZED FREE ENERGY PREDICTED BY IDOCK:   -3.32 KCAL/MOL
REMARK 922        TOTAL FREE ENERGY PREDICTED BY IDOCK:   -3.91 KCAL/MOL
REMARK 923 INTER-LIGAND FREE ENERGY PREDICTED BY IDOCK:   -3.94 KCAL/MOL
REMARK 924 INTRA-LIGAND FREE ENERGY PREDICTED BY IDOCK:    0.03 KCAL/MOL
REMARK 927      BINDING AFFINITY PREDICTED BY RF-SCORE:    0.00 PKD
ROOT
HETATM    1  C   UNL     1     -12.527  14.628  72.693  1.00  0.00    -0.379 C  
HETATM    2  C   UNL     1     -12.053  14.856  71.254  1.00  0.00    -0.330 C  
HETATM    3  N   UNL     1     -12.703  16.080  70.738  1.00  0.00    -0.553 NA 
HETATM    4  H1  UNL     1     -12.387  16.232  69.781  1.00  0.00     0.000 HD 
HETATM    5  H2  UNL     1     -12.544  16.890  71.336  1.00  0.00     0.000 HD 
ENDROOT
BRANCH   2   6
HETATM    6  C   UNL     1     -12.353  13.651  70.310  1.00  0.00    -0.322 C  
HETATM    7  H   UNL     1     -12.359  11.679  70.439  1.00  0.00     0.000 HD 
HETATM    8  O   UNL     1     -12.176  12.412  71.013  1.00  0.00    -0.305 OA 
BRANCH   6   9
HETATM    9  C   UNL     1     -11.519  13.660  69.043  1.00  0.00    -0.346 A  
HETATM   10  C   UNL     1     -11.720  12.712  68.025  1.00  0.00    -0.402 A  
HETATM   11  C   UNL     1     -10.912  12.720  66.892  1.00  0.00    -0.260 A  
HETATM   12  C   UNL     1      -9.906  13.666  66.741  1.00  0.00    -0.271 A  
HETATM   13  O   UNL     1     -11.074  11.798  65.901  1.00  0.00    -0.309 OA 
HETATM   14  C   UNL     1      -9.696  14.612  67.743  1.00  0.00    -0.215 A  
HETATM   15  H   UNL     1     -10.522  11.804  65.128  1.00  0.00     0.000 HD 
HETATM   16  C   UNL     1     -10.494  14.608  68.888  1.00  0.00    -0.248 A  
ENDBRANCH   6   9
ENDBRANCH   2   6
TORSDOF 2
ENDMDL
MODEL      119
REMARK 921   NORMALIZED FREE ENERGY PREDICTED BY IDOCK:   -3.30 KCAL/MOL
REMARK 922        TOTAL FREE ENERGY PREDICTED BY IDOCK:   -3.88 KCAL/MOL
REMARK 923 INTER-LIGAND FREE ENERGY PREDICTED BY IDOCK:   -3.70 KCAL/MOL
REMARK 924 INTRA-LIGAND FREE ENERGY PREDICTED BY IDOCK:   -0.18 KCAL/MOL
REMARK 927      BINDING AFFINITY PREDICTED BY RF-SCORE:    0.00 PKD
ROOT
HETATM    1  C   UNL     1      -6.523  11.680  67.194  1.00  0.00    -0.137 C  
HETATM    2  C   UNL     1      -7.896  12.319  67.425  1.00  0.00    -0.171 C  
HETATM    3  N   UNL     1      -7.868  13.025  68.724  1.00  0.00    -0.312 NA 
HETATM    4  H1  UNL     1      -8.781  13.451  68.877  1.00  0.00     0.000 HD 
HETATM    5  H2  UNL     1      -7.105  13.699  68.788  1.00  0.00     0.000 HD 
ENDROOT
BRANCH   2   6
HETATM    6  C   UNL     1      -9.067  11.289  67.399  1.00  0.00    -0.151 C  
HETATM    7  H   UNL     1      -9.263   9.323  67.342  1.00  0.00     0.000 HD 
HETATM    8  O   UNL     1      -8.551   9.950  67.357  1.00  0.00    -0.124 OA 
BRANCH   6   9
HETATM    9  C   UNL     1     -10.039  11.515  66.257  1.00  0.00    -0.261 A  
HETATM   10  C   UNL     1      -9.881  10.867  65.020  1.00  0.00    -0.336 A  
HETATM   11  C   UNL     1     -10.766  11.126  63.977  1.00  0.00    -0.339 A  
HETATM   12  C   UNL     1     -11.820  12.015  64.141  1.00  0.00    -0.462 A  
HETATM   13  O   UNL     1     -10.621  10.526  62.761  1.00  0.00    -0.570 OA 
HETATM   14  C   UNL     1     -11.989  12.664  65.363  1.00  0.00    -0.496 A  
HETATM   15  H   UNL     1     -11.224  10.703  62.050  1.00  0.00     0.000 HD 
HETATM   16  C   UNL     1     -11.102  12.419  66.414  1.00  0.00    -0.343 A  
ENDBRANCH   6   9
ENDBRANCH   2   6
TORSDOF 2
ENDMDL
MODEL      120
REMARK 921   NORMALIZED FREE ENERGY PREDICTED BY IDOCK:   -3.29 KCAL/MOL
REMARK 922        TOTAL FREE ENERGY PREDICTED BY IDOCK:   -3.88 KCAL/MOL
REMARK 923 INTER-LIGAND FREE ENERGY PREDICTED BY IDOCK:   -3.71 KCAL/MOL
REMARK 924 INTRA-LIGAND FREE ENERGY PREDICTED BY IDOCK:   -0.17 KCAL/MOL
REMARK 927      BINDING AFFINITY PREDICTED BY RF-SCORE:    0.00 PKD
ROOT
HETATM    1  C   UNL     1      -8.529   8.497  68.525  1.00  0.00    -0.131 C  
HETATM    2  C   UNL     1      -9.337   9.791  68.381  1.00  0.00    -0.133 C  
HETATM    3  N   UNL     1      -9.730  10.247  69.731  1.00  0.00    -0.393 NA 
HETATM    4  H1  UNL     1     -10.268  11.109  69.634  1.00  0.00     0.000 HD 
HETATM    5  H2  UNL     1      -8.933  10.351  70.357  1.00  0.00     0.000 HD 
ENDROOT
BRANCH   2   6
HETATM    6  C   UNL     1     -10.601   9.629  67.480  1.00  0.00    -0.277 C  
HETATM    7  H   UNL     1     -11.399   8.221  66.347  1.00  0.00     0.000 HD 
HETATM    8  O   UNL     1     -10.630   8.319  66.895  1.00  0.00    -0.321 OA 
BRANCH   6   9
HETATM    9  C   UNL     1     -10.708  10.690  66.401  1.00  0.00    -0.198 A  
HETATM   10  C   UNL     1     -11.512  11.831  66.571  1.00  0.00    -0.325 A  
HETATM   11  C   UNL     1     -11.623  12.767  65.547  1.00  0.00    -0.362 A  
HETATM   12  C   UNL     1     -10.938  12.599  64.351  1.00  0.00    -0.386 A  
HETATM   13  O   UNL     1     -12.413  13.870  65.681  1.00  0.00    -0.453 OA 
HETATM   14  C   UNL     1     -10.138  11.472  64.169  1.00  0.00    -0.354 A  
HETATM   15  H   UNL     1     -12.488  14.509  64.982  1.00  0.00     0.000 HD 
HETATM   16  C   UNL     1     -10.025  10.522  65.186  1.00  0.00    -0.375 A  
ENDBRANCH   6   9
ENDBRANCH   2   6
TORSDOF 2
ENDMDL
MODEL      121
REMARK 921   NORMALIZED FREE ENERGY PREDICTED BY IDOCK:   -3.27 KCAL/MOL
REMARK 922        TOTAL FREE ENERGY PREDICTED BY IDOCK:   -3.86 KCAL/MOL
REMARK 923 INTER-LIGAND FREE ENERGY PREDICTED BY IDOCK:   -3.66 KCAL/MOL
REMARK 924 INTRA-LIGAND FREE ENERGY PREDICTED BY IDOCK:   -0.20 KCAL/MOL
REMARK 927      BINDING AFFINITY PREDICTED BY RF-SCORE:    0.00 PKD
ROOT
HETATM    1  C   UNL     1     -11.106   4.390  73.611  1.00  0.00    -0.361 C  
HETATM    2  C   UNL     1     -10.119   4.985  72.602  1.00  0.00    -0.182 C  
HETATM    3  N   UNL     1      -9.048   5.676  73.351  1.00  0.00    -0.129 NA 
HETATM    4  H1  UNL     1      -8.390   6.072  72.679  1.00  0.00     0.000 HD 
HETATM    5  H2  UNL     1      -8.594   5.070  74.034  1.00  0.00     0.000 HD 
ENDROOT
BRANCH   2   6
HETATM    6  C   UNL     1     -10.789   5.969  71.594  1.00  0.00    -0.260 C  
HETATM    7  H   UNL     1     -12.607   6.652  71.229  1.00  0.00     0.000 HD 
HETATM    8  O   UNL     1     -12.200   6.053  71.843  1.00  0.00    -0.209 OA 
BRANCH   6   9
HETATM    9  C   UNL     1     -10.531   5.609  70.143  1.00  0.00    -0.366 A  
HETATM   10  C   UNL     1     -11.106   6.342  69.091  1.00  0.00    -0.457 A  
HETATM   11  C   UNL     1     -10.884   5.962  67.770  1.00  0.00    -0.235 A  
HETATM   12  C   UNL     1     -10.087   4.866  67.469  1.00  0.00    -0.184 A  
HETATM   13  O   UNL     1     -11.448   6.645  66.734  1.00  0.00    -0.776 OA 
HETATM   14  C   UNL     1      -9.511   4.129  68.502  1.00  0.00    -0.216 A  
HETATM   15  H   UNL     1     -11.296   6.386  65.833  1.00  0.00     0.000 HD 
HETATM   16  C   UNL     1      -9.733   4.495  69.831  1.00  0.00    -0.288 A  
ENDBRANCH   6   9
ENDBRANCH   2   6
TORSDOF 2
ENDMDL
MODEL      122
REMARK 921   NORMALIZED FREE ENERGY PREDICTED BY IDOCK:   -3.27 KCAL/MOL
REMARK 922        TOTAL FREE ENERGY PREDICTED BY IDOCK:   -3.85 KCAL/MOL
REMARK 923 INTER-LIGAND FREE ENERGY PREDICTED BY IDOCK:   -3.64 KCAL/MOL
REMARK 924 INTRA-LIGAND FREE ENERGY PREDICTED BY IDOCK:   -0.21 KCAL/MOL
REMARK 927      BINDING AFFINITY PREDICTED BY RF-SCORE:    0.00 PKD
ROOT
HETATM    1  C   UNL     1     -10.406  18.043  66.923  1.00  0.00    -0.377 C  
HETATM    2  C   UNL     1      -9.199  17.698  67.800  1.00  0.00    -0.251 C  
HETATM    3  N   UNL     1      -8.045  18.498  67.340  1.00  0.00    -0.239 NA 
HETATM    4  H1  UNL     1      -7.241  18.269  67.925  1.00  0.00     0.000 HD 
HETATM    5  H2  UNL     1      -8.243  19.498  67.322  1.00  0.00     0.000 HD 
ENDROOT
BRANCH   2   6
HETATM    6  C   UNL     1      -8.841  16.180  67.783  1.00  0.00    -0.183 C  
HETATM    7  H   UNL     1      -8.173  14.865  66.468  1.00  0.00     0.000 HD 
HETATM    8  O   UNL     1      -8.392  15.789  66.478  1.00  0.00    -0.272 OA 
BRANCH   6   9
HETATM    9  C   UNL     1      -9.982  15.289  68.236  1.00  0.00    -0.222 A  
HETATM   10  C   UNL     1     -10.478  14.259  67.419  1.00  0.00    -0.264 A  
HETATM   11  C   UNL     1     -11.554  13.485  67.844  1.00  0.00    -0.342 A  
HETATM   12  C   UNL     1     -12.146  13.706  69.081  1.00  0.00    -0.361 A  
HETATM   13  O   UNL     1     -12.066  12.494  67.060  1.00  0.00    -0.521 OA 
HETATM   14  C   UNL     1     -11.664  14.724  69.902  1.00  0.00    -0.352 A  
HETATM   15  H   UNL     1     -12.800  11.966  67.351  1.00  0.00     0.000 HD 
HETATM   16  C   UNL     1     -10.591  15.514  69.482  1.00  0.00    -0.258 A  
ENDBRANCH   6   9
ENDBRANCH   2   6
TORSDOF 2
ENDMDL
MODEL      123
REMARK 921   NORMALIZED FREE ENERGY PREDICTED BY IDOCK:   -3.25 KCAL/MOL
REMARK 922        TOTAL FREE ENERGY PREDICTED BY IDOCK:   -3.84 KCAL/MOL
REMARK 923 INTER-LIGAND FREE ENERGY PREDICTED BY IDOCK:   -3.65 KCAL/MOL
REMARK 924 INTRA-LIGAND FREE ENERGY PREDICTED BY IDOCK:   -0.19 KCAL/MOL
REMARK 927      BINDING AFFINITY PREDICTED BY RF-SCORE:    0.00 PKD
ROOT
HETATM    1  C   UNL     1      -9.025   9.905  68.615  1.00  0.00    -0.128 C  
HETATM    2  C   UNL     1     -10.197   9.069  68.090  1.00  0.00    -0.204 C  
HETATM    3  N   UNL     1     -11.431   9.876  68.202  1.00  0.00    -0.577 NA 
HETATM    4  H1  UNL     1     -12.211   9.320  67.852  1.00  0.00     0.000 HD 
HETATM    5  H2  UNL     1     -11.353  10.779  67.735  1.00  0.00     0.000 HD 
ENDROOT
BRANCH   2   6
HETATM    6  C   UNL     1     -10.372   7.714  68.843  1.00  0.00    -0.212 C  
HETATM    7  H   UNL     1      -9.679   6.876  70.493  1.00  0.00     0.000 HD 
HETATM    8  O   UNL     1      -9.573   7.701  70.035  1.00  0.00    -0.165 OA 
BRANCH   6   9
HETATM    9  C   UNL     1     -10.056   6.505  67.983  1.00  0.00    -0.168 A  
HETATM   10  C   UNL     1     -10.906   6.106  66.938  1.00  0.00    -0.411 A  
HETATM   11  C   UNL     1     -10.612   4.968  66.192  1.00  0.00    -0.265 A  
HETATM   12  C   UNL     1      -9.474   4.217  66.458  1.00  0.00    -0.196 A  
HETATM   13  O   UNL     1     -11.432   4.549  65.187  1.00  0.00    -1.105 OA 
HETATM   14  C   UNL     1      -8.622   4.602  67.492  1.00  0.00    -0.103 A  
HETATM   15  H   UNL     1     -11.231   3.773  64.678  1.00  0.00     0.000 HD 
HETATM   16  C   UNL     1      -8.912   5.736  68.253  1.00  0.00    -0.115 A  
ENDBRANCH   6   9
ENDBRANCH   2   6
TORSDOF 2
ENDMDL
MODEL      124
REMARK 921   NORMALIZED FREE ENERGY PREDICTED BY IDOCK:   -3.24 KCAL/MOL
REMARK 922        TOTAL FREE ENERGY PREDICTED BY IDOCK:   -3.83 KCAL/MOL
REMARK 923 INTER-LIGAND FREE ENERGY PREDICTED BY IDOCK:   -3.70 KCAL/MOL
REMARK 924 INTRA-LIGAND FREE ENERGY PREDICTED BY IDOCK:   -0.13 KCAL/MOL
REMARK 927      BINDING AFFINITY PREDICTED BY RF-SCORE:    0.00 PKD
ROOT
HETATM    1  C   UNL     1      -9.926   2.877  72.214  1.00  0.00    -0.238 C  
HETATM    2  C   UNL     1     -10.163   4.376  72.425  1.00  0.00    -0.190 C  
HETATM    3  N   UNL     1     -11.187   4.542  73.478  1.00  0.00    -0.316 NA 
HETATM    4  H1  UNL     1     -11.344   5.540  73.619  1.00  0.00     0.000 HD 
HETATM    5  H2  UNL     1     -10.944   4.058  74.342  1.00  0.00     0.000 HD 
ENDROOT
BRANCH   2   6
HETATM    6  C   UNL     1     -10.604   5.118  71.126  1.00  0.00    -0.125 C  
HETATM    7  H   UNL     1      -9.794   5.598  69.388  1.00  0.00     0.000 HD 
HETATM    8  O   UNL     1      -9.526   5.146  70.179  1.00  0.00    -0.148 OA 
BRANCH   6   9
HETATM    9  C   UNL     1     -11.117   6.522  71.382  1.00  0.00    -0.315 A  
HETATM   10  C   UNL     1     -12.455   6.872  71.129  1.00  0.00    -0.398 A  
HETATM   11  C   UNL     1     -12.887   8.179  71.334  1.00  0.00    -0.253 A  
HETATM   12  C   UNL     1     -12.013   9.153  71.800  1.00  0.00    -0.449 A  
HETATM   13  O   UNL     1     -14.174   8.547  71.076  1.00  0.00    -0.627 OA 
HETATM   14  C   UNL     1     -10.684   8.820  72.055  1.00  0.00    -0.417 A  
HETATM   15  H   UNL     1     -14.468   9.439  71.217  1.00  0.00     0.000 HD 
HETATM   16  C   UNL     1     -10.237   7.514  71.844  1.00  0.00    -0.221 A  
ENDBRANCH   6   9
ENDBRANCH   2   6
TORSDOF 2
ENDMDL
MODEL      125
REMARK 921   NORMALIZED FREE ENERGY PREDICTED BY IDOCK:   -3.24 KCAL/MOL
REMARK 922        TOTAL FREE ENERGY PREDICTED BY IDOCK:   -3.82 KCAL/MOL
REMARK 923 INTER-LIGAND FREE ENERGY PREDICTED BY IDOCK:   -3.65 KCAL/MOL
REMARK 924 INTRA-LIGAND FREE ENERGY PREDICTED BY IDOCK:   -0.17 KCAL/MOL
REMARK 927      BINDING AFFINITY PREDICTED BY RF-SCORE:    0.00 PKD
ROOT
HETATM    1  C   UNL     1      -9.834   5.360  73.062  1.00  0.00    -0.181 C  
HETATM    2  C   UNL     1      -9.794   6.867  72.794  1.00  0.00    -0.167 C  
HETATM    3  N   UNL     1      -9.333   7.546  74.023  1.00  0.00    -0.382 NA 
HETATM    4  H1  UNL     1      -9.306   8.550  73.845  1.00  0.00     0.000 HD 
HETATM    5  H2  UNL     1      -8.442   7.184  74.361  1.00  0.00     0.000 HD 
ENDROOT
BRANCH   2   6
HETATM    6  C   UNL     1     -11.170   7.449  72.343  1.00  0.00    -0.293 C  
HETATM    7  H   UNL     1     -12.897   6.741  71.695  1.00  0.00     0.000 HD 
HETATM    8  O   UNL     1     -12.060   6.387  71.969  1.00  0.00    -0.335 OA 
BRANCH   6   9
HETATM    9  C   UNL     1     -11.054   8.459  71.218  1.00  0.00    -0.307 A  
HETATM   10  C   UNL     1     -11.425   9.803  71.396  1.00  0.00    -0.435 A  
HETATM   11  C   UNL     1     -11.346  10.698  70.334  1.00  0.00    -0.304 A  
HETATM   12  C   UNL     1     -10.892  10.286  69.087  1.00  0.00    -0.270 A  
HETATM   13  O   UNL     1     -11.721  12.001  70.477  1.00  0.00    -0.510 OA 
HETATM   14  C   UNL     1     -10.521   8.957  68.896  1.00  0.00    -0.225 A  
HETATM   15  H   UNL     1     -11.667  12.612  69.752  1.00  0.00     0.000 HD 
HETATM   16  C   UNL     1     -10.604   8.047  69.953  1.00  0.00    -0.242 A  
ENDBRANCH   6   9
ENDBRANCH   2   6
TORSDOF 2
ENDMDL
MODEL      126
REMARK 921   NORMALIZED FREE ENERGY PREDICTED BY IDOCK:   -3.23 KCAL/MOL
REMARK 922        TOTAL FREE ENERGY PREDICTED BY IDOCK:   -3.81 KCAL/MOL
REMARK 923 INTER-LIGAND FREE ENERGY PREDICTED BY IDOCK:   -3.64 KCAL/MOL
REMARK 924 INTRA-LIGAND FREE ENERGY PREDICTED BY IDOCK:   -0.18 KCAL/MOL
REMARK 927      BINDING AFFINITY PREDICTED BY RF-SCORE:    0.00 PKD
ROOT
HETATM    1  C   UNL     1      -8.608  17.344  67.138  1.00  0.00    -0.233 C  
HETATM    2  C   UNL     1      -9.814  16.719  66.429  1.00  0.00    -0.297 C  
HETATM    3  N   UNL     1     -10.498  17.776  65.654  1.00  0.00    -0.628 NA 
HETATM    4  H1  UNL     1     -11.300  17.359  65.182  1.00  0.00     0.000 HD 
HETATM    5  H2  UNL     1      -9.871  18.258  65.011  1.00  0.00     0.000 HD 
ENDROOT
BRANCH   2   6
HETATM    6  C   UNL     1     -10.818  16.037  67.409  1.00  0.00    -0.277 C  
HETATM    7  H   UNL     1     -11.458  16.324  69.256  1.00  0.00     0.000 HD 
HETATM    8  O   UNL     1     -10.847  16.739  68.660  1.00  0.00    -0.336 OA 
BRANCH   6   9
HETATM    9  C   UNL     1     -10.528  14.565  67.637  1.00  0.00    -0.246 A  
HETATM   10  C   UNL     1      -9.659  13.850  66.796  1.00  0.00    -0.288 A  
HETATM   11  C   UNL     1      -9.444  12.491  67.005  1.00  0.00    -0.217 A  
HETATM   12  C   UNL     1     -10.071  11.823  68.049  1.00  0.00    -0.198 A  
HETATM   13  O   UNL     1      -8.622  11.771  66.189  1.00  0.00    -0.345 OA 
HETATM   14  C   UNL     1     -10.935  12.520  68.891  1.00  0.00    -0.272 A  
HETATM   15  H   UNL     1      -8.476  10.844  66.332  1.00  0.00     0.000 HD 
HETATM   16  C   UNL     1     -11.166  13.882  68.685  1.00  0.00    -0.298 A  
ENDBRANCH   6   9
ENDBRANCH   2   6
TORSDOF 2
ENDMDL
MODEL      127
REMARK 921   NORMALIZED FREE ENERGY PREDICTED BY IDOCK:   -3.23 KCAL/MOL
REMARK 922        TOTAL FREE ENERGY PREDICTED BY IDOCK:   -3.81 KCAL/MOL
REMARK 923 INTER-LIGAND FREE ENERGY PREDICTED BY IDOCK:   -3.81 KCAL/MOL
REMARK 924 INTRA-LIGAND FREE ENERGY PREDICTED BY IDOCK:    0.00 KCAL/MOL
REMARK 927      BINDING AFFINITY PREDICTED BY RF-SCORE:    0.00 PKD
ROOT
HETATM    1  C   UNL     1      -9.343  14.492  67.564  1.00  0.00    -0.193 C  
HETATM    2  C   UNL     1     -10.300  14.951  66.459  1.00  0.00    -0.293 C  
HETATM    3  N   UNL     1      -9.859  14.350  65.182  1.00  0.00    -0.538 NA 
HETATM    4  H1  UNL     1     -10.496  14.656  64.447  1.00  0.00     0.000 HD 
HETATM    5  H2  UNL     1      -9.777  13.336  65.234  1.00  0.00     0.000 HD 
ENDROOT
BRANCH   2   6
HETATM    6  C   UNL     1     -10.382  16.503  66.323  1.00  0.00    -0.320 C  
HETATM    7  H   UNL     1     -10.749  17.812  64.889  1.00  0.00     0.000 HD 
HETATM    8  O   UNL     1     -10.698  16.867  64.972  1.00  0.00    -0.700 OA 
BRANCH   6   9
HETATM    9  C   UNL     1      -9.121  17.212  66.778  1.00  0.00    -0.266 A  
HETATM   10  C   UNL     1      -9.103  18.005  67.939  1.00  0.00    -0.269 A  
HETATM   11  C   UNL     1      -7.942  18.677  68.309  1.00  0.00    -0.312 A  
HETATM   12  C   UNL     1      -6.784  18.570  67.550  1.00  0.00    -0.203 A  
HETATM   13  O   UNL     1      -7.907  19.468  69.420  1.00  0.00    -0.243 OA 
HETATM   14  C   UNL     1      -6.788  17.788  66.397  1.00  0.00    -0.285 A  
HETATM   15  H   UNL     1      -7.115  19.926  69.672  1.00  0.00     0.000 HD 
HETATM   16  C   UNL     1      -7.949  17.116  66.010  1.00  0.00    -0.189 A  
ENDBRANCH   6   9
ENDBRANCH   2   6
TORSDOF 2
ENDMDL
MODEL      128
REMARK 921   NORMALIZED FREE ENERGY PREDICTED BY IDOCK:   -3.22 KCAL/MOL
REMARK 922        TOTAL FREE ENERGY PREDICTED BY IDOCK:   -3.80 KCAL/MOL
REMARK 923 INTER-LIGAND FREE ENERGY PREDICTED BY IDOCK:   -3.61 KCAL/MOL
REMARK 924 INTRA-LIGAND FREE ENERGY PREDICTED BY IDOCK:   -0.19 KCAL/MOL
REMARK 927      BINDING AFFINITY PREDICTED BY RF-SCORE:    0.00 PKD
ROOT
HETATM    1  C   UNL     1      -9.363   4.030  65.697  1.00  0.00    -0.160 C  
HETATM    2  C   UNL     1     -10.467   4.922  66.273  1.00  0.00    -0.304 C  
HETATM    3  N   UNL     1     -11.589   4.953  65.311  1.00  0.00    -0.861 NA 
HETATM    4  H1  UNL     1     -12.324   5.547  65.694  1.00  0.00     0.000 HD 
HETATM    5  H2  UNL     1     -11.924   4.022  65.068  1.00  0.00     0.000 HD 
ENDROOT
BRANCH   2   6
HETATM    6  C   UNL     1      -9.986   6.373  66.584  1.00  0.00    -0.149 C  
HETATM    7  H   UNL     1      -8.263   7.335  66.687  1.00  0.00     0.000 HD 
HETATM    8  O   UNL     1      -8.556   6.452  66.498  1.00  0.00    -0.117 OA 
BRANCH   6   9
HETATM    9  C   UNL     1     -10.462   6.886  67.930  1.00  0.00    -0.262 A  
HETATM   10  C   UNL     1     -10.276   8.226  68.312  1.00  0.00    -0.246 A  
HETATM   11  C   UNL     1     -10.686   8.658  69.569  1.00  0.00    -0.182 A  
HETATM   12  C   UNL     1     -11.293   7.783  70.460  1.00  0.00    -0.253 A  
HETATM   13  O   UNL     1     -10.497   9.948  69.970  1.00  0.00    -0.247 OA 
HETATM   14  C   UNL     1     -11.484   6.452  70.095  1.00  0.00    -0.484 A  
HETATM   15  H   UNL     1     -10.777  10.243  70.828  1.00  0.00     0.000 HD 
HETATM   16  C   UNL     1     -11.068   6.004  68.839  1.00  0.00    -0.349 A  
ENDBRANCH   6   9
ENDBRANCH   2   6
TORSDOF 2
ENDMDL
MODEL      129
REMARK 921   NORMALIZED FREE ENERGY PREDICTED BY IDOCK:   -3.21 KCAL/MOL
REMARK 922        TOTAL FREE ENERGY PREDICTED BY IDOCK:   -3.79 KCAL/MOL
REMARK 923 INTER-LIGAND FREE ENERGY PREDICTED BY IDOCK:   -3.60 KCAL/MOL
REMARK 924 INTRA-LIGAND FREE ENERGY PREDICTED BY IDOCK:   -0.18 KCAL/MOL
REMARK 927      BINDING AFFINITY PREDICTED BY RF-SCORE:    0.00 PKD
ROOT
HETATM    1  C   UNL     1      -9.076   7.938  65.812  1.00  0.00    -0.084 C  
HETATM    2  C   UNL     1      -9.041   9.440  65.512  1.00  0.00    -0.218 C  
HETATM    3  N   UNL     1      -7.630   9.878  65.487  1.00  0.00    -0.119 NA 
HETATM    4  H1  UNL     1      -7.607  10.878  65.287  1.00  0.00     0.000 HD 
HETATM    5  H2  UNL     1      -7.062   9.335  64.837  1.00  0.00     0.000 HD 
ENDROOT
BRANCH   2   6
HETATM    6  C   UNL     1      -9.849  10.291  66.541  1.00  0.00    -0.212 C  
HETATM    7  H   UNL     1     -11.215   9.967  67.931  1.00  0.00     0.000 HD 
HETATM    8  O   UNL     1     -10.724   9.449  67.305  1.00  0.00    -0.267 OA 
BRANCH   6   9
HETATM    9  C   UNL     1     -10.632  11.421  65.901  1.00  0.00    -0.317 A  
HETATM   10  C   UNL     1     -11.034  12.546  66.641  1.00  0.00    -0.303 A  
HETATM   11  C   UNL     1     -11.787  13.549  66.036  1.00  0.00    -0.379 A  
HETATM   12  C   UNL     1     -12.143  13.462  64.697  1.00  0.00    -0.456 A  
HETATM   13  O   UNL     1     -12.207  14.639  66.739  1.00  0.00    -0.418 OA 
HETATM   14  C   UNL     1     -11.751  12.352  63.951  1.00  0.00    -0.529 A  
HETATM   15  H   UNL     1     -12.721  15.323  66.326  1.00  0.00     0.000 HD 
HETATM   16  C   UNL     1     -11.003  11.336  64.549  1.00  0.00    -0.301 A  
ENDBRANCH   6   9
ENDBRANCH   2   6
TORSDOF 2
ENDMDL
MODEL      130
REMARK 921   NORMALIZED FREE ENERGY PREDICTED BY IDOCK:   -3.21 KCAL/MOL
REMARK 922        TOTAL FREE ENERGY PREDICTED BY IDOCK:   -3.78 KCAL/MOL
REMARK 923 INTER-LIGAND FREE ENERGY PREDICTED BY IDOCK:   -4.04 KCAL/MOL
REMARK 924 INTRA-LIGAND FREE ENERGY PREDICTED BY IDOCK:    0.25 KCAL/MOL
REMARK 927      BINDING AFFINITY PREDICTED BY RF-SCORE:    0.00 PKD
ROOT
HETATM    1  C   UNL     1      -8.087  16.268  68.973  1.00  0.00    -0.236 C  
HETATM    2  C   UNL     1      -9.060  15.269  68.336  1.00  0.00    -0.189 C  
HETATM    3  N   UNL     1      -8.313  14.451  67.358  1.00  0.00    -0.189 NA 
HETATM    4  H1  UNL     1      -8.960  13.786  66.935  1.00  0.00     0.000 HD 
HETATM    5  H2  UNL     1      -7.497  13.997  67.768  1.00  0.00     0.000 HD 
ENDROOT
BRANCH   2   6
HETATM    6  C   UNL     1     -10.278  15.954  67.644  1.00  0.00    -0.263 C  
HETATM    7  H   UNL     1     -11.172  15.880  65.883  1.00  0.00     0.000 HD 
HETATM    8  O   UNL     1     -10.430  15.463  66.304  1.00  0.00    -0.284 OA 
BRANCH   6   9
HETATM    9  C   UNL     1     -10.194  17.469  67.642  1.00  0.00    -0.343 A  
HETATM   10  C   UNL     1     -10.390  18.216  68.817  1.00  0.00    -0.270 A  
HETATM   11  C   UNL     1     -10.347  19.606  68.777  1.00  0.00    -0.242 A  
HETATM   12  C   UNL     1     -10.101  20.278  67.586  1.00  0.00    -0.515 A  
HETATM   13  O   UNL     1     -10.555  20.353  69.899  1.00  0.00    -0.624 OA 
HETATM   14  C   UNL     1      -9.905  19.550  66.414  1.00  0.00    -0.507 A  
HETATM   15  H   UNL     1     -10.526  21.302  69.871  1.00  0.00     0.000 HD 
HETATM   16  C   UNL     1      -9.954  18.154  66.440  1.00  0.00    -0.376 A  
ENDBRANCH   6   9
ENDBRANCH   2   6
TORSDOF 2
ENDMDL
MODEL      131
REMARK 921   NORMALIZED FREE ENERGY PREDICTED BY IDOCK:   -3.19 KCAL/MOL
REMARK 922        TOTAL FREE ENERGY PREDICTED BY IDOCK:   -3.77 KCAL/MOL
REMARK 923 INTER-LIGAND FREE ENERGY PREDICTED BY IDOCK:   -3.81 KCAL/MOL
REMARK 924 INTRA-LIGAND FREE ENERGY PREDICTED BY IDOCK:    0.04 KCAL/MOL
REMARK 927      BINDING AFFINITY PREDICTED BY RF-SCORE:    0.00 PKD
ROOT
HETATM    1  C   UNL     1      -9.061  19.851  66.396  1.00  0.00    -0.450 C  
HETATM    2  C   UNL     1      -7.975  18.916  66.938  1.00  0.00    -0.256 C  
HETATM    3  N   UNL     1      -7.885  17.741  66.045  1.00  0.00    -0.512 NA 
HETATM    4  H1  UNL     1      -7.162  17.119  66.406  1.00  0.00     0.000 HD 
HETATM    5  H2  UNL     1      -7.729  18.000  65.071  1.00  0.00     0.000 HD 
ENDROOT
BRANCH   2   6
HETATM    6  C   UNL     1      -8.237  18.456  68.405  1.00  0.00    -0.312 C  
HETATM    7  H   UNL     1      -7.154  18.002  69.995  1.00  0.00     0.000 HD 
HETATM    8  O   UNL     1      -6.995  18.282  69.101  1.00  0.00    -0.270 OA 
BRANCH   6   9
HETATM    9  C   UNL     1      -9.074  17.194  68.498  1.00  0.00    -0.265 A  
HETATM   10  C   UNL     1      -8.479  15.926  68.617  1.00  0.00    -0.200 A  
HETATM   11  C   UNL     1      -9.271  14.782  68.658  1.00  0.00    -0.194 A  
HETATM   12  C   UNL     1     -10.655  14.872  68.594  1.00  0.00    -0.251 A  
HETATM   13  O   UNL     1      -8.716  13.540  68.752  1.00  0.00    -0.355 OA 
HETATM   14  C   UNL     1     -11.259  16.123  68.475  1.00  0.00    -0.365 A  
HETATM   15  H   UNL     1      -9.257  12.761  68.780  1.00  0.00     0.000 HD 
HETATM   16  C   UNL     1     -10.474  17.277  68.424  1.00  0.00    -0.381 A  
ENDBRANCH   6   9
ENDBRANCH   2   6
TORSDOF 2
ENDMDL
MODEL      132
REMARK 921   NORMALIZED FREE ENERGY PREDICTED BY IDOCK:   -3.18 KCAL/MOL
REMARK 922        TOTAL FREE ENERGY PREDICTED BY IDOCK:   -3.76 KCAL/MOL
REMARK 923 INTER-LIGAND FREE ENERGY PREDICTED BY IDOCK:   -3.64 KCAL/MOL
REMARK 924 INTRA-LIGAND FREE ENERGY PREDICTED BY IDOCK:   -0.11 KCAL/MOL
REMARK 927      BINDING AFFINITY PREDICTED BY RF-SCORE:    0.00 PKD
ROOT
HETATM    1  C   UNL     1      -9.002   7.737  69.111  1.00  0.00    -0.145 C  
HETATM    2  C   UNL     1      -9.351   9.209  68.869  1.00  0.00    -0.146 C  
HETATM    3  N   UNL     1      -9.475   9.879  70.181  1.00  0.00    -0.363 NA 
HETATM    4  H1  UNL     1      -9.707  10.859  70.020  1.00  0.00     0.000 HD 
HETATM    5  H2  UNL     1      -8.645   9.764  70.761  1.00  0.00     0.000 HD 
ENDROOT
BRANCH   2   6
HETATM    6  C   UNL     1     -10.659   9.402  68.042  1.00  0.00    -0.226 C  
HETATM    7  H   UNL     1     -11.478   8.615  66.425  1.00  0.00     0.000 HD 
HETATM    8  O   UNL     1     -10.682   8.498  66.928  1.00  0.00    -0.265 OA 
BRANCH   6   9
HETATM    9  C   UNL     1     -10.863  10.828  67.566  1.00  0.00    -0.342 A  
HETATM   10  C   UNL     1     -10.168  11.338  66.456  1.00  0.00    -0.269 A  
HETATM   11  C   UNL     1     -10.344  12.663  66.069  1.00  0.00    -0.270 A  
HETATM   12  C   UNL     1     -11.213  13.498  66.760  1.00  0.00    -0.327 A  
HETATM   13  O   UNL     1      -9.665  13.186  65.008  1.00  0.00    -0.527 OA 
HETATM   14  C   UNL     1     -11.908  13.006  67.863  1.00  0.00    -0.389 A  
HETATM   15  H   UNL     1      -9.786  14.090  64.744  1.00  0.00     0.000 HD 
HETATM   16  C   UNL     1     -11.732  11.680  68.267  1.00  0.00    -0.374 A  
ENDBRANCH   6   9
ENDBRANCH   2   6
TORSDOF 2
ENDMDL
MODEL      133
REMARK 921   NORMALIZED FREE ENERGY PREDICTED BY IDOCK:   -3.18 KCAL/MOL
REMARK 922        TOTAL FREE ENERGY PREDICTED BY IDOCK:   -3.75 KCAL/MOL
REMARK 923 INTER-LIGAND FREE ENERGY PREDICTED BY IDOCK:   -3.56 KCAL/MOL
REMARK 924 INTRA-LIGAND FREE ENERGY PREDICTED BY IDOCK:   -0.19 KCAL/MOL
REMARK 927      BINDING AFFINITY PREDICTED BY RF-SCORE:    0.00 PKD
ROOT
HETATM    1  C   UNL     1      -9.922  19.887  66.202  1.00  0.00    -0.593 C  
HETATM    2  C   UNL     1      -8.436  19.529  66.304  1.00  0.00    -0.352 C  
HETATM    3  N   UNL     1      -7.707  20.258  65.245  1.00  0.00    -0.449 NA 
HETATM    4  H1  UNL     1      -6.718  20.020  65.313  1.00  0.00     0.000 HD 
HETATM    5  H2  UNL     1      -7.872  21.264  65.277  1.00  0.00     0.000 HD 
ENDROOT
BRANCH   2   6
HETATM    6  C   UNL     1      -8.163  17.997  66.187  1.00  0.00    -0.144 C  
HETATM    7  H   UNL     1      -9.217  16.362  65.841  1.00  0.00     0.000 HD 
HETATM    8  O   UNL     1      -9.383  17.294  65.913  1.00  0.00    -0.507 OA 
BRANCH   6   9
HETATM    9  C   UNL     1      -7.482  17.414  67.410  1.00  0.00    -0.201 A  
HETATM   10  C   UNL     1      -7.941  16.229  68.010  1.00  0.00    -0.151 A  
HETATM   11  C   UNL     1      -7.321  15.740  69.157  1.00  0.00    -0.194 A  
HETATM   12  C   UNL     1      -6.239  16.404  69.720  1.00  0.00    -0.204 A  
HETATM   13  O   UNL     1      -7.761  14.603  69.769  1.00  0.00    -0.392 OA 
HETATM   14  C   UNL     1      -5.774  17.580  69.135  1.00  0.00    -0.191 A  
HETATM   15  H   UNL     1      -7.338  14.270  70.551  1.00  0.00     0.000 HD 
HETATM   16  C   UNL     1      -6.393  18.085  67.990  1.00  0.00    -0.183 A  
ENDBRANCH   6   9
ENDBRANCH   2   6
TORSDOF 2
ENDMDL
MODEL      134
REMARK 921   NORMALIZED FREE ENERGY PREDICTED BY IDOCK:   -3.17 KCAL/MOL
REMARK 922        TOTAL FREE ENERGY PREDICTED BY IDOCK:   -3.74 KCAL/MOL
REMARK 923 INTER-LIGAND FREE ENERGY PREDICTED BY IDOCK:   -3.54 KCAL/MOL
REMARK 924 INTRA-LIGAND FREE ENERGY PREDICTED BY IDOCK:   -0.20 KCAL/MOL
REMARK 927      BINDING AFFINITY PREDICTED BY RF-SCORE:    0.00 PKD
ROOT
HETATM    1  C   UNL     1     -10.063  14.335  66.474  1.00  0.00    -0.283 C  
HETATM    2  C   UNL     1      -9.553  14.803  67.841  1.00  0.00    -0.210 C  
HETATM    3  N   UNL     1      -9.939  13.795  68.852  1.00  0.00    -0.416 NA 
HETATM    4  H1  UNL     1      -9.599  14.107  69.762  1.00  0.00     0.000 HD 
HETATM    5  H2  UNL     1      -9.618  12.858  68.613  1.00  0.00     0.000 HD 
ENDROOT
BRANCH   2   6
HETATM    6  C   UNL     1     -10.093  16.208  68.251  1.00  0.00    -0.232 C  
HETATM    7  H   UNL     1     -11.854  17.086  68.429  1.00  0.00     0.000 HD 
HETATM    8  O   UNL     1     -11.526  16.231  68.179  1.00  0.00    -0.309 OA 
BRANCH   6   9
HETATM    9  C   UNL     1      -9.507  17.339  67.427  1.00  0.00    -0.245 A  
HETATM   10  C   UNL     1      -8.143  17.371  67.090  1.00  0.00    -0.229 A  
HETATM   11  C   UNL     1      -7.625  18.442  66.368  1.00  0.00    -0.252 A  
HETATM   12  C   UNL     1      -8.443  19.488  65.961  1.00  0.00    -0.247 A  
HETATM   13  O   UNL     1      -6.301  18.505  66.047  1.00  0.00    -0.186 OA 
HETATM   14  C   UNL     1      -9.797  19.470  66.289  1.00  0.00    -0.513 A  
HETATM   15  H   UNL     1      -5.949  19.237  65.555  1.00  0.00     0.000 HD 
HETATM   16  C   UNL     1     -10.326  18.404  67.021  1.00  0.00    -0.419 A  
ENDBRANCH   6   9
ENDBRANCH   2   6
TORSDOF 2
ENDMDL
MODEL      135
REMARK 921   NORMALIZED FREE ENERGY PREDICTED BY IDOCK:   -3.15 KCAL/MOL
REMARK 922        TOTAL FREE ENERGY PREDICTED BY IDOCK:   -3.72 KCAL/MOL
REMARK 923 INTER-LIGAND FREE ENERGY PREDICTED BY IDOCK:   -3.72 KCAL/MOL
REMARK 924 INTRA-LIGAND FREE ENERGY PREDICTED BY IDOCK:   -0.00 KCAL/MOL
REMARK 927      BINDING AFFINITY PREDICTED BY RF-SCORE:    0.00 PKD
ROOT
HETATM    1  C   UNL     1      -9.829   4.857  67.451  1.00  0.00    -0.213 C  
HETATM    2  C   UNL     1     -10.573   6.095  67.962  1.00  0.00    -0.268 C  
HETATM    3  N   UNL     1     -11.311   6.695  66.831  1.00  0.00    -0.824 NA 
HETATM    4  H1  UNL     1     -11.807   7.519  67.171  1.00  0.00     0.000 HD 
HETATM    5  H2  UNL     1     -11.930   6.029  66.369  1.00  0.00     0.000 HD 
ENDROOT
BRANCH   2   6
HETATM    6  C   UNL     1      -9.629   7.156  68.609  1.00  0.00    -0.140 C  
HETATM    7  H   UNL     1      -8.300   7.210  70.071  1.00  0.00     0.000 HD 
HETATM    8  O   UNL     1      -8.875   6.565  69.678  1.00  0.00    -0.137 OA 
BRANCH   6   9
HETATM    9  C   UNL     1     -10.361   8.390  69.101  1.00  0.00    -0.229 A  
HETATM   10  C   UNL     1     -10.970   8.426  70.368  1.00  0.00    -0.249 A  
HETATM   11  C   UNL     1     -11.670   9.557  70.775  1.00  0.00    -0.298 A  
HETATM   12  C   UNL     1     -11.772  10.669  69.948  1.00  0.00    -0.395 A  
HETATM   13  O   UNL     1     -12.286   9.608  71.991  1.00  0.00    -0.361 OA 
HETATM   14  C   UNL     1     -11.174  10.646  68.690  1.00  0.00    -0.337 A  
HETATM   15  H   UNL     1     -12.764  10.380  72.268  1.00  0.00     0.000 HD 
HETATM   16  C   UNL     1     -10.476   9.513  68.267  1.00  0.00    -0.265 A  
ENDBRANCH   6   9
ENDBRANCH   2   6
TORSDOF 2
ENDMDL
MODEL      136
REMARK 921   NORMALIZED FREE ENERGY PREDICTED BY IDOCK:   -3.12 KCAL/MOL
REMARK 922        TOTAL FREE ENERGY PREDICTED BY IDOCK:   -3.69 KCAL/MOL
REMARK 923 INTER-LIGAND FREE ENERGY PREDICTED BY IDOCK:   -3.52 KCAL/MOL
REMARK 924 INTRA-LIGAND FREE ENERGY PREDICTED BY IDOCK:   -0.17 KCAL/MOL
REMARK 927      BINDING AFFINITY PREDICTED BY RF-SCORE:    0.00 PKD
ROOT
HETATM    1  C   UNL     1     -10.120  12.346  68.063  1.00  0.00    -0.214 C  
HETATM    2  C   UNL     1     -10.865  11.327  68.930  1.00  0.00    -0.208 C  
HETATM    3  N   UNL     1     -11.635  12.062  69.955  1.00  0.00    -0.480 NA 
HETATM    4  H1  UNL     1     -12.131  11.383  70.532  1.00  0.00     0.000 HD 
HETATM    5  H2  UNL     1     -12.257  12.762  69.551  1.00  0.00     0.000 HD 
ENDROOT
BRANCH   2   6
HETATM    6  C   UNL     1      -9.917  10.291  69.611  1.00  0.00    -0.207 C  
HETATM    7  H   UNL     1      -7.984   9.884  69.618  1.00  0.00     0.000 HD 
HETATM    8  O   UNL     1      -8.560  10.514  69.203  1.00  0.00    -0.154 OA 
BRANCH   6   9
HETATM    9  C   UNL     1     -10.316   8.851  69.350  1.00  0.00    -0.217 A  
HETATM   10  C   UNL     1     -10.528   8.373  68.045  1.00  0.00    -0.242 A  
HETATM   11  C   UNL     1     -10.933   7.058  67.839  1.00  0.00    -0.130 A  
HETATM   12  C   UNL     1     -11.125   6.195  68.910  1.00  0.00    -0.417 A  
HETATM   13  O   UNL     1     -11.165   6.578  66.583  1.00  0.00    -0.680 OA 
HETATM   14  C   UNL     1     -10.919   6.656  70.209  1.00  0.00    -0.355 A  
HETATM   15  H   UNL     1     -11.442   5.681  66.443  1.00  0.00     0.000 HD 
HETATM   16  C   UNL     1     -10.521   7.976  70.429  1.00  0.00    -0.218 A  
ENDBRANCH   6   9
ENDBRANCH   2   6
TORSDOF 2
ENDMDL
MODEL      137
REMARK 921   NORMALIZED FREE ENERGY PREDICTED BY IDOCK:   -3.12 KCAL/MOL
REMARK 922        TOTAL FREE ENERGY PREDICTED BY IDOCK:   -3.69 KCAL/MOL
REMARK 923 INTER-LIGAND FREE ENERGY PREDICTED BY IDOCK:   -3.50 KCAL/MOL
REMARK 924 INTRA-LIGAND FREE ENERGY PREDICTED BY IDOCK:   -0.18 KCAL/MOL
REMARK 927      BINDING AFFINITY PREDICTED BY RF-SCORE:    0.00 PKD
ROOT
HETATM    1  C   UNL     1      -9.280  10.606  68.854  1.00  0.00    -0.189 C  
HETATM    2  C   UNL     1     -10.020  10.249  67.560  1.00  0.00    -0.189 C  
HETATM    3  N   UNL     1     -11.213   9.449  67.912  1.00  0.00    -0.467 NA 
HETATM    4  H1  UNL     1     -11.705   9.212  67.050  1.00  0.00     0.000 HD 
HETATM    5  H2  UNL     1     -11.813   9.917  68.590  1.00  0.00     0.000 HD 
ENDROOT
BRANCH   2   6
HETATM    6  C   UNL     1      -9.133   9.470  66.540  1.00  0.00    -0.151 C  
HETATM    7  H   UNL     1      -7.240   8.924  66.389  1.00  0.00     0.000 HD 
HETATM    8  O   UNL     1      -7.780   9.398  67.010  1.00  0.00    -0.091 OA 
BRANCH   6   9
HETATM    9  C   UNL     1      -9.174  10.056  65.141  1.00  0.00    -0.273 A  
HETATM   10  C   UNL     1     -10.214  10.909  64.733  1.00  0.00    -0.398 A  
HETATM   11  C   UNL     1     -10.246  11.398  63.430  1.00  0.00    -0.411 A  
HETATM   12  C   UNL     1      -9.254  11.063  62.518  1.00  0.00    -0.337 A  
HETATM   13  O   UNL     1     -11.256  12.211  63.005  1.00  0.00    -0.681 OA 
HETATM   14  C   UNL     1      -8.218  10.218  62.909  1.00  0.00    -0.161 A  
HETATM   15  H   UNL     1     -11.277  12.544  62.116  1.00  0.00     0.000 HD 
HETATM   16  C   UNL     1      -8.179   9.714  64.211  1.00  0.00    -0.156 A  
ENDBRANCH   6   9
ENDBRANCH   2   6
TORSDOF 2
ENDMDL
MODEL      138
REMARK 921   NORMALIZED FREE ENERGY PREDICTED BY IDOCK:   -3.10 KCAL/MOL
REMARK 922        TOTAL FREE ENERGY PREDICTED BY IDOCK:   -3.67 KCAL/MOL
REMARK 923 INTER-LIGAND FREE ENERGY PREDICTED BY IDOCK:   -3.70 KCAL/MOL
REMARK 924 INTRA-LIGAND FREE ENERGY PREDICTED BY IDOCK:    0.03 KCAL/MOL
REMARK 927      BINDING AFFINITY PREDICTED BY RF-SCORE:    0.00 PKD
ROOT
HETATM    1  C   UNL     1     -10.738   5.629  66.458  1.00  0.00    -0.296 C  
HETATM    2  C   UNL     1     -10.964   6.118  67.893  1.00  0.00    -0.304 C  
HETATM    3  N   UNL     1     -11.101   7.589  67.867  1.00  0.00    -0.479 NA 
HETATM    4  H1  UNL     1     -11.253   7.914  68.822  1.00  0.00     0.000 HD 
HETATM    5  H2  UNL     1     -11.829   7.904  67.226  1.00  0.00     0.000 HD 
ENDROOT
BRANCH   2   6
HETATM    6  C   UNL     1      -9.822   5.702  68.871  1.00  0.00    -0.147 C  
HETATM    7  H   UNL     1      -8.503   4.238  69.017  1.00  0.00     0.000 HD 
HETATM    8  O   UNL     1      -9.198   4.490  68.422  1.00  0.00    -0.117 OA 
BRANCH   6   9
HETATM    9  C   UNL     1     -10.288   5.554  70.307  1.00  0.00    -0.349 A  
HETATM   10  C   UNL     1     -11.012   6.571  70.953  1.00  0.00    -0.325 A  
HETATM   11  C   UNL     1     -11.390   6.424  72.284  1.00  0.00    -0.290 A  
HETATM   12  C   UNL     1     -11.070   5.272  72.992  1.00  0.00    -0.377 A  
HETATM   13  O   UNL     1     -12.074   7.405  72.938  1.00  0.00    -0.542 OA 
HETATM   14  C   UNL     1     -10.352   4.256  72.365  1.00  0.00    -0.230 A  
HETATM   15  H   UNL     1     -12.332   7.304  73.846  1.00  0.00     0.000 HD 
HETATM   16  C   UNL     1      -9.960   4.396  71.031  1.00  0.00    -0.242 A  
ENDBRANCH   6   9
ENDBRANCH   2   6
TORSDOF 2
ENDMDL
MODEL      139
REMARK 921   NORMALIZED FREE ENERGY PREDICTED BY IDOCK:   -3.08 KCAL/MOL
REMARK 922        TOTAL FREE ENERGY PREDICTED BY IDOCK:   -3.64 KCAL/MOL
REMARK 923 INTER-LIGAND FREE ENERGY PREDICTED BY IDOCK:   -3.45 KCAL/MOL
REMARK 924 INTRA-LIGAND FREE ENERGY PREDICTED BY IDOCK:   -0.19 KCAL/MOL
REMARK 927      BINDING AFFINITY PREDICTED BY RF-SCORE:    0.00 PKD
ROOT
HETATM    1  C   UNL     1      -9.821   5.625  68.831  1.00  0.00    -0.197 C  
HETATM    2  C   UNL     1     -10.958   6.650  68.770  1.00  0.00    -0.260 C  
HETATM    3  N   UNL     1     -11.310   6.870  67.352  1.00  0.00    -0.687 NA 
HETATM    4  H1  UNL     1     -12.068   7.552  67.311  1.00  0.00     0.000 HD 
HETATM    5  H2  UNL     1     -11.537   6.004  66.864  1.00  0.00     0.000 HD 
ENDROOT
BRANCH   2   6
HETATM    6  C   UNL     1     -10.600   8.007  69.452  1.00  0.00    -0.205 C  
HETATM    7  H   UNL     1      -9.352   9.503  69.129  1.00  0.00     0.000 HD 
HETATM    8  O   UNL     1      -9.569   8.677  68.714  1.00  0.00    -0.153 OA 
BRANCH   6   9
HETATM    9  C   UNL     1     -10.196   7.859  70.907  1.00  0.00    -0.213 A  
HETATM   10  C   UNL     1      -8.985   8.385  71.389  1.00  0.00    -0.237 A  
HETATM   11  C   UNL     1      -8.622   8.198  72.719  1.00  0.00    -0.206 A  
HETATM   12  C   UNL     1      -9.447   7.501  73.592  1.00  0.00    -0.338 A  
HETATM   13  O   UNL     1      -7.443   8.681  73.205  1.00  0.00    -0.350 OA 
HETATM   14  C   UNL     1     -10.650   6.973  73.127  1.00  0.00    -0.350 A  
HETATM   15  H   UNL     1      -7.195   8.553  74.113  1.00  0.00     0.000 HD 
HETATM   16  C   UNL     1     -11.022   7.147  71.792  1.00  0.00    -0.258 A  
ENDBRANCH   6   9
ENDBRANCH   2   6
TORSDOF 2
ENDMDL
MODEL      140
REMARK 921   NORMALIZED FREE ENERGY PREDICTED BY IDOCK:   -3.08 KCAL/MOL
REMARK 922        TOTAL FREE ENERGY PREDICTED BY IDOCK:   -3.64 KCAL/MOL
REMARK 923 INTER-LIGAND FREE ENERGY PREDICTED BY IDOCK:   -3.64 KCAL/MOL
REMARK 924 INTRA-LIGAND FREE ENERGY PREDICTED BY IDOCK:    0.00 KCAL/MOL
REMARK 927      BINDING AFFINITY PREDICTED BY RF-SCORE:    0.00 PKD
ROOT
HETATM    1  C   UNL     1      -8.499  10.543  68.865  1.00  0.00    -0.152 C  
HETATM    2  C   UNL     1      -9.622  11.240  68.091  1.00  0.00    -0.186 C  
HETATM    3  N   UNL     1      -9.841  12.574  68.690  1.00  0.00    -0.397 NA 
HETATM    4  H1  UNL     1     -10.588  13.039  68.174  1.00  0.00     0.000 HD 
HETATM    5  H2  UNL     1      -8.988  13.131  68.730  1.00  0.00     0.000 HD 
ENDROOT
BRANCH   2   6
HETATM    6  C   UNL     1     -10.956  10.431  68.081  1.00  0.00    -0.281 C  
HETATM    7  H   UNL     1     -12.843  10.760  67.598  1.00  0.00     0.000 HD 
HETATM    8  O   UNL     1     -12.032  11.252  67.605  1.00  0.00    -0.634 OA 
BRANCH   6   9
HETATM    9  C   UNL     1     -11.306   9.835  69.431  1.00  0.00    -0.090 A  
HETATM   10  C   UNL     1     -11.075   8.478  69.716  1.00  0.00    -0.067 A  
HETATM   11  C   UNL     1     -11.445   7.950  70.949  1.00  0.00    -0.281 A  
HETATM   12  C   UNL     1     -12.035   8.750  71.919  1.00  0.00    -0.435 A  
HETATM   13  O   UNL     1     -11.250   6.632  71.241  1.00  0.00    -0.257 OA 
HETATM   14  C   UNL     1     -12.269  10.097  71.650  1.00  0.00    -0.422 A  
HETATM   15  H   UNL     1     -11.503   6.272  72.083  1.00  0.00     0.000 HD 
HETATM   16  C   UNL     1     -11.911  10.636  70.413  1.00  0.00    -0.441 A  
ENDBRANCH   6   9
ENDBRANCH   2   6
TORSDOF 2
ENDMDL
MODEL      141
REMARK 921   NORMALIZED FREE ENERGY PREDICTED BY IDOCK:   -3.07 KCAL/MOL
REMARK 922        TOTAL FREE ENERGY PREDICTED BY IDOCK:   -3.64 KCAL/MOL
REMARK 923 INTER-LIGAND FREE ENERGY PREDICTED BY IDOCK:   -3.46 KCAL/MOL
REMARK 924 INTRA-LIGAND FREE ENERGY PREDICTED BY IDOCK:   -0.17 KCAL/MOL
REMARK 927      BINDING AFFINITY PREDICTED BY RF-SCORE:    0.00 PKD
ROOT
HETATM    1  C   UNL     1     -10.253   9.449  67.452  1.00  0.00    -0.298 C  
HETATM    2  C   UNL     1     -10.364   9.901  68.911  1.00  0.00    -0.205 C  
HETATM    3  N   UNL     1     -10.150  11.363  68.963  1.00  0.00    -0.379 NA 
HETATM    4  H1  UNL     1     -10.224  11.664  69.935  1.00  0.00     0.000 HD 
HETATM    5  H2  UNL     1     -10.780  11.873  68.345  1.00  0.00     0.000 HD 
ENDROOT
BRANCH   2   6
HETATM    6  C   UNL     1      -9.357   9.177  69.858  1.00  0.00    -0.186 C  
HETATM    7  H   UNL     1      -7.954   7.796  69.694  1.00  0.00     0.000 HD 
HETATM    8  O   UNL     1      -8.567   8.236  69.117  1.00  0.00    -0.135 OA 
BRANCH   6   9
HETATM    9  C   UNL     1     -10.026   8.493  71.035  1.00  0.00    -0.255 A  
HETATM   10  C   UNL     1     -11.327   7.969  70.937  1.00  0.00    -0.291 A  
HETATM   11  C   UNL     1     -11.930   7.383  72.045  1.00  0.00    -0.297 A  
HETATM   12  C   UNL     1     -11.260   7.296  73.259  1.00  0.00    -0.180 A  
HETATM   13  O   UNL     1     -13.199   6.887  71.980  1.00  0.00    -0.531 OA 
HETATM   14  C   UNL     1      -9.970   7.811  73.370  1.00  0.00    -0.348 A  
HETATM   15  H   UNL     1     -13.610   6.487  72.737  1.00  0.00     0.000 HD 
HETATM   16  C   UNL     1      -9.357   8.409  72.267  1.00  0.00    -0.356 A  
ENDBRANCH   6   9
ENDBRANCH   2   6
TORSDOF 2
ENDMDL
MODEL      142
REMARK 921   NORMALIZED FREE ENERGY PREDICTED BY IDOCK:   -3.07 KCAL/MOL
REMARK 922        TOTAL FREE ENERGY PREDICTED BY IDOCK:   -3.63 KCAL/MOL
REMARK 923 INTER-LIGAND FREE ENERGY PREDICTED BY IDOCK:   -3.79 KCAL/MOL
REMARK 924 INTRA-LIGAND FREE ENERGY PREDICTED BY IDOCK:    0.16 KCAL/MOL
REMARK 927      BINDING AFFINITY PREDICTED BY RF-SCORE:    0.00 PKD
ROOT
HETATM    1  C   UNL     1      -9.709   4.865  67.500  1.00  0.00    -0.198 C  
HETATM    2  C   UNL     1     -10.480   6.131  67.885  1.00  0.00    -0.229 C  
HETATM    3  N   UNL     1     -11.375   6.490  66.765  1.00  0.00    -0.800 NA 
HETATM    4  H1  UNL     1     -11.888   7.333  67.021  1.00  0.00     0.000 HD 
HETATM    5  H2  UNL     1     -11.990   5.724  66.493  1.00  0.00     0.000 HD 
ENDROOT
BRANCH   2   6
HETATM    6  C   UNL     1      -9.550   7.334  68.236  1.00  0.00    -0.148 C  
HETATM    7  H   UNL     1      -9.087   8.384  69.844  1.00  0.00     0.000 HD 
HETATM    8  O   UNL     1      -9.653   7.652  69.631  1.00  0.00    -0.160 OA 
BRANCH   6   9
HETATM    9  C   UNL     1      -9.820   8.566  67.393  1.00  0.00    -0.244 A  
HETATM   10  C   UNL     1     -10.713   9.565  67.818  1.00  0.00    -0.302 A  
HETATM   11  C   UNL     1     -10.972  10.664  67.004  1.00  0.00    -0.208 A  
HETATM   12  C   UNL     1     -10.349  10.799  65.770  1.00  0.00    -0.295 A  
HETATM   13  O   UNL     1     -11.849  11.635  67.386  1.00  0.00    -0.603 OA 
HETATM   14  C   UNL     1      -9.462   9.816  65.336  1.00  0.00    -0.333 A  
HETATM   15  H   UNL     1     -12.026  12.385  66.831  1.00  0.00     0.000 HD 
HETATM   16  C   UNL     1      -9.201   8.704  66.140  1.00  0.00    -0.271 A  
ENDBRANCH   6   9
ENDBRANCH   2   6
TORSDOF 2
ENDMDL
MODEL      143
REMARK 921   NORMALIZED FREE ENERGY PREDICTED BY IDOCK:   -3.06 KCAL/MOL
REMARK 922        TOTAL FREE ENERGY PREDICTED BY IDOCK:   -3.62 KCAL/MOL
REMARK 923 INTER-LIGAND FREE ENERGY PREDICTED BY IDOCK:   -3.44 KCAL/MOL
REMARK 924 INTRA-LIGAND FREE ENERGY PREDICTED BY IDOCK:   -0.18 KCAL/MOL
REMARK 927      BINDING AFFINITY PREDICTED BY RF-SCORE:    0.00 PKD
ROOT
HETATM    1  C   UNL     1     -11.781  13.287  68.082  1.00  0.00    -0.397 C  
HETATM    2  C   UNL     1     -11.057  13.348  69.431  1.00  0.00    -0.103 C  
HETATM    3  N   UNL     1     -11.683  12.365  70.341  1.00  0.00    -0.540 NA 
HETATM    4  H1  UNL     1     -11.201  12.405  71.239  1.00  0.00     0.000 HD 
HETATM    5  H2  UNL     1     -11.702  11.424  69.948  1.00  0.00     0.000 HD 
ENDROOT
BRANCH   2   6
HETATM    6  C   UNL     1     -11.081  14.768  70.078  1.00  0.00    -0.204 C  
HETATM    7  H   UNL     1     -12.448  16.059  70.684  1.00  0.00     0.000 HD 
HETATM    8  O   UNL     1     -12.434  15.195  70.290  1.00  0.00    -0.338 OA 
BRANCH   6   9
HETATM    9  C   UNL     1     -10.321  15.805  69.274  1.00  0.00    -0.245 A  
HETATM   10  C   UNL     1      -8.917  15.877  69.307  1.00  0.00    -0.251 A  
HETATM   11  C   UNL     1      -8.250  16.865  68.591  1.00  0.00    -0.254 A  
HETATM   12  C   UNL     1      -8.952  17.788  67.826  1.00  0.00    -0.249 A  
HETATM   13  O   UNL     1      -6.890  16.968  68.625  1.00  0.00    -0.168 OA 
HETATM   14  C   UNL     1     -10.343  17.729  67.784  1.00  0.00    -0.382 A  
HETATM   15  H   UNL     1      -6.435  17.643  68.136  1.00  0.00     0.000 HD 
HETATM   16  C   UNL     1     -11.025  16.746  68.505  1.00  0.00    -0.312 A  
ENDBRANCH   6   9
ENDBRANCH   2   6
TORSDOF 2
ENDMDL
MODEL      144
REMARK 921   NORMALIZED FREE ENERGY PREDICTED BY IDOCK:   -3.06 KCAL/MOL
REMARK 922        TOTAL FREE ENERGY PREDICTED BY IDOCK:   -3.62 KCAL/MOL
REMARK 923 INTER-LIGAND FREE ENERGY PREDICTED BY IDOCK:   -3.57 KCAL/MOL
REMARK 924 INTRA-LIGAND FREE ENERGY PREDICTED BY IDOCK:   -0.05 KCAL/MOL
REMARK 927      BINDING AFFINITY PREDICTED BY RF-SCORE:    0.00 PKD
ROOT
HETATM    1  C   UNL     1      -9.187  12.509  68.053  1.00  0.00    -0.204 C  
HETATM    2  C   UNL     1      -9.715  13.023  66.710  1.00  0.00    -0.248 C  
HETATM    3  N   UNL     1     -10.425  14.298  66.946  1.00  0.00    -0.271 NA 
HETATM    4  H1  UNL     1     -10.776  14.640  66.052  1.00  0.00     0.000 HD 
HETATM    5  H2  UNL     1      -9.847  14.985  67.429  1.00  0.00     0.000 HD 
ENDROOT
BRANCH   2   6
HETATM    6  C   UNL     1     -10.657  12.009  65.991  1.00  0.00    -0.268 C  
HETATM    7  H   UNL     1     -12.585  11.573  65.993  1.00  0.00     0.000 HD 
HETATM    8  O   UNL     1     -12.011  12.190  66.430  1.00  0.00    -0.611 OA 
BRANCH   6   9
HETATM    9  C   UNL     1     -10.234  10.563  66.174  1.00  0.00    -0.299 A  
HETATM   10  C   UNL     1     -10.833   9.739  67.142  1.00  0.00    -0.207 A  
HETATM   11  C   UNL     1     -10.395   8.430  67.314  1.00  0.00    -0.299 A  
HETATM   12  C   UNL     1      -9.372   7.912  66.531  1.00  0.00    -0.255 A  
HETATM   13  O   UNL     1     -10.947   7.618  68.260  1.00  0.00    -0.437 OA 
HETATM   14  C   UNL     1      -8.768   8.718  65.567  1.00  0.00    -0.217 A  
HETATM   15  H   UNL     1     -10.648   6.725  68.378  1.00  0.00     0.000 HD 
HETATM   16  C   UNL     1      -9.193  10.037  65.391  1.00  0.00    -0.259 A  
ENDBRANCH   6   9
ENDBRANCH   2   6
TORSDOF 2
ENDMDL
MODEL      145
REMARK 921   NORMALIZED FREE ENERGY PREDICTED BY IDOCK:   -3.05 KCAL/MOL
REMARK 922        TOTAL FREE ENERGY PREDICTED BY IDOCK:   -3.61 KCAL/MOL
REMARK 923 INTER-LIGAND FREE ENERGY PREDICTED BY IDOCK:   -3.39 KCAL/MOL
REMARK 924 INTRA-LIGAND FREE ENERGY PREDICTED BY IDOCK:   -0.23 KCAL/MOL
REMARK 927      BINDING AFFINITY PREDICTED BY RF-SCORE:    0.00 PKD
ROOT
HETATM    1  C   UNL     1      -9.783  15.515  65.914  1.00  0.00    -0.392 C  
HETATM    2  C   UNL     1      -9.713  15.319  67.431  1.00  0.00    -0.208 C  
HETATM    3  N   UNL     1      -9.176  16.557  68.036  1.00  0.00    -0.211 NA 
HETATM    4  H1  UNL     1      -9.130  16.426  69.047  1.00  0.00     0.000 HD 
HETATM    5  H2  UNL     1      -9.708  17.385  67.772  1.00  0.00     0.000 HD 
ENDROOT
BRANCH   2   6
HETATM    6  C   UNL     1      -8.844  14.095  67.854  1.00  0.00    -0.182 C  
HETATM    7  H   UNL     1      -7.047  13.384  67.441  1.00  0.00     0.000 HD 
HETATM    8  O   UNL     1      -7.576  14.129  67.184  1.00  0.00    -0.132 OA 
BRANCH   6   9
HETATM    9  C   UNL     1      -9.530  12.762  67.616  1.00  0.00    -0.190 A  
HETATM   10  C   UNL     1     -10.733  12.430  68.261  1.00  0.00    -0.250 A  
HETATM   11  C   UNL     1     -11.317  11.184  68.055  1.00  0.00    -0.312 A  
HETATM   12  C   UNL     1     -10.732  10.255  67.204  1.00  0.00    -0.303 A  
HETATM   13  O   UNL     1     -12.473  10.832  68.686  1.00  0.00    -0.793 OA 
HETATM   14  C   UNL     1      -9.538  10.571  66.558  1.00  0.00    -0.216 A  
HETATM   15  H   UNL     1     -12.872   9.981  68.544  1.00  0.00     0.000 HD 
HETATM   16  C   UNL     1      -8.938  11.815  66.764  1.00  0.00    -0.196 A  
ENDBRANCH   6   9
ENDBRANCH   2   6
TORSDOF 2
ENDMDL
MODEL      146
REMARK 921   NORMALIZED FREE ENERGY PREDICTED BY IDOCK:   -3.05 KCAL/MOL
REMARK 922        TOTAL FREE ENERGY PREDICTED BY IDOCK:   -3.61 KCAL/MOL
REMARK 923 INTER-LIGAND FREE ENERGY PREDICTED BY IDOCK:   -3.65 KCAL/MOL
REMARK 924 INTRA-LIGAND FREE ENERGY PREDICTED BY IDOCK:    0.04 KCAL/MOL
REMARK 927      BINDING AFFINITY PREDICTED BY RF-SCORE:    0.00 PKD
ROOT
HETATM    1  C   UNL     1     -10.458  17.719  66.797  1.00  0.00    -0.300 C  
HETATM    2  C   UNL     1     -10.239  16.752  67.965  1.00  0.00    -0.300 C  
HETATM    3  N   UNL     1      -9.054  15.921  67.666  1.00  0.00    -0.197 NA 
HETATM    4  H1  UNL     1      -8.907  15.278  68.444  1.00  0.00     0.000 HD 
HETATM    5  H2  UNL     1      -8.226  16.480  67.459  1.00  0.00     0.000 HD 
ENDROOT
BRANCH   2   6
HETATM    6  C   UNL     1     -11.474  15.841  68.250  1.00  0.00    -0.337 C  
HETATM    7  H   UNL     1     -12.297  14.968  69.819  1.00  0.00     0.000 HD 
HETATM    8  O   UNL     1     -11.545  15.522  69.647  1.00  0.00    -0.300 OA 
BRANCH   6   9
HETATM    9  C   UNL     1     -11.488  14.573  67.418  1.00  0.00    -0.385 A  
HETATM   10  C   UNL     1     -11.157  13.326  67.975  1.00  0.00    -0.282 A  
HETATM   11  C   UNL     1     -11.139  12.186  67.177  1.00  0.00    -0.291 A  
HETATM   12  C   UNL     1     -11.455  12.256  65.827  1.00  0.00    -0.417 A  
HETATM   13  O   UNL     1     -10.801  10.968  67.691  1.00  0.00    -0.219 OA 
HETATM   14  C   UNL     1     -11.784  13.486  65.261  1.00  0.00    -0.341 A  
HETATM   15  H   UNL     1     -10.789  10.191  67.146  1.00  0.00     0.000 HD 
HETATM   16  C   UNL     1     -11.798  14.639  66.049  1.00  0.00    -0.280 A  
ENDBRANCH   6   9
ENDBRANCH   2   6
TORSDOF 2
ENDMDL
MODEL      147
REMARK 921   NORMALIZED FREE ENERGY PREDICTED BY IDOCK:   -3.05 KCAL/MOL
REMARK 922        TOTAL FREE ENERGY PREDICTED BY IDOCK:   -3.61 KCAL/MOL
REMARK 923 INTER-LIGAND FREE ENERGY PREDICTED BY IDOCK:   -3.70 KCAL/MOL
REMARK 924 INTRA-LIGAND FREE ENERGY PREDICTED BY IDOCK:    0.09 KCAL/MOL
REMARK 927      BINDING AFFINITY PREDICTED BY RF-SCORE:    0.00 PKD
ROOT
HETATM    1  C   UNL     1      -9.783   4.259  70.907  1.00  0.00    -0.266 C  
HETATM    2  C   UNL     1      -9.670   5.123  69.647  1.00  0.00    -0.185 C  
HETATM    3  N   UNL     1      -8.585   6.105  69.851  1.00  0.00    -0.131 NA 
HETATM    4  H1  UNL     1      -8.510   6.680  69.012  1.00  0.00     0.000 HD 
HETATM    5  H2  UNL     1      -7.701   5.666  70.106  1.00  0.00     0.000 HD 
ENDROOT
BRANCH   2   6
HETATM    6  C   UNL     1     -10.998   5.857  69.284  1.00  0.00    -0.327 C  
HETATM    7  H   UNL     1     -11.845   6.597  67.659  1.00  0.00     0.000 HD 
HETATM    8  O   UNL     1     -11.037   6.150  67.880  1.00  0.00    -0.328 OA 
BRANCH   6   9
HETATM    9  C   UNL     1     -11.225   7.121  70.092  1.00  0.00    -0.295 A  
HETATM   10  C   UNL     1     -10.743   8.367  69.656  1.00  0.00    -0.201 A  
HETATM   11  C   UNL     1     -10.931   9.502  70.439  1.00  0.00    -0.278 A  
HETATM   12  C   UNL     1     -11.602   9.428  71.653  1.00  0.00    -0.466 A  
HETATM   13  O   UNL     1     -10.455  10.718  70.047  1.00  0.00    -0.447 OA 
HETATM   14  C   UNL     1     -12.084   8.198  72.097  1.00  0.00    -0.408 A  
HETATM   15  H   UNL     1     -10.583  11.493  70.581  1.00  0.00     0.000 HD 
HETATM   16  C   UNL     1     -11.894   7.050  71.324  1.00  0.00    -0.371 A  
ENDBRANCH   6   9
ENDBRANCH   2   6
TORSDOF 2
ENDMDL
MODEL      148
REMARK 921   NORMALIZED FREE ENERGY PREDICTED BY IDOCK:   -3.05 KCAL/MOL
REMARK 922        TOTAL FREE ENERGY PREDICTED BY IDOCK:   -3.61 KCAL/MOL
REMARK 923 INTER-LIGAND FREE ENERGY PREDICTED BY IDOCK:   -3.43 KCAL/MOL
REMARK 924 INTRA-LIGAND FREE ENERGY PREDICTED BY IDOCK:   -0.17 KCAL/MOL
REMARK 927      BINDING AFFINITY PREDICTED BY RF-SCORE:    0.00 PKD
ROOT
HETATM    1  C   UNL     1      -9.146   4.575  64.298  1.00  0.00    -0.138 C  
HETATM    2  C   UNL     1     -10.009   4.644  65.562  1.00  0.00    -0.183 C  
HETATM    3  N   UNL     1     -11.430   4.666  65.154  1.00  0.00    -1.107 NA 
HETATM    4  H1  UNL     1     -12.004   4.711  65.996  1.00  0.00     0.000 HD 
HETATM    5  H2  UNL     1     -11.677   3.881  64.552  1.00  0.00     0.000 HD 
ENDROOT
BRANCH   2   6
HETATM    6  C   UNL     1      -9.688   5.879  66.459  1.00  0.00    -0.155 C  
HETATM    7  H   UNL     1      -8.132   7.042  66.818  1.00  0.00     0.000 HD 
HETATM    8  O   UNL     1      -8.327   6.290  66.272  1.00  0.00    -0.113 OA 
BRANCH   6   9
HETATM    9  C   UNL     1      -9.968   5.639  67.931  1.00  0.00    -0.174 A  
HETATM   10  C   UNL     1      -9.375   4.572  68.627  1.00  0.00    -0.199 A  
HETATM   11  C   UNL     1      -9.682   4.353  69.966  1.00  0.00    -0.216 A  
HETATM   12  C   UNL     1     -10.568   5.185  70.639  1.00  0.00    -0.214 A  
HETATM   13  O   UNL     1      -9.135   3.312  70.656  1.00  0.00    -0.095 OA 
HETATM   14  C   UNL     1     -11.164   6.247  69.961  1.00  0.00    -0.480 A  
HETATM   15  H   UNL     1      -9.346   3.163  71.570  1.00  0.00     0.000 HD 
HETATM   16  C   UNL     1     -10.870   6.471  68.615  1.00  0.00    -0.357 A  
ENDBRANCH   6   9
ENDBRANCH   2   6
TORSDOF 2
ENDMDL
MODEL      149
REMARK 921   NORMALIZED FREE ENERGY PREDICTED BY IDOCK:   -3.04 KCAL/MOL
REMARK 922        TOTAL FREE ENERGY PREDICTED BY IDOCK:   -3.60 KCAL/MOL
REMARK 923 INTER-LIGAND FREE ENERGY PREDICTED BY IDOCK:   -3.46 KCAL/MOL
REMARK 924 INTRA-LIGAND FREE ENERGY PREDICTED BY IDOCK:   -0.15 KCAL/MOL
REMARK 927      BINDING AFFINITY PREDICTED BY RF-SCORE:    0.00 PKD
ROOT
HETATM    1  C   UNL     1      -7.847  18.692  68.149  1.00  0.00    -0.309 C  
HETATM    2  C   UNL     1      -8.580  18.285  66.867  1.00  0.00    -0.263 C  
HETATM    3  N   UNL     1      -8.870  19.507  66.088  1.00  0.00    -0.394 NA 
HETATM    4  H1  UNL     1      -9.358  19.236  65.234  1.00  0.00     0.000 HD 
HETATM    5  H2  UNL     1      -8.035  20.062  65.903  1.00  0.00     0.000 HD 
ENDROOT
BRANCH   2   6
HETATM    6  C   UNL     1      -9.898  17.494  67.136  1.00  0.00    -0.297 C  
HETATM    7  H   UNL     1     -11.219  17.339  68.597  1.00  0.00     0.000 HD 
HETATM    8  O   UNL     1     -10.417  17.820  68.434  1.00  0.00    -0.369 OA 
BRANCH   6   9
HETATM    9  C   UNL     1      -9.735  15.993  66.996  1.00  0.00    -0.235 A  
HETATM   10  C   UNL     1      -9.040  15.236  67.954  1.00  0.00    -0.175 A  
HETATM   11  C   UNL     1      -8.872  13.866  67.778  1.00  0.00    -0.189 A  
HETATM   12  C   UNL     1      -9.394  13.223  66.663  1.00  0.00    -0.247 A  
HETATM   13  O   UNL     1      -8.183  13.115  68.684  1.00  0.00    -0.292 OA 
HETATM   14  C   UNL     1     -10.086  13.960  65.704  1.00  0.00    -0.332 A  
HETATM   15  H   UNL     1      -8.069  12.181  68.563  1.00  0.00     0.000 HD 
HETATM   16  C   UNL     1     -10.253  15.337  65.866  1.00  0.00    -0.353 A  
ENDBRANCH   6   9
ENDBRANCH   2   6
TORSDOF 2
ENDMDL
MODEL      150
REMARK 921   NORMALIZED FREE ENERGY PREDICTED BY IDOCK:   -3.04 KCAL/MOL
REMARK 922        TOTAL FREE ENERGY PREDICTED BY IDOCK:   -3.60 KCAL/MOL
REMARK 923 INTER-LIGAND FREE ENERGY PREDICTED BY IDOCK:   -3.95 KCAL/MOL
REMARK 924 INTRA-LIGAND FREE ENERGY PREDICTED BY IDOCK:    0.35 KCAL/MOL
REMARK 927      BINDING AFFINITY PREDICTED BY RF-SCORE:    0.00 PKD
ROOT
HETATM    1  C   UNL     1      -8.872  18.027  67.193  1.00  0.00    -0.249 C  
HETATM    2  C   UNL     1     -10.287  17.611  66.779  1.00  0.00    -0.331 C  
HETATM    3  N   UNL     1     -10.962  17.021  67.954  1.00  0.00    -0.298 NA 
HETATM    4  H1  UNL     1     -11.904  16.744  67.678  1.00  0.00     0.000 HD 
HETATM    5  H2  UNL     1     -10.957  17.642  68.762  1.00  0.00     0.000 HD 
ENDROOT
BRANCH   2   6
HETATM    6  C   UNL     1     -10.307  16.604  65.587  1.00  0.00    -0.290 C  
HETATM    7  H   UNL     1     -11.386  16.313  63.957  1.00  0.00     0.000 HD 
HETATM    8  O   UNL     1     -11.374  16.925  64.683  1.00  0.00    -0.841 OA 
BRANCH   6   9
HETATM    9  C   UNL     1     -10.407  15.156  66.027  1.00  0.00    -0.326 A  
HETATM   10  C   UNL     1      -9.536  14.620  66.991  1.00  0.00    -0.249 A  
HETATM   11  C   UNL     1      -9.625  13.277  67.344  1.00  0.00    -0.223 A  
HETATM   12  C   UNL     1     -10.576  12.449  66.763  1.00  0.00    -0.250 A  
HETATM   13  O   UNL     1      -8.777  12.729  68.262  1.00  0.00    -0.183 OA 
HETATM   14  C   UNL     1     -11.446  12.967  65.805  1.00  0.00    -0.376 A  
HETATM   15  H   UNL     1      -8.839  11.813  68.503  1.00  0.00     0.000 HD 
HETATM   16  C   UNL     1     -11.360  14.311  65.436  1.00  0.00    -0.329 A  
ENDBRANCH   6   9
ENDBRANCH   2   6
TORSDOF 2
ENDMDL
MODEL      151
REMARK 921   NORMALIZED FREE ENERGY PREDICTED BY IDOCK:   -3.04 KCAL/MOL
REMARK 922        TOTAL FREE ENERGY PREDICTED BY IDOCK:   -3.59 KCAL/MOL
REMARK 923 INTER-LIGAND FREE ENERGY PREDICTED BY IDOCK:   -3.73 KCAL/MOL
REMARK 924 INTRA-LIGAND FREE ENERGY PREDICTED BY IDOCK:    0.13 KCAL/MOL
REMARK 927      BINDING AFFINITY PREDICTED BY RF-SCORE:    0.00 PKD
ROOT
HETATM    1  C   UNL     1     -13.266  13.927  71.569  1.00  0.00    -0.425 C  
HETATM    2  C   UNL     1     -11.919  13.763  70.859  1.00  0.00    -0.192 C  
HETATM    3  N   UNL     1     -11.435  15.103  70.465  1.00  0.00    -0.282 NA 
HETATM    4  H1  UNL     1     -10.537  14.994  69.993  1.00  0.00     0.000 HD 
HETATM    5  H2  UNL     1     -11.388  15.750  71.251  1.00  0.00     0.000 HD 
ENDROOT
BRANCH   2   6
HETATM    6  C   UNL     1     -11.990  12.829  69.612  1.00  0.00    -0.288 C  
HETATM    7  H   UNL     1     -11.583  10.942  69.192  1.00  0.00     0.000 HD 
HETATM    8  O   UNL     1     -11.539  11.510  69.951  1.00  0.00    -0.297 OA 
BRANCH   6   9
HETATM    9  C   UNL     1     -11.216  13.360  68.420  1.00  0.00    -0.311 A  
HETATM   10  C   UNL     1      -9.841  13.113  68.269  1.00  0.00    -0.227 A  
HETATM   11  C   UNL     1      -9.149  13.647  67.187  1.00  0.00    -0.239 A  
HETATM   12  C   UNL     1      -9.801  14.422  66.236  1.00  0.00    -0.321 A  
HETATM   13  O   UNL     1      -7.810  13.438  67.030  1.00  0.00    -0.373 OA 
HETATM   14  C   UNL     1     -11.165  14.676  66.374  1.00  0.00    -0.336 A  
HETATM   15  H   UNL     1      -7.339  13.803  66.291  1.00  0.00     0.000 HD 
HETATM   16  C   UNL     1     -11.868  14.151  67.461  1.00  0.00    -0.437 A  
ENDBRANCH   6   9
ENDBRANCH   2   6
TORSDOF 2
ENDMDL
MODEL      152
REMARK 921   NORMALIZED FREE ENERGY PREDICTED BY IDOCK:   -3.03 KCAL/MOL
REMARK 922        TOTAL FREE ENERGY PREDICTED BY IDOCK:   -3.59 KCAL/MOL
REMARK 923 INTER-LIGAND FREE ENERGY PREDICTED BY IDOCK:   -3.41 KCAL/MOL
REMARK 924 INTRA-LIGAND FREE ENERGY PREDICTED BY IDOCK:   -0.18 KCAL/MOL
REMARK 927      BINDING AFFINITY PREDICTED BY RF-SCORE:    0.00 PKD
ROOT
HETATM    1  C   UNL     1      -8.400   4.501  64.385  1.00  0.00    -0.113 C  
HETATM    2  C   UNL     1      -9.537   4.352  65.401  1.00  0.00    -0.184 C  
HETATM    3  N   UNL     1     -10.719   3.808  64.701  1.00  0.00    -0.506 NA 
HETATM    4  H1  UNL     1     -11.476   3.708  65.377  1.00  0.00     0.000 HD 
HETATM    5  H2  UNL     1     -10.518   2.939  64.208  1.00  0.00     0.000 HD 
ENDROOT
BRANCH   2   6
HETATM    6  C   UNL     1      -9.904   5.691  66.114  1.00  0.00    -0.079 C  
HETATM    7  H   UNL     1      -9.092   7.477  66.344  1.00  0.00     0.000 HD 
HETATM    8  O   UNL     1      -8.868   6.662  65.911  1.00  0.00    -0.154 OA 
BRANCH   6   9
HETATM    9  C   UNL     1     -10.187   5.523  67.594  1.00  0.00    -0.241 A  
HETATM   10  C   UNL     1     -11.144   6.315  68.253  1.00  0.00    -0.364 A  
HETATM   11  C   UNL     1     -11.353   6.167  69.621  1.00  0.00    -0.372 A  
HETATM   12  C   UNL     1     -10.632   5.234  70.355  1.00  0.00    -0.278 A  
HETATM   13  O   UNL     1     -12.260   6.939  70.285  1.00  0.00    -0.624 OA 
HETATM   14  C   UNL     1      -9.680   4.442  69.715  1.00  0.00    -0.291 A  
HETATM   15  H   UNL     1     -12.402   6.837  71.219  1.00  0.00     0.000 HD 
HETATM   16  C   UNL     1      -9.456   4.588  68.344  1.00  0.00    -0.209 A  
ENDBRANCH   6   9
ENDBRANCH   2   6
TORSDOF 2
ENDMDL
MODEL      153
REMARK 921   NORMALIZED FREE ENERGY PREDICTED BY IDOCK:   -3.01 KCAL/MOL
REMARK 922        TOTAL FREE ENERGY PREDICTED BY IDOCK:   -3.56 KCAL/MOL
REMARK 923 INTER-LIGAND FREE ENERGY PREDICTED BY IDOCK:   -3.58 KCAL/MOL
REMARK 924 INTRA-LIGAND FREE ENERGY PREDICTED BY IDOCK:    0.02 KCAL/MOL
REMARK 927      BINDING AFFINITY PREDICTED BY RF-SCORE:    0.00 PKD
ROOT
HETATM    1  C   UNL     1     -10.527   8.149  67.480  1.00  0.00    -0.326 C  
HETATM    2  C   UNL     1     -10.050   6.712  67.250  1.00  0.00    -0.170 C  
HETATM    3  N   UNL     1     -11.112   5.978  66.529  1.00  0.00    -0.761 NA 
HETATM    4  H1  UNL     1     -10.794   5.021  66.375  1.00  0.00     0.000 HD 
HETATM    5  H2  UNL     1     -11.390   6.442  65.665  1.00  0.00     0.000 HD 
ENDROOT
BRANCH   2   6
HETATM    6  C   UNL     1      -9.686   5.966  68.571  1.00  0.00    -0.126 C  
HETATM    7  H   UNL     1      -9.942   4.161  69.332  1.00  0.00     0.000 HD 
HETATM    8  O   UNL     1     -10.164   4.614  68.528  1.00  0.00    -0.067 OA 
BRANCH   6   9
HETATM    9  C   UNL     1     -10.198   6.666  69.816  1.00  0.00    -0.214 A  
HETATM   10  C   UNL     1      -9.347   7.437  70.627  1.00  0.00    -0.160 A  
HETATM   11  C   UNL     1      -9.836   8.034  71.785  1.00  0.00    -0.183 A  
HETATM   12  C   UNL     1     -11.168   7.890  72.153  1.00  0.00    -0.363 A  
HETATM   13  O   UNL     1      -9.025   8.768  72.599  1.00  0.00    -0.380 OA 
HETATM   14  C   UNL     1     -12.022   7.128  71.358  1.00  0.00    -0.364 A  
HETATM   15  H   UNL     1      -9.360   9.175  73.389  1.00  0.00     0.000 HD 
HETATM   16  C   UNL     1     -11.541   6.517  70.198  1.00  0.00    -0.466 A  
ENDBRANCH   6   9
ENDBRANCH   2   6
TORSDOF 2
ENDMDL
MODEL      154
REMARK 921   NORMALIZED FREE ENERGY PREDICTED BY IDOCK:   -3.00 KCAL/MOL
REMARK 922        TOTAL FREE ENERGY PREDICTED BY IDOCK:   -3.55 KCAL/MOL
REMARK 923 INTER-LIGAND FREE ENERGY PREDICTED BY IDOCK:   -3.33 KCAL/MOL
REMARK 924 INTRA-LIGAND FREE ENERGY PREDICTED BY IDOCK:   -0.21 KCAL/MOL
REMARK 927      BINDING AFFINITY PREDICTED BY RF-SCORE:    0.00 PKD
ROOT
HETATM    1  C   UNL     1     -10.327  18.305  68.186  1.00  0.00    -0.393 C  
HETATM    2  C   UNL     1      -8.873  18.751  67.998  1.00  0.00    -0.300 C  
HETATM    3  N   UNL     1      -8.875  20.126  67.454  1.00  0.00    -0.341 NA 
HETATM    4  H1  UNL     1      -7.907  20.423  67.330  1.00  0.00     0.000 HD 
HETATM    5  H2  UNL     1      -9.414  20.774  68.028  1.00  0.00     0.000 HD 
ENDROOT
BRANCH   2   6
HETATM    6  C   UNL     1      -8.055  17.806  67.065  1.00  0.00    -0.219 C  
HETATM    7  H   UNL     1      -7.994  17.373  65.138  1.00  0.00     0.000 HD 
HETATM    8  O   UNL     1      -8.492  17.948  65.706  1.00  0.00    -0.513 OA 
BRANCH   6   9
HETATM    9  C   UNL     1      -8.113  16.350  67.487  1.00  0.00    -0.166 A  
HETATM   10  C   UNL     1      -7.498  15.903  68.669  1.00  0.00    -0.158 A  
HETATM   11  C   UNL     1      -7.533  14.554  69.009  1.00  0.00    -0.131 A  
HETATM   12  C   UNL     1      -8.181  13.631  68.198  1.00  0.00    -0.158 A  
HETATM   13  O   UNL     1      -6.925  14.094  70.139  1.00  0.00    -0.389 OA 
HETATM   14  C   UNL     1      -8.795  14.060  67.023  1.00  0.00    -0.234 A  
HETATM   15  H   UNL     1      -6.949  13.173  70.371  1.00  0.00     0.000 HD 
HETATM   16  C   UNL     1      -8.759  15.410  66.666  1.00  0.00    -0.332 A  
ENDBRANCH   6   9
ENDBRANCH   2   6
TORSDOF 2
ENDMDL
MODEL      155
REMARK 921   NORMALIZED FREE ENERGY PREDICTED BY IDOCK:   -2.98 KCAL/MOL
REMARK 922        TOTAL FREE ENERGY PREDICTED BY IDOCK:   -3.53 KCAL/MOL
REMARK 923 INTER-LIGAND FREE ENERGY PREDICTED BY IDOCK:   -3.34 KCAL/MOL
REMARK 924 INTRA-LIGAND FREE ENERGY PREDICTED BY IDOCK:   -0.19 KCAL/MOL
REMARK 927      BINDING AFFINITY PREDICTED BY RF-SCORE:    0.00 PKD
ROOT
HETATM    1  C   UNL     1      -7.881   8.045  66.822  1.00  0.00    -0.103 C  
HETATM    2  C   UNL     1      -8.014   9.475  66.289  1.00  0.00    -0.107 C  
HETATM    3  N   UNL     1      -6.657  10.027  66.093  1.00  0.00    -0.083 NA 
HETATM    4  H1  UNL     1      -6.747  10.979  65.738  1.00  0.00     0.000 HD 
HETATM    5  H2  UNL     1      -6.076   9.439  65.497  1.00  0.00     0.000 HD 
ENDROOT
BRANCH   2   6
HETATM    6  C   UNL     1      -8.843  10.406  67.227  1.00  0.00    -0.132 C  
HETATM    7  H   UNL     1      -9.888  10.221  68.894  1.00  0.00     0.000 HD 
HETATM    8  O   UNL     1      -9.384   9.654  68.323  1.00  0.00    -0.133 OA 
BRANCH   6   9
HETATM    9  C   UNL     1      -9.949  11.153  66.505  1.00  0.00    -0.252 A  
HETATM   10  C   UNL     1     -10.068  11.116  65.105  1.00  0.00    -0.335 A  
HETATM   11  C   UNL     1     -11.067  11.845  64.468  1.00  0.00    -0.325 A  
HETATM   12  C   UNL     1     -11.967  12.609  65.199  1.00  0.00    -0.474 A  
HETATM   13  O   UNL     1     -11.189  11.841  63.110  1.00  0.00    -0.654 OA 
HETATM   14  C   UNL     1     -11.861  12.655  66.588  1.00  0.00    -0.449 A  
HETATM   15  H   UNL     1     -11.872  12.338  62.676  1.00  0.00     0.000 HD 
HETATM   16  C   UNL     1     -10.856  11.935  67.238  1.00  0.00    -0.294 A  
ENDBRANCH   6   9
ENDBRANCH   2   6
TORSDOF 2
ENDMDL
MODEL      156
REMARK 921   NORMALIZED FREE ENERGY PREDICTED BY IDOCK:   -2.96 KCAL/MOL
REMARK 922        TOTAL FREE ENERGY PREDICTED BY IDOCK:   -3.51 KCAL/MOL
REMARK 923 INTER-LIGAND FREE ENERGY PREDICTED BY IDOCK:   -3.30 KCAL/MOL
REMARK 924 INTRA-LIGAND FREE ENERGY PREDICTED BY IDOCK:   -0.21 KCAL/MOL
REMARK 927      BINDING AFFINITY PREDICTED BY RF-SCORE:    0.00 PKD
ROOT
HETATM    1  C   UNL     1     -11.122   9.375  71.390  1.00  0.00    -0.450 C  
HETATM    2  C   UNL     1     -12.255   8.395  71.709  1.00  0.00    -0.330 C  
HETATM    3  N   UNL     1     -13.227   9.078  72.590  1.00  0.00    -0.622 NA 
HETATM    4  H1  UNL     1     -13.981   8.425  72.802  1.00  0.00     0.000 HD 
HETATM    5  H2  UNL     1     -13.566   9.954  72.195  1.00  0.00     0.000 HD 
ENDROOT
BRANCH   2   6
HETATM    6  C   UNL     1     -11.757   7.077  72.379  1.00  0.00    -0.213 C  
HETATM    7  H   UNL     1     -10.914   6.551  74.087  1.00  0.00     0.000 HD 
HETATM    8  O   UNL     1     -11.217   7.353  73.679  1.00  0.00    -0.180 OA 
BRANCH   6   9
HETATM    9  C   UNL     1     -10.746   6.322  71.538  1.00  0.00    -0.292 A  
HETATM   10  C   UNL     1      -9.480   5.980  72.043  1.00  0.00    -0.161 A  
HETATM   11  C   UNL     1      -8.558   5.323  71.233  1.00  0.00    -0.128 A  
HETATM   12  C   UNL     1      -8.873   4.985  69.924  1.00  0.00    -0.130 A  
HETATM   13  O   UNL     1      -7.316   5.000  71.694  1.00  0.00    -0.070 OA 
HETATM   14  C   UNL     1     -10.125   5.318  69.410  1.00  0.00    -0.311 A  
HETATM   15  H   UNL     1      -6.687   4.551  71.142  1.00  0.00     0.000 HD 
HETATM   16  C   UNL     1     -11.055   5.986  70.210  1.00  0.00    -0.415 A  
ENDBRANCH   6   9
ENDBRANCH   2   6
TORSDOF 2
ENDMDL
MODEL      157
REMARK 921   NORMALIZED FREE ENERGY PREDICTED BY IDOCK:   -2.94 KCAL/MOL
REMARK 922        TOTAL FREE ENERGY PREDICTED BY IDOCK:   -3.49 KCAL/MOL
REMARK 923 INTER-LIGAND FREE ENERGY PREDICTED BY IDOCK:   -3.65 KCAL/MOL
REMARK 924 INTRA-LIGAND FREE ENERGY PREDICTED BY IDOCK:    0.17 KCAL/MOL
REMARK 927      BINDING AFFINITY PREDICTED BY RF-SCORE:    0.00 PKD
ROOT
HETATM    1  C   UNL     1      -8.032   7.583  69.988  1.00  0.00    -0.112 C  
HETATM    2  C   UNL     1      -8.316   9.077  69.803  1.00  0.00    -0.129 C  
HETATM    3  N   UNL     1      -8.032   9.766  71.080  1.00  0.00    -0.327 NA 
HETATM    4  H1  UNL     1      -8.220  10.761  70.956  1.00  0.00     0.000 HD 
HETATM    5  H2  UNL     1      -7.089   9.585  71.422  1.00  0.00     0.000 HD 
ENDROOT
BRANCH   2   6
HETATM    6  C   UNL     1      -9.778   9.373  69.347  1.00  0.00    -0.177 C  
HETATM    7  H   UNL     1     -10.940  10.960  69.155  1.00  0.00     0.000 HD 
HETATM    8  O   UNL     1     -10.050  10.779  69.433  1.00  0.00    -0.212 OA 
BRANCH   6   9
HETATM    9  C   UNL     1     -10.819   8.587  70.121  1.00  0.00    -0.238 A  
HETATM   10  C   UNL     1     -11.486   9.143  71.226  1.00  0.00    -0.405 A  
HETATM   11  C   UNL     1     -12.407   8.383  71.942  1.00  0.00    -0.347 A  
HETATM   12  C   UNL     1     -12.689   7.073  71.575  1.00  0.00    -0.425 A  
HETATM   13  O   UNL     1     -13.051   8.893  73.030  1.00  0.00    -0.759 OA 
HETATM   14  C   UNL     1     -12.034   6.510  70.481  1.00  0.00    -0.322 A  
HETATM   15  H   UNL     1     -13.679   8.374  73.518  1.00  0.00     0.000 HD 
HETATM   16  C   UNL     1     -11.102   7.259  69.760  1.00  0.00    -0.203 A  
ENDBRANCH   6   9
ENDBRANCH   2   6
TORSDOF 2
ENDMDL
MODEL      158
REMARK 921   NORMALIZED FREE ENERGY PREDICTED BY IDOCK:   -2.92 KCAL/MOL
REMARK 922        TOTAL FREE ENERGY PREDICTED BY IDOCK:   -3.46 KCAL/MOL
REMARK 923 INTER-LIGAND FREE ENERGY PREDICTED BY IDOCK:   -3.35 KCAL/MOL
REMARK 924 INTRA-LIGAND FREE ENERGY PREDICTED BY IDOCK:   -0.12 KCAL/MOL
REMARK 927      BINDING AFFINITY PREDICTED BY RF-SCORE:    0.00 PKD
ROOT
HETATM    1  C   UNL     1     -11.874  15.201  69.681  1.00  0.00    -0.362 C  
HETATM    2  C   UNL     1     -10.733  14.667  68.808  1.00  0.00    -0.249 C  
HETATM    3  N   UNL     1     -10.276  15.758  67.921  1.00  0.00    -0.238 NA 
HETATM    4  H1  UNL     1      -9.517  15.403  67.340  1.00  0.00     0.000 HD 
HETATM    5  H2  UNL     1     -10.016  16.599  68.435  1.00  0.00     0.000 HD 
ENDROOT
BRANCH   2   6
HETATM    6  C   UNL     1     -11.138  13.421  67.962  1.00  0.00    -0.255 C  
HETATM    7  H   UNL     1     -12.642  12.890  66.796  1.00  0.00     0.000 HD 
HETATM    8  O   UNL     1     -12.396  13.649  67.311  1.00  0.00    -0.320 OA 
BRANCH   6   9
HETATM    9  C   UNL     1     -11.188  12.138  68.771  1.00  0.00    -0.314 A  
HETATM   10  C   UNL     1     -12.367  11.720  69.411  1.00  0.00    -0.097 A  
HETATM   11  C   UNL     1     -12.372  10.560  70.180  1.00  0.00    -0.265 A  
HETATM   12  C   UNL     1     -11.222   9.793  70.320  1.00  0.00    -0.347 A  
HETATM   13  O   UNL     1     -13.498  10.145  70.828  1.00  0.00    -0.488 OA 
HETATM   14  C   UNL     1     -10.046  10.196  69.690  1.00  0.00    -0.265 A  
HETATM   15  H   UNL     1     -13.501   9.354  71.352  1.00  0.00     0.000 HD 
HETATM   16  C   UNL     1     -10.027  11.363  68.923  1.00  0.00    -0.146 A  
ENDBRANCH   6   9
ENDBRANCH   2   6
TORSDOF 2
ENDMDL
MODEL      159
REMARK 921   NORMALIZED FREE ENERGY PREDICTED BY IDOCK:   -2.91 KCAL/MOL
REMARK 922        TOTAL FREE ENERGY PREDICTED BY IDOCK:   -3.45 KCAL/MOL
REMARK 923 INTER-LIGAND FREE ENERGY PREDICTED BY IDOCK:   -3.34 KCAL/MOL
REMARK 924 INTRA-LIGAND FREE ENERGY PREDICTED BY IDOCK:   -0.12 KCAL/MOL
REMARK 927      BINDING AFFINITY PREDICTED BY RF-SCORE:    0.00 PKD
ROOT
HETATM    1  C   UNL     1     -11.192   6.382  70.647  1.00  0.00    -0.400 C  
HETATM    2  C   UNL     1     -11.629   6.912  72.016  1.00  0.00    -0.285 C  
HETATM    3  N   UNL     1     -13.107   6.910  72.066  1.00  0.00    -0.550 NA 
HETATM    4  H1  UNL     1     -13.398   7.263  72.978  1.00  0.00     0.000 HD 
HETATM    5  H2  UNL     1     -13.505   5.996  71.854  1.00  0.00     0.000 HD 
ENDROOT
BRANCH   2   6
HETATM    6  C   UNL     1     -11.083   8.340  72.326  1.00  0.00    -0.359 C  
HETATM    7  H   UNL     1     -11.365  10.175  71.648  1.00  0.00     0.000 HD 
HETATM    8  O   UNL     1     -11.697   9.306  71.460  1.00  0.00    -0.326 OA 
BRANCH   6   9
HETATM    9  C   UNL     1      -9.572   8.437  72.235  1.00  0.00    -0.374 A  
HETATM   10  C   UNL     1      -8.746   8.047  73.303  1.00  0.00    -0.308 A  
HETATM   11  C   UNL     1      -7.365   8.186  73.206  1.00  0.00    -0.129 A  
HETATM   12  C   UNL     1      -6.779   8.699  72.056  1.00  0.00    -0.078 A  
HETATM   13  O   UNL     1      -6.544   7.834  74.237  1.00  0.00    -0.091 OA 
HETATM   14  C   UNL     1      -7.587   9.090  70.989  1.00  0.00    -0.138 A  
HETATM   15  H   UNL     1      -5.602   7.929  74.170  1.00  0.00     0.000 HD 
HETATM   16  C   UNL     1      -8.975   8.964  71.078  1.00  0.00    -0.298 A  
ENDBRANCH   6   9
ENDBRANCH   2   6
TORSDOF 2
ENDMDL
MODEL      160
REMARK 921   NORMALIZED FREE ENERGY PREDICTED BY IDOCK:   -2.91 KCAL/MOL
REMARK 922        TOTAL FREE ENERGY PREDICTED BY IDOCK:   -3.45 KCAL/MOL
REMARK 923 INTER-LIGAND FREE ENERGY PREDICTED BY IDOCK:   -3.49 KCAL/MOL
REMARK 924 INTRA-LIGAND FREE ENERGY PREDICTED BY IDOCK:    0.04 KCAL/MOL
REMARK 927      BINDING AFFINITY PREDICTED BY RF-SCORE:    0.00 PKD
ROOT
HETATM    1  C   UNL     1      -7.601  11.404  67.622  1.00  0.00    -0.108 C  
HETATM    2  C   UNL     1      -8.327  12.752  67.636  1.00  0.00    -0.175 C  
HETATM    3  N   UNL     1      -8.158  13.359  68.973  1.00  0.00    -0.332 NA 
HETATM    4  H1  UNL     1      -8.641  14.258  68.981  1.00  0.00     0.000 HD 
HETATM    5  H2  UNL     1      -7.180  13.438  69.247  1.00  0.00     0.000 HD 
ENDROOT
BRANCH   2   6
HETATM    6  C   UNL     1      -9.843  12.638  67.286  1.00  0.00    -0.206 C  
HETATM    7  H   UNL     1     -11.247  13.807  66.534  1.00  0.00     0.000 HD 
HETATM    8  O   UNL     1     -10.325  13.877  66.747  1.00  0.00    -0.266 OA 
BRANCH   6   9
HETATM    9  C   UNL     1     -10.699  12.206  68.462  1.00  0.00    -0.257 A  
HETATM   10  C   UNL     1     -10.870  10.850  68.787  1.00  0.00    -0.251 A  
HETATM   11  C   UNL     1     -11.694  10.483  69.847  1.00  0.00    -0.294 A  
HETATM   12  C   UNL     1     -12.350  11.444  70.605  1.00  0.00    -0.466 A  
HETATM   13  O   UNL     1     -11.892   9.172  70.168  1.00  0.00    -0.469 OA 
HETATM   14  C   UNL     1     -12.190  12.793  70.293  1.00  0.00    -0.351 A  
HETATM   15  H   UNL     1     -12.454   8.922  70.891  1.00  0.00     0.000 HD 
HETATM   16  C   UNL     1     -11.373  13.173  69.226  1.00  0.00    -0.312 A  
ENDBRANCH   6   9
ENDBRANCH   2   6
TORSDOF 2
ENDMDL
MODEL      161
REMARK 921   NORMALIZED FREE ENERGY PREDICTED BY IDOCK:   -2.91 KCAL/MOL
REMARK 922        TOTAL FREE ENERGY PREDICTED BY IDOCK:   -3.45 KCAL/MOL
REMARK 923 INTER-LIGAND FREE ENERGY PREDICTED BY IDOCK:   -4.24 KCAL/MOL
REMARK 924 INTRA-LIGAND FREE ENERGY PREDICTED BY IDOCK:    0.78 KCAL/MOL
REMARK 927      BINDING AFFINITY PREDICTED BY RF-SCORE:    0.00 PKD
ROOT
HETATM    1  C   UNL     1     -11.264  11.557  68.421  1.00  0.00    -0.314 C  
HETATM    2  C   UNL     1     -11.242  10.736  69.714  1.00  0.00    -0.297 C  
HETATM    3  N   UNL     1     -11.155   9.305  69.355  1.00  0.00    -0.425 NA 
HETATM    4  H1  UNL     1     -11.140   8.758  70.216  1.00  0.00     0.000 HD 
HETATM    5  H2  UNL     1     -10.362   9.100  68.747  1.00  0.00     0.000 HD 
ENDROOT
BRANCH   2   6
HETATM    6  C   UNL     1     -12.485  10.987  70.622  1.00  0.00    -0.373 C  
HETATM    7  H   UNL     1     -14.415  10.564  70.584  1.00  0.00     0.000 HD 
HETATM    8  O   UNL     1     -13.658  10.411  70.030  1.00  0.00     0.202 OA 
BRANCH   6   9
HETATM    9  C   UNL     1     -12.717  12.455  70.930  1.00  0.00    -0.273 A  
HETATM   10  C   UNL     1     -12.113  13.469  70.167  1.00  0.00    -0.425 A  
HETATM   11  C   UNL     1     -12.311  14.806  70.498  1.00  0.00    -0.337 A  
HETATM   12  C   UNL     1     -13.112  15.161  71.575  1.00  0.00    -0.483 A  
HETATM   13  O   UNL     1     -11.719  15.806  69.786  1.00  0.00    -0.326 OA 
HETATM   14  C   UNL     1     -13.717  14.166  72.341  1.00  0.00    -0.645 A  
HETATM   15  H   UNL     1     -11.854  16.718  70.012  1.00  0.00     0.000 HD 
HETATM   16  C   UNL     1     -13.518  12.821  72.023  1.00  0.00    -0.540 A  
ENDBRANCH   6   9
ENDBRANCH   2   6
TORSDOF 2
ENDMDL
MODEL      162
REMARK 921   NORMALIZED FREE ENERGY PREDICTED BY IDOCK:   -2.90 KCAL/MOL
REMARK 922        TOTAL FREE ENERGY PREDICTED BY IDOCK:   -3.45 KCAL/MOL
REMARK 923 INTER-LIGAND FREE ENERGY PREDICTED BY IDOCK:   -3.55 KCAL/MOL
REMARK 924 INTRA-LIGAND FREE ENERGY PREDICTED BY IDOCK:    0.10 KCAL/MOL
REMARK 927      BINDING AFFINITY PREDICTED BY RF-SCORE:    0.00 PKD
ROOT
HETATM    1  C   UNL     1     -10.339  10.866  64.288  1.00  0.00    -0.436 C  
HETATM    2  C   UNL     1      -9.579  10.394  65.531  1.00  0.00    -0.234 C  
HETATM    3  N   UNL     1     -10.119   9.078  65.936  1.00  0.00    -0.394 NA 
HETATM    4  H1  UNL     1      -9.612   8.764  66.763  1.00  0.00     0.000 HD 
HETATM    5  H2  UNL     1     -10.095   8.395  65.179  1.00  0.00     0.000 HD 
ENDROOT
BRANCH   2   6
HETATM    6  C   UNL     1      -9.664  11.398  66.722  1.00  0.00    -0.198 C  
HETATM    7  H   UNL     1      -8.488  12.740  67.570  1.00  0.00     0.000 HD 
HETATM    8  O   UNL     1      -8.436  12.129  66.846  1.00  0.00    -0.185 OA 
BRANCH   6   9
HETATM    9  C   UNL     1     -10.018  10.736  68.040  1.00  0.00    -0.183 A  
HETATM   10  C   UNL     1     -11.345  10.675  68.499  1.00  0.00    -0.348 A  
HETATM   11  C   UNL     1     -11.634  10.098  69.731  1.00  0.00    -0.182 A  
HETATM   12  C   UNL     1     -10.625   9.565  70.522  1.00  0.00    -0.358 A  
HETATM   13  O   UNL     1     -12.912  10.047  70.207  1.00  0.00    -0.578 OA 
HETATM   14  C   UNL     1      -9.304   9.618  70.081  1.00  0.00    -0.294 A  
HETATM   15  H   UNL     1     -13.108   9.653  71.048  1.00  0.00     0.000 HD 
HETATM   16  C   UNL     1      -9.001  10.203  68.849  1.00  0.00    -0.155 A  
ENDBRANCH   6   9
ENDBRANCH   2   6
TORSDOF 2
ENDMDL
MODEL      163
REMARK 921   NORMALIZED FREE ENERGY PREDICTED BY IDOCK:   -2.89 KCAL/MOL
REMARK 922        TOTAL FREE ENERGY PREDICTED BY IDOCK:   -3.43 KCAL/MOL
REMARK 923 INTER-LIGAND FREE ENERGY PREDICTED BY IDOCK:   -3.27 KCAL/MOL
REMARK 924 INTRA-LIGAND FREE ENERGY PREDICTED BY IDOCK:   -0.17 KCAL/MOL
REMARK 927      BINDING AFFINITY PREDICTED BY RF-SCORE:    0.00 PKD
ROOT
HETATM    1  C   UNL     1      -7.316  10.923  68.431  1.00  0.00    -0.094 C  
HETATM    2  C   UNL     1      -7.994  11.535  67.201  1.00  0.00    -0.160 C  
HETATM    3  N   UNL     1      -7.172  11.224  66.013  1.00  0.00    -0.368 NA 
HETATM    4  H1  UNL     1      -7.624  11.631  65.194  1.00  0.00     0.000 HD 
HETATM    5  H2  UNL     1      -6.996  10.225  65.907  1.00  0.00     0.000 HD 
ENDROOT
BRANCH   2   6
HETATM    6  C   UNL     1      -8.206  13.076  67.319  1.00  0.00    -0.172 C  
HETATM    7  H   UNL     1      -8.129  14.442  68.744  1.00  0.00     0.000 HD 
HETATM    8  O   UNL     1      -8.000  13.504  68.673  1.00  0.00    -0.138 OA 
BRANCH   6   9
HETATM    9  C   UNL     1      -9.565  13.534  66.823  1.00  0.00    -0.268 A  
HETATM   10  C   UNL     1     -10.455  12.645  66.195  1.00  0.00    -0.278 A  
HETATM   11  C   UNL     1     -11.677  13.104  65.713  1.00  0.00    -0.374 A  
HETATM   12  C   UNL     1     -12.043  14.436  65.851  1.00  0.00    -0.358 A  
HETATM   13  O   UNL     1     -12.548  12.265  65.082  1.00  0.00    -0.585 OA 
HETATM   14  C   UNL     1     -11.170  15.328  66.472  1.00  0.00    -0.228 A  
HETATM   15  H   UNL     1     -13.382  12.579  64.753  1.00  0.00     0.000 HD 
HETATM   16  C   UNL     1      -9.937  14.882  66.952  1.00  0.00    -0.245 A  
ENDBRANCH   6   9
ENDBRANCH   2   6
TORSDOF 2
ENDMDL
MODEL      164
REMARK 921   NORMALIZED FREE ENERGY PREDICTED BY IDOCK:   -2.89 KCAL/MOL
REMARK 922        TOTAL FREE ENERGY PREDICTED BY IDOCK:   -3.43 KCAL/MOL
REMARK 923 INTER-LIGAND FREE ENERGY PREDICTED BY IDOCK:   -3.48 KCAL/MOL
REMARK 924 INTRA-LIGAND FREE ENERGY PREDICTED BY IDOCK:    0.05 KCAL/MOL
REMARK 927      BINDING AFFINITY PREDICTED BY RF-SCORE:    0.00 PKD
ROOT
HETATM    1  C   UNL     1     -12.734   7.831  71.892  1.00  0.00    -0.328 C  
HETATM    2  C   UNL     1     -11.589   8.838  72.044  1.00  0.00    -0.366 C  
HETATM    3  N   UNL     1     -12.006  10.114  71.426  1.00  0.00    -0.374 NA 
HETATM    4  H1  UNL     1     -11.244  10.784  71.528  1.00  0.00     0.000 HD 
HETATM    5  H2  UNL     1     -12.887  10.463  71.802  1.00  0.00     0.000 HD 
ENDROOT
BRANCH   2   6
HETATM    6  C   UNL     1     -10.251   8.347  71.410  1.00  0.00    -0.220 C  
HETATM    7  H   UNL     1      -8.329   8.775  71.575  1.00  0.00     0.000 HD 
HETATM    8  O   UNL     1      -9.144   9.074  71.961  1.00  0.00    -0.375 OA 
BRANCH   6   9
HETATM    9  C   UNL     1     -10.237   8.433  69.896  1.00  0.00    -0.201 A  
HETATM   10  C   UNL     1     -10.875   7.466  69.100  1.00  0.00    -0.129 A  
HETATM   11  C   UNL     1     -10.811   7.550  67.712  1.00  0.00    -0.086 A  
HETATM   12  C   UNL     1     -10.128   8.588  67.092  1.00  0.00    -0.331 A  
HETATM   13  O   UNL     1     -11.404   6.612  66.919  1.00  0.00    -0.738 OA 
HETATM   14  C   UNL     1      -9.491   9.553  67.869  1.00  0.00    -0.149 A  
HETATM   15  H   UNL     1     -11.360   6.670  65.972  1.00  0.00     0.000 HD 
HETATM   16  C   UNL     1      -9.541   9.475  69.262  1.00  0.00    -0.179 A  
ENDBRANCH   6   9
ENDBRANCH   2   6
TORSDOF 2
ENDMDL
MODEL      165
REMARK 921   NORMALIZED FREE ENERGY PREDICTED BY IDOCK:   -2.88 KCAL/MOL
REMARK 922        TOTAL FREE ENERGY PREDICTED BY IDOCK:   -3.42 KCAL/MOL
REMARK 923 INTER-LIGAND FREE ENERGY PREDICTED BY IDOCK:   -3.23 KCAL/MOL
REMARK 924 INTRA-LIGAND FREE ENERGY PREDICTED BY IDOCK:   -0.19 KCAL/MOL
REMARK 927      BINDING AFFINITY PREDICTED BY RF-SCORE:    0.00 PKD
ROOT
HETATM    1  C   UNL     1      -9.357   4.019  66.926  1.00  0.00    -0.200 C  
HETATM    2  C   UNL     1     -10.144   5.229  66.413  1.00  0.00    -0.226 C  
HETATM    3  N   UNL     1     -11.217   4.742  65.521  1.00  0.00    -0.968 NA 
HETATM    4  H1  UNL     1     -11.741   5.547  65.179  1.00  0.00     0.000 HD 
HETATM    5  H2  UNL     1     -11.814   4.047  65.968  1.00  0.00     0.000 HD 
ENDROOT
BRANCH   2   6
HETATM    6  C   UNL     1      -9.254   6.269  65.664  1.00  0.00     0.110 C  
HETATM    7  H   UNL     1      -7.354   6.443  65.150  1.00  0.00     0.000 HD 
HETATM    8  O   UNL     1      -7.895   5.811  65.606  1.00  0.00    -0.093 OA 
BRANCH   6   9
HETATM    9  C   UNL     1      -9.316   7.658  66.270  1.00  0.00    -0.189 A  
HETATM   10  C   UNL     1     -10.474   8.127  66.913  1.00  0.00    -0.379 A  
HETATM   11  C   UNL     1     -10.516   9.421  67.423  1.00  0.00    -0.278 A  
HETATM   12  C   UNL     1      -9.417  10.265  67.316  1.00  0.00    -0.174 A  
HETATM   13  O   UNL     1     -11.635   9.906  68.033  1.00  0.00    -0.602 OA 
HETATM   14  C   UNL     1      -8.263   9.813  66.680  1.00  0.00    -0.120 A  
HETATM   15  H   UNL     1     -11.663  10.789  68.381  1.00  0.00     0.000 HD 
HETATM   16  C   UNL     1      -8.212   8.519  66.157  1.00  0.00    -0.115 A  
ENDBRANCH   6   9
ENDBRANCH   2   6
TORSDOF 2
ENDMDL
MODEL      166
REMARK 921   NORMALIZED FREE ENERGY PREDICTED BY IDOCK:   -2.88 KCAL/MOL
REMARK 922        TOTAL FREE ENERGY PREDICTED BY IDOCK:   -3.42 KCAL/MOL
REMARK 923 INTER-LIGAND FREE ENERGY PREDICTED BY IDOCK:   -3.41 KCAL/MOL
REMARK 924 INTRA-LIGAND FREE ENERGY PREDICTED BY IDOCK:   -0.01 KCAL/MOL
REMARK 927      BINDING AFFINITY PREDICTED BY RF-SCORE:    0.00 PKD
ROOT
HETATM    1  C   UNL     1     -11.027  10.049  69.080  1.00  0.00    -0.249 C  
HETATM    2  C   UNL     1      -9.607  10.062  68.506  1.00  0.00    -0.151 C  
HETATM    3  N   UNL     1      -8.679  10.502  69.571  1.00  0.00    -0.362 NA 
HETATM    4  H1  UNL     1      -7.733  10.510  69.189  1.00  0.00     0.000 HD 
HETATM    5  H2  UNL     1      -8.756   9.936  70.415  1.00  0.00     0.000 HD 
ENDROOT
BRANCH   2   6
HETATM    6  C   UNL     1      -9.458  10.979  67.253  1.00  0.00    -0.164 C  
HETATM    7  H   UNL     1      -7.982  11.792  66.221  1.00  0.00     0.000 HD 
HETATM    8  O   UNL     1      -8.072  11.234  66.984  1.00  0.00    -0.136 OA 
BRANCH   6   9
HETATM    9  C   UNL     1     -10.220  12.286  67.372  1.00  0.00    -0.213 A  
HETATM   10  C   UNL     1     -11.404  12.513  66.651  1.00  0.00    -0.389 A  
HETATM   11  C   UNL     1     -12.059  13.737  66.749  1.00  0.00    -0.418 A  
HETATM   12  C   UNL     1     -11.564  14.747  67.564  1.00  0.00    -0.379 A  
HETATM   13  O   UNL     1     -13.198  13.989  66.043  1.00  0.00    -0.488 OA 
HETATM   14  C   UNL     1     -10.390  14.535  68.285  1.00  0.00    -0.236 A  
HETATM   15  H   UNL     1     -13.645  14.824  66.111  1.00  0.00     0.000 HD 
HETATM   16  C   UNL     1      -9.719  13.314  68.187  1.00  0.00    -0.227 A  
ENDBRANCH   6   9
ENDBRANCH   2   6
TORSDOF 2
ENDMDL
MODEL      167
REMARK 921   NORMALIZED FREE ENERGY PREDICTED BY IDOCK:   -2.87 KCAL/MOL
REMARK 922        TOTAL FREE ENERGY PREDICTED BY IDOCK:   -3.41 KCAL/MOL
REMARK 923 INTER-LIGAND FREE ENERGY PREDICTED BY IDOCK:   -3.48 KCAL/MOL
REMARK 924 INTRA-LIGAND FREE ENERGY PREDICTED BY IDOCK:    0.07 KCAL/MOL
REMARK 927      BINDING AFFINITY PREDICTED BY RF-SCORE:    0.00 PKD
ROOT
HETATM    1  C   UNL     1      -8.168  11.045  67.633  1.00  0.00    -0.117 C  
HETATM    2  C   UNL     1      -9.428  11.879  67.381  1.00  0.00    -0.175 C  
HETATM    3  N   UNL     1      -9.568  12.856  68.481  1.00  0.00    -0.378 NA 
HETATM    4  H1  UNL     1     -10.407  13.411  68.313  1.00  0.00     0.000 HD 
HETATM    5  H2  UNL     1      -8.736  13.431  68.603  1.00  0.00     0.000 HD 
ENDROOT
BRANCH   2   6
HETATM    6  C   UNL     1     -10.722  11.016  67.261  1.00  0.00    -0.265 C  
HETATM    7  H   UNL     1     -12.667  11.335  67.124  1.00  0.00     0.000 HD 
HETATM    8  O   UNL     1     -11.880  11.861  67.197  1.00  0.00    -0.588 OA 
BRANCH   6   9
HETATM    9  C   UNL     1     -10.872  10.002  68.379  1.00  0.00    -0.277 A  
HETATM   10  C   UNL     1     -11.425  10.356  69.622  1.00  0.00    -0.326 A  
HETATM   11  C   UNL     1     -11.512   9.414  70.643  1.00  0.00    -0.284 A  
HETATM   12  C   UNL     1     -11.066   8.113  70.452  1.00  0.00    -0.239 A  
HETATM   13  O   UNL     1     -12.025   9.739  71.864  1.00  0.00    -0.365 OA 
HETATM   14  C   UNL     1     -10.515   7.748  69.225  1.00  0.00    -0.221 A  
HETATM   15  H   UNL     1     -12.084   9.096  72.560  1.00  0.00     0.000 HD 
HETATM   16  C   UNL     1     -10.415   8.687  68.195  1.00  0.00    -0.241 A  
ENDBRANCH   6   9
ENDBRANCH   2   6
TORSDOF 2
ENDMDL
MODEL      168
REMARK 921   NORMALIZED FREE ENERGY PREDICTED BY IDOCK:   -2.87 KCAL/MOL
REMARK 922        TOTAL FREE ENERGY PREDICTED BY IDOCK:   -3.40 KCAL/MOL
REMARK 923 INTER-LIGAND FREE ENERGY PREDICTED BY IDOCK:   -3.30 KCAL/MOL
REMARK 924 INTRA-LIGAND FREE ENERGY PREDICTED BY IDOCK:   -0.10 KCAL/MOL
REMARK 927      BINDING AFFINITY PREDICTED BY RF-SCORE:    0.00 PKD
ROOT
HETATM    1  C   UNL     1     -13.349   8.565  72.232  1.00  0.00    -0.357 C  
HETATM    2  C   UNL     1     -12.314   9.693  72.177  1.00  0.00    -0.215 C  
HETATM    3  N   UNL     1     -12.959  10.888  71.593  1.00  0.00    -0.464 NA 
HETATM    4  H1  UNL     1     -12.271  11.640  71.557  1.00  0.00     0.000 HD 
HETATM    5  H2  UNL     1     -13.808  11.158  72.089  1.00  0.00     0.000 HD 
ENDROOT
BRANCH   2   6
HETATM    6  C   UNL     1     -11.038   9.319  71.361  1.00  0.00    -0.367 C  
HETATM    7  H   UNL     1     -10.440   9.427  69.481  1.00  0.00     0.000 HD 
HETATM    8  O   UNL     1     -11.217   9.655  69.978  1.00  0.00    -0.241 OA 
BRANCH   6   9
HETATM    9  C   UNL     1     -10.642   7.862  71.503  1.00  0.00    -0.262 A  
HETATM   10  C   UNL     1     -10.056   7.371  72.682  1.00  0.00    -0.255 A  
HETATM   11  C   UNL     1      -9.665   6.038  72.767  1.00  0.00    -0.155 A  
HETATM   12  C   UNL     1      -9.856   5.170  71.700  1.00  0.00    -0.230 A  
HETATM   13  O   UNL     1      -9.075   5.545  73.893  1.00  0.00    -0.123 OA 
HETATM   14  C   UNL     1     -10.436   5.643  70.525  1.00  0.00    -0.347 A  
HETATM   15  H   UNL     1      -8.809   4.636  73.951  1.00  0.00     0.000 HD 
HETATM   16  C   UNL     1     -10.824   6.981  70.424  1.00  0.00    -0.283 A  
ENDBRANCH   6   9
ENDBRANCH   2   6
TORSDOF 2
ENDMDL
MODEL      169
REMARK 921   NORMALIZED FREE ENERGY PREDICTED BY IDOCK:   -2.86 KCAL/MOL
REMARK 922        TOTAL FREE ENERGY PREDICTED BY IDOCK:   -3.40 KCAL/MOL
REMARK 923 INTER-LIGAND FREE ENERGY PREDICTED BY IDOCK:   -3.20 KCAL/MOL
REMARK 924 INTRA-LIGAND FREE ENERGY PREDICTED BY IDOCK:   -0.19 KCAL/MOL
REMARK 927      BINDING AFFINITY PREDICTED BY RF-SCORE:    0.00 PKD
ROOT
HETATM    1  C   UNL     1     -11.544  10.722  68.836  1.00  0.00    -0.361 C  
HETATM    2  C   UNL     1     -10.363  11.385  68.121  1.00  0.00    -0.188 C  
HETATM    3  N   UNL     1      -9.892  12.515  68.950  1.00  0.00    -0.422 NA 
HETATM    4  H1  UNL     1      -9.105  12.957  68.474  1.00  0.00     0.000 HD 
HETATM    5  H2  UNL     1      -9.666  12.235  69.904  1.00  0.00     0.000 HD 
ENDROOT
BRANCH   2   6
HETATM    6  C   UNL     1     -10.714  11.883  66.685  1.00  0.00    -0.256 C  
HETATM    7  H   UNL     1     -12.321  11.977  65.539  1.00  0.00     0.000 HD 
HETATM    8  O   UNL     1     -12.107  11.674  66.413  1.00  0.00    -0.371 OA 
BRANCH   6   9
HETATM    9  C   UNL     1      -9.865  11.242  65.604  1.00  0.00    -0.277 A  
HETATM   10  C   UNL     1      -8.616  10.667  65.896  1.00  0.00    -0.177 A  
HETATM   11  C   UNL     1      -7.840  10.123  64.876  1.00  0.00    -0.147 A  
HETATM   12  C   UNL     1      -8.287  10.129  63.561  1.00  0.00    -0.169 A  
HETATM   13  O   UNL     1      -6.616   9.579  65.132  1.00  0.00    -0.076 OA 
HETATM   14  C   UNL     1      -9.523  10.695  63.258  1.00  0.00    -0.360 A  
HETATM   15  H   UNL     1      -6.088   9.208  64.436  1.00  0.00     0.000 HD 
HETATM   16  C   UNL     1     -10.307  11.252  64.271  1.00  0.00    -0.399 A  
ENDBRANCH   6   9
ENDBRANCH   2   6
TORSDOF 2
ENDMDL
MODEL      170
REMARK 921   NORMALIZED FREE ENERGY PREDICTED BY IDOCK:   -2.85 KCAL/MOL
REMARK 922        TOTAL FREE ENERGY PREDICTED BY IDOCK:   -3.38 KCAL/MOL
REMARK 923 INTER-LIGAND FREE ENERGY PREDICTED BY IDOCK:   -3.21 KCAL/MOL
REMARK 924 INTRA-LIGAND FREE ENERGY PREDICTED BY IDOCK:   -0.17 KCAL/MOL
REMARK 927      BINDING AFFINITY PREDICTED BY RF-SCORE:    0.00 PKD
ROOT
HETATM    1  C   UNL     1      -6.686  14.653  69.398  1.00  0.00    -0.147 C  
HETATM    2  C   UNL     1      -7.298  15.172  68.093  1.00  0.00    -0.112 C  
HETATM    3  N   UNL     1      -6.399  16.204  67.535  1.00  0.00    -0.153 NA 
HETATM    4  H1  UNL     1      -6.807  16.549  66.666  1.00  0.00     0.000 HD 
HETATM    5  H2  UNL     1      -5.444  15.868  67.414  1.00  0.00     0.000 HD 
ENDROOT
BRANCH   2   6
HETATM    6  C   UNL     1      -8.734  15.754  68.277  1.00  0.00    -0.172 C  
HETATM    7  H   UNL     1     -10.141  15.724  69.665  1.00  0.00     0.000 HD 
HETATM    8  O   UNL     1      -9.267  15.370  69.553  1.00  0.00    -0.261 OA 
BRANCH   6   9
HETATM    9  C   UNL     1      -9.688  15.357  67.167  1.00  0.00    -0.219 A  
HETATM   10  C   UNL     1     -10.333  14.108  67.165  1.00  0.00    -0.265 A  
HETATM   11  C   UNL     1     -11.172  13.755  66.111  1.00  0.00    -0.300 A  
HETATM   12  C   UNL     1     -11.394  14.629  65.055  1.00  0.00    -0.390 A  
HETATM   13  O   UNL     1     -11.792  12.541  66.077  1.00  0.00    -0.407 OA 
HETATM   14  C   UNL     1     -10.760  15.870  65.044  1.00  0.00    -0.426 A  
HETATM   15  H   UNL     1     -12.364  12.301  65.358  1.00  0.00     0.000 HD 
HETATM   16  C   UNL     1      -9.910  16.231  66.091  1.00  0.00    -0.358 A  
ENDBRANCH   6   9
ENDBRANCH   2   6
TORSDOF 2
ENDMDL
MODEL      171
REMARK 921   NORMALIZED FREE ENERGY PREDICTED BY IDOCK:   -2.84 KCAL/MOL
REMARK 922        TOTAL FREE ENERGY PREDICTED BY IDOCK:   -3.37 KCAL/MOL
REMARK 923 INTER-LIGAND FREE ENERGY PREDICTED BY IDOCK:   -3.44 KCAL/MOL
REMARK 924 INTRA-LIGAND FREE ENERGY PREDICTED BY IDOCK:    0.06 KCAL/MOL
REMARK 927      BINDING AFFINITY PREDICTED BY RF-SCORE:    0.00 PKD
ROOT
HETATM    1  C   UNL     1      -9.327   5.725  66.868  1.00  0.00    -0.132 C  
HETATM    2  C   UNL     1     -10.268   6.634  67.665  1.00  0.00    -0.177 C  
HETATM    3  N   UNL     1     -11.481   6.873  66.854  1.00  0.00    -0.625 NA 
HETATM    4  H1  UNL     1     -12.108   7.477  67.385  1.00  0.00     0.000 HD 
HETATM    5  H2  UNL     1     -11.931   6.007  66.557  1.00  0.00     0.000 HD 
ENDROOT
BRANCH   2   6
HETATM    6  C   UNL     1      -9.616   7.993  68.067  1.00  0.00    -0.152 C  
HETATM    7  H   UNL     1      -9.610   9.185  69.643  1.00  0.00     0.000 HD 
HETATM    8  O   UNL     1     -10.008   8.358  69.398  1.00  0.00    -0.182 OA 
BRANCH   6   9
HETATM    9  C   UNL     1      -9.928   9.118  67.099  1.00  0.00    -0.280 A  
HETATM   10  C   UNL     1      -9.427   9.117  65.786  1.00  0.00    -0.322 A  
HETATM   11  C   UNL     1      -9.696  10.183  64.933  1.00  0.00    -0.324 A  
HETATM   12  C   UNL     1     -10.469  11.257  65.357  1.00  0.00    -0.326 A  
HETATM   13  O   UNL     1      -9.203  10.215  63.662  1.00  0.00    -0.245 OA 
HETATM   14  C   UNL     1     -10.973  11.271  66.657  1.00  0.00    -0.326 A  
HETATM   15  H   UNL     1      -9.388  10.942  63.081  1.00  0.00     0.000 HD 
HETATM   16  C   UNL     1     -10.701  10.210  67.524  1.00  0.00    -0.347 A  
ENDBRANCH   6   9
ENDBRANCH   2   6
TORSDOF 2
ENDMDL
MODEL      172
REMARK 921   NORMALIZED FREE ENERGY PREDICTED BY IDOCK:   -2.84 KCAL/MOL
REMARK 922        TOTAL FREE ENERGY PREDICTED BY IDOCK:   -3.37 KCAL/MOL
REMARK 923 INTER-LIGAND FREE ENERGY PREDICTED BY IDOCK:   -3.19 KCAL/MOL
REMARK 924 INTRA-LIGAND FREE ENERGY PREDICTED BY IDOCK:   -0.18 KCAL/MOL
REMARK 927      BINDING AFFINITY PREDICTED BY RF-SCORE:    0.00 PKD
ROOT
HETATM    1  C   UNL     1      -8.043   7.227  67.754  1.00  0.00    -0.115 C  
HETATM    2  C   UNL     1      -8.118   8.653  67.201  1.00  0.00    -0.100 C  
HETATM    3  N   UNL     1      -6.903   9.381  67.626  1.00  0.00    -0.075 NA 
HETATM    4  H1  UNL     1      -6.952  10.331  67.257  1.00  0.00     0.000 HD 
HETATM    5  H2  UNL     1      -6.045   8.901  67.358  1.00  0.00     0.000 HD 
ENDROOT
BRANCH   2   6
HETATM    6  C   UNL     1      -9.394   9.425  67.660  1.00  0.00    -0.127 C  
HETATM    7  H   UNL     1     -11.158   8.976  68.428  1.00  0.00     0.000 HD 
HETATM    8  O   UNL     1     -10.382   8.506  68.148  1.00  0.00    -0.205 OA 
BRANCH   6   9
HETATM    9  C   UNL     1      -9.984  10.306  66.575  1.00  0.00    -0.280 A  
HETATM   10  C   UNL     1     -10.882  11.344  66.880  1.00  0.00    -0.335 A  
HETATM   11  C   UNL     1     -11.439  12.109  65.859  1.00  0.00    -0.363 A  
HETATM   12  C   UNL     1     -11.112  11.870  64.531  1.00  0.00    -0.381 A  
HETATM   13  O   UNL     1     -12.328  13.107  66.129  1.00  0.00    -0.404 OA 
HETATM   14  C   UNL     1     -10.224  10.844  64.214  1.00  0.00    -0.430 A  
HETATM   15  H   UNL     1     -12.708  13.629  65.432  1.00  0.00     0.000 HD 
HETATM   16  C   UNL     1      -9.665  10.064  65.229  1.00  0.00    -0.373 A  
ENDBRANCH   6   9
ENDBRANCH   2   6
TORSDOF 2
ENDMDL
MODEL      173
REMARK 921   NORMALIZED FREE ENERGY PREDICTED BY IDOCK:   -2.84 KCAL/MOL
REMARK 922        TOTAL FREE ENERGY PREDICTED BY IDOCK:   -3.37 KCAL/MOL
REMARK 923 INTER-LIGAND FREE ENERGY PREDICTED BY IDOCK:   -3.18 KCAL/MOL
REMARK 924 INTRA-LIGAND FREE ENERGY PREDICTED BY IDOCK:   -0.19 KCAL/MOL
REMARK 927      BINDING AFFINITY PREDICTED BY RF-SCORE:    0.00 PKD
ROOT
HETATM    1  C   UNL     1      -8.370   5.371  67.984  1.00  0.00    -0.098 C  
HETATM    2  C   UNL     1      -9.236   4.652  69.024  1.00  0.00    -0.129 C  
HETATM    3  N   UNL     1      -9.453   3.263  68.568  1.00  0.00    -0.170 NA 
HETATM    4  H1  UNL     1     -10.030   2.784  69.261  1.00  0.00     0.000 HD 
HETATM    5  H2  UNL     1      -8.581   2.771  68.378  1.00  0.00     0.000 HD 
ENDROOT
BRANCH   2   6
HETATM    6  C   UNL     1     -10.605   5.356  69.275  1.00  0.00    -0.201 C  
HETATM    7  H   UNL     1     -11.746   6.675  68.346  1.00  0.00     0.000 HD 
HETATM    8  O   UNL     1     -10.913   6.247  68.194  1.00  0.00    -0.302 OA 
BRANCH   6   9
HETATM    9  C   UNL     1     -10.667   6.093  70.599  1.00  0.00    -0.336 A  
HETATM   10  C   UNL     1     -10.732   5.403  71.822  1.00  0.00    -0.271 A  
HETATM   11  C   UNL     1     -10.829   6.107  73.018  1.00  0.00    -0.257 A  
HETATM   12  C   UNL     1     -10.852   7.496  73.028  1.00  0.00    -0.445 A  
HETATM   13  O   UNL     1     -10.915   5.459  74.215  1.00  0.00    -0.416 OA 
HETATM   14  C   UNL     1     -10.788   8.193  71.823  1.00  0.00    -0.317 A  
HETATM   15  H   UNL     1     -10.981   5.940  75.031  1.00  0.00     0.000 HD 
HETATM   16  C   UNL     1     -10.699   7.497  70.615  1.00  0.00    -0.239 A  
ENDBRANCH   6   9
ENDBRANCH   2   6
TORSDOF 2
ENDMDL
MODEL      174
REMARK 921   NORMALIZED FREE ENERGY PREDICTED BY IDOCK:   -2.82 KCAL/MOL
REMARK 922        TOTAL FREE ENERGY PREDICTED BY IDOCK:   -3.35 KCAL/MOL
REMARK 923 INTER-LIGAND FREE ENERGY PREDICTED BY IDOCK:   -3.43 KCAL/MOL
REMARK 924 INTRA-LIGAND FREE ENERGY PREDICTED BY IDOCK:    0.08 KCAL/MOL
REMARK 927      BINDING AFFINITY PREDICTED BY RF-SCORE:    0.00 PKD
ROOT
HETATM    1  C   UNL     1     -12.897   6.958  71.474  1.00  0.00    -0.384 C  
HETATM    2  C   UNL     1     -12.210   8.307  71.709  1.00  0.00    -0.326 C  
HETATM    3  N   UNL     1     -12.945   9.342  70.952  1.00  0.00    -0.532 NA 
HETATM    4  H1  UNL     1     -12.487  10.240  71.109  1.00  0.00     0.000 HD 
HETATM    5  H2  UNL     1     -13.938   9.363  71.179  1.00  0.00     0.000 HD 
ENDROOT
BRANCH   2   6
HETATM    6  C   UNL     1     -10.704   8.310  71.301  1.00  0.00    -0.227 C  
HETATM    7  H   UNL     1      -8.996   8.930  72.076  1.00  0.00     0.000 HD 
HETATM    8  O   UNL     1      -9.912   8.929  72.325  1.00  0.00    -0.292 OA 
BRANCH   6   9
HETATM    9  C   UNL     1     -10.448   8.975  69.962  1.00  0.00    -0.233 A  
HETATM   10  C   UNL     1     -10.130  10.341  69.870  1.00  0.00    -0.219 A  
HETATM   11  C   UNL     1      -9.941  10.933  68.625  1.00  0.00    -0.189 A  
HETATM   12  C   UNL     1     -10.051  10.188  67.458  1.00  0.00    -0.244 A  
HETATM   13  O   UNL     1      -9.652  12.261  68.509  1.00  0.00    -0.295 OA 
HETATM   14  C   UNL     1     -10.365   8.832  67.534  1.00  0.00    -0.334 A  
HETATM   15  H   UNL     1      -9.523  12.664  67.659  1.00  0.00     0.000 HD 
HETATM   16  C   UNL     1     -10.566   8.229  68.778  1.00  0.00    -0.152 A  
ENDBRANCH   6   9
ENDBRANCH   2   6
TORSDOF 2
ENDMDL
MODEL      175
REMARK 921   NORMALIZED FREE ENERGY PREDICTED BY IDOCK:   -2.81 KCAL/MOL
REMARK 922        TOTAL FREE ENERGY PREDICTED BY IDOCK:   -3.34 KCAL/MOL
REMARK 923 INTER-LIGAND FREE ENERGY PREDICTED BY IDOCK:   -3.15 KCAL/MOL
REMARK 924 INTRA-LIGAND FREE ENERGY PREDICTED BY IDOCK:   -0.19 KCAL/MOL
REMARK 927      BINDING AFFINITY PREDICTED BY RF-SCORE:    0.00 PKD
ROOT
HETATM    1  C   UNL     1     -10.327   5.099  66.765  1.00  0.00    -0.306 C  
HETATM    2  C   UNL     1      -9.484   6.205  67.407  1.00  0.00    -0.114 C  
HETATM    3  N   UNL     1      -8.196   5.618  67.836  1.00  0.00    -0.101 NA 
HETATM    4  H1  UNL     1      -7.634   6.354  68.264  1.00  0.00     0.000 HD 
HETATM    5  H2  UNL     1      -7.709   5.144  67.077  1.00  0.00     0.000 HD 
ENDROOT
BRANCH   2   6
HETATM    6  C   UNL     1     -10.190   6.893  68.616  1.00  0.00    -0.173 C  
HETATM    7  H   UNL     1     -11.836   6.624  69.675  1.00  0.00     0.000 HD 
HETATM    8  O   UNL     1     -11.407   6.205  68.939  1.00  0.00    -0.367 OA 
BRANCH   6   9
HETATM    9  C   UNL     1     -10.462   8.368  68.391  1.00  0.00    -0.208 A  
HETATM   10  C   UNL     1     -10.719   9.239  69.463  1.00  0.00    -0.236 A  
HETATM   11  C   UNL     1     -11.006  10.579  69.222  1.00  0.00    -0.244 A  
HETATM   12  C   UNL     1     -11.034  11.081  67.927  1.00  0.00    -0.317 A  
HETATM   13  O   UNL     1     -11.280  11.439  70.245  1.00  0.00    -0.492 OA 
HETATM   14  C   UNL     1     -10.781  10.228  66.855  1.00  0.00    -0.252 A  
HETATM   15  H   UNL     1     -11.476  12.353  70.080  1.00  0.00     0.000 HD 
HETATM   16  C   UNL     1     -10.500   8.879  67.083  1.00  0.00    -0.344 A  
ENDBRANCH   6   9
ENDBRANCH   2   6
TORSDOF 2
ENDMDL
MODEL      176
REMARK 921   NORMALIZED FREE ENERGY PREDICTED BY IDOCK:   -2.79 KCAL/MOL
REMARK 922        TOTAL FREE ENERGY PREDICTED BY IDOCK:   -3.32 KCAL/MOL
REMARK 923 INTER-LIGAND FREE ENERGY PREDICTED BY IDOCK:   -3.14 KCAL/MOL
REMARK 924 INTRA-LIGAND FREE ENERGY PREDICTED BY IDOCK:   -0.18 KCAL/MOL
REMARK 927      BINDING AFFINITY PREDICTED BY RF-SCORE:    0.00 PKD
ROOT
HETATM    1  C   UNL     1     -10.726   2.053  63.111  1.00  0.00    -0.199 C  
HETATM    2  C   UNL     1     -10.615   3.481  63.654  1.00  0.00    -0.272 C  
HETATM    3  N   UNL     1     -10.495   4.407  62.508  1.00  0.00    -0.408 NA 
HETATM    4  H1  UNL     1     -10.421   5.358  62.869  1.00  0.00     0.000 HD 
HETATM    5  H2  UNL     1     -11.254   4.301  61.836  1.00  0.00     0.000 HD 
ENDROOT
BRANCH   2   6
HETATM    6  C   UNL     1      -9.414   3.676  64.630  1.00  0.00    -0.159 C  
HETATM    7  H   UNL     1      -8.551   2.655  66.085  1.00  0.00     0.000 HD 
HETATM    8  O   UNL     1      -9.282   2.536  65.491  1.00  0.00    -0.142 OA 
BRANCH   6   9
HETATM    9  C   UNL     1      -9.508   4.948  65.451  1.00  0.00    -0.134 A  
HETATM   10  C   UNL     1     -10.556   5.156  66.364  1.00  0.00    -0.336 A  
HETATM   11  C   UNL     1     -10.639   6.351  67.073  1.00  0.00    -0.327 A  
HETATM   12  C   UNL     1      -9.689   7.349  66.900  1.00  0.00    -0.265 A  
HETATM   13  O   UNL     1     -11.657   6.584  67.949  1.00  0.00    -0.623 OA 
HETATM   14  C   UNL     1      -8.645   7.157  65.998  1.00  0.00    -0.158 A  
HETATM   15  H   UNL     1     -11.714   7.399  68.433  1.00  0.00     0.000 HD 
HETATM   16  C   UNL     1      -8.556   5.966  65.274  1.00  0.00    -0.119 A  
ENDBRANCH   6   9
ENDBRANCH   2   6
TORSDOF 2
ENDMDL
MODEL      177
REMARK 921   NORMALIZED FREE ENERGY PREDICTED BY IDOCK:   -2.76 KCAL/MOL
REMARK 922        TOTAL FREE ENERGY PREDICTED BY IDOCK:   -3.28 KCAL/MOL
REMARK 923 INTER-LIGAND FREE ENERGY PREDICTED BY IDOCK:   -3.36 KCAL/MOL
REMARK 924 INTRA-LIGAND FREE ENERGY PREDICTED BY IDOCK:    0.08 KCAL/MOL
REMARK 927      BINDING AFFINITY PREDICTED BY RF-SCORE:    0.00 PKD
ROOT
HETATM    1  C   UNL     1     -11.594  14.859  67.627  1.00  0.00    -0.357 C  
HETATM    2  C   UNL     1     -11.267  13.942  68.809  1.00  0.00    -0.272 C  
HETATM    3  N   UNL     1      -9.819  14.044  69.091  1.00  0.00    -0.426 NA 
HETATM    4  H1  UNL     1      -9.601  13.434  69.879  1.00  0.00     0.000 HD 
HETATM    5  H2  UNL     1      -9.517  15.005  69.245  1.00  0.00     0.000 HD 
ENDROOT
BRANCH   2   6
HETATM    6  C   UNL     1     -11.661  12.453  68.560  1.00  0.00    -0.326 C  
HETATM    7  H   UNL     1     -12.053  10.857  69.658  1.00  0.00     0.000 HD 
HETATM    8  O   UNL     1     -11.812  11.763  69.809  1.00  0.00    -0.308 OA 
BRANCH   6   9
HETATM    9  C   UNL     1     -10.683  11.715  67.666  1.00  0.00    -0.249 A  
HETATM   10  C   UNL     1     -10.542  12.041  66.306  1.00  0.00    -0.287 A  
HETATM   11  C   UNL     1      -9.667  11.320  65.501  1.00  0.00    -0.229 A  
HETATM   12  C   UNL     1      -8.913  10.277  66.024  1.00  0.00    -0.173 A  
HETATM   13  O   UNL     1      -9.528  11.604  64.174  1.00  0.00    -0.408 OA 
HETATM   14  C   UNL     1      -9.043   9.942  67.370  1.00  0.00    -0.147 A  
HETATM   15  H   UNL     1      -8.931  11.111  63.625  1.00  0.00     0.000 HD 
HETATM   16  C   UNL     1      -9.925  10.654  68.186  1.00  0.00    -0.176 A  
ENDBRANCH   6   9
ENDBRANCH   2   6
TORSDOF 2
ENDMDL
MODEL      178
REMARK 921   NORMALIZED FREE ENERGY PREDICTED BY IDOCK:   -2.74 KCAL/MOL
REMARK 922        TOTAL FREE ENERGY PREDICTED BY IDOCK:   -3.27 KCAL/MOL
REMARK 923 INTER-LIGAND FREE ENERGY PREDICTED BY IDOCK:   -3.07 KCAL/MOL
REMARK 924 INTRA-LIGAND FREE ENERGY PREDICTED BY IDOCK:   -0.19 KCAL/MOL
REMARK 927      BINDING AFFINITY PREDICTED BY RF-SCORE:    0.00 PKD
ROOT
HETATM    1  C   UNL     1     -11.526  14.870  67.053  1.00  0.00    -0.333 C  
HETATM    2  C   UNL     1     -10.793  14.458  65.773  1.00  0.00    -0.307 C  
HETATM    3  N   UNL     1     -11.526  15.016  64.617  1.00  0.00    -0.568 NA 
HETATM    4  H1  UNL     1     -11.038  14.742  63.764  1.00  0.00     0.000 HD 
HETATM    5  H2  UNL     1     -11.659  16.024  64.686  1.00  0.00     0.000 HD 
ENDROOT
BRANCH   2   6
HETATM    6  C   UNL     1     -10.644  12.913  65.619  1.00  0.00    -0.277 C  
HETATM    7  H   UNL     1     -11.832  11.371  65.279  1.00  0.00     0.000 HD 
HETATM    8  O   UNL     1     -11.923  12.312  65.372  1.00  0.00    -0.404 OA 
BRANCH   6   9
HETATM    9  C   UNL     1      -9.974  12.254  66.810  1.00  0.00    -0.217 A  
HETATM   10  C   UNL     1      -8.595  12.394  67.047  1.00  0.00    -0.191 A  
HETATM   11  C   UNL     1      -8.001  11.744  68.125  1.00  0.00    -0.146 A  
HETATM   12  C   UNL     1      -8.755  10.959  68.987  1.00  0.00    -0.108 A  
HETATM   13  O   UNL     1      -6.662  11.848  68.362  1.00  0.00    -0.059 OA 
HETATM   14  C   UNL     1     -10.123  10.811  68.764  1.00  0.00    -0.202 A  
HETATM   15  H   UNL     1      -6.257  11.404  69.097  1.00  0.00     0.000 HD 
HETATM   16  C   UNL     1     -10.729  11.452  67.681  1.00  0.00    -0.261 A  
ENDBRANCH   6   9
ENDBRANCH   2   6
TORSDOF 2
ENDMDL
MODEL      179
REMARK 921   NORMALIZED FREE ENERGY PREDICTED BY IDOCK:   -2.74 KCAL/MOL
REMARK 922        TOTAL FREE ENERGY PREDICTED BY IDOCK:   -3.26 KCAL/MOL
REMARK 923 INTER-LIGAND FREE ENERGY PREDICTED BY IDOCK:   -3.10 KCAL/MOL
REMARK 924 INTRA-LIGAND FREE ENERGY PREDICTED BY IDOCK:   -0.16 KCAL/MOL
REMARK 927      BINDING AFFINITY PREDICTED BY RF-SCORE:    0.00 PKD
ROOT
HETATM    1  C   UNL     1      -7.615  16.680  69.176  1.00  0.00    -0.192 C  
HETATM    2  C   UNL     1      -8.209  15.966  67.958  1.00  0.00    -0.148 C  
HETATM    3  N   UNL     1      -8.095  16.865  66.790  1.00  0.00    -0.216 NA 
HETATM    4  H1  UNL     1      -8.490  16.389  65.979  1.00  0.00     0.000 HD 
HETATM    5  H2  UNL     1      -7.140  17.183  66.631  1.00  0.00     0.000 HD 
ENDROOT
BRANCH   2   6
HETATM    6  C   UNL     1      -9.694  15.535  68.161  1.00  0.00    -0.208 C  
HETATM    7  H   UNL     1     -10.994  15.478  69.648  1.00  0.00     0.000 HD 
HETATM    8  O   UNL     1     -10.090  15.740  69.525  1.00  0.00    -0.245 OA 
BRANCH   6   9
HETATM    9  C   UNL     1      -9.965  14.102  67.744  1.00  0.00    -0.235 A  
HETATM   10  C   UNL     1     -11.034  13.368  68.287  1.00  0.00    -0.282 A  
HETATM   11  C   UNL     1     -11.233  12.042  67.915  1.00  0.00    -0.264 A  
HETATM   12  C   UNL     1     -10.391  11.425  67.000  1.00  0.00    -0.258 A  
HETATM   13  O   UNL     1     -12.250  11.304  68.445  1.00  0.00    -0.604 OA 
HETATM   14  C   UNL     1      -9.326  12.140  66.453  1.00  0.00    -0.225 A  
HETATM   15  H   UNL     1     -12.385  10.399  68.191  1.00  0.00     0.000 HD 
HETATM   16  C   UNL     1      -9.112  13.469  66.825  1.00  0.00    -0.223 A  
ENDBRANCH   6   9
ENDBRANCH   2   6
TORSDOF 2
ENDMDL
MODEL      180
REMARK 921   NORMALIZED FREE ENERGY PREDICTED BY IDOCK:   -2.71 KCAL/MOL
REMARK 922        TOTAL FREE ENERGY PREDICTED BY IDOCK:   -3.23 KCAL/MOL
REMARK 923 INTER-LIGAND FREE ENERGY PREDICTED BY IDOCK:   -3.05 KCAL/MOL
REMARK 924 INTRA-LIGAND FREE ENERGY PREDICTED BY IDOCK:   -0.19 KCAL/MOL
REMARK 927      BINDING AFFINITY PREDICTED BY RF-SCORE:    0.00 PKD
ROOT
HETATM    1  C   UNL     1      -5.956  11.710  68.457  1.00  0.00    -0.049 C  
HETATM    2  C   UNL     1      -6.913  12.903  68.541  1.00  0.00    -0.098 C  
HETATM    3  N   UNL     1      -6.671  13.605  69.819  1.00  0.00    -0.332 NA 
HETATM    4  H1  UNL     1      -7.308  14.400  69.875  1.00  0.00     0.000 HD 
HETATM    5  H2  UNL     1      -5.696  13.875  69.940  1.00  0.00     0.000 HD 
ENDROOT
BRANCH   2   6
HETATM    6  C   UNL     1      -8.415  12.496  68.428  1.00  0.00    -0.125 C  
HETATM    7  H   UNL     1      -9.458  10.819  68.344  1.00  0.00     0.000 HD 
HETATM    8  O   UNL     1      -8.543  11.067  68.412  1.00  0.00    -0.135 OA 
BRANCH   6   9
HETATM    9  C   UNL     1      -9.112  13.101  67.224  1.00  0.00    -0.217 A  
HETATM   10  C   UNL     1      -9.090  14.485  66.982  1.00  0.00    -0.254 A  
HETATM   11  C   UNL     1      -9.773  15.015  65.891  1.00  0.00    -0.342 A  
HETATM   12  C   UNL     1     -10.475  14.191  65.021  1.00  0.00    -0.447 A  
HETATM   13  O   UNL     1      -9.784  16.357  65.648  1.00  0.00    -0.492 OA 
HETATM   14  C   UNL     1     -10.504  12.817  65.249  1.00  0.00    -0.312 A  
HETATM   15  H   UNL     1     -10.250  16.718  64.904  1.00  0.00     0.000 HD 
HETATM   16  C   UNL     1      -9.830  12.274  66.345  1.00  0.00    -0.242 A  
ENDBRANCH   6   9
ENDBRANCH   2   6
TORSDOF 2
ENDMDL
MODEL      181
REMARK 921   NORMALIZED FREE ENERGY PREDICTED BY IDOCK:   -2.70 KCAL/MOL
REMARK 922        TOTAL FREE ENERGY PREDICTED BY IDOCK:   -3.22 KCAL/MOL
REMARK 923 INTER-LIGAND FREE ENERGY PREDICTED BY IDOCK:   -3.04 KCAL/MOL
REMARK 924 INTRA-LIGAND FREE ENERGY PREDICTED BY IDOCK:   -0.18 KCAL/MOL
REMARK 927      BINDING AFFINITY PREDICTED BY RF-SCORE:    0.00 PKD
ROOT
HETATM    1  C   UNL     1      -8.046   7.949  69.204  1.00  0.00    -0.124 C  
HETATM    2  C   UNL     1      -8.338   9.448  69.087  1.00  0.00    -0.125 C  
HETATM    3  N   UNL     1      -7.987  10.093  70.371  1.00  0.00    -0.429 NA 
HETATM    4  H1  UNL     1      -8.182  11.091  70.293  1.00  0.00     0.000 HD 
HETATM    5  H2  UNL     1      -7.028   9.902  70.656  1.00  0.00     0.000 HD 
ENDROOT
BRANCH   2   6
HETATM    6  C   UNL     1      -9.822   9.759  68.719  1.00  0.00    -0.169 C  
HETATM    7  H   UNL     1     -11.439   8.730  68.235  1.00  0.00     0.000 HD 
HETATM    8  O   UNL     1     -10.535   8.541  68.459  1.00  0.00    -0.208 OA 
BRANCH   6   9
HETATM    9  C   UNL     1      -9.963  10.712  67.547  1.00  0.00    -0.201 A  
HETATM   10  C   UNL     1     -10.210  10.243  66.246  1.00  0.00    -0.287 A  
HETATM   11  C   UNL     1     -10.293  11.139  65.184  1.00  0.00    -0.293 A  
HETATM   12  C   UNL     1     -10.144  12.504  65.390  1.00  0.00    -0.284 A  
HETATM   13  O   UNL     1     -10.512  10.706  63.909  1.00  0.00    -0.472 OA 
HETATM   14  C   UNL     1      -9.898  12.983  66.675  1.00  0.00    -0.252 A  
HETATM   15  H   UNL     1     -10.568  11.318  63.185  1.00  0.00     0.000 HD 
HETATM   16  C   UNL     1      -9.804  12.093  67.748  1.00  0.00    -0.199 A  
ENDBRANCH   6   9
ENDBRANCH   2   6
TORSDOF 2
ENDMDL
MODEL      182
REMARK 921   NORMALIZED FREE ENERGY PREDICTED BY IDOCK:   -2.70 KCAL/MOL
REMARK 922        TOTAL FREE ENERGY PREDICTED BY IDOCK:   -3.22 KCAL/MOL
REMARK 923 INTER-LIGAND FREE ENERGY PREDICTED BY IDOCK:   -3.05 KCAL/MOL
REMARK 924 INTRA-LIGAND FREE ENERGY PREDICTED BY IDOCK:   -0.17 KCAL/MOL
REMARK 927      BINDING AFFINITY PREDICTED BY RF-SCORE:    0.00 PKD
ROOT
HETATM    1  C   UNL     1     -10.144   3.777  72.112  1.00  0.00    -0.220 C  
HETATM    2  C   UNL     1      -9.389   4.787  71.242  1.00  0.00    -0.148 C  
HETATM    3  N   UNL     1      -8.047   4.992  71.825  1.00  0.00    -0.112 NA 
HETATM    4  H1  UNL     1      -7.544   5.665  71.246  1.00  0.00     0.000 HD 
HETATM    5  H2  UNL     1      -7.534   4.120  71.948  1.00  0.00     0.000 HD 
ENDROOT
BRANCH   2   6
HETATM    6  C   UNL     1     -10.130   6.153  71.103  1.00  0.00    -0.190 C  
HETATM    7  H   UNL     1     -11.933   6.867  71.481  1.00  0.00     0.000 HD 
HETATM    8  O   UNL     1     -11.483   6.035  71.565  1.00  0.00    -0.281 OA 
BRANCH   6   9
HETATM    9  C   UNL     1     -10.102   6.709  69.692  1.00  0.00    -0.202 A  
HETATM   10  C   UNL     1     -10.942   6.201  68.686  1.00  0.00    -0.415 A  
HETATM   11  C   UNL     1     -10.865   6.703  67.390  1.00  0.00    -0.363 A  
HETATM   12  C   UNL     1      -9.971   7.717  67.071  1.00  0.00    -0.310 A  
HETATM   13  O   UNL     1     -11.655   6.211  66.393  1.00  0.00    -0.516 OA 
HETATM   14  C   UNL     1      -9.132   8.230  68.058  1.00  0.00    -0.139 A  
HETATM   15  H   UNL     1     -11.602   6.555  65.509  1.00  0.00     0.000 HD 
HETATM   16  C   UNL     1      -9.194   7.727  69.360  1.00  0.00    -0.149 A  
ENDBRANCH   6   9
ENDBRANCH   2   6
TORSDOF 2
ENDMDL
MODEL      183
REMARK 921   NORMALIZED FREE ENERGY PREDICTED BY IDOCK:   -2.69 KCAL/MOL
REMARK 922        TOTAL FREE ENERGY PREDICTED BY IDOCK:   -3.21 KCAL/MOL
REMARK 923 INTER-LIGAND FREE ENERGY PREDICTED BY IDOCK:   -3.46 KCAL/MOL
REMARK 924 INTRA-LIGAND FREE ENERGY PREDICTED BY IDOCK:    0.25 KCAL/MOL
REMARK 927      BINDING AFFINITY PREDICTED BY RF-SCORE:    0.00 PKD
ROOT
HETATM    1  C   UNL     1      -9.001   5.595  67.198  1.00  0.00    -0.112 C  
HETATM    2  C   UNL     1      -9.898   6.267  68.243  1.00  0.00    -0.126 C  
HETATM    3  N   UNL     1     -11.185   6.609  67.601  1.00  0.00    -0.637 NA 
HETATM    4  H1  UNL     1     -11.782   7.056  68.296  1.00  0.00     0.000 HD 
HETATM    5  H2  UNL     1     -11.630   5.804  67.162  1.00  0.00     0.000 HD 
ENDROOT
BRANCH   2   6
HETATM    6  C   UNL     1      -9.257   7.542  68.873  1.00  0.00    -0.142 C  
HETATM    7  H   UNL     1      -8.379   8.030  70.574  1.00  0.00     0.000 HD 
HETATM    8  O   UNL     1      -8.769   7.254  70.191  1.00  0.00    -0.139 OA 
BRANCH   6   9
HETATM    9  C   UNL     1     -10.199   8.731  68.909  1.00  0.00    -0.221 A  
HETATM   10  C   UNL     1     -10.462   9.494  67.758  1.00  0.00    -0.309 A  
HETATM   11  C   UNL     1     -11.299  10.603  67.830  1.00  0.00    -0.268 A  
HETATM   12  C   UNL     1     -11.893  10.970  69.030  1.00  0.00    -0.399 A  
HETATM   13  O   UNL     1     -11.553  11.371  66.732  1.00  0.00    -0.465 OA 
HETATM   14  C   UNL     1     -11.640  10.224  70.180  1.00  0.00    -0.376 A  
HETATM   15  H   UNL     1     -12.123  12.128  66.782  1.00  0.00     0.000 HD 
HETATM   16  C   UNL     1     -10.796   9.113  70.121  1.00  0.00    -0.269 A  
ENDBRANCH   6   9
ENDBRANCH   2   6
TORSDOF 2
ENDMDL
MODEL      184
REMARK 921   NORMALIZED FREE ENERGY PREDICTED BY IDOCK:   -2.69 KCAL/MOL
REMARK 922        TOTAL FREE ENERGY PREDICTED BY IDOCK:   -3.21 KCAL/MOL
REMARK 923 INTER-LIGAND FREE ENERGY PREDICTED BY IDOCK:   -3.20 KCAL/MOL
REMARK 924 INTRA-LIGAND FREE ENERGY PREDICTED BY IDOCK:   -0.01 KCAL/MOL
REMARK 927      BINDING AFFINITY PREDICTED BY RF-SCORE:    0.00 PKD
ROOT
HETATM    1  C   UNL     1     -11.813  15.312  69.646  1.00  0.00    -0.363 C  
HETATM    2  C   UNL     1     -10.743  15.566  68.579  1.00  0.00    -0.259 C  
HETATM    3  N   UNL     1     -10.693  17.018  68.307  1.00  0.00    -0.373 NA 
HETATM    4  H1  UNL     1      -9.980  17.188  67.597  1.00  0.00     0.000 HD 
HETATM    5  H2  UNL     1     -10.544  17.570  69.151  1.00  0.00     0.000 HD 
ENDROOT
BRANCH   2   6
HETATM    6  C   UNL     1     -10.997  14.781  67.255  1.00  0.00    -0.318 C  
HETATM    7  H   UNL     1     -12.560  14.156  66.220  1.00  0.00     0.000 HD 
HETATM    8  O   UNL     1     -12.406  14.633  67.026  1.00  0.00    -0.225 OA 
BRANCH   6   9
HETATM    9  C   UNL     1     -10.313  13.428  67.220  1.00  0.00    -0.244 A  
HETATM   10  C   UNL     1     -10.054  12.705  68.397  1.00  0.00    -0.222 A  
HETATM   11  C   UNL     1      -9.388  11.485  68.337  1.00  0.00    -0.194 A  
HETATM   12  C   UNL     1      -8.978  10.956  67.120  1.00  0.00    -0.141 A  
HETATM   13  O   UNL     1      -9.107  10.776  69.468  1.00  0.00    -0.398 OA 
HETATM   14  C   UNL     1      -9.228  11.662  65.945  1.00  0.00    -0.206 A  
HETATM   15  H   UNL     1      -8.653   9.943  69.427  1.00  0.00     0.000 HD 
HETATM   16  C   UNL     1      -9.888  12.891  65.993  1.00  0.00    -0.256 A  
ENDBRANCH   6   9
ENDBRANCH   2   6
TORSDOF 2
ENDMDL
MODEL      185
REMARK 921   NORMALIZED FREE ENERGY PREDICTED BY IDOCK:   -2.67 KCAL/MOL
REMARK 922        TOTAL FREE ENERGY PREDICTED BY IDOCK:   -3.18 KCAL/MOL
REMARK 923 INTER-LIGAND FREE ENERGY PREDICTED BY IDOCK:   -3.00 KCAL/MOL
REMARK 924 INTRA-LIGAND FREE ENERGY PREDICTED BY IDOCK:   -0.18 KCAL/MOL
REMARK 927      BINDING AFFINITY PREDICTED BY RF-SCORE:    0.00 PKD
ROOT
HETATM    1  C   UNL     1      -6.263   8.656  69.913  1.00  0.00    -0.034 C  
HETATM    2  C   UNL     1      -7.590   9.237  70.410  1.00  0.00    -0.127 C  
HETATM    3  N   UNL     1      -7.608   9.162  71.887  1.00  0.00    -0.316 NA 
HETATM    4  H1  UNL     1      -8.492   9.549  72.217  1.00  0.00     0.000 HD 
HETATM    5  H2  UNL     1      -6.799   9.613  72.312  1.00  0.00     0.000 HD 
ENDROOT
BRANCH   2   6
HETATM    6  C   UNL     1      -8.839   8.511  69.821  1.00  0.00    -0.137 C  
HETATM    7  H   UNL     1      -9.450   7.894  68.046  1.00  0.00     0.000 HD 
HETATM    8  O   UNL     1      -8.690   8.337  68.404  1.00  0.00    -0.132 OA 
BRANCH   6   9
HETATM    9  C   UNL     1     -10.145   9.216  70.130  1.00  0.00    -0.233 A  
HETATM   10  C   UNL     1     -10.388  10.533  69.703  1.00  0.00    -0.231 A  
HETATM   11  C   UNL     1     -11.579  11.169  70.038  1.00  0.00    -0.338 A  
HETATM   12  C   UNL     1     -12.550  10.516  70.786  1.00  0.00    -0.474 A  
HETATM   13  O   UNL     1     -11.828  12.453  69.652  1.00  0.00    -0.305 OA 
HETATM   14  C   UNL     1     -12.322   9.210  71.217  1.00  0.00    -0.382 A  
HETATM   15  H   UNL     1     -12.641  12.887  69.881  1.00  0.00     0.000 HD 
HETATM   16  C   UNL     1     -11.127   8.565  70.895  1.00  0.00    -0.295 A  
ENDBRANCH   6   9
ENDBRANCH   2   6
TORSDOF 2
ENDMDL
MODEL      186
REMARK 921   NORMALIZED FREE ENERGY PREDICTED BY IDOCK:   -2.67 KCAL/MOL
REMARK 922        TOTAL FREE ENERGY PREDICTED BY IDOCK:   -3.18 KCAL/MOL
REMARK 923 INTER-LIGAND FREE ENERGY PREDICTED BY IDOCK:   -3.00 KCAL/MOL
REMARK 924 INTRA-LIGAND FREE ENERGY PREDICTED BY IDOCK:   -0.19 KCAL/MOL
REMARK 927      BINDING AFFINITY PREDICTED BY RF-SCORE:    0.00 PKD
ROOT
HETATM    1  C   UNL     1     -12.146   9.896  71.362  1.00  0.00    -0.501 C  
HETATM    2  C   UNL     1     -11.346  10.272  70.112  1.00  0.00    -0.316 C  
HETATM    3  N   UNL     1     -12.296  10.685  69.058  1.00  0.00    -0.779 NA 
HETATM    4  H1  UNL     1     -11.763  10.936  68.225  1.00  0.00     0.000 HD 
HETATM    5  H2  UNL     1     -12.921  11.431  69.363  1.00  0.00     0.000 HD 
ENDROOT
BRANCH   2   6
HETATM    6  C   UNL     1     -10.437   9.116  69.592  1.00  0.00    -0.223 C  
HETATM    7  H   UNL     1     -10.382   7.145  69.730  1.00  0.00     0.000 HD 
HETATM    8  O   UNL     1     -10.935   7.849  70.046  1.00  0.00    -0.249 OA 
BRANCH   6   9
HETATM    9  C   UNL     1      -8.979   9.278  69.979  1.00  0.00    -0.216 A  
HETATM   10  C   UNL     1      -8.436   8.609  71.090  1.00  0.00    -0.211 A  
HETATM   11  C   UNL     1      -7.105   8.810  71.445  1.00  0.00    -0.090 A  
HETATM   12  C   UNL     1      -6.292   9.661  70.708  1.00  0.00    -0.097 A  
HETATM   13  O   UNL     1      -6.561   8.189  72.530  1.00  0.00    -0.071 OA 
HETATM   14  C   UNL     1      -6.818  10.331  69.605  1.00  0.00    -0.094 A  
HETATM   15  H   UNL     1      -5.654   8.326  72.772  1.00  0.00     0.000 HD 
HETATM   16  C   UNL     1      -8.154  10.144  69.244  1.00  0.00    -0.149 A  
ENDBRANCH   6   9
ENDBRANCH   2   6
TORSDOF 2
ENDMDL
MODEL      187
REMARK 921   NORMALIZED FREE ENERGY PREDICTED BY IDOCK:   -2.67 KCAL/MOL
REMARK 922        TOTAL FREE ENERGY PREDICTED BY IDOCK:   -3.18 KCAL/MOL
REMARK 923 INTER-LIGAND FREE ENERGY PREDICTED BY IDOCK:   -2.96 KCAL/MOL
REMARK 924 INTRA-LIGAND FREE ENERGY PREDICTED BY IDOCK:   -0.22 KCAL/MOL
REMARK 927      BINDING AFFINITY PREDICTED BY RF-SCORE:    0.00 PKD
ROOT
HETATM    1  C   UNL     1     -12.464  14.271  69.728  1.00  0.00    -0.264 C  
HETATM    2  C   UNL     1     -11.146  14.518  70.467  1.00  0.00     0.050 C  
HETATM    3  N   UNL     1     -11.413  14.482  71.921  1.00  0.00    -0.244 NA 
HETATM    4  H1  UNL     1     -10.535  14.647  72.413  1.00  0.00     0.000 HD 
HETATM    5  H2  UNL     1     -11.871  13.620  72.214  1.00  0.00     0.000 HD 
ENDROOT
BRANCH   2   6
HETATM    6  C   UNL     1     -10.467  15.869  70.080  1.00  0.00    -0.291 C  
HETATM    7  H   UNL     1     -10.947  17.786  70.095  1.00  0.00     0.000 HD 
HETATM    8  O   UNL     1     -11.360  16.964  70.330  1.00  0.00     0.060 OA 
BRANCH   6   9
HETATM    9  C   UNL     1      -9.980  15.904  68.644  1.00  0.00    -0.214 A  
HETATM   10  C   UNL     1     -10.590  16.729  67.682  1.00  0.00    -0.325 A  
HETATM   11  C   UNL     1     -10.147  16.709  66.363  1.00  0.00    -0.315 A  
HETATM   12  C   UNL     1      -9.096  15.889  65.976  1.00  0.00    -0.363 A  
HETATM   13  O   UNL     1     -10.736  17.484  65.408  1.00  0.00    -0.612 OA 
HETATM   14  C   UNL     1      -8.482  15.066  66.919  1.00  0.00    -0.269 A  
HETATM   15  H   UNL     1     -10.434  17.471  64.508  1.00  0.00     0.000 HD 
HETATM   16  C   UNL     1      -8.923  15.070  68.244  1.00  0.00    -0.174 A  
ENDBRANCH   6   9
ENDBRANCH   2   6
TORSDOF 2
ENDMDL
MODEL      188
REMARK 921   NORMALIZED FREE ENERGY PREDICTED BY IDOCK:   -2.65 KCAL/MOL
REMARK 922        TOTAL FREE ENERGY PREDICTED BY IDOCK:   -3.16 KCAL/MOL
REMARK 923 INTER-LIGAND FREE ENERGY PREDICTED BY IDOCK:   -3.19 KCAL/MOL
REMARK 924 INTRA-LIGAND FREE ENERGY PREDICTED BY IDOCK:    0.03 KCAL/MOL
REMARK 927      BINDING AFFINITY PREDICTED BY RF-SCORE:    0.00 PKD
ROOT
HETATM    1  C   UNL     1     -11.453   6.338  70.141  1.00  0.00    -0.452 C  
HETATM    2  C   UNL     1     -11.698   6.465  71.648  1.00  0.00    -0.313 C  
HETATM    3  N   UNL     1     -13.152   6.619  71.872  1.00  0.00    -0.450 NA 
HETATM    4  H1  UNL     1     -13.315   6.702  72.876  1.00  0.00     0.000 HD 
HETATM    5  H2  UNL     1     -13.695   5.868  71.448  1.00  0.00     0.000 HD 
ENDROOT
BRANCH   2   6
HETATM    6  C   UNL     1     -10.926   7.654  72.299  1.00  0.00    -0.279 C  
HETATM    7  H   UNL     1     -11.299   9.065  73.631  1.00  0.00     0.000 HD 
HETATM    8  O   UNL     1     -11.769   8.342  73.235  1.00  0.00    -0.069 OA 
BRANCH   6   9
HETATM    9  C   UNL     1     -10.362   8.630  71.284  1.00  0.00    -0.308 A  
HETATM   10  C   UNL     1      -8.993   8.651  70.968  1.00  0.00    -0.242 A  
HETATM   11  C   UNL     1      -8.497   9.585  70.063  1.00  0.00    -0.195 A  
HETATM   12  C   UNL     1      -9.343  10.501  69.450  1.00  0.00    -0.139 A  
HETATM   13  O   UNL     1      -7.169   9.638  69.758  1.00  0.00    -0.070 OA 
HETATM   14  C   UNL     1     -10.703  10.491  69.754  1.00  0.00    -0.314 A  
HETATM   15  H   UNL     1      -6.832  10.276  69.140  1.00  0.00     0.000 HD 
HETATM   16  C   UNL     1     -11.210   9.564  70.667  1.00  0.00    -0.364 A  
ENDBRANCH   6   9
ENDBRANCH   2   6
TORSDOF 2
ENDMDL
MODEL      189
REMARK 921   NORMALIZED FREE ENERGY PREDICTED BY IDOCK:   -2.64 KCAL/MOL
REMARK 922        TOTAL FREE ENERGY PREDICTED BY IDOCK:   -3.15 KCAL/MOL
REMARK 923 INTER-LIGAND FREE ENERGY PREDICTED BY IDOCK:   -3.01 KCAL/MOL
REMARK 924 INTRA-LIGAND FREE ENERGY PREDICTED BY IDOCK:   -0.13 KCAL/MOL
REMARK 927      BINDING AFFINITY PREDICTED BY RF-SCORE:    0.00 PKD
ROOT
HETATM    1  C   UNL     1     -11.459   8.999  71.740  1.00  0.00    -0.442 C  
HETATM    2  C   UNL     1     -12.147   8.010  70.793  1.00  0.00    -0.076 C  
HETATM    3  N   UNL     1     -13.410   7.568  71.421  1.00  0.00    -0.503 NA 
HETATM    4  H1  UNL     1     -13.868   6.910  70.790  1.00  0.00     0.000 HD 
HETATM    5  H2  UNL     1     -14.013   8.348  71.680  1.00  0.00     0.000 HD 
ENDROOT
BRANCH   2   6
HETATM    6  C   UNL     1     -11.260   6.776  70.444  1.00  0.00    -0.328 C  
HETATM    7  H   UNL     1      -9.673   5.872  71.200  1.00  0.00     0.000 HD 
HETATM    8  O   UNL     1     -10.213   6.624  71.413  1.00  0.00    -0.198 OA 
BRANCH   6   9
HETATM    9  C   UNL     1     -10.677   6.833  69.044  1.00  0.00    -0.280 A  
HETATM   10  C   UNL     1     -10.052   7.993  68.556  1.00  0.00    -0.218 A  
HETATM   11  C   UNL     1      -9.564   8.030  67.254  1.00  0.00    -0.162 A  
HETATM   12  C   UNL     1      -9.674   6.924  66.420  1.00  0.00    -0.127 A  
HETATM   13  O   UNL     1      -8.972   9.151  66.751  1.00  0.00    -0.124 OA 
HETATM   14  C   UNL     1     -10.292   5.767  66.891  1.00  0.00    -0.306 A  
HETATM   15  H   UNL     1      -8.639   9.176  65.862  1.00  0.00     0.000 HD 
HETATM   16  C   UNL     1     -10.794   5.722  68.193  1.00  0.00    -0.249 A  
ENDBRANCH   6   9
ENDBRANCH   2   6
TORSDOF 2
ENDMDL
MODEL      190
REMARK 921   NORMALIZED FREE ENERGY PREDICTED BY IDOCK:   -2.61 KCAL/MOL
REMARK 922        TOTAL FREE ENERGY PREDICTED BY IDOCK:   -3.12 KCAL/MOL
REMARK 923 INTER-LIGAND FREE ENERGY PREDICTED BY IDOCK:   -3.14 KCAL/MOL
REMARK 924 INTRA-LIGAND FREE ENERGY PREDICTED BY IDOCK:    0.02 KCAL/MOL
REMARK 927      BINDING AFFINITY PREDICTED BY RF-SCORE:    0.00 PKD
ROOT
HETATM    1  C   UNL     1      -8.290   8.998  70.757  1.00  0.00    -0.228 C  
HETATM    2  C   UNL     1      -9.383   8.037  71.236  1.00  0.00    -0.150 C  
HETATM    3  N   UNL     1      -9.006   6.665  70.834  1.00  0.00    -0.146 NA 
HETATM    4  H1  UNL     1      -9.733   6.026  71.153  1.00  0.00     0.000 HD 
HETATM    5  H2  UNL     1      -8.079   6.400  71.164  1.00  0.00     0.000 HD 
ENDROOT
BRANCH   2   6
HETATM    6  C   UNL     1     -10.798   8.389  70.681  1.00  0.00    -0.231 C  
HETATM    7  H   UNL     1     -12.420   7.408  70.127  1.00  0.00     0.000 HD 
HETATM    8  O   UNL     1     -11.559   7.193  70.464  1.00  0.00    -0.301 OA 
BRANCH   6   9
HETATM    9  C   UNL     1     -10.754   9.223  69.414  1.00  0.00    -0.222 A  
HETATM   10  C   UNL     1     -10.389   8.662  68.178  1.00  0.00    -0.267 A  
HETATM   11  C   UNL     1     -10.318   9.460  67.041  1.00  0.00    -0.252 A  
HETATM   12  C   UNL     1     -10.615  10.815  67.103  1.00  0.00    -0.306 A  
HETATM   13  O   UNL     1      -9.946   8.943  65.835  1.00  0.00    -0.441 OA 
HETATM   14  C   UNL     1     -10.978  11.385  68.321  1.00  0.00    -0.266 A  
HETATM   15  H   UNL     1      -9.898   9.488  65.060  1.00  0.00     0.000 HD 
HETATM   16  C   UNL     1     -11.044  10.596  69.471  1.00  0.00    -0.328 A  
ENDBRANCH   6   9
ENDBRANCH   2   6
TORSDOF 2
ENDMDL
MODEL      191
REMARK 921   NORMALIZED FREE ENERGY PREDICTED BY IDOCK:   -2.61 KCAL/MOL
REMARK 922        TOTAL FREE ENERGY PREDICTED BY IDOCK:   -3.12 KCAL/MOL
REMARK 923 INTER-LIGAND FREE ENERGY PREDICTED BY IDOCK:   -3.24 KCAL/MOL
REMARK 924 INTRA-LIGAND FREE ENERGY PREDICTED BY IDOCK:    0.12 KCAL/MOL
REMARK 927      BINDING AFFINITY PREDICTED BY RF-SCORE:    0.00 PKD
ROOT
HETATM    1  C   UNL     1      -7.778   9.461  70.517  1.00  0.00    -0.177 C  
HETATM    2  C   UNL     1      -8.900   8.961  71.432  1.00  0.00    -0.213 C  
HETATM    3  N   UNL     1      -8.624   7.551  71.781  1.00  0.00    -0.113 NA 
HETATM    4  H1  UNL     1      -9.370   7.218  72.390  1.00  0.00     0.000 HD 
HETATM    5  H2  UNL     1      -7.698   7.422  72.188  1.00  0.00     0.000 HD 
ENDROOT
BRANCH   2   6
HETATM    6  C   UNL     1     -10.318   9.087  70.793  1.00  0.00    -0.243 C  
HETATM    7  H   UNL     1     -12.191   8.828  71.364  1.00  0.00     0.000 HD 
HETATM    8  O   UNL     1     -11.329   8.751  71.753  1.00  0.00    -0.292 OA 
BRANCH   6   9
HETATM    9  C   UNL     1     -10.485   8.253  69.537  1.00  0.00    -0.228 A  
HETATM   10  C   UNL     1     -10.331   8.813  68.257  1.00  0.00    -0.252 A  
HETATM   11  C   UNL     1     -10.532   8.032  67.123  1.00  0.00    -0.338 A  
HETATM   12  C   UNL     1     -10.876   6.691  67.233  1.00  0.00    -0.456 A  
HETATM   13  O   UNL     1     -10.408   8.558  65.871  1.00  0.00    -0.228 OA 
HETATM   14  C   UNL     1     -11.032   6.123  68.496  1.00  0.00    -0.404 A  
HETATM   15  H   UNL     1     -10.545   8.025  65.098  1.00  0.00     0.000 HD 
HETATM   16  C   UNL     1     -10.842   6.899  69.641  1.00  0.00    -0.294 A  
ENDBRANCH   6   9
ENDBRANCH   2   6
TORSDOF 2
ENDMDL
MODEL      192
REMARK 921   NORMALIZED FREE ENERGY PREDICTED BY IDOCK:   -2.61 KCAL/MOL
REMARK 922        TOTAL FREE ENERGY PREDICTED BY IDOCK:   -3.11 KCAL/MOL
REMARK 923 INTER-LIGAND FREE ENERGY PREDICTED BY IDOCK:   -3.19 KCAL/MOL
REMARK 924 INTRA-LIGAND FREE ENERGY PREDICTED BY IDOCK:    0.08 KCAL/MOL
REMARK 927      BINDING AFFINITY PREDICTED BY RF-SCORE:    0.00 PKD
ROOT
HETATM    1  C   UNL     1     -11.790  15.020  68.605  1.00  0.00    -0.325 C  
HETATM    2  C   UNL     1     -11.408  13.552  68.388  1.00  0.00    -0.292 C  
HETATM    3  N   UNL     1     -11.341  12.889  69.708  1.00  0.00    -0.497 NA 
HETATM    4  H1  UNL     1     -11.087  11.912  69.563  1.00  0.00     0.000 HD 
HETATM    5  H2  UNL     1     -12.201  12.995  70.244  1.00  0.00     0.000 HD 
ENDROOT
BRANCH   2   6
HETATM    6  C   UNL     1     -10.058  13.374  67.628  1.00  0.00    -0.229 C  
HETATM    7  H   UNL     1      -8.425  12.276  67.816  1.00  0.00     0.000 HD 
HETATM    8  O   UNL     1      -9.247  12.385  68.279  1.00  0.00    -0.200 OA 
BRANCH   6   9
HETATM    9  C   UNL     1      -9.283  14.669  67.470  1.00  0.00    -0.192 A  
HETATM   10  C   UNL     1      -8.480  15.175  68.506  1.00  0.00    -0.160 A  
HETATM   11  C   UNL     1      -7.814  16.386  68.347  1.00  0.00    -0.176 A  
HETATM   12  C   UNL     1      -7.921  17.108  67.165  1.00  0.00    -0.216 A  
HETATM   13  O   UNL     1      -7.046  16.908  69.346  1.00  0.00    -0.227 OA 
HETATM   14  C   UNL     1      -8.714  16.618  66.130  1.00  0.00    -0.322 A  
HETATM   15  H   UNL     1      -6.591  17.734  69.237  1.00  0.00     0.000 HD 
HETATM   16  C   UNL     1      -9.394  15.408  66.281  1.00  0.00    -0.351 A  
ENDBRANCH   6   9
ENDBRANCH   2   6
TORSDOF 2
ENDMDL
MODEL      193
REMARK 921   NORMALIZED FREE ENERGY PREDICTED BY IDOCK:   -2.59 KCAL/MOL
REMARK 922        TOTAL FREE ENERGY PREDICTED BY IDOCK:   -3.10 KCAL/MOL
REMARK 923 INTER-LIGAND FREE ENERGY PREDICTED BY IDOCK:   -2.91 KCAL/MOL
REMARK 924 INTRA-LIGAND FREE ENERGY PREDICTED BY IDOCK:   -0.19 KCAL/MOL
REMARK 927      BINDING AFFINITY PREDICTED BY RF-SCORE:    0.00 PKD
ROOT
HETATM    1  C   UNL     1     -12.738   7.076  71.370  1.00  0.00    -0.421 C  
HETATM    2  C   UNL     1     -12.092   8.454  71.548  1.00  0.00    -0.301 C  
HETATM    3  N   UNL     1     -12.858   9.434  70.749  1.00  0.00    -0.523 NA 
HETATM    4  H1  UNL     1     -12.428  10.351  70.868  1.00  0.00     0.000 HD 
HETATM    5  H2  UNL     1     -13.852   9.434  70.977  1.00  0.00     0.000 HD 
ENDROOT
BRANCH   2   6
HETATM    6  C   UNL     1     -10.587   8.485  71.137  1.00  0.00    -0.220 C  
HETATM    7  H   UNL     1      -9.530   8.195  69.493  1.00  0.00     0.000 HD 
HETATM    8  O   UNL     1     -10.446   8.175  69.743  1.00  0.00    -0.220 OA 
BRANCH   6   9
HETATM    9  C   UNL     1      -9.718   7.564  71.972  1.00  0.00    -0.195 A  
HETATM   10  C   UNL     1      -9.208   6.363  71.450  1.00  0.00    -0.150 A  
HETATM   11  C   UNL     1      -8.448   5.519  72.254  1.00  0.00    -0.122 A  
HETATM   12  C   UNL     1      -8.172   5.849  73.574  1.00  0.00    -0.111 A  
HETATM   13  O   UNL     1      -7.960   4.338  71.776  1.00  0.00    -0.083 OA 
HETATM   14  C   UNL     1      -8.671   7.037  74.105  1.00  0.00    -0.212 A  
HETATM   15  H   UNL     1      -7.441   3.762  72.324  1.00  0.00     0.000 HD 
HETATM   16  C   UNL     1      -9.443   7.888  73.311  1.00  0.00    -0.350 A  
ENDBRANCH   6   9
ENDBRANCH   2   6
TORSDOF 2
ENDMDL
MODEL      194
REMARK 921   NORMALIZED FREE ENERGY PREDICTED BY IDOCK:   -2.58 KCAL/MOL
REMARK 922        TOTAL FREE ENERGY PREDICTED BY IDOCK:   -3.08 KCAL/MOL
REMARK 923 INTER-LIGAND FREE ENERGY PREDICTED BY IDOCK:   -3.11 KCAL/MOL
REMARK 924 INTRA-LIGAND FREE ENERGY PREDICTED BY IDOCK:    0.03 KCAL/MOL
REMARK 927      BINDING AFFINITY PREDICTED BY RF-SCORE:    0.00 PKD
ROOT
HETATM    1  C   UNL     1     -12.929   7.142  71.346  1.00  0.00    -0.419 C  
HETATM    2  C   UNL     1     -11.889   8.265  71.403  1.00  0.00    -0.293 C  
HETATM    3  N   UNL     1     -12.492   9.487  70.828  1.00  0.00    -0.482 NA 
HETATM    4  H1  UNL     1     -11.800  10.235  70.867  1.00  0.00     0.000 HD 
HETATM    5  H2  UNL     1     -13.370   9.741  71.281  1.00  0.00     0.000 HD 
ENDROOT
BRANCH   2   6
HETATM    6  C   UNL     1     -10.566   7.917  70.654  1.00  0.00    -0.219 C  
HETATM    7  H   UNL     1      -9.816   8.175  68.844  1.00  0.00     0.000 HD 
HETATM    8  O   UNL     1     -10.622   8.387  69.299  1.00  0.00    -0.223 OA 
BRANCH   6   9
HETATM    9  C   UNL     1     -10.231   6.438  70.685  1.00  0.00    -0.229 A  
HETATM   10  C   UNL     1     -10.128   5.683  69.504  1.00  0.00    -0.292 A  
HETATM   11  C   UNL     1      -9.860   4.319  69.566  1.00  0.00    -0.154 A  
HETATM   12  C   UNL     1      -9.680   3.684  70.788  1.00  0.00    -0.222 A  
HETATM   13  O   UNL     1      -9.777   3.563  68.435  1.00  0.00    -0.127 OA 
HETATM   14  C   UNL     1      -9.779   4.419  71.967  1.00  0.00    -0.227 A  
HETATM   15  H   UNL     1      -9.594   2.632  68.478  1.00  0.00     0.000 HD 
HETATM   16  C   UNL     1     -10.057   5.787  71.918  1.00  0.00    -0.228 A  
ENDBRANCH   6   9
ENDBRANCH   2   6
TORSDOF 2
ENDMDL
MODEL      195
REMARK 921   NORMALIZED FREE ENERGY PREDICTED BY IDOCK:   -2.55 KCAL/MOL
REMARK 922        TOTAL FREE ENERGY PREDICTED BY IDOCK:   -3.05 KCAL/MOL
REMARK 923 INTER-LIGAND FREE ENERGY PREDICTED BY IDOCK:   -2.87 KCAL/MOL
REMARK 924 INTRA-LIGAND FREE ENERGY PREDICTED BY IDOCK:   -0.19 KCAL/MOL
REMARK 927      BINDING AFFINITY PREDICTED BY RF-SCORE:    0.00 PKD
ROOT
HETATM    1  C   UNL     1      -7.369   6.291  63.759  1.00  0.00    -0.069 C  
HETATM    2  C   UNL     1      -7.363   7.814  63.928  1.00  0.00    -0.096 C  
HETATM    3  N   UNL     1      -5.991   8.305  63.679  1.00  0.00    -0.070 NA 
HETATM    4  H1  UNL     1      -5.988   9.319  63.792  1.00  0.00     0.000 HD 
HETATM    5  H2  UNL     1      -5.627   8.010  62.774  1.00  0.00     0.000 HD 
ENDROOT
BRANCH   2   6
HETATM    6  C   UNL     1      -7.852   8.277  65.335  1.00  0.00    -0.113 C  
HETATM    7  H   UNL     1      -8.610   7.434  66.954  1.00  0.00     0.000 HD 
HETATM    8  O   UNL     1      -8.313   7.152  66.098  1.00  0.00    -0.120 OA 
BRANCH   6   9
HETATM    9  C   UNL     1      -8.926   9.347  65.274  1.00  0.00    -0.250 A  
HETATM   10  C   UNL     1      -9.247   9.997  64.070  1.00  0.00    -0.318 A  
HETATM   11  C   UNL     1     -10.208  11.003  64.053  1.00  0.00    -0.358 A  
HETATM   12  C   UNL     1     -10.871  11.375  65.216  1.00  0.00    -0.297 A  
HETATM   13  O   UNL     1     -10.522  11.662  62.901  1.00  0.00    -0.653 OA 
HETATM   14  C   UNL     1     -10.563  10.739  66.417  1.00  0.00    -0.266 A  
HETATM   15  H   UNL     1     -11.178  12.349  62.890  1.00  0.00     0.000 HD 
HETATM   16  C   UNL     1      -9.594   9.734  66.448  1.00  0.00    -0.256 A  
ENDBRANCH   6   9
ENDBRANCH   2   6
TORSDOF 2
ENDMDL
MODEL      196
REMARK 921   NORMALIZED FREE ENERGY PREDICTED BY IDOCK:   -2.54 KCAL/MOL
REMARK 922        TOTAL FREE ENERGY PREDICTED BY IDOCK:   -3.04 KCAL/MOL
REMARK 923 INTER-LIGAND FREE ENERGY PREDICTED BY IDOCK:   -2.97 KCAL/MOL
REMARK 924 INTRA-LIGAND FREE ENERGY PREDICTED BY IDOCK:   -0.07 KCAL/MOL
REMARK 927      BINDING AFFINITY PREDICTED BY RF-SCORE:    0.00 PKD
ROOT
HETATM    1  C   UNL     1      -7.526   4.395  70.080  1.00  0.00    -0.050 C  
HETATM    2  C   UNL     1      -8.647   5.429  70.224  1.00  0.00    -0.124 C  
HETATM    3  N   UNL     1      -8.999   5.926  68.877  1.00  0.00    -0.118 NA 
HETATM    4  H1  UNL     1      -9.746   6.614  68.974  1.00  0.00     0.000 HD 
HETATM    5  H2  UNL     1      -9.240   5.174  68.233  1.00  0.00     0.000 HD 
ENDROOT
BRANCH   2   6
HETATM    6  C   UNL     1      -8.267   6.623  71.154  1.00  0.00    -0.120 C  
HETATM    7  H   UNL     1      -7.627   6.866  73.008  1.00  0.00     0.000 HD 
HETATM    8  O   UNL     1      -7.859   6.140  72.442  1.00  0.00    -0.103 OA 
BRANCH   6   9
HETATM    9  C   UNL     1      -9.377   7.645  71.302  1.00  0.00    -0.161 A  
HETATM   10  C   UNL     1     -10.469   7.425  72.160  1.00  0.00    -0.243 A  
HETATM   11  C   UNL     1     -11.493   8.363  72.244  1.00  0.00    -0.384 A  
HETATM   12  C   UNL     1     -11.452   9.531  71.495  1.00  0.00    -0.466 A  
HETATM   13  O   UNL     1     -12.572   8.161  73.053  1.00  0.00    -0.656 OA 
HETATM   14  C   UNL     1     -10.376   9.763  70.640  1.00  0.00    -0.330 A  
HETATM   15  H   UNL     1     -13.271   8.801  73.110  1.00  0.00     0.000 HD 
HETATM   16  C   UNL     1      -9.346   8.825  70.541  1.00  0.00    -0.219 A  
ENDBRANCH   6   9
ENDBRANCH   2   6
TORSDOF 2
ENDMDL
MODEL      197
REMARK 921   NORMALIZED FREE ENERGY PREDICTED BY IDOCK:   -2.54 KCAL/MOL
REMARK 922        TOTAL FREE ENERGY PREDICTED BY IDOCK:   -3.03 KCAL/MOL
REMARK 923 INTER-LIGAND FREE ENERGY PREDICTED BY IDOCK:   -3.03 KCAL/MOL
REMARK 924 INTRA-LIGAND FREE ENERGY PREDICTED BY IDOCK:   -0.01 KCAL/MOL
REMARK 927      BINDING AFFINITY PREDICTED BY RF-SCORE:    0.00 PKD
ROOT
HETATM    1  C   UNL     1     -10.235   9.708  69.079  1.00  0.00    -0.209 C  
HETATM    2  C   UNL     1      -9.919  10.884  68.150  1.00  0.00    -0.174 C  
HETATM    3  N   UNL     1      -8.482  10.833  67.806  1.00  0.00    -0.119 NA 
HETATM    4  H1  UNL     1      -8.272  11.616  67.187  1.00  0.00     0.000 HD 
HETATM    5  H2  UNL     1      -8.206   9.935  67.410  1.00  0.00     0.000 HD 
ENDROOT
BRANCH   2   6
HETATM    6  C   UNL     1     -10.273  12.271  68.771  1.00  0.00    -0.102 C  
HETATM    7  H   UNL     1     -11.727  13.036  69.869  1.00  0.00     0.000 HD 
HETATM    8  O   UNL     1     -11.512  12.192  69.491  1.00  0.00    -0.279 OA 
BRANCH   6   9
HETATM    9  C   UNL     1     -10.329  13.390  67.747  1.00  0.00    -0.241 A  
HETATM   10  C   UNL     1     -10.353  14.740  68.136  1.00  0.00    -0.239 A  
HETATM   11  C   UNL     1     -10.446  15.743  67.176  1.00  0.00    -0.309 A  
HETATM   12  C   UNL     1     -10.506  15.431  65.824  1.00  0.00    -0.371 A  
HETATM   13  O   UNL     1     -10.492  17.059  67.530  1.00  0.00    -0.324 OA 
HETATM   14  C   UNL     1     -10.484  14.097  65.424  1.00  0.00    -0.372 A  
HETATM   15  H   UNL     1     -10.556  17.743  66.874  1.00  0.00     0.000 HD 
HETATM   16  C   UNL     1     -10.400  13.081  66.379  1.00  0.00    -0.287 A  
ENDBRANCH   6   9
ENDBRANCH   2   6
TORSDOF 2
ENDMDL
MODEL      198
REMARK 921   NORMALIZED FREE ENERGY PREDICTED BY IDOCK:   -2.52 KCAL/MOL
REMARK 922        TOTAL FREE ENERGY PREDICTED BY IDOCK:   -3.01 KCAL/MOL
REMARK 923 INTER-LIGAND FREE ENERGY PREDICTED BY IDOCK:   -2.83 KCAL/MOL
REMARK 924 INTRA-LIGAND FREE ENERGY PREDICTED BY IDOCK:   -0.18 KCAL/MOL
REMARK 927      BINDING AFFINITY PREDICTED BY RF-SCORE:    0.00 PKD
ROOT
HETATM    1  C   UNL     1      -8.508   8.001  71.537  1.00  0.00    -0.147 C  
HETATM    2  C   UNL     1      -9.612   7.496  70.601  1.00  0.00    -0.171 C  
HETATM    3  N   UNL     1     -10.862   8.214  70.927  1.00  0.00    -0.226 NA 
HETATM    4  H1  UNL     1     -11.597   7.879  70.304  1.00  0.00     0.000 HD 
HETATM    5  H2  UNL     1     -10.753   9.227  70.894  1.00  0.00     0.000 HD 
ENDROOT
BRANCH   2   6
HETATM    6  C   UNL     1      -9.838   5.955  70.693  1.00  0.00    -0.183 C  
HETATM    7  H   UNL     1      -9.030   4.428  71.652  1.00  0.00     0.000 HD 
HETATM    8  O   UNL     1      -8.892   5.366  71.596  1.00  0.00    -0.133 OA 
BRANCH   6   9
HETATM    9  C   UNL     1      -9.783   5.260  69.346  1.00  0.00    -0.241 A  
HETATM   10  C   UNL     1     -10.525   5.728  68.247  1.00  0.00    -0.281 A  
HETATM   11  C   UNL     1     -10.487   5.046  67.035  1.00  0.00    -0.148 A  
HETATM   12  C   UNL     1      -9.712   3.903  66.885  1.00  0.00    -0.189 A  
HETATM   13  O   UNL     1     -11.214   5.469  65.962  1.00  0.00    -0.771 OA 
HETATM   14  C   UNL     1      -8.972   3.427  67.966  1.00  0.00    -0.180 A  
HETATM   15  H   UNL     1     -11.188   5.003  65.135  1.00  0.00     0.000 HD 
HETATM   16  C   UNL     1      -9.009   4.099  69.190  1.00  0.00    -0.164 A  
ENDBRANCH   6   9
ENDBRANCH   2   6
TORSDOF 2
ENDMDL
MODEL      199
REMARK 921   NORMALIZED FREE ENERGY PREDICTED BY IDOCK:   -2.50 KCAL/MOL
REMARK 922        TOTAL FREE ENERGY PREDICTED BY IDOCK:   -3.00 KCAL/MOL
REMARK 923 INTER-LIGAND FREE ENERGY PREDICTED BY IDOCK:   -2.86 KCAL/MOL
REMARK 924 INTRA-LIGAND FREE ENERGY PREDICTED BY IDOCK:   -0.14 KCAL/MOL
REMARK 927      BINDING AFFINITY PREDICTED BY RF-SCORE:    0.00 PKD
ROOT
HETATM    1  C   UNL     1     -10.307   6.099  68.346  1.00  0.00    -0.240 C  
HETATM    2  C   UNL     1     -10.836   6.756  69.624  1.00  0.00    -0.271 C  
HETATM    3  N   UNL     1     -11.100   8.183  69.340  1.00  0.00    -0.438 NA 
HETATM    4  H1  UNL     1     -11.453   8.620  70.191  1.00  0.00     0.000 HD 
HETATM    5  H2  UNL     1     -11.724   8.315  68.544  1.00  0.00     0.000 HD 
ENDROOT
BRANCH   2   6
HETATM    6  C   UNL     1      -9.860   6.622  70.834  1.00  0.00    -0.183 C  
HETATM    7  H   UNL     1      -7.911   6.448  71.108  1.00  0.00     0.000 HD 
HETATM    8  O   UNL     1      -8.505   6.530  70.372  1.00  0.00    -0.128 OA 
BRANCH   6   9
HETATM    9  C   UNL     1     -10.188   5.452  71.742  1.00  0.00    -0.263 A  
HETATM   10  C   UNL     1      -9.904   4.128  71.365  1.00  0.00    -0.254 A  
HETATM   11  C   UNL     1     -10.253   3.072  72.201  1.00  0.00    -0.075 A  
HETATM   12  C   UNL     1     -10.876   3.305  73.420  1.00  0.00    -0.307 A  
HETATM   13  O   UNL     1     -10.007   1.778  71.847  1.00  0.00    -0.136 OA 
HETATM   14  C   UNL     1     -11.164   4.612  73.807  1.00  0.00    -0.255 A  
HETATM   15  H   UNL     1     -10.246   1.058  72.418  1.00  0.00     0.000 HD 
HETATM   16  C   UNL     1     -10.826   5.680  72.972  1.00  0.00    -0.308 A  
ENDBRANCH   6   9
ENDBRANCH   2   6
TORSDOF 2
ENDMDL
MODEL      200
REMARK 921   NORMALIZED FREE ENERGY PREDICTED BY IDOCK:   -2.49 KCAL/MOL
REMARK 922        TOTAL FREE ENERGY PREDICTED BY IDOCK:   -2.98 KCAL/MOL
REMARK 923 INTER-LIGAND FREE ENERGY PREDICTED BY IDOCK:   -2.83 KCAL/MOL
REMARK 924 INTRA-LIGAND FREE ENERGY PREDICTED BY IDOCK:   -0.15 KCAL/MOL
REMARK 927      BINDING AFFINITY PREDICTED BY RF-SCORE:    0.00 PKD
ROOT
HETATM    1  C   UNL     1     -10.269   6.423  72.291  1.00  0.00    -0.205 C  
HETATM    2  C   UNL     1     -10.379   5.093  71.538  1.00  0.00    -0.208 C  
HETATM    3  N   UNL     1     -10.323   3.994  72.525  1.00  0.00    -0.171 NA 
HETATM    4  H1  UNL     1     -10.397   3.108  72.024  1.00  0.00     0.000 HD 
HETATM    5  H2  UNL     1     -11.026   4.089  73.258  1.00  0.00     0.000 HD 
ENDROOT
BRANCH   2   6
HETATM    6  C   UNL     1      -9.268   4.903  70.460  1.00  0.00    -0.142 C  
HETATM    7  H   UNL     1      -7.511   5.703  70.035  1.00  0.00     0.000 HD 
HETATM    8  O   UNL     1      -8.188   5.819  70.692  1.00  0.00    -0.114 OA 
BRANCH   6   9
HETATM    9  C   UNL     1      -9.781   5.042  69.039  1.00  0.00    -0.238 A  
HETATM   10  C   UNL     1      -9.551   4.046  68.075  1.00  0.00    -0.195 A  
HETATM   11  C   UNL     1      -9.998   4.220  66.769  1.00  0.00    -0.160 A  
HETATM   12  C   UNL     1     -10.685   5.369  66.398  1.00  0.00    -0.284 A  
HETATM   13  O   UNL     1      -9.768   3.277  65.811  1.00  0.00    -0.367 OA 
HETATM   14  C   UNL     1     -10.920   6.365  67.344  1.00  0.00    -0.463 A  
HETATM   15  H   UNL     1     -10.074   3.396  64.920  1.00  0.00     0.000 HD 
HETATM   16  C   UNL     1     -10.468   6.205  68.656  1.00  0.00    -0.285 A  
ENDBRANCH   6   9
ENDBRANCH   2   6
TORSDOF 2
ENDMDL
MODEL      201
REMARK 921   NORMALIZED FREE ENERGY PREDICTED BY IDOCK:   -2.48 KCAL/MOL
REMARK 922        TOTAL FREE ENERGY PREDICTED BY IDOCK:   -2.98 KCAL/MOL
REMARK 923 INTER-LIGAND FREE ENERGY PREDICTED BY IDOCK:   -2.94 KCAL/MOL
REMARK 924 INTRA-LIGAND FREE ENERGY PREDICTED BY IDOCK:   -0.03 KCAL/MOL
REMARK 927      BINDING AFFINITY PREDICTED BY RF-SCORE:    0.00 PKD
ROOT
HETATM    1  C   UNL     1      -7.550   9.592  69.894  1.00  0.00    -0.123 C  
HETATM    2  C   UNL     1      -8.880   9.218  70.557  1.00  0.00    -0.241 C  
HETATM    3  N   UNL     1      -9.019   7.747  70.523  1.00  0.00    -0.149 NA 
HETATM    4  H1  UNL     1      -9.904   7.498  70.965  1.00  0.00     0.000 HD 
HETATM    5  H2  UNL     1      -8.224   7.267  70.942  1.00  0.00     0.000 HD 
ENDROOT
BRANCH   2   6
HETATM    6  C   UNL     1     -10.114   9.891  69.881  1.00  0.00    -0.257 C  
HETATM    7  H   UNL     1     -12.050   9.530  69.720  1.00  0.00     0.000 HD 
HETATM    8  O   UNL     1     -11.299   9.121  70.131  1.00  0.00    -0.231 OA 
BRANCH   6   9
HETATM    9  C   UNL     1      -9.935  10.113  68.391  1.00  0.00    -0.173 A  
HETATM   10  C   UNL     1      -9.706  11.395  67.863  1.00  0.00    -0.186 A  
HETATM   11  C   UNL     1      -9.586  11.573  66.488  1.00  0.00    -0.205 A  
HETATM   12  C   UNL     1      -9.680  10.494  65.618  1.00  0.00    -0.289 A  
HETATM   13  O   UNL     1      -9.384  12.810  65.950  1.00  0.00    -0.442 OA 
HETATM   14  C   UNL     1      -9.908   9.218  66.129  1.00  0.00    -0.363 A  
HETATM   15  H   UNL     1      -9.303  12.931  65.012  1.00  0.00     0.000 HD 
HETATM   16  C   UNL     1     -10.038   9.027  67.506  1.00  0.00    -0.285 A  
ENDBRANCH   6   9
ENDBRANCH   2   6
TORSDOF 2
ENDMDL
MODEL      202
REMARK 921   NORMALIZED FREE ENERGY PREDICTED BY IDOCK:   -2.48 KCAL/MOL
REMARK 922        TOTAL FREE ENERGY PREDICTED BY IDOCK:   -2.97 KCAL/MOL
REMARK 923 INTER-LIGAND FREE ENERGY PREDICTED BY IDOCK:   -2.77 KCAL/MOL
REMARK 924 INTRA-LIGAND FREE ENERGY PREDICTED BY IDOCK:   -0.20 KCAL/MOL
REMARK 927      BINDING AFFINITY PREDICTED BY RF-SCORE:    0.00 PKD
ROOT
HETATM    1  C   UNL     1     -11.185   5.959  72.602  1.00  0.00    -0.335 C  
HETATM    2  C   UNL     1     -10.485   5.455  71.336  1.00  0.00    -0.226 C  
HETATM    3  N   UNL     1      -9.860   4.150  71.638  1.00  0.00    -0.179 NA 
HETATM    4  H1  UNL     1      -9.394   3.814  70.795  1.00  0.00     0.000 HD 
HETATM    5  H2  UNL     1     -10.524   3.474  72.014  1.00  0.00     0.000 HD 
ENDROOT
BRANCH   2   6
HETATM    6  C   UNL     1      -9.415   6.449  70.789  1.00  0.00    -0.169 C  
HETATM    7  H   UNL     1      -8.548   8.119  71.392  1.00  0.00     0.000 HD 
HETATM    8  O   UNL     1      -9.200   7.515  71.725  1.00  0.00    -0.139 OA 
BRANCH   6   9
HETATM    9  C   UNL     1      -9.762   7.011  69.423  1.00  0.00    -0.159 A  
HETATM   10  C   UNL     1      -9.277   8.260  68.998  1.00  0.00    -0.147 A  
HETATM   11  C   UNL     1      -9.646   8.768  67.756  1.00  0.00    -0.148 A  
HETATM   12  C   UNL     1     -10.485   8.051  66.914  1.00  0.00    -0.387 A  
HETATM   13  O   UNL     1      -9.206   9.987  67.332  1.00  0.00    -0.137 OA 
HETATM   14  C   UNL     1     -10.973   6.811  67.322  1.00  0.00    -0.433 A  
HETATM   15  H   UNL     1      -9.458  10.333  66.484  1.00  0.00     0.000 HD 
HETATM   16  C   UNL     1     -10.617   6.295  68.570  1.00  0.00    -0.315 A  
ENDBRANCH   6   9
ENDBRANCH   2   6
TORSDOF 2
ENDMDL
MODEL      203
REMARK 921   NORMALIZED FREE ENERGY PREDICTED BY IDOCK:   -2.48 KCAL/MOL
REMARK 922        TOTAL FREE ENERGY PREDICTED BY IDOCK:   -2.97 KCAL/MOL
REMARK 923 INTER-LIGAND FREE ENERGY PREDICTED BY IDOCK:   -2.77 KCAL/MOL
REMARK 924 INTRA-LIGAND FREE ENERGY PREDICTED BY IDOCK:   -0.20 KCAL/MOL
REMARK 927      BINDING AFFINITY PREDICTED BY RF-SCORE:    0.00 PKD
ROOT
HETATM    1  C   UNL     1     -10.673   3.298  63.556  1.00  0.00    -0.252 C  
HETATM    2  C   UNL     1      -9.623   4.206  64.203  1.00  0.00    -0.148 C  
HETATM    3  N   UNL     1      -8.553   4.459  63.215  1.00  0.00    -0.108 NA 
HETATM    4  H1  UNL     1      -7.854   5.065  63.646  1.00  0.00     0.000 HD 
HETATM    5  H2  UNL     1      -8.911   4.836  62.337  1.00  0.00     0.000 HD 
ENDROOT
BRANCH   2   6
HETATM    6  C   UNL     1      -9.016   3.610  65.511  1.00  0.00    -0.138 C  
HETATM    7  H   UNL     1      -8.909   1.839  66.380  1.00  0.00     0.000 HD 
HETATM    8  O   UNL     1      -9.279   2.202  65.584  1.00  0.00    -0.108 OA 
BRANCH   6   9
HETATM    9  C   UNL     1      -9.504   4.304  66.769  1.00  0.00    -0.202 A  
HETATM   10  C   UNL     1     -10.207   5.519  66.711  1.00  0.00    -0.277 A  
HETATM   11  C   UNL     1     -10.606   6.153  67.884  1.00  0.00    -0.263 A  
HETATM   12  C   UNL     1     -10.329   5.594  69.125  1.00  0.00    -0.328 A  
HETATM   13  O   UNL     1     -11.270   7.343  67.854  1.00  0.00    -0.482 OA 
HETATM   14  C   UNL     1      -9.632   4.389  69.197  1.00  0.00    -0.252 A  
HETATM   15  H   UNL     1     -11.543   7.775  68.655  1.00  0.00     0.000 HD 
HETATM   16  C   UNL     1      -9.219   3.749  68.027  1.00  0.00    -0.216 A  
ENDBRANCH   6   9
ENDBRANCH   2   6
TORSDOF 2
ENDMDL
MODEL      204
REMARK 921   NORMALIZED FREE ENERGY PREDICTED BY IDOCK:   -2.47 KCAL/MOL
REMARK 922        TOTAL FREE ENERGY PREDICTED BY IDOCK:   -2.96 KCAL/MOL
REMARK 923 INTER-LIGAND FREE ENERGY PREDICTED BY IDOCK:   -2.76 KCAL/MOL
REMARK 924 INTRA-LIGAND FREE ENERGY PREDICTED BY IDOCK:   -0.20 KCAL/MOL
REMARK 927      BINDING AFFINITY PREDICTED BY RF-SCORE:    0.00 PKD
ROOT
HETATM    1  C   UNL     1      -9.623   8.710  71.172  1.00  0.00    -0.281 C  
HETATM    2  C   UNL     1     -10.429   7.636  70.434  1.00  0.00    -0.220 C  
HETATM    3  N   UNL     1     -11.695   8.240  69.969  1.00  0.00    -0.400 NA 
HETATM    4  H1  UNL     1     -12.231   7.525  69.478  1.00  0.00     0.000 HD 
HETATM    5  H2  UNL     1     -11.547   9.076  69.405  1.00  0.00     0.000 HD 
ENDROOT
BRANCH   2   6
HETATM    6  C   UNL     1     -10.724   6.379  71.310  1.00  0.00    -0.241 C  
HETATM    7  H   UNL     1     -10.393   5.802  73.171  1.00  0.00     0.000 HD 
HETATM    8  O   UNL     1     -10.213   6.566  72.638  1.00  0.00    -0.180 OA 
BRANCH   6   9
HETATM    9  C   UNL     1     -10.184   5.093  70.714  1.00  0.00    -0.308 A  
HETATM   10  C   UNL     1     -10.002   3.940  71.498  1.00  0.00    -0.209 A  
HETATM   11  C   UNL     1      -9.465   2.787  70.933  1.00  0.00    -0.154 A  
HETATM   12  C   UNL     1      -9.112   2.750  69.590  1.00  0.00    -0.192 A  
HETATM   13  O   UNL     1      -9.260   1.664  71.678  1.00  0.00    -0.076 OA 
HETATM   14  C   UNL     1      -9.287   3.886  68.801  1.00  0.00    -0.231 A  
HETATM   15  H   UNL     1      -8.894   0.877  71.292  1.00  0.00     0.000 HD 
HETATM   16  C   UNL     1      -9.816   5.051  69.360  1.00  0.00    -0.273 A  
ENDBRANCH   6   9
ENDBRANCH   2   6
TORSDOF 2
ENDMDL
MODEL      205
REMARK 921   NORMALIZED FREE ENERGY PREDICTED BY IDOCK:   -2.45 KCAL/MOL
REMARK 922        TOTAL FREE ENERGY PREDICTED BY IDOCK:   -2.94 KCAL/MOL
REMARK 923 INTER-LIGAND FREE ENERGY PREDICTED BY IDOCK:   -3.10 KCAL/MOL
REMARK 924 INTRA-LIGAND FREE ENERGY PREDICTED BY IDOCK:    0.15 KCAL/MOL
REMARK 927      BINDING AFFINITY PREDICTED BY RF-SCORE:    0.00 PKD
ROOT
HETATM    1  C   UNL     1      -9.204  19.973  66.255  1.00  0.00    -0.426 C  
HETATM    2  C   UNL     1      -8.048  19.108  66.766  1.00  0.00    -0.273 C  
HETATM    3  N   UNL     1      -8.016  17.859  65.975  1.00  0.00    -0.523 NA 
HETATM    4  H1  UNL     1      -7.246  17.283  66.315  1.00  0.00     0.000 HD 
HETATM    5  H2  UNL     1      -7.963  18.032  64.971  1.00  0.00     0.000 HD 
ENDROOT
BRANCH   2   6
HETATM    6  C   UNL     1      -8.153  18.777  68.287  1.00  0.00    -0.324 C  
HETATM    7  H   UNL     1      -7.286  19.371  69.960  1.00  0.00     0.000 HD 
HETATM    8  O   UNL     1      -7.222  19.572  69.034  1.00  0.00    -0.348 OA 
BRANCH   6   9
HETATM    9  C   UNL     1      -7.955  17.305  68.595  1.00  0.00    -0.267 A  
HETATM   10  C   UNL     1      -6.677  16.769  68.831  1.00  0.00    -0.195 A  
HETATM   11  C   UNL     1      -6.522  15.407  69.070  1.00  0.00    -0.113 A  
HETATM   12  C   UNL     1      -7.621  14.558  69.092  1.00  0.00    -0.102 A  
HETATM   13  O   UNL     1      -5.290  14.862  69.281  1.00  0.00    -0.090 OA 
HETATM   14  C   UNL     1      -8.894  15.076  68.859  1.00  0.00    -0.201 A  
HETATM   15  H   UNL     1      -5.185  13.932  69.444  1.00  0.00     0.000 HD 
HETATM   16  C   UNL     1      -9.061  16.439  68.609  1.00  0.00    -0.233 A  
ENDBRANCH   6   9
ENDBRANCH   2   6
TORSDOF 2
ENDMDL
MODEL      206
REMARK 921   NORMALIZED FREE ENERGY PREDICTED BY IDOCK:   -2.42 KCAL/MOL
REMARK 922        TOTAL FREE ENERGY PREDICTED BY IDOCK:   -2.91 KCAL/MOL
REMARK 923 INTER-LIGAND FREE ENERGY PREDICTED BY IDOCK:   -3.09 KCAL/MOL
REMARK 924 INTRA-LIGAND FREE ENERGY PREDICTED BY IDOCK:    0.18 KCAL/MOL
REMARK 927      BINDING AFFINITY PREDICTED BY RF-SCORE:    0.00 PKD
ROOT
HETATM    1  C   UNL     1     -14.407  14.325  70.746  1.00  0.00     0.764 C  
HETATM    2  C   UNL     1     -13.480  14.373  71.965  1.00  0.00    -0.402 C  
HETATM    3  N   UNL     1     -13.816  15.575  72.758  1.00  0.00    -0.536 NA 
HETATM    4  H1  UNL     1     -13.199  15.606  73.570  1.00  0.00     0.000 HD 
HETATM    5  H2  UNL     1     -14.802  15.613  73.013  1.00  0.00     0.000 HD 
ENDROOT
BRANCH   2   6
HETATM    6  C   UNL     1     -11.967  14.385  71.586  1.00  0.00    -0.178 C  
HETATM    7  H   UNL     1     -10.300  15.160  72.312  1.00  0.00     0.000 HD 
HETATM    8  O   UNL     1     -11.221  15.153  72.542  1.00  0.00    -0.334 OA 
BRANCH   6   9
HETATM    9  C   UNL     1     -11.704  14.894  70.182  1.00  0.00    -0.340 A  
HETATM   10  C   UNL     1     -11.864  14.064  69.059  1.00  0.00    -0.391 A  
HETATM   11  C   UNL     1     -11.576  14.546  67.785  1.00  0.00    -0.365 A  
HETATM   12  C   UNL     1     -11.138  15.851  67.600  1.00  0.00    -0.266 A  
HETATM   13  O   UNL     1     -11.704  13.754  66.683  1.00  0.00    -0.353 OA 
HETATM   14  C   UNL     1     -10.974  16.685  68.705  1.00  0.00    -0.328 A  
HETATM   15  H   UNL     1     -11.507  14.083  65.815  1.00  0.00     0.000 HD 
HETATM   16  C   UNL     1     -11.252  16.209  69.988  1.00  0.00    -0.359 A  
ENDBRANCH   6   9
ENDBRANCH   2   6
TORSDOF 2
ENDMDL
MODEL      207
REMARK 921   NORMALIZED FREE ENERGY PREDICTED BY IDOCK:   -2.41 KCAL/MOL
REMARK 922        TOTAL FREE ENERGY PREDICTED BY IDOCK:   -2.90 KCAL/MOL
REMARK 923 INTER-LIGAND FREE ENERGY PREDICTED BY IDOCK:   -2.75 KCAL/MOL
REMARK 924 INTRA-LIGAND FREE ENERGY PREDICTED BY IDOCK:   -0.15 KCAL/MOL
REMARK 927      BINDING AFFINITY PREDICTED BY RF-SCORE:    0.00 PKD
ROOT
HETATM    1  C   UNL     1      -9.633   8.102  66.229  1.00  0.00    -0.248 C  
HETATM    2  C   UNL     1      -9.402   9.426  65.494  1.00  0.00    -0.251 C  
HETATM    3  N   UNL     1      -8.474   9.179  64.370  1.00  0.00    -0.179 NA 
HETATM    4  H1  UNL     1      -8.321  10.061  63.881  1.00  0.00     0.000 HD 
HETATM    5  H2  UNL     1      -8.799   8.438  63.750  1.00  0.00     0.000 HD 
ENDROOT
BRANCH   2   6
HETATM    6  C   UNL     1      -8.839  10.551  66.417  1.00  0.00    -0.153 C  
HETATM    7  H   UNL     1      -7.296  10.792  67.628  1.00  0.00     0.000 HD 
HETATM    8  O   UNL     1      -7.639  10.108  67.067  1.00  0.00    -0.092 OA 
BRANCH   6   9
HETATM    9  C   UNL     1      -9.842  11.043  67.444  1.00  0.00    -0.197 A  
HETATM   10  C   UNL     1      -9.831  10.569  68.767  1.00  0.00    -0.191 A  
HETATM   11  C   UNL     1     -10.790  11.008  69.675  1.00  0.00    -0.183 A  
HETATM   12  C   UNL     1     -11.763  11.924  69.297  1.00  0.00    -0.389 A  
HETATM   13  O   UNL     1     -10.812  10.547  70.958  1.00  0.00    -0.190 OA 
HETATM   14  C   UNL     1     -11.786  12.401  67.988  1.00  0.00    -0.376 A  
HETATM   15  H   UNL     1     -11.466  10.847  71.578  1.00  0.00     0.000 HD 
HETATM   16  C   UNL     1     -10.834  11.962  67.065  1.00  0.00    -0.303 A  
ENDBRANCH   6   9
ENDBRANCH   2   6
TORSDOF 2
ENDMDL
MODEL      208
REMARK 921   NORMALIZED FREE ENERGY PREDICTED BY IDOCK:   -2.39 KCAL/MOL
REMARK 922        TOTAL FREE ENERGY PREDICTED BY IDOCK:   -2.87 KCAL/MOL
REMARK 923 INTER-LIGAND FREE ENERGY PREDICTED BY IDOCK:   -2.77 KCAL/MOL
REMARK 924 INTRA-LIGAND FREE ENERGY PREDICTED BY IDOCK:   -0.10 KCAL/MOL
REMARK 927      BINDING AFFINITY PREDICTED BY RF-SCORE:    0.00 PKD
ROOT
HETATM    1  C   UNL     1      -8.704   2.542  69.933  1.00  0.00    -0.122 C  
HETATM    2  C   UNL     1      -9.190   3.748  70.743  1.00  0.00    -0.131 C  
HETATM    3  N   UNL     1      -9.887   3.250  71.947  1.00  0.00    -0.169 NA 
HETATM    4  H1  UNL     1     -10.210   4.053  72.486  1.00  0.00     0.000 HD 
HETATM    5  H2  UNL     1      -9.313   2.613  72.498  1.00  0.00     0.000 HD 
ENDROOT
BRANCH   2   6
HETATM    6  C   UNL     1     -10.128   4.696  69.932  1.00  0.00    -0.187 C  
HETATM    7  H   UNL     1     -10.176   5.481  68.120  1.00  0.00     0.000 HD 
HETATM    8  O   UNL     1      -9.605   4.904  68.613  1.00  0.00    -0.136 OA 
BRANCH   6   9
HETATM    9  C   UNL     1     -10.374   6.026  70.618  1.00  0.00    -0.280 A  
HETATM   10  C   UNL     1      -9.413   6.603  71.467  1.00  0.00    -0.159 A  
HETATM   11  C   UNL     1      -9.684   7.804  72.115  1.00  0.00    -0.185 A  
HETATM   12  C   UNL     1     -10.895   8.458  71.928  1.00  0.00    -0.372 A  
HETATM   13  O   UNL     1      -8.776   8.372  72.960  1.00  0.00    -0.267 OA 
HETATM   14  C   UNL     1     -11.856   7.898  71.089  1.00  0.00    -0.307 A  
HETATM   15  H   UNL     1      -8.961   9.192  73.401  1.00  0.00     0.000 HD 
HETATM   16  C   UNL     1     -11.600   6.688  70.440  1.00  0.00    -0.457 A  
ENDBRANCH   6   9
ENDBRANCH   2   6
TORSDOF 2
ENDMDL
MODEL      209
REMARK 921   NORMALIZED FREE ENERGY PREDICTED BY IDOCK:   -2.39 KCAL/MOL
REMARK 922        TOTAL FREE ENERGY PREDICTED BY IDOCK:   -2.87 KCAL/MOL
REMARK 923 INTER-LIGAND FREE ENERGY PREDICTED BY IDOCK:   -2.67 KCAL/MOL
REMARK 924 INTRA-LIGAND FREE ENERGY PREDICTED BY IDOCK:   -0.20 KCAL/MOL
REMARK 927      BINDING AFFINITY PREDICTED BY RF-SCORE:    0.00 PKD
ROOT
HETATM    1  C   UNL     1      -8.560   4.549  65.882  1.00  0.00    -0.115 C  
HETATM    2  C   UNL     1      -7.917   5.888  66.256  1.00  0.00    -0.102 C  
HETATM    3  N   UNL     1      -6.499   5.646  66.595  1.00  0.00    -0.049 NA 
HETATM    4  H1  UNL     1      -6.071   6.538  66.844  1.00  0.00     0.000 HD 
HETATM    5  H2  UNL     1      -5.995   5.164  65.851  1.00  0.00     0.000 HD 
ENDROOT
BRANCH   2   6
HETATM    6  C   UNL     1      -8.637   6.605  67.441  1.00  0.00    -0.119 C  
HETATM    7  H   UNL     1     -10.118   6.209  68.687  1.00  0.00     0.000 HD 
HETATM    8  O   UNL     1      -9.680   5.773  67.966  1.00  0.00    -0.116 OA 
BRANCH   6   9
HETATM    9  C   UNL     1      -9.188   7.969  67.070  1.00  0.00    -0.181 A  
HETATM   10  C   UNL     1     -10.201   8.582  67.827  1.00  0.00    -0.283 A  
HETATM   11  C   UNL     1     -10.715   9.816  67.438  1.00  0.00    -0.249 A  
HETATM   12  C   UNL     1     -10.234  10.465  66.309  1.00  0.00    -0.286 A  
HETATM   13  O   UNL     1     -11.712  10.420  68.145  1.00  0.00    -0.714 OA 
HETATM   14  C   UNL     1      -9.230   9.868  65.549  1.00  0.00    -0.255 A  
HETATM   15  H   UNL     1     -12.063  11.262  67.880  1.00  0.00     0.000 HD 
HETATM   16  C   UNL     1      -8.712   8.626  65.924  1.00  0.00    -0.201 A  
ENDBRANCH   6   9
ENDBRANCH   2   6
TORSDOF 2
ENDMDL
MODEL      210
REMARK 921   NORMALIZED FREE ENERGY PREDICTED BY IDOCK:   -2.37 KCAL/MOL
REMARK 922        TOTAL FREE ENERGY PREDICTED BY IDOCK:   -2.85 KCAL/MOL
REMARK 923 INTER-LIGAND FREE ENERGY PREDICTED BY IDOCK:   -2.86 KCAL/MOL
REMARK 924 INTRA-LIGAND FREE ENERGY PREDICTED BY IDOCK:    0.01 KCAL/MOL
REMARK 927      BINDING AFFINITY PREDICTED BY RF-SCORE:    0.00 PKD
ROOT
HETATM    1  C   UNL     1      -6.744   6.898  72.789  1.00  0.00    -0.066 C  
HETATM    2  C   UNL     1      -6.656   7.629  71.446  1.00  0.00    -0.041 C  
HETATM    3  N   UNL     1      -6.601   9.082  71.709  1.00  0.00    -0.222 NA 
HETATM    4  H1  UNL     1      -6.541   9.569  70.814  1.00  0.00     0.000 HD 
HETATM    5  H2  UNL     1      -5.846   9.338  72.344  1.00  0.00     0.000 HD 
ENDROOT
BRANCH   2   6
HETATM    6  C   UNL     1      -7.843   7.301  70.488  1.00  0.00    -0.099 C  
HETATM    7  H   UNL     1      -8.170   7.289  68.540  1.00  0.00     0.000 HD 
HETATM    8  O   UNL     1      -7.447   7.489  69.122  1.00  0.00    -0.093 OA 
BRANCH   6   9
HETATM    9  C   UNL     1      -9.095   8.103  70.789  1.00  0.00    -0.159 A  
HETATM   10  C   UNL     1      -9.928   7.784  71.875  1.00  0.00    -0.222 A  
HETATM   11  C   UNL     1     -11.092   8.513  72.102  1.00  0.00    -0.366 A  
HETATM   12  C   UNL     1     -11.444   9.569  71.272  1.00  0.00    -0.447 A  
HETATM   13  O   UNL     1     -11.927   8.208  73.137  1.00  0.00    -0.600 OA 
HETATM   14  C   UNL     1     -10.628   9.896  70.191  1.00  0.00    -0.350 A  
HETATM   15  H   UNL     1     -12.720   8.706  73.291  1.00  0.00     0.000 HD 
HETATM   16  C   UNL     1      -9.462   9.167  69.948  1.00  0.00    -0.199 A  
ENDBRANCH   6   9
ENDBRANCH   2   6
TORSDOF 2
ENDMDL
MODEL      211
REMARK 921   NORMALIZED FREE ENERGY PREDICTED BY IDOCK:   -2.36 KCAL/MOL
REMARK 922        TOTAL FREE ENERGY PREDICTED BY IDOCK:   -2.83 KCAL/MOL
REMARK 923 INTER-LIGAND FREE ENERGY PREDICTED BY IDOCK:   -2.66 KCAL/MOL
REMARK 924 INTRA-LIGAND FREE ENERGY PREDICTED BY IDOCK:   -0.17 KCAL/MOL
REMARK 927      BINDING AFFINITY PREDICTED BY RF-SCORE:    0.00 PKD
ROOT
HETATM    1  C   UNL     1     -10.364   8.537  67.391  1.00  0.00    -0.356 C  
HETATM    2  C   UNL     1     -10.575   7.082  66.962  1.00  0.00    -0.341 C  
HETATM    3  N   UNL     1     -11.640   6.499  67.804  1.00  0.00    -0.565 NA 
HETATM    4  H1  UNL     1     -11.782   5.530  67.518  1.00  0.00     0.000 HD 
HETATM    5  H2  UNL     1     -12.502   7.043  67.781  1.00  0.00     0.000 HD 
ENDROOT
BRANCH   2   6
HETATM    6  C   UNL     1      -9.280   6.218  67.059  1.00  0.00    -0.124 C  
HETATM    7  H   UNL     1      -7.340   6.536  67.264  1.00  0.00     0.000 HD 
HETATM    8  O   UNL     1      -8.129   7.062  67.204  1.00  0.00    -0.115 OA 
BRANCH   6   9
HETATM    9  C   UNL     1      -9.098   5.276  65.884  1.00  0.00    -0.159 A  
HETATM   10  C   UNL     1      -9.714   4.013  65.853  1.00  0.00    -0.193 A  
HETATM   11  C   UNL     1      -9.496   3.154  64.780  1.00  0.00    -0.150 A  
HETATM   12  C   UNL     1      -8.679   3.530  63.722  1.00  0.00    -0.094 A  
HETATM   13  O   UNL     1     -10.066   1.916  64.738  1.00  0.00    -0.329 OA 
HETATM   14  C   UNL     1      -8.061   4.779  63.740  1.00  0.00    -0.105 A  
HETATM   15  H   UNL     1      -9.917   1.331  64.005  1.00  0.00     0.000 HD 
HETATM   16  C   UNL     1      -8.266   5.646  64.815  1.00  0.00    -0.134 A  
ENDBRANCH   6   9
ENDBRANCH   2   6
TORSDOF 2
ENDMDL
MODEL      212
REMARK 921   NORMALIZED FREE ENERGY PREDICTED BY IDOCK:   -2.34 KCAL/MOL
REMARK 922        TOTAL FREE ENERGY PREDICTED BY IDOCK:   -2.82 KCAL/MOL
REMARK 923 INTER-LIGAND FREE ENERGY PREDICTED BY IDOCK:   -3.03 KCAL/MOL
REMARK 924 INTRA-LIGAND FREE ENERGY PREDICTED BY IDOCK:    0.21 KCAL/MOL
REMARK 927      BINDING AFFINITY PREDICTED BY RF-SCORE:    0.00 PKD
ROOT
HETATM    1  C   UNL     1     -10.147  10.729  68.537  1.00  0.00    -0.187 C  
HETATM    2  C   UNL     1     -10.037   9.361  69.217  1.00  0.00    -0.196 C  
HETATM    3  N   UNL     1      -9.997   8.321  68.168  1.00  0.00    -0.184 NA 
HETATM    4  H1  UNL     1      -9.924   7.410  68.621  1.00  0.00     0.000 HD 
HETATM    5  H2  UNL     1      -9.257   8.480  67.485  1.00  0.00     0.000 HD 
ENDROOT
BRANCH   2   6
HETATM    6  C   UNL     1     -11.203   9.075  70.213  1.00  0.00    -0.205 C  
HETATM    7  H   UNL     1     -12.246  10.089  71.551  1.00  0.00     0.000 HD 
HETATM    8  O   UNL     1     -11.536  10.263  70.945  1.00  0.00    -0.338 OA 
BRANCH   6   9
HETATM    9  C   UNL     1     -10.909   7.933  71.169  1.00  0.00    -0.257 A  
HETATM   10  C   UNL     1     -10.480   6.678  70.703  1.00  0.00    -0.253 A  
HETATM   11  C   UNL     1     -10.258   5.638  71.600  1.00  0.00    -0.208 A  
HETATM   12  C   UNL     1     -10.443   5.822  72.964  1.00  0.00    -0.248 A  
HETATM   13  O   UNL     1      -9.862   4.406  71.170  1.00  0.00    -0.174 OA 
HETATM   14  C   UNL     1     -10.868   7.061  73.440  1.00  0.00    -0.332 A  
HETATM   15  H   UNL     1      -9.710   3.696  71.783  1.00  0.00     0.000 HD 
HETATM   16  C   UNL     1     -11.103   8.110  72.548  1.00  0.00    -0.446 A  
ENDBRANCH   6   9
ENDBRANCH   2   6
TORSDOF 2
ENDMDL
MODEL      213
REMARK 921   NORMALIZED FREE ENERGY PREDICTED BY IDOCK:   -2.34 KCAL/MOL
REMARK 922        TOTAL FREE ENERGY PREDICTED BY IDOCK:   -2.82 KCAL/MOL
REMARK 923 INTER-LIGAND FREE ENERGY PREDICTED BY IDOCK:   -2.77 KCAL/MOL
REMARK 924 INTRA-LIGAND FREE ENERGY PREDICTED BY IDOCK:   -0.04 KCAL/MOL
REMARK 927      BINDING AFFINITY PREDICTED BY RF-SCORE:    0.00 PKD
ROOT
HETATM    1  C   UNL     1      -7.437   6.196  72.618  1.00  0.00    -0.094 C  
HETATM    2  C   UNL     1      -8.762   6.957  72.722  1.00  0.00    -0.120 C  
HETATM    3  N   UNL     1      -9.011   7.265  74.146  1.00  0.00    -0.218 NA 
HETATM    4  H1  UNL     1      -9.894   7.772  74.216  1.00  0.00     0.000 HD 
HETATM    5  H2  UNL     1      -8.237   7.766  74.580  1.00  0.00     0.000 HD 
ENDROOT
BRANCH   2   6
HETATM    6  C   UNL     1      -9.970   6.171  72.124  1.00  0.00    -0.167 C  
HETATM    7  H   UNL     1     -10.379   5.198  70.454  1.00  0.00     0.000 HD 
HETATM    8  O   UNL     1      -9.644   5.676  70.818  1.00  0.00    -0.161 OA 
BRANCH   6   9
HETATM    9  C   UNL     1     -11.249   6.986  72.074  1.00  0.00    -0.288 A  
HETATM   10  C   UNL     1     -11.224   8.384  71.927  1.00  0.00    -0.379 A  
HETATM   11  C   UNL     1     -12.412   9.108  71.926  1.00  0.00    -0.387 A  
HETATM   12  C   UNL     1     -13.637   8.468  72.058  1.00  0.00    -0.427 A  
HETATM   13  O   UNL     1     -12.412  10.467  71.806  1.00  0.00    -0.390 OA 
HETATM   14  C   UNL     1     -13.677   7.083  72.205  1.00  0.00    -0.038 A  
HETATM   15  H   UNL     1     -13.222  10.961  71.805  1.00  0.00     0.000 HD 
HETATM   16  C   UNL     1     -12.491   6.346  72.216  1.00  0.00    -0.107 A  
ENDBRANCH   6   9
ENDBRANCH   2   6
TORSDOF 2
ENDMDL
MODEL      214
REMARK 921   NORMALIZED FREE ENERGY PREDICTED BY IDOCK:   -2.34 KCAL/MOL
REMARK 922        TOTAL FREE ENERGY PREDICTED BY IDOCK:   -2.81 KCAL/MOL
REMARK 923 INTER-LIGAND FREE ENERGY PREDICTED BY IDOCK:   -2.63 KCAL/MOL
REMARK 924 INTRA-LIGAND FREE ENERGY PREDICTED BY IDOCK:   -0.18 KCAL/MOL
REMARK 927      BINDING AFFINITY PREDICTED BY RF-SCORE:    0.00 PKD
ROOT
HETATM    1  C   UNL     1      -8.480   1.802  70.642  1.00  0.00    -0.081 C  
HETATM    2  C   UNL     1      -9.048   3.115  71.189  1.00  0.00    -0.112 C  
HETATM    3  N   UNL     1     -10.039   2.793  72.237  1.00  0.00    -0.168 NA 
HETATM    4  H1  UNL     1     -10.417   3.668  72.601  1.00  0.00     0.000 HD 
HETATM    5  H2  UNL     1      -9.656   2.197  72.969  1.00  0.00     0.000 HD 
ENDROOT
BRANCH   2   6
HETATM    6  C   UNL     1      -9.701   4.008  70.089  1.00  0.00    -0.195 C  
HETATM    7  H   UNL     1      -9.295   4.543  68.230  1.00  0.00     0.000 HD 
HETATM    8  O   UNL     1      -8.897   4.000  68.900  1.00  0.00    -0.092 OA 
BRANCH   6   9
HETATM    9  C   UNL     1      -9.953   5.433  70.544  1.00  0.00    -0.288 A  
HETATM   10  C   UNL     1     -11.242   5.992  70.526  1.00  0.00    -0.363 A  
HETATM   11  C   UNL     1     -11.437   7.315  70.911  1.00  0.00    -0.292 A  
HETATM   12  C   UNL     1     -10.369   8.100  71.328  1.00  0.00    -0.243 A  
HETATM   13  O   UNL     1     -12.675   7.886  70.882  1.00  0.00    -0.518 OA 
HETATM   14  C   UNL     1      -9.085   7.558  71.350  1.00  0.00    -0.145 A  
HETATM   15  H   UNL     1     -12.807   8.788  71.145  1.00  0.00     0.000 HD 
HETATM   16  C   UNL     1      -8.877   6.234  70.958  1.00  0.00    -0.136 A  
ENDBRANCH   6   9
ENDBRANCH   2   6
TORSDOF 2
ENDMDL
MODEL      215
REMARK 921   NORMALIZED FREE ENERGY PREDICTED BY IDOCK:   -2.31 KCAL/MOL
REMARK 922        TOTAL FREE ENERGY PREDICTED BY IDOCK:   -2.78 KCAL/MOL
REMARK 923 INTER-LIGAND FREE ENERGY PREDICTED BY IDOCK:   -3.19 KCAL/MOL
REMARK 924 INTRA-LIGAND FREE ENERGY PREDICTED BY IDOCK:    0.40 KCAL/MOL
REMARK 927      BINDING AFFINITY PREDICTED BY RF-SCORE:    0.00 PKD
ROOT
HETATM    1  C   UNL     1     -13.050   7.109  71.426  1.00  0.00    -0.408 C  
HETATM    2  C   UNL     1     -12.352   8.473  71.396  1.00  0.00    -0.297 C  
HETATM    3  N   UNL     1     -13.317   9.479  70.904  1.00  0.00    -0.589 NA 
HETATM    4  H1  UNL     1     -12.852  10.387  70.885  1.00  0.00     0.000 HD 
HETATM    5  H2  UNL     1     -14.180   9.492  71.446  1.00  0.00     0.000 HD 
ENDROOT
BRANCH   2   6
HETATM    6  C   UNL     1     -11.066   8.486  70.513  1.00  0.00    -0.244 C  
HETATM    7  H   UNL     1      -9.111   8.509  70.804  1.00  0.00     0.000 HD 
HETATM    8  O   UNL     1      -9.894   8.502  71.341  1.00  0.00    -0.189 OA 
BRANCH   6   9
HETATM    9  C   UNL     1     -11.028   9.637  69.526  1.00  0.00    -0.233 A  
HETATM   10  C   UNL     1     -10.933   9.413  68.141  1.00  0.00    -0.102 A  
HETATM   11  C   UNL     1     -10.859  10.490  67.262  1.00  0.00    -0.279 A  
HETATM   12  C   UNL     1     -10.889  11.796  67.732  1.00  0.00    -0.258 A  
HETATM   13  O   UNL     1     -10.746  10.298  65.917  1.00  0.00    -0.071 OA 
HETATM   14  C   UNL     1     -10.982  12.032  69.102  1.00  0.00    -0.231 A  
HETATM   15  H   UNL     1     -10.695  11.032  65.318  1.00  0.00     0.000 HD 
HETATM   16  C   UNL     1     -11.048  10.960  69.995  1.00  0.00    -0.285 A  
ENDBRANCH   6   9
ENDBRANCH   2   6
TORSDOF 2
ENDMDL
MODEL      216
REMARK 921   NORMALIZED FREE ENERGY PREDICTED BY IDOCK:   -2.31 KCAL/MOL
REMARK 922        TOTAL FREE ENERGY PREDICTED BY IDOCK:   -2.78 KCAL/MOL
REMARK 923 INTER-LIGAND FREE ENERGY PREDICTED BY IDOCK:   -2.60 KCAL/MOL
REMARK 924 INTRA-LIGAND FREE ENERGY PREDICTED BY IDOCK:   -0.18 KCAL/MOL
REMARK 927      BINDING AFFINITY PREDICTED BY RF-SCORE:    0.00 PKD
ROOT
HETATM    1  C   UNL     1      -6.880   5.834  73.155  1.00  0.00    -0.079 C  
HETATM    2  C   UNL     1      -8.257   6.502  73.233  1.00  0.00    -0.116 C  
HETATM    3  N   UNL     1      -8.850   6.193  74.552  1.00  0.00    -0.133 NA 
HETATM    4  H1  UNL     1      -9.766   6.638  74.604  1.00  0.00     0.000 HD 
HETATM    5  H2  UNL     1      -8.241   6.457  75.327  1.00  0.00     0.000 HD 
ENDROOT
BRANCH   2   6
HETATM    6  C   UNL     1      -9.223   6.054  72.093  1.00  0.00    -0.145 C  
HETATM    7  H   UNL     1      -9.137   4.894  70.496  1.00  0.00     0.000 HD 
HETATM    8  O   UNL     1      -8.549   5.167  71.189  1.00  0.00    -0.118 OA 
BRANCH   6   9
HETATM    9  C   UNL     1      -9.832   7.217  71.333  1.00  0.00    -0.191 A  
HETATM   10  C   UNL     1     -10.107   7.132  69.957  1.00  0.00    -0.194 A  
HETATM   11  C   UNL     1     -10.627   8.229  69.278  1.00  0.00    -0.181 A  
HETATM   12  C   UNL     1     -10.893   9.418  69.944  1.00  0.00    -0.259 A  
HETATM   13  O   UNL     1     -10.882   8.177  67.939  1.00  0.00    -0.460 OA 
HETATM   14  C   UNL     1     -10.625   9.518  71.308  1.00  0.00    -0.358 A  
HETATM   15  H   UNL     1     -11.237   8.926  67.476  1.00  0.00     0.000 HD 
HETATM   16  C   UNL     1     -10.095   8.426  71.998  1.00  0.00    -0.364 A  
ENDBRANCH   6   9
ENDBRANCH   2   6
TORSDOF 2
ENDMDL
MODEL      217
REMARK 921   NORMALIZED FREE ENERGY PREDICTED BY IDOCK:   -2.31 KCAL/MOL
REMARK 922        TOTAL FREE ENERGY PREDICTED BY IDOCK:   -2.78 KCAL/MOL
REMARK 923 INTER-LIGAND FREE ENERGY PREDICTED BY IDOCK:   -2.63 KCAL/MOL
REMARK 924 INTRA-LIGAND FREE ENERGY PREDICTED BY IDOCK:   -0.15 KCAL/MOL
REMARK 927      BINDING AFFINITY PREDICTED BY RF-SCORE:    0.00 PKD
ROOT
HETATM    1  C   UNL     1      -7.791   9.352  66.389  1.00  0.00    -0.100 C  
HETATM    2  C   UNL     1      -8.466   8.225  67.179  1.00  0.00    -0.123 C  
HETATM    3  N   UNL     1      -8.463   7.005  66.344  1.00  0.00    -0.124 NA 
HETATM    4  H1  UNL     1      -8.911   6.255  66.870  1.00  0.00     0.000 HD 
HETATM    5  H2  UNL     1      -7.529   6.753  66.021  1.00  0.00     0.000 HD 
ENDROOT
BRANCH   2   6
HETATM    6  C   UNL     1      -9.922   8.570  67.620  1.00  0.00    -0.198 C  
HETATM    7  H   UNL     1     -11.004  10.201  67.889  1.00  0.00     0.000 HD 
HETATM    8  O   UNL     1     -10.118   9.992  67.620  1.00  0.00    -0.171 OA 
BRANCH   6   9
HETATM    9  C   UNL     1     -10.293   7.987  68.970  1.00  0.00    -0.228 A  
HETATM   10  C   UNL     1     -10.119   8.717  70.158  1.00  0.00    -0.196 A  
HETATM   11  C   UNL     1     -10.430   8.140  71.386  1.00  0.00    -0.212 A  
HETATM   12  C   UNL     1     -10.926   6.844  71.459  1.00  0.00    -0.268 A  
HETATM   13  O   UNL     1     -10.250   8.821  72.553  1.00  0.00    -0.251 OA 
HETATM   14  C   UNL     1     -11.103   6.109  70.289  1.00  0.00    -0.436 A  
HETATM   15  H   UNL     1     -10.463   8.427  73.391  1.00  0.00     0.000 HD 
HETATM   16  C   UNL     1     -10.786   6.674  69.052  1.00  0.00    -0.324 A  
ENDBRANCH   6   9
ENDBRANCH   2   6
TORSDOF 2
ENDMDL
MODEL      218
REMARK 921   NORMALIZED FREE ENERGY PREDICTED BY IDOCK:   -2.30 KCAL/MOL
REMARK 922        TOTAL FREE ENERGY PREDICTED BY IDOCK:   -2.77 KCAL/MOL
REMARK 923 INTER-LIGAND FREE ENERGY PREDICTED BY IDOCK:   -2.59 KCAL/MOL
REMARK 924 INTRA-LIGAND FREE ENERGY PREDICTED BY IDOCK:   -0.19 KCAL/MOL
REMARK 927      BINDING AFFINITY PREDICTED BY RF-SCORE:    0.00 PKD
ROOT
HETATM    1  C   UNL     1      -9.214  15.735  68.219  1.00  0.00    -0.188 C  
HETATM    2  C   UNL     1      -9.024  16.323  66.817  1.00  0.00    -0.231 C  
HETATM    3  N   UNL     1      -9.871  15.562  65.875  1.00  0.00    -0.326 NA 
HETATM    4  H1  UNL     1      -9.745  15.953  64.941  1.00  0.00     0.000 HD 
HETATM    5  H2  UNL     1     -10.849  15.536  66.160  1.00  0.00     0.000 HD 
ENDROOT
BRANCH   2   6
HETATM    6  C   UNL     1      -7.539  16.305  66.339  1.00  0.00    -0.096 C  
HETATM    7  H   UNL     1      -5.921  15.225  66.684  1.00  0.00     0.000 HD 
HETATM    8  O   UNL     1      -6.824  15.236  66.976  1.00  0.00    -0.242 OA 
BRANCH   6   9
HETATM    9  C   UNL     1      -6.821  17.623  66.560  1.00  0.00    -0.277 A  
HETATM   10  C   UNL     1      -6.827  18.634  65.584  1.00  0.00    -0.284 A  
HETATM   11  C   UNL     1      -6.126  19.817  65.798  1.00  0.00    -0.183 A  
HETATM   12  C   UNL     1      -5.420  20.023  66.976  1.00  0.00    -0.171 A  
HETATM   13  O   UNL     1      -6.100  20.804  64.858  1.00  0.00    -0.248 OA 
HETATM   14  C   UNL     1      -5.405  19.029  67.952  1.00  0.00    -0.178 A  
HETATM   15  H   UNL     1      -5.621  21.611  65.004  1.00  0.00     0.000 HD 
HETATM   16  C   UNL     1      -6.098  17.834  67.745  1.00  0.00    -0.161 A  
ENDBRANCH   6   9
ENDBRANCH   2   6
TORSDOF 2
ENDMDL
MODEL      219
REMARK 921   NORMALIZED FREE ENERGY PREDICTED BY IDOCK:   -2.30 KCAL/MOL
REMARK 922        TOTAL FREE ENERGY PREDICTED BY IDOCK:   -2.77 KCAL/MOL
REMARK 923 INTER-LIGAND FREE ENERGY PREDICTED BY IDOCK:   -2.96 KCAL/MOL
REMARK 924 INTRA-LIGAND FREE ENERGY PREDICTED BY IDOCK:    0.18 KCAL/MOL
REMARK 927      BINDING AFFINITY PREDICTED BY RF-SCORE:    0.00 PKD
ROOT
HETATM    1  C   UNL     1     -10.178  10.026  69.316  1.00  0.00    -0.229 C  
HETATM    2  C   UNL     1      -8.676   9.755  69.191  1.00  0.00    -0.155 C  
HETATM    3  N   UNL     1      -8.035  10.086  70.481  1.00  0.00    -0.424 NA 
HETATM    4  H1  UNL     1      -7.034   9.905  70.399  1.00  0.00     0.000 HD 
HETATM    5  H2  UNL     1      -8.458   9.594  71.268  1.00  0.00     0.000 HD 
ENDROOT
BRANCH   2   6
HETATM    6  C   UNL     1      -8.000  10.555  68.035  1.00  0.00    -0.106 C  
HETATM    7  H   UNL     1      -7.270  12.371  67.767  1.00  0.00     0.000 HD 
HETATM    8  O   UNL     1      -7.682  11.885  68.470  1.00  0.00    -0.127 OA 
BRANCH   6   9
HETATM    9  C   UNL     1      -8.836  10.601  66.770  1.00  0.00    -0.146 A  
HETATM   10  C   UNL     1      -8.578   9.741  65.688  1.00  0.00    -0.154 A  
HETATM   11  C   UNL     1      -9.335   9.834  64.524  1.00  0.00    -0.235 A  
HETATM   12  C   UNL     1     -10.360  10.765  64.414  1.00  0.00    -0.405 A  
HETATM   13  O   UNL     1      -9.090   9.025  63.454  1.00  0.00    -0.419 OA 
HETATM   14  C   UNL     1     -10.626  11.625  65.478  1.00  0.00    -0.329 A  
HETATM   15  H   UNL     1      -9.607   9.089  62.661  1.00  0.00     0.000 HD 
HETATM   16  C   UNL     1      -9.867  11.546  66.648  1.00  0.00    -0.228 A  
ENDBRANCH   6   9
ENDBRANCH   2   6
TORSDOF 2
ENDMDL
MODEL      220
REMARK 921   NORMALIZED FREE ENERGY PREDICTED BY IDOCK:   -2.30 KCAL/MOL
REMARK 922        TOTAL FREE ENERGY PREDICTED BY IDOCK:   -2.77 KCAL/MOL
REMARK 923 INTER-LIGAND FREE ENERGY PREDICTED BY IDOCK:   -2.69 KCAL/MOL
REMARK 924 INTRA-LIGAND FREE ENERGY PREDICTED BY IDOCK:   -0.08 KCAL/MOL
REMARK 927      BINDING AFFINITY PREDICTED BY RF-SCORE:    0.00 PKD
ROOT
HETATM    1  C   UNL     1     -11.470  11.311  68.911  1.00  0.00    -0.363 C  
HETATM    2  C   UNL     1     -11.488   9.782  69.011  1.00  0.00     0.133 C  
HETATM    3  N   UNL     1     -11.894   9.411  70.383  1.00  0.00    -0.454 NA 
HETATM    4  H1  UNL     1     -11.907   8.393  70.450  1.00  0.00     0.000 HD 
HETATM    5  H2  UNL     1     -12.781   9.832  70.657  1.00  0.00     0.000 HD 
ENDROOT
BRANCH   2   6
HETATM    6  C   UNL     1     -10.116   9.127  68.661  1.00  0.00    -0.194 C  
HETATM    7  H   UNL     1      -8.677   9.402  67.335  1.00  0.00     0.000 HD 
HETATM    8  O   UNL     1      -9.512   9.801  67.548  1.00  0.00    -0.145 OA 
BRANCH   6   9
HETATM    9  C   UNL     1     -10.216   7.639  68.386  1.00  0.00    -0.226 A  
HETATM   10  C   UNL     1     -10.076   6.690  69.414  1.00  0.00    -0.192 A  
HETATM   11  C   UNL     1     -10.131   5.331  69.123  1.00  0.00    -0.219 A  
HETATM   12  C   UNL     1     -10.335   4.887  67.823  1.00  0.00    -0.067 A  
HETATM   13  O   UNL     1      -9.977   4.392  70.101  1.00  0.00    -0.221 OA 
HETATM   14  C   UNL     1     -10.475   5.816  66.794  1.00  0.00    -0.350 A  
HETATM   15  H   UNL     1     -10.015   3.464  69.902  1.00  0.00     0.000 HD 
HETATM   16  C   UNL     1     -10.412   7.184  67.071  1.00  0.00    -0.392 A  
ENDBRANCH   6   9
ENDBRANCH   2   6
TORSDOF 2
ENDMDL
MODEL      221
REMARK 921   NORMALIZED FREE ENERGY PREDICTED BY IDOCK:   -2.26 KCAL/MOL
REMARK 922        TOTAL FREE ENERGY PREDICTED BY IDOCK:   -2.72 KCAL/MOL
REMARK 923 INTER-LIGAND FREE ENERGY PREDICTED BY IDOCK:   -2.86 KCAL/MOL
REMARK 924 INTRA-LIGAND FREE ENERGY PREDICTED BY IDOCK:    0.14 KCAL/MOL
REMARK 927      BINDING AFFINITY PREDICTED BY RF-SCORE:    0.00 PKD
ROOT
HETATM    1  C   UNL     1     -10.247   4.285  71.227  1.00  0.00    -0.106 C  
HETATM    2  C   UNL     1     -10.858   5.665  70.966  1.00  0.00    -0.219 C  
HETATM    3  N   UNL     1     -10.764   5.951  69.519  1.00  0.00    -0.311 NA 
HETATM    4  H1  UNL     1     -11.171   6.870  69.346  1.00  0.00     0.000 HD 
HETATM    5  H2  UNL     1     -11.186   5.221  68.947  1.00  0.00     0.000 HD 
ENDROOT
BRANCH   2   6
HETATM    6  C   UNL     1     -10.174   6.805  71.784  1.00  0.00    -0.190 C  
HETATM    7  H   UNL     1     -10.403   7.654  73.553  1.00  0.00     0.000 HD 
HETATM    8  O   UNL     1     -10.819   6.961  73.056  1.00  0.00    -0.265 OA 
BRANCH   6   9
HETATM    9  C   UNL     1     -10.134   8.130  71.047  1.00  0.00    -0.221 A  
HETATM   10  C   UNL     1     -11.192   9.051  71.134  1.00  0.00    -0.375 A  
HETATM   11  C   UNL     1     -11.145  10.241  70.414  1.00  0.00    -0.319 A  
HETATM   12  C   UNL     1     -10.054  10.544  69.609  1.00  0.00    -0.177 A  
HETATM   13  O   UNL     1     -12.169  11.139  70.465  1.00  0.00    -0.328 OA 
HETATM   14  C   UNL     1      -8.998   9.640  69.514  1.00  0.00    -0.203 A  
HETATM   15  H   UNL     1     -12.137  11.951  69.974  1.00  0.00     0.000 HD 
HETATM   16  C   UNL     1      -9.038   8.439  70.225  1.00  0.00    -0.149 A  
ENDBRANCH   6   9
ENDBRANCH   2   6
TORSDOF 2
ENDMDL
MODEL      222
REMARK 921   NORMALIZED FREE ENERGY PREDICTED BY IDOCK:   -2.25 KCAL/MOL
REMARK 922        TOTAL FREE ENERGY PREDICTED BY IDOCK:   -2.72 KCAL/MOL
REMARK 923 INTER-LIGAND FREE ENERGY PREDICTED BY IDOCK:   -2.54 KCAL/MOL
REMARK 924 INTRA-LIGAND FREE ENERGY PREDICTED BY IDOCK:   -0.18 KCAL/MOL
REMARK 927      BINDING AFFINITY PREDICTED BY RF-SCORE:    0.00 PKD
ROOT
HETATM    1  C   UNL     1     -10.645   9.128  67.853  1.00  0.00    -0.272 C  
HETATM    2  C   UNL     1     -10.650   7.859  66.995  1.00  0.00    -0.311 C  
HETATM    3  N   UNL     1     -11.409   6.814  67.714  1.00  0.00    -0.622 NA 
HETATM    4  H1  UNL     1     -11.413   5.969  67.143  1.00  0.00     0.000 HD 
HETATM    5  H2  UNL     1     -12.347   7.118  67.972  1.00  0.00     0.000 HD 
ENDROOT
BRANCH   2   6
HETATM    6  C   UNL     1      -9.218   7.343  66.652  1.00  0.00    -0.158 C  
HETATM    7  H   UNL     1      -7.763   6.385  67.585  1.00  0.00     0.000 HD 
HETATM    8  O   UNL     1      -8.635   6.699  67.794  1.00  0.00    -0.121 OA 
BRANCH   6   9
HETATM    9  C   UNL     1      -8.297   8.431  66.133  1.00  0.00    -0.127 A  
HETATM   10  C   UNL     1      -8.605   9.161  64.972  1.00  0.00    -0.204 A  
HETATM   11  C   UNL     1      -7.721  10.125  64.497  1.00  0.00    -0.138 A  
HETATM   12  C   UNL     1      -6.530  10.389  65.161  1.00  0.00    -0.096 A  
HETATM   13  O   UNL     1      -7.988  10.831  63.361  1.00  0.00    -0.350 OA 
HETATM   14  C   UNL     1      -6.212   9.672  66.313  1.00  0.00    -0.068 A  
HETATM   15  H   UNL     1      -7.384  11.488  63.037  1.00  0.00     0.000 HD 
HETATM   16  C   UNL     1      -7.088   8.697  66.795  1.00  0.00    -0.078 A  
ENDBRANCH   6   9
ENDBRANCH   2   6
TORSDOF 2
ENDMDL
MODEL      223
REMARK 921   NORMALIZED FREE ENERGY PREDICTED BY IDOCK:   -2.24 KCAL/MOL
REMARK 922        TOTAL FREE ENERGY PREDICTED BY IDOCK:   -2.71 KCAL/MOL
REMARK 923 INTER-LIGAND FREE ENERGY PREDICTED BY IDOCK:   -2.54 KCAL/MOL
REMARK 924 INTRA-LIGAND FREE ENERGY PREDICTED BY IDOCK:   -0.17 KCAL/MOL
REMARK 927      BINDING AFFINITY PREDICTED BY RF-SCORE:    0.00 PKD
ROOT
HETATM    1  C   UNL     1      -8.309  10.339  68.414  1.00  0.00    -0.119 C  
HETATM    2  C   UNL     1      -7.692   8.937  68.419  1.00  0.00    -0.099 C  
HETATM    3  N   UNL     1      -6.966   8.744  67.146  1.00  0.00    -0.071 NA 
HETATM    4  H1  UNL     1      -6.555   7.810  67.149  1.00  0.00     0.000 HD 
HETATM    5  H2  UNL     1      -6.278   9.475  66.971  1.00  0.00     0.000 HD 
ENDROOT
BRANCH   2   6
HETATM    6  C   UNL     1      -8.744   7.803  68.616  1.00  0.00    -0.128 C  
HETATM    7  H   UNL     1     -10.243   7.026  67.589  1.00  0.00     0.000 HD 
HETATM    8  O   UNL     1      -9.603   7.716  67.469  1.00  0.00    -0.136 OA 
BRANCH   6   9
HETATM    9  C   UNL     1      -9.568   7.961  69.880  1.00  0.00    -0.168 A  
HETATM   10  C   UNL     1     -10.899   8.409  69.837  1.00  0.00    -0.207 A  
HETATM   11  C   UNL     1     -11.617   8.584  71.017  1.00  0.00    -0.279 A  
HETATM   12  C   UNL     1     -11.038   8.311  72.249  1.00  0.00    -0.429 A  
HETATM   13  O   UNL     1     -12.903   9.037  71.001  1.00  0.00    -0.492 OA 
HETATM   14  C   UNL     1      -9.719   7.866  72.307  1.00  0.00    -0.269 A  
HETATM   15  H   UNL     1     -13.392   9.157  71.807  1.00  0.00     0.000 HD 
HETATM   16  C   UNL     1      -8.986   7.696  71.130  1.00  0.00    -0.143 A  
ENDBRANCH   6   9
ENDBRANCH   2   6
TORSDOF 2
ENDMDL
MODEL      224
REMARK 921   NORMALIZED FREE ENERGY PREDICTED BY IDOCK:   -2.22 KCAL/MOL
REMARK 922        TOTAL FREE ENERGY PREDICTED BY IDOCK:   -2.68 KCAL/MOL
REMARK 923 INTER-LIGAND FREE ENERGY PREDICTED BY IDOCK:   -2.70 KCAL/MOL
REMARK 924 INTRA-LIGAND FREE ENERGY PREDICTED BY IDOCK:    0.02 KCAL/MOL
REMARK 927      BINDING AFFINITY PREDICTED BY RF-SCORE:    0.00 PKD
ROOT
HETATM    1  C   UNL     1      -9.875   9.591  70.650  1.00  0.00    -0.328 C  
HETATM    2  C   UNL     1     -10.740  10.302  69.605  1.00  0.00    -0.264 C  
HETATM    3  N   UNL     1     -11.513   9.280  68.867  1.00  0.00    -0.244 NA 
HETATM    4  H1  UNL     1     -12.090   9.753  68.172  1.00  0.00     0.000 HD 
HETATM    5  H2  UNL     1     -12.058   8.679  69.484  1.00  0.00     0.000 HD 
ENDROOT
BRANCH   2   6
HETATM    6  C   UNL     1      -9.912  11.170  68.608  1.00  0.00    -0.205 C  
HETATM    7  H   UNL     1     -10.073  12.946  67.757  1.00  0.00     0.000 HD 
HETATM    8  O   UNL     1     -10.578  12.418  68.363  1.00  0.00    -0.223 OA 
BRANCH   6   9
HETATM    9  C   UNL     1      -9.618  10.464  67.298  1.00  0.00    -0.182 A  
HETATM   10  C   UNL     1      -8.660   9.439  67.216  1.00  0.00    -0.129 A  
HETATM   11  C   UNL     1      -8.382   8.837  65.992  1.00  0.00    -0.126 A  
HETATM   12  C   UNL     1      -9.048   9.229  64.839  1.00  0.00    -0.227 A  
HETATM   13  O   UNL     1      -7.442   7.855  65.884  1.00  0.00    -0.074 OA 
HETATM   14  C   UNL     1     -10.000  10.245  64.905  1.00  0.00    -0.393 A  
HETATM   15  H   UNL     1      -7.253   7.445  65.049  1.00  0.00     0.000 HD 
HETATM   16  C   UNL     1     -10.281  10.862  66.126  1.00  0.00    -0.304 A  
ENDBRANCH   6   9
ENDBRANCH   2   6
TORSDOF 2
ENDMDL
MODEL      225
REMARK 921   NORMALIZED FREE ENERGY PREDICTED BY IDOCK:   -2.22 KCAL/MOL
REMARK 922        TOTAL FREE ENERGY PREDICTED BY IDOCK:   -2.68 KCAL/MOL
REMARK 923 INTER-LIGAND FREE ENERGY PREDICTED BY IDOCK:   -2.44 KCAL/MOL
REMARK 924 INTRA-LIGAND FREE ENERGY PREDICTED BY IDOCK:   -0.24 KCAL/MOL
REMARK 927      BINDING AFFINITY PREDICTED BY RF-SCORE:    0.00 PKD
ROOT
HETATM    1  C   UNL     1     -10.700   7.089  66.978  1.00  0.00    -0.423 C  
HETATM    2  C   UNL     1      -9.255   7.551  66.770  1.00  0.00    -0.156 C  
HETATM    3  N   UNL     1      -8.829   7.152  65.412  1.00  0.00    -0.374 NA 
HETATM    4  H1  UNL     1      -7.867   7.460  65.273  1.00  0.00     0.000 HD 
HETATM    5  H2  UNL     1      -9.459   7.494  64.687  1.00  0.00     0.000 HD 
ENDROOT
BRANCH   2   6
HETATM    6  C   UNL     1      -8.267   6.978  67.832  1.00  0.00    -0.115 C  
HETATM    7  H   UNL     1      -7.655   5.195  68.426  1.00  0.00     0.000 HD 
HETATM    8  O   UNL     1      -8.256   5.544  67.780  1.00  0.00    -0.101 OA 
BRANCH   6   9
HETATM    9  C   UNL     1      -8.562   7.451  69.243  1.00  0.00    -0.137 A  
HETATM   10  C   UNL     1      -8.849   6.543  70.277  1.00  0.00    -0.151 A  
HETATM   11  C   UNL     1      -9.157   7.009  71.551  1.00  0.00    -0.139 A  
HETATM   12  C   UNL     1      -9.176   8.370  71.827  1.00  0.00    -0.287 A  
HETATM   13  O   UNL     1      -9.459   6.148  72.565  1.00  0.00    -0.145 OA 
HETATM   14  C   UNL     1      -8.894   9.282  70.811  1.00  0.00    -0.282 A  
HETATM   15  H   UNL     1      -9.669   6.467  73.435  1.00  0.00     0.000 HD 
HETATM   16  C   UNL     1      -8.592   8.826  69.526  1.00  0.00    -0.130 A  
ENDBRANCH   6   9
ENDBRANCH   2   6
TORSDOF 2
ENDMDL
MODEL      226
REMARK 921   NORMALIZED FREE ENERGY PREDICTED BY IDOCK:   -2.21 KCAL/MOL
REMARK 922        TOTAL FREE ENERGY PREDICTED BY IDOCK:   -2.68 KCAL/MOL
REMARK 923 INTER-LIGAND FREE ENERGY PREDICTED BY IDOCK:   -2.44 KCAL/MOL
REMARK 924 INTRA-LIGAND FREE ENERGY PREDICTED BY IDOCK:   -0.24 KCAL/MOL
REMARK 927      BINDING AFFINITY PREDICTED BY RF-SCORE:    0.00 PKD
ROOT
HETATM    1  C   UNL     1     -10.437   3.845  64.233  1.00  0.00    -0.247 C  
HETATM    2  C   UNL     1      -8.987   3.724  64.713  1.00  0.00    -0.125 C  
HETATM    3  N   UNL     1      -8.616   2.293  64.714  1.00  0.00    -0.095 NA 
HETATM    4  H1  UNL     1      -7.650   2.212  65.033  1.00  0.00     0.000 HD 
HETATM    5  H2  UNL     1      -8.768   1.847  63.810  1.00  0.00     0.000 HD 
ENDROOT
BRANCH   2   6
HETATM    6  C   UNL     1      -8.754   4.340  66.127  1.00  0.00    -0.114 C  
HETATM    7  H   UNL     1      -9.478   4.097  67.949  1.00  0.00     0.000 HD 
HETATM    8  O   UNL     1      -9.621   3.722  67.089  1.00  0.00    -0.207 OA 
BRANCH   6   9
HETATM    9  C   UNL     1      -8.922   5.848  66.159  1.00  0.00    -0.157 A  
HETATM   10  C   UNL     1      -9.868   6.463  66.997  1.00  0.00    -0.194 A  
HETATM   11  C   UNL     1     -10.028   7.845  66.975  1.00  0.00    -0.252 A  
HETATM   12  C   UNL     1      -9.254   8.638  66.137  1.00  0.00    -0.271 A  
HETATM   13  O   UNL     1     -10.953   8.463  67.763  1.00  0.00    -0.496 OA 
HETATM   14  C   UNL     1      -8.313   8.041  65.301  1.00  0.00    -0.151 A  
HETATM   15  H   UNL     1     -11.062   9.406  67.748  1.00  0.00     0.000 HD 
HETATM   16  C   UNL     1      -8.150   6.654  65.308  1.00  0.00    -0.130 A  
ENDBRANCH   6   9
ENDBRANCH   2   6
TORSDOF 2
ENDMDL
MODEL      227
REMARK 921   NORMALIZED FREE ENERGY PREDICTED BY IDOCK:   -2.21 KCAL/MOL
REMARK 922        TOTAL FREE ENERGY PREDICTED BY IDOCK:   -2.67 KCAL/MOL
REMARK 923 INTER-LIGAND FREE ENERGY PREDICTED BY IDOCK:   -2.47 KCAL/MOL
REMARK 924 INTRA-LIGAND FREE ENERGY PREDICTED BY IDOCK:   -0.19 KCAL/MOL
REMARK 927      BINDING AFFINITY PREDICTED BY RF-SCORE:    0.00 PKD
ROOT
HETATM    1  C   UNL     1      -9.231   5.097  65.289  1.00  0.00    -0.094 C  
HETATM    2  C   UNL     1      -8.472   6.359  65.711  1.00  0.00    -0.148 C  
HETATM    3  N   UNL     1      -7.047   6.008  65.886  1.00  0.00    -0.072 NA 
HETATM    4  H1  UNL     1      -6.541   6.849  66.167  1.00  0.00     0.000 HD 
HETATM    5  H2  UNL     1      -6.647   5.569  65.058  1.00  0.00     0.000 HD 
ENDROOT
BRANCH   2   6
HETATM    6  C   UNL     1      -9.030   7.004  67.017  1.00  0.00    -0.125 C  
HETATM    7  H   UNL     1     -10.435   6.598  68.346  1.00  0.00     0.000 HD 
HETATM    8  O   UNL     1     -10.096   6.205  67.551  1.00  0.00    -0.132 OA 
BRANCH   6   9
HETATM    9  C   UNL     1      -9.491   8.437  66.829  1.00  0.00    -0.255 A  
HETATM   10  C   UNL     1      -8.839   9.307  65.937  1.00  0.00    -0.199 A  
HETATM   11  C   UNL     1      -9.258  10.628  65.816  1.00  0.00    -0.189 A  
HETATM   12  C   UNL     1     -10.328  11.107  66.560  1.00  0.00    -0.290 A  
HETATM   13  O   UNL     1      -8.628  11.496  64.973  1.00  0.00    -0.363 OA 
HETATM   14  C   UNL     1     -10.984  10.256  67.448  1.00  0.00    -0.317 A  
HETATM   15  H   UNL     1      -8.915  12.397  64.891  1.00  0.00     0.000 HD 
HETATM   16  C   UNL     1     -10.566   8.931  67.585  1.00  0.00    -0.292 A  
ENDBRANCH   6   9
ENDBRANCH   2   6
TORSDOF 2
ENDMDL
MODEL      228
REMARK 921   NORMALIZED FREE ENERGY PREDICTED BY IDOCK:   -2.21 KCAL/MOL
REMARK 922        TOTAL FREE ENERGY PREDICTED BY IDOCK:   -2.67 KCAL/MOL
REMARK 923 INTER-LIGAND FREE ENERGY PREDICTED BY IDOCK:   -2.61 KCAL/MOL
REMARK 924 INTRA-LIGAND FREE ENERGY PREDICTED BY IDOCK:   -0.06 KCAL/MOL
REMARK 927      BINDING AFFINITY PREDICTED BY RF-SCORE:    0.00 PKD
ROOT
HETATM    1  C   UNL     1     -11.990  13.941  68.337  1.00  0.00    -0.391 C  
HETATM    2  C   UNL     1     -10.544  14.169  68.788  1.00  0.00    -0.253 C  
HETATM    3  N   UNL     1     -10.567  14.878  70.085  1.00  0.00    -0.473 NA 
HETATM    4  H1  UNL     1      -9.604  15.029  70.386  1.00  0.00     0.000 HD 
HETATM    5  H2  UNL     1     -11.126  14.394  70.787  1.00  0.00     0.000 HD 
ENDROOT
BRANCH   2   6
HETATM    6  C   UNL     1      -9.695  14.970  67.753  1.00  0.00    -0.215 C  
HETATM    7  H   UNL     1      -9.030  14.704  65.912  1.00  0.00     0.000 HD 
HETATM    8  O   UNL     1      -9.546  14.216  66.542  1.00  0.00    -0.276 OA 
BRANCH   6   9
HETATM    9  C   UNL     1      -8.337  15.386  68.285  1.00  0.00    -0.150 A  
HETATM   10  C   UNL     1      -7.477  14.463  68.905  1.00  0.00    -0.132 A  
HETATM   11  C   UNL     1      -6.254  14.883  69.420  1.00  0.00    -0.114 A  
HETATM   12  C   UNL     1      -5.859  16.211  69.323  1.00  0.00    -0.130 A  
HETATM   13  O   UNL     1      -5.413  14.010  70.044  1.00  0.00    -0.095 OA 
HETATM   14  C   UNL     1      -6.702  17.137  68.712  1.00  0.00    -0.200 A  
HETATM   15  H   UNL     1      -4.579  14.297  70.395  1.00  0.00     0.000 HD 
HETATM   16  C   UNL     1      -7.935  16.729  68.199  1.00  0.00    -0.181 A  
ENDBRANCH   6   9
ENDBRANCH   2   6
TORSDOF 2
ENDMDL
MODEL      229
REMARK 921   NORMALIZED FREE ENERGY PREDICTED BY IDOCK:   -2.19 KCAL/MOL
REMARK 922        TOTAL FREE ENERGY PREDICTED BY IDOCK:   -2.64 KCAL/MOL
REMARK 923 INTER-LIGAND FREE ENERGY PREDICTED BY IDOCK:   -2.60 KCAL/MOL
REMARK 924 INTRA-LIGAND FREE ENERGY PREDICTED BY IDOCK:   -0.04 KCAL/MOL
REMARK 927      BINDING AFFINITY PREDICTED BY RF-SCORE:    0.00 PKD
ROOT
HETATM    1  C   UNL     1      -7.336  11.254  68.906  1.00  0.00    -0.115 C  
HETATM    2  C   UNL     1      -8.212  11.978  67.879  1.00  0.00    -0.153 C  
HETATM    3  N   UNL     1      -9.030  12.983  68.589  1.00  0.00    -0.383 NA 
HETATM    4  H1  UNL     1      -9.612  13.466  67.905  1.00  0.00     0.000 HD 
HETATM    5  H2  UNL     1      -8.466  13.625  69.146  1.00  0.00     0.000 HD 
ENDROOT
BRANCH   2   6
HETATM    6  C   UNL     1      -9.132  11.014  67.067  1.00  0.00    -0.147 C  
HETATM    7  H   UNL     1     -10.034   9.282  67.365  1.00  0.00     0.000 HD 
HETATM    8  O   UNL     1      -9.474   9.868  67.859  1.00  0.00    -0.134 OA 
BRANCH   6   9
HETATM    9  C   UNL     1      -8.527  10.579  65.746  1.00  0.00    -0.177 A  
HETATM   10  C   UNL     1      -9.331  10.143  64.678  1.00  0.00    -0.334 A  
HETATM   11  C   UNL     1      -8.745   9.711  63.492  1.00  0.00    -0.222 A  
HETATM   12  C   UNL     1      -7.364   9.713  63.338  1.00  0.00    -0.119 A  
HETATM   13  O   UNL     1      -9.503   9.263  62.451  1.00  0.00    -0.583 OA 
HETATM   14  C   UNL     1      -6.555  10.142  64.388  1.00  0.00    -0.116 A  
HETATM   15  H   UNL     1      -9.103   8.968  61.642  1.00  0.00     0.000 HD 
HETATM   16  C   UNL     1      -7.131  10.570  65.586  1.00  0.00    -0.119 A  
ENDBRANCH   6   9
ENDBRANCH   2   6
TORSDOF 2
ENDMDL
MODEL      230
REMARK 921   NORMALIZED FREE ENERGY PREDICTED BY IDOCK:   -2.16 KCAL/MOL
REMARK 922        TOTAL FREE ENERGY PREDICTED BY IDOCK:   -2.62 KCAL/MOL
REMARK 923 INTER-LIGAND FREE ENERGY PREDICTED BY IDOCK:   -2.53 KCAL/MOL
REMARK 924 INTRA-LIGAND FREE ENERGY PREDICTED BY IDOCK:   -0.09 KCAL/MOL
REMARK 927      BINDING AFFINITY PREDICTED BY RF-SCORE:    0.00 PKD
ROOT
HETATM    1  C   UNL     1      -9.716   3.222  70.611  1.00  0.00    -0.156 C  
HETATM    2  C   UNL     1      -9.585   4.744  70.721  1.00  0.00    -0.179 C  
HETATM    3  N   UNL     1      -9.858   5.135  72.120  1.00  0.00    -0.169 NA 
HETATM    4  H1  UNL     1      -9.771   6.149  72.193  1.00  0.00     0.000 HD 
HETATM    5  H2  UNL     1      -9.267   4.642  72.788  1.00  0.00     0.000 HD 
ENDROOT
BRANCH   2   6
HETATM    6  C   UNL     1     -10.535   5.514  69.753  1.00  0.00    -0.319 C  
HETATM    7  H   UNL     1     -10.992   5.466  67.831  1.00  0.00     0.000 HD 
HETATM    8  O   UNL     1     -10.413   4.997  68.420  1.00  0.00    -0.076 OA 
BRANCH   6   9
HETATM    9  C   UNL     1     -10.309   7.014  69.759  1.00  0.00    -0.225 A  
HETATM   10  C   UNL     1     -11.122   7.876  70.515  1.00  0.00    -0.260 A  
HETATM   11  C   UNL     1     -10.916   9.252  70.469  1.00  0.00    -0.265 A  
HETATM   12  C   UNL     1      -9.905   9.795  69.687  1.00  0.00    -0.241 A  
HETATM   13  O   UNL     1     -11.705  10.109  71.178  1.00  0.00    -0.352 OA 
HETATM   14  C   UNL     1      -9.092   8.952  68.931  1.00  0.00    -0.140 A  
HETATM   15  H   UNL     1     -11.564  11.048  71.145  1.00  0.00     0.000 HD 
HETATM   16  C   UNL     1      -9.295   7.571  68.963  1.00  0.00    -0.146 A  
ENDBRANCH   6   9
ENDBRANCH   2   6
TORSDOF 2
ENDMDL
MODEL      231
REMARK 921   NORMALIZED FREE ENERGY PREDICTED BY IDOCK:   -2.15 KCAL/MOL
REMARK 922        TOTAL FREE ENERGY PREDICTED BY IDOCK:   -2.60 KCAL/MOL
REMARK 923 INTER-LIGAND FREE ENERGY PREDICTED BY IDOCK:   -2.59 KCAL/MOL
REMARK 924 INTRA-LIGAND FREE ENERGY PREDICTED BY IDOCK:   -0.01 KCAL/MOL
REMARK 927      BINDING AFFINITY PREDICTED BY RF-SCORE:    0.00 PKD
ROOT
HETATM    1  C   UNL     1      -9.429  12.667  66.719  1.00  0.00    -0.237 C  
HETATM    2  C   UNL     1      -9.544  12.012  68.099  1.00  0.00    -0.200 C  
HETATM    3  N   UNL     1      -9.919  13.054  69.079  1.00  0.00    -0.410 NA 
HETATM    4  H1  UNL     1      -9.996  12.618  69.997  1.00  0.00     0.000 HD 
HETATM    5  H2  UNL     1     -10.764  13.558  68.811  1.00  0.00     0.000 HD 
ENDROOT
BRANCH   2   6
HETATM    6  C   UNL     1      -8.234  11.297  68.552  1.00  0.00    -0.150 C  
HETATM    7  H   UNL     1      -6.787  10.254  67.702  1.00  0.00     0.000 HD 
HETATM    8  O   UNL     1      -7.584  10.689  67.426  1.00  0.00    -0.093 OA 
BRANCH   6   9
HETATM    9  C   UNL     1      -8.458  10.271  69.647  1.00  0.00    -0.132 A  
HETATM   10  C   UNL     1      -9.752   9.915  70.066  1.00  0.00    -0.274 A  
HETATM   11  C   UNL     1      -9.926   9.002  71.101  1.00  0.00    -0.295 A  
HETATM   12  C   UNL     1      -8.832   8.420  71.729  1.00  0.00    -0.257 A  
HETATM   13  O   UNL     1     -11.171   8.657  71.538  1.00  0.00    -0.252 OA 
HETATM   14  C   UNL     1      -7.544   8.764  71.324  1.00  0.00    -0.134 A  
HETATM   15  H   UNL     1     -11.289   8.034  72.245  1.00  0.00     0.000 HD 
HETATM   16  C   UNL     1      -7.357   9.686  70.292  1.00  0.00    -0.153 A  
ENDBRANCH   6   9
ENDBRANCH   2   6
TORSDOF 2
ENDMDL
MODEL      232
REMARK 921   NORMALIZED FREE ENERGY PREDICTED BY IDOCK:   -2.14 KCAL/MOL
REMARK 922        TOTAL FREE ENERGY PREDICTED BY IDOCK:   -2.59 KCAL/MOL
REMARK 923 INTER-LIGAND FREE ENERGY PREDICTED BY IDOCK:   -2.39 KCAL/MOL
REMARK 924 INTRA-LIGAND FREE ENERGY PREDICTED BY IDOCK:   -0.20 KCAL/MOL
REMARK 927      BINDING AFFINITY PREDICTED BY RF-SCORE:    0.00 PKD
ROOT
HETATM    1  C   UNL     1      -5.674   9.190  70.056  1.00  0.00    -0.031 C  
HETATM    2  C   UNL     1      -6.980   9.257  70.853  1.00  0.00    -0.104 C  
HETATM    3  N   UNL     1      -6.676   8.973  72.272  1.00  0.00    -0.302 NA 
HETATM    4  H1  UNL     1      -7.545   9.018  72.802  1.00  0.00     0.000 HD 
HETATM    5  H2  UNL     1      -5.954   9.587  72.648  1.00  0.00     0.000 HD 
ENDROOT
BRANCH   2   6
HETATM    6  C   UNL     1      -8.071   8.271  70.331  1.00  0.00    -0.108 C  
HETATM    7  H   UNL     1      -8.123   6.575  69.318  1.00  0.00     0.000 HD 
HETATM    8  O   UNL     1      -7.459   7.175  69.635  1.00  0.00    -0.092 OA 
BRANCH   6   9
HETATM    9  C   UNL     1      -9.110   8.939  69.451  1.00  0.00    -0.145 A  
HETATM   10  C   UNL     1      -9.290   8.559  68.109  1.00  0.00    -0.145 A  
HETATM   11  C   UNL     1     -10.223   9.218  67.315  1.00  0.00    -0.252 A  
HETATM   12  C   UNL     1     -10.997  10.249  67.831  1.00  0.00    -0.350 A  
HETATM   13  O   UNL     1     -10.400   8.881  66.005  1.00  0.00    -0.333 OA 
HETATM   14  C   UNL     1     -10.829  10.636  69.159  1.00  0.00    -0.279 A  
HETATM   15  H   UNL     1     -11.037   9.331  65.463  1.00  0.00     0.000 HD 
HETATM   16  C   UNL     1      -9.890   9.988  69.964  1.00  0.00    -0.247 A  
ENDBRANCH   6   9
ENDBRANCH   2   6
TORSDOF 2
ENDMDL
MODEL      233
REMARK 921   NORMALIZED FREE ENERGY PREDICTED BY IDOCK:   -2.14 KCAL/MOL
REMARK 922        TOTAL FREE ENERGY PREDICTED BY IDOCK:   -2.59 KCAL/MOL
REMARK 923 INTER-LIGAND FREE ENERGY PREDICTED BY IDOCK:   -2.38 KCAL/MOL
REMARK 924 INTRA-LIGAND FREE ENERGY PREDICTED BY IDOCK:   -0.20 KCAL/MOL
REMARK 927      BINDING AFFINITY PREDICTED BY RF-SCORE:    0.00 PKD
ROOT
HETATM    1  C   UNL     1      -8.469  10.072  69.346  1.00  0.00    -0.176 C  
HETATM    2  C   UNL     1      -8.039   8.651  68.969  1.00  0.00    -0.121 C  
HETATM    3  N   UNL     1      -7.261   8.718  67.713  1.00  0.00    -0.083 NA 
HETATM    4  H1  UNL     1      -6.974   7.772  67.462  1.00  0.00     0.000 HD 
HETATM    5  H2  UNL     1      -6.474   9.363  67.773  1.00  0.00     0.000 HD 
ENDROOT
BRANCH   2   6
HETATM    6  C   UNL     1      -9.239   7.668  68.805  1.00  0.00    -0.142 C  
HETATM    7  H   UNL     1     -11.158   7.791  68.348  1.00  0.00     0.000 HD 
HETATM    8  O   UNL     1     -10.427   8.389  68.448  1.00  0.00    -0.208 OA 
BRANCH   6   9
HETATM    9  C   UNL     1      -9.489   6.817  70.035  1.00  0.00    -0.158 A  
HETATM   10  C   UNL     1     -10.716   6.858  70.720  1.00  0.00    -0.262 A  
HETATM   11  C   UNL     1     -10.901   6.096  71.869  1.00  0.00    -0.249 A  
HETATM   12  C   UNL     1      -9.889   5.278  72.352  1.00  0.00    -0.198 A  
HETATM   13  O   UNL     1     -12.075   6.136  72.562  1.00  0.00    -0.514 OA 
HETATM   14  C   UNL     1      -8.667   5.227  71.684  1.00  0.00    -0.140 A  
HETATM   15  H   UNL     1     -12.201   5.616  73.346  1.00  0.00     0.000 HD 
HETATM   16  C   UNL     1      -8.466   5.994  70.534  1.00  0.00    -0.132 A  
ENDBRANCH   6   9
ENDBRANCH   2   6
TORSDOF 2
ENDMDL
MODEL      234
REMARK 921   NORMALIZED FREE ENERGY PREDICTED BY IDOCK:   -2.13 KCAL/MOL
REMARK 922        TOTAL FREE ENERGY PREDICTED BY IDOCK:   -2.58 KCAL/MOL
REMARK 923 INTER-LIGAND FREE ENERGY PREDICTED BY IDOCK:   -2.36 KCAL/MOL
REMARK 924 INTRA-LIGAND FREE ENERGY PREDICTED BY IDOCK:   -0.22 KCAL/MOL
REMARK 927      BINDING AFFINITY PREDICTED BY RF-SCORE:    0.00 PKD
ROOT
HETATM    1  C   UNL     1     -10.805   6.084  71.416  1.00  0.00    -0.328 C  
HETATM    2  C   UNL     1     -10.743   7.473  72.062  1.00  0.00    -0.225 C  
HETATM    3  N   UNL     1     -12.012   7.708  72.782  1.00  0.00    -0.592 NA 
HETATM    4  H1  UNL     1     -11.971   8.632  73.212  1.00  0.00     0.000 HD 
HETATM    5  H2  UNL     1     -12.224   6.972  73.455  1.00  0.00     0.000 HD 
ENDROOT
BRANCH   2   6
HETATM    6  C   UNL     1     -10.490   8.618  71.033  1.00  0.00    -0.219 C  
HETATM    7  H   UNL     1     -11.082   9.079  69.205  1.00  0.00     0.000 HD 
HETATM    8  O   UNL     1     -11.237   8.381  69.831  1.00  0.00    -0.168 OA 
BRANCH   6   9
HETATM    9  C   UNL     1      -9.021   8.819  70.710  1.00  0.00    -0.231 A  
HETATM   10  C   UNL     1      -8.599   9.211  69.428  1.00  0.00    -0.138 A  
HETATM   11  C   UNL     1      -7.242   9.348  69.149  1.00  0.00    -0.066 A  
HETATM   12  C   UNL     1      -6.287   9.111  70.129  1.00  0.00    -0.044 A  
HETATM   13  O   UNL     1      -6.808   9.707  67.908  1.00  0.00    -0.072 OA 
HETATM   14  C   UNL     1      -6.691   8.721  71.404  1.00  0.00    -0.081 A  
HETATM   15  H   UNL     1      -5.882   9.800  67.718  1.00  0.00     0.000 HD 
HETATM   16  C   UNL     1      -8.050   8.572  71.693  1.00  0.00    -0.195 A  
ENDBRANCH   6   9
ENDBRANCH   2   6
TORSDOF 2
ENDMDL
MODEL      235
REMARK 921   NORMALIZED FREE ENERGY PREDICTED BY IDOCK:   -2.12 KCAL/MOL
REMARK 922        TOTAL FREE ENERGY PREDICTED BY IDOCK:   -2.57 KCAL/MOL
REMARK 923 INTER-LIGAND FREE ENERGY PREDICTED BY IDOCK:   -2.62 KCAL/MOL
REMARK 924 INTRA-LIGAND FREE ENERGY PREDICTED BY IDOCK:    0.04 KCAL/MOL
REMARK 927      BINDING AFFINITY PREDICTED BY RF-SCORE:    0.00 PKD
ROOT
HETATM    1  C   UNL     1      -7.256   8.743  69.739  1.00  0.00    -0.051 C  
HETATM    2  C   UNL     1      -8.184   9.425  70.750  1.00  0.00    -0.127 C  
HETATM    3  N   UNL     1      -8.052   8.729  72.047  1.00  0.00    -0.355 NA 
HETATM    4  H1  UNL     1      -8.669   9.183  72.720  1.00  0.00     0.000 HD 
HETATM    5  H2  UNL     1      -7.086   8.682  72.370  1.00  0.00     0.000 HD 
ENDROOT
BRANCH   2   6
HETATM    6  C   UNL     1      -9.677   9.442  70.299  1.00  0.00    -0.246 C  
HETATM    7  H   UNL     1     -11.447   9.212  71.147  1.00  0.00     0.000 HD 
HETATM    8  O   UNL     1     -10.538   9.201  71.422  1.00  0.00    -0.289 OA 
BRANCH   6   9
HETATM    9  C   UNL     1      -9.978   8.459  69.184  1.00  0.00    -0.197 A  
HETATM   10  C   UNL     1     -10.203   7.097  69.447  1.00  0.00    -0.194 A  
HETATM   11  C   UNL     1     -10.436   6.211  68.399  1.00  0.00    -0.231 A  
HETATM   12  C   UNL     1     -10.462   6.655  67.084  1.00  0.00    -0.358 A  
HETATM   13  O   UNL     1     -10.635   4.882  68.628  1.00  0.00     0.022 OA 
HETATM   14  C   UNL     1     -10.240   8.003  66.808  1.00  0.00    -0.367 A  
HETATM   15  H   UNL     1     -10.794   4.278  67.913  1.00  0.00     0.000 HD 
HETATM   16  C   UNL     1      -9.997   8.900  67.851  1.00  0.00    -0.223 A  
ENDBRANCH   6   9
ENDBRANCH   2   6
TORSDOF 2
ENDMDL
MODEL      236
REMARK 921   NORMALIZED FREE ENERGY PREDICTED BY IDOCK:   -2.12 KCAL/MOL
REMARK 922        TOTAL FREE ENERGY PREDICTED BY IDOCK:   -2.57 KCAL/MOL
REMARK 923 INTER-LIGAND FREE ENERGY PREDICTED BY IDOCK:   -2.64 KCAL/MOL
REMARK 924 INTRA-LIGAND FREE ENERGY PREDICTED BY IDOCK:    0.07 KCAL/MOL
REMARK 927      BINDING AFFINITY PREDICTED BY RF-SCORE:    0.00 PKD
ROOT
HETATM    1  C   UNL     1      -9.100   4.643  64.571  1.00  0.00    -0.132 C  
HETATM    2  C   UNL     1     -10.167   4.443  65.652  1.00  0.00    -0.238 C  
HETATM    3  N   UNL     1     -11.498   4.530  65.015  1.00  0.00    -1.108 NA 
HETATM    4  H1  UNL     1     -12.208   4.396  65.734  1.00  0.00     0.000 HD 
HETATM    5  H2  UNL     1     -11.603   3.882  64.235  1.00  0.00     0.000 HD 
ENDROOT
BRANCH   2   6
HETATM    6  C   UNL     1     -10.062   5.473  66.819  1.00  0.00    -0.207 C  
HETATM    7  H   UNL     1     -11.062   7.058  67.444  1.00  0.00     0.000 HD 
HETATM    8  O   UNL     1     -11.126   6.432  66.734  1.00  0.00    -0.358 OA 
BRANCH   6   9
HETATM    9  C   UNL     1      -8.720   6.180  66.875  1.00  0.00    -0.109 A  
HETATM   10  C   UNL     1      -8.565   7.497  66.410  1.00  0.00    -0.145 A  
HETATM   11  C   UNL     1      -7.313   8.105  66.437  1.00  0.00    -0.080 A  
HETATM   12  C   UNL     1      -6.204   7.430  66.930  1.00  0.00    -0.047 A  
HETATM   13  O   UNL     1      -7.133   9.374  65.972  1.00  0.00    -0.088 OA 
HETATM   14  C   UNL     1      -6.344   6.124  67.394  1.00  0.00    -0.037 A  
HETATM   15  H   UNL     1      -6.279   9.789  65.990  1.00  0.00     0.000 HD 
HETATM   16  C   UNL     1      -7.593   5.500  67.364  1.00  0.00    -0.089 A  
ENDBRANCH   6   9
ENDBRANCH   2   6
TORSDOF 2
ENDMDL
MODEL      237
REMARK 921   NORMALIZED FREE ENERGY PREDICTED BY IDOCK:   -2.12 KCAL/MOL
REMARK 922        TOTAL FREE ENERGY PREDICTED BY IDOCK:   -2.57 KCAL/MOL
REMARK 923 INTER-LIGAND FREE ENERGY PREDICTED BY IDOCK:   -2.46 KCAL/MOL
REMARK 924 INTRA-LIGAND FREE ENERGY PREDICTED BY IDOCK:   -0.11 KCAL/MOL
REMARK 927      BINDING AFFINITY PREDICTED BY RF-SCORE:    0.00 PKD
ROOT
HETATM    1  C   UNL     1     -11.363   6.094  69.339  1.00  0.00    -0.401 C  
HETATM    2  C   UNL     1     -10.601   7.378  68.999  1.00  0.00    -0.192 C  
HETATM    3  N   UNL     1     -10.325   7.385  67.547  1.00  0.00    -0.226 NA 
HETATM    4  H1  UNL     1      -9.817   8.241  67.320  1.00  0.00     0.000 HD 
HETATM    5  H2  UNL     1     -11.169   7.271  66.987  1.00  0.00     0.000 HD 
ENDROOT
BRANCH   2   6
HETATM    6  C   UNL     1      -9.270   7.532  69.799  1.00  0.00    -0.147 C  
HETATM    7  H   UNL     1      -7.401   6.913  69.631  1.00  0.00     0.000 HD 
HETATM    8  O   UNL     1      -8.211   6.819  69.144  1.00  0.00    -0.118 OA 
BRANCH   6   9
HETATM    9  C   UNL     1      -9.386   7.092  71.246  1.00  0.00    -0.155 A  
HETATM   10  C   UNL     1      -8.836   5.877  71.690  1.00  0.00    -0.139 A  
HETATM   11  C   UNL     1      -8.994   5.481  73.014  1.00  0.00    -0.122 A  
HETATM   12  C   UNL     1      -9.684   6.277  73.919  1.00  0.00    -0.209 A  
HETATM   13  O   UNL     1      -8.489   4.296  73.463  1.00  0.00    -0.093 OA 
HETATM   14  C   UNL     1     -10.234   7.485  73.493  1.00  0.00    -0.380 A  
HETATM   15  H   UNL     1      -8.597   4.026  74.367  1.00  0.00     0.000 HD 
HETATM   16  C   UNL     1     -10.089   7.889  72.164  1.00  0.00    -0.279 A  
ENDBRANCH   6   9
ENDBRANCH   2   6
TORSDOF 2
ENDMDL
MODEL      238
REMARK 921   NORMALIZED FREE ENERGY PREDICTED BY IDOCK:   -2.11 KCAL/MOL
REMARK 922        TOTAL FREE ENERGY PREDICTED BY IDOCK:   -2.56 KCAL/MOL
REMARK 923 INTER-LIGAND FREE ENERGY PREDICTED BY IDOCK:   -2.45 KCAL/MOL
REMARK 924 INTRA-LIGAND FREE ENERGY PREDICTED BY IDOCK:   -0.12 KCAL/MOL
REMARK 927      BINDING AFFINITY PREDICTED BY RF-SCORE:    0.00 PKD
ROOT
HETATM    1  C   UNL     1     -11.407   6.099  71.126  1.00  0.00    -0.340 C  
HETATM    2  C   UNL     1     -10.882   7.164  72.094  1.00  0.00    -0.224 C  
HETATM    3  N   UNL     1     -12.014   7.647  72.913  1.00  0.00    -0.593 NA 
HETATM    4  H1  UNL     1     -11.664   8.356  73.558  1.00  0.00     0.000 HD 
HETATM    5  H2  UNL     1     -12.505   6.891  73.389  1.00  0.00     0.000 HD 
ENDROOT
BRANCH   2   6
HETATM    6  C   UNL     1     -10.190   8.362  71.374  1.00  0.00    -0.220 C  
HETATM    7  H   UNL     1     -10.748  10.047  70.506  1.00  0.00     0.000 HD 
HETATM    8  O   UNL     1     -11.170   9.318  70.944  1.00  0.00    -0.260 OA 
BRANCH   6   9
HETATM    9  C   UNL     1      -9.319   7.938  70.207  1.00  0.00    -0.159 A  
HETATM   10  C   UNL     1      -8.209   7.096  70.386  1.00  0.00    -0.126 A  
HETATM   11  C   UNL     1      -7.405   6.757  69.302  1.00  0.00    -0.093 A  
HETATM   12  C   UNL     1      -7.688   7.233  68.029  1.00  0.00    -0.117 A  
HETATM   13  O   UNL     1      -6.310   5.958  69.456  1.00  0.00    -0.037 OA 
HETATM   14  C   UNL     1      -8.786   8.070  67.836  1.00  0.00    -0.128 A  
HETATM   15  H   UNL     1      -5.762   5.728  68.716  1.00  0.00     0.000 HD 
HETATM   16  C   UNL     1      -9.595   8.424  68.918  1.00  0.00    -0.153 A  
ENDBRANCH   6   9
ENDBRANCH   2   6
TORSDOF 2
ENDMDL
MODEL      239
REMARK 921   NORMALIZED FREE ENERGY PREDICTED BY IDOCK:   -2.11 KCAL/MOL
REMARK 922        TOTAL FREE ENERGY PREDICTED BY IDOCK:   -2.56 KCAL/MOL
REMARK 923 INTER-LIGAND FREE ENERGY PREDICTED BY IDOCK:   -2.58 KCAL/MOL
REMARK 924 INTRA-LIGAND FREE ENERGY PREDICTED BY IDOCK:    0.02 KCAL/MOL
REMARK 927      BINDING AFFINITY PREDICTED BY RF-SCORE:    0.00 PKD
ROOT
HETATM    1  C   UNL     1     -10.694  10.989  68.631  1.00  0.00    -0.234 C  
HETATM    2  C   UNL     1     -10.966  12.306  67.898  1.00  0.00    -0.224 C  
HETATM    3  N   UNL     1     -12.033  12.073  66.902  1.00  0.00    -0.609 NA 
HETATM    4  H1  UNL     1     -12.215  12.950  66.414  1.00  0.00     0.000 HD 
HETATM    5  H2  UNL     1     -12.875  11.672  67.315  1.00  0.00     0.000 HD 
ENDROOT
BRANCH   2   6
HETATM    6  C   UNL     1      -9.701  12.896  67.202  1.00  0.00    -0.221 C  
HETATM    7  H   UNL     1      -9.312  14.064  65.656  1.00  0.00     0.000 HD 
HETATM    8  O   UNL     1     -10.082  13.705  66.080  1.00  0.00    -0.291 OA 
BRANCH   6   9
HETATM    9  C   UNL     1      -8.705  11.835  66.772  1.00  0.00    -0.192 A  
HETATM   10  C   UNL     1      -8.996  10.933  65.734  1.00  0.00    -0.208 A  
HETATM   11  C   UNL     1      -8.079   9.945  65.389  1.00  0.00    -0.137 A  
HETATM   12  C   UNL     1      -6.863   9.838  66.052  1.00  0.00    -0.094 A  
HETATM   13  O   UNL     1      -8.347   9.045  64.400  1.00  0.00    -0.160 OA 
HETATM   14  C   UNL     1      -6.562  10.726  67.083  1.00  0.00    -0.079 A  
HETATM   15  H   UNL     1      -7.721   8.371  64.165  1.00  0.00     0.000 HD 
HETATM   16  C   UNL     1      -7.478  11.716  67.444  1.00  0.00    -0.135 A  
ENDBRANCH   6   9
ENDBRANCH   2   6
TORSDOF 2
ENDMDL
MODEL      240
REMARK 921   NORMALIZED FREE ENERGY PREDICTED BY IDOCK:   -2.09 KCAL/MOL
REMARK 922        TOTAL FREE ENERGY PREDICTED BY IDOCK:   -2.54 KCAL/MOL
REMARK 923 INTER-LIGAND FREE ENERGY PREDICTED BY IDOCK:   -2.36 KCAL/MOL
REMARK 924 INTRA-LIGAND FREE ENERGY PREDICTED BY IDOCK:   -0.18 KCAL/MOL
REMARK 927      BINDING AFFINITY PREDICTED BY RF-SCORE:    0.00 PKD
ROOT
HETATM    1  C   UNL     1     -10.306   6.102  67.476  1.00  0.00    -0.259 C  
HETATM    2  C   UNL     1     -10.559   5.870  68.969  1.00  0.00    -0.290 C  
HETATM    3  N   UNL     1     -11.675   6.743  69.392  1.00  0.00    -0.631 NA 
HETATM    4  H1  UNL     1     -11.844   6.588  70.386  1.00  0.00     0.000 HD 
HETATM    5  H2  UNL     1     -12.513   6.610  68.827  1.00  0.00     0.000 HD 
ENDROOT
BRANCH   2   6
HETATM    6  C   UNL     1      -9.303   6.138  69.854  1.00  0.00    -0.149 C  
HETATM    7  H   UNL     1      -7.377   6.477  69.569  1.00  0.00     0.000 HD 
HETATM    8  O   UNL     1      -8.142   6.314  69.030  1.00  0.00    -0.108 OA 
BRANCH   6   9
HETATM    9  C   UNL     1      -9.056   5.055  70.888  1.00  0.00    -0.181 A  
HETATM   10  C   UNL     1      -9.924   3.958  71.023  1.00  0.00    -0.149 A  
HETATM   11  C   UNL     1      -9.695   3.002  72.008  1.00  0.00    -0.160 A  
HETATM   12  C   UNL     1      -8.606   3.107  72.863  1.00  0.00    -0.082 A  
HETATM   13  O   UNL     1     -10.535   1.940  72.172  1.00  0.00    -0.157 OA 
HETATM   14  C   UNL     1      -7.737   4.189  72.740  1.00  0.00    -0.080 A  
HETATM   15  H   UNL     1     -10.378   1.288  72.844  1.00  0.00     0.000 HD 
HETATM   16  C   UNL     1      -7.962   5.160  71.761  1.00  0.00    -0.111 A  
ENDBRANCH   6   9
ENDBRANCH   2   6
TORSDOF 2
ENDMDL
MODEL      241
REMARK 921   NORMALIZED FREE ENERGY PREDICTED BY IDOCK:   -2.06 KCAL/MOL
REMARK 922        TOTAL FREE ENERGY PREDICTED BY IDOCK:   -2.51 KCAL/MOL
REMARK 923 INTER-LIGAND FREE ENERGY PREDICTED BY IDOCK:   -2.33 KCAL/MOL
REMARK 924 INTRA-LIGAND FREE ENERGY PREDICTED BY IDOCK:   -0.17 KCAL/MOL
REMARK 927      BINDING AFFINITY PREDICTED BY RF-SCORE:    0.00 PKD
ROOT
HETATM    1  C   UNL     1      -6.765   6.587  68.932  1.00  0.00    -0.057 C  
HETATM    2  C   UNL     1      -7.220   8.036  69.132  1.00  0.00    -0.077 C  
HETATM    3  N   UNL     1      -6.600   8.552  70.371  1.00  0.00    -0.035 NA 
HETATM    4  H1  UNL     1      -6.903   9.517  70.504  1.00  0.00     0.000 HD 
HETATM    5  H2  UNL     1      -5.586   8.456  70.372  1.00  0.00     0.000 HD 
ENDROOT
BRANCH   2   6
HETATM    6  C   UNL     1      -8.771   8.189  69.203  1.00  0.00    -0.140 C  
HETATM    7  H   UNL     1     -10.340   6.992  69.301  1.00  0.00     0.000 HD 
HETATM    8  O   UNL     1      -9.396   6.899  69.257  1.00  0.00    -0.145 OA 
BRANCH   6   9
HETATM    9  C   UNL     1      -9.346   9.006  68.061  1.00  0.00    -0.153 A  
HETATM   10  C   UNL     1     -10.246  10.060  68.293  1.00  0.00    -0.200 A  
HETATM   11  C   UNL     1     -10.789  10.765  67.223  1.00  0.00    -0.288 A  
HETATM   12  C   UNL     1     -10.446  10.449  65.915  1.00  0.00    -0.196 A  
HETATM   13  O   UNL     1     -11.681  11.777  67.422  1.00  0.00    -0.532 OA 
HETATM   14  C   UNL     1      -9.554   9.407  65.670  1.00  0.00    -0.345 A  
HETATM   15  H   UNL     1     -12.051  12.257  66.692  1.00  0.00     0.000 HD 
HETATM   16  C   UNL     1      -9.010   8.686  66.736  1.00  0.00    -0.167 A  
ENDBRANCH   6   9
ENDBRANCH   2   6
TORSDOF 2
ENDMDL
MODEL      242
REMARK 921   NORMALIZED FREE ENERGY PREDICTED BY IDOCK:   -2.02 KCAL/MOL
REMARK 922        TOTAL FREE ENERGY PREDICTED BY IDOCK:   -2.46 KCAL/MOL
REMARK 923 INTER-LIGAND FREE ENERGY PREDICTED BY IDOCK:   -2.51 KCAL/MOL
REMARK 924 INTRA-LIGAND FREE ENERGY PREDICTED BY IDOCK:    0.05 KCAL/MOL
REMARK 927      BINDING AFFINITY PREDICTED BY RF-SCORE:    0.00 PKD
ROOT
HETATM    1  C   UNL     1      -9.835   8.008  66.231  1.00  0.00    -0.162 C  
HETATM    2  C   UNL     1      -8.344   7.907  65.894  1.00  0.00    -0.132 C  
HETATM    3  N   UNL     1      -7.608   7.574  67.132  1.00  0.00    -0.105 NA 
HETATM    4  H1  UNL     1      -6.616   7.506  66.907  1.00  0.00     0.000 HD 
HETATM    5  H2  UNL     1      -7.965   6.734  67.586  1.00  0.00     0.000 HD 
ENDROOT
BRANCH   2   6
HETATM    6  C   UNL     1      -7.767   9.211  65.261  1.00  0.00    -0.099 C  
HETATM    7  H   UNL     1      -6.139  10.314  65.451  1.00  0.00     0.000 HD 
HETATM    8  O   UNL     1      -6.490   9.520  65.836  1.00  0.00    -0.073 OA 
BRANCH   6   9
HETATM    9  C   UNL     1      -8.701  10.400  65.382  1.00  0.00    -0.193 A  
HETATM   10  C   UNL     1      -9.421  10.884  64.276  1.00  0.00    -0.289 A  
HETATM   11  C   UNL     1     -10.239  12.002  64.408  1.00  0.00    -0.302 A  
HETATM   12  C   UNL     1     -10.366  12.651  65.630  1.00  0.00    -0.293 A  
HETATM   13  O   UNL     1     -10.931  12.502  63.345  1.00  0.00    -0.481 OA 
HETATM   14  C   UNL     1      -9.658  12.183  66.734  1.00  0.00    -0.216 A  
HETATM   15  H   UNL     1     -11.489  13.265  63.436  1.00  0.00     0.000 HD 
HETATM   16  C   UNL     1      -8.827  11.067  66.612  1.00  0.00    -0.168 A  
ENDBRANCH   6   9
ENDBRANCH   2   6
TORSDOF 2
ENDMDL
MODEL      243
REMARK 921   NORMALIZED FREE ENERGY PREDICTED BY IDOCK:   -2.01 KCAL/MOL
REMARK 922        TOTAL FREE ENERGY PREDICTED BY IDOCK:   -2.45 KCAL/MOL
REMARK 923 INTER-LIGAND FREE ENERGY PREDICTED BY IDOCK:   -2.24 KCAL/MOL
REMARK 924 INTRA-LIGAND FREE ENERGY PREDICTED BY IDOCK:   -0.20 KCAL/MOL
REMARK 927      BINDING AFFINITY PREDICTED BY RF-SCORE:    0.00 PKD
ROOT
HETATM    1  C   UNL     1      -6.215   6.969  68.846  1.00  0.00    -0.027 C  
HETATM    2  C   UNL     1      -6.639   8.072  67.872  1.00  0.00    -0.053 C  
HETATM    3  N   UNL     1      -5.547   9.065  67.790  1.00  0.00    -0.035 NA 
HETATM    4  H1  UNL     1      -5.829   9.800  67.141  1.00  0.00     0.000 HD 
HETATM    5  H2  UNL     1      -4.652   8.645  67.541  1.00  0.00     0.000 HD 
ENDROOT
BRANCH   2   6
HETATM    6  C   UNL     1      -7.972   8.773  68.278  1.00  0.00    -0.106 C  
HETATM    7  H   UNL     1      -8.615   9.915  69.757  1.00  0.00     0.000 HD 
HETATM    8  O   UNL     1      -7.803   9.488  69.510  1.00  0.00    -0.085 OA 
BRANCH   6   9
HETATM    9  C   UNL     1      -9.145   7.816  68.381  1.00  0.00    -0.131 A  
HETATM   10  C   UNL     1      -9.738   7.255  67.237  1.00  0.00    -0.204 A  
HETATM   11  C   UNL     1     -10.838   6.413  67.361  1.00  0.00    -0.375 A  
HETATM   12  C   UNL     1     -11.362   6.104  68.610  1.00  0.00    -0.106 A  
HETATM   13  O   UNL     1     -11.443   5.873  66.264  1.00  0.00    -0.648 OA 
HETATM   14  C   UNL     1     -10.785   6.654  69.753  1.00  0.00    -0.304 A  
HETATM   15  H   UNL     1     -12.194   5.298  66.349  1.00  0.00     0.000 HD 
HETATM   16  C   UNL     1      -9.685   7.507  69.640  1.00  0.00    -0.167 A  
ENDBRANCH   6   9
ENDBRANCH   2   6
TORSDOF 2
ENDMDL
MODEL      244
REMARK 921   NORMALIZED FREE ENERGY PREDICTED BY IDOCK:   -2.01 KCAL/MOL
REMARK 922        TOTAL FREE ENERGY PREDICTED BY IDOCK:   -2.44 KCAL/MOL
REMARK 923 INTER-LIGAND FREE ENERGY PREDICTED BY IDOCK:   -2.49 KCAL/MOL
REMARK 924 INTRA-LIGAND FREE ENERGY PREDICTED BY IDOCK:    0.05 KCAL/MOL
REMARK 927      BINDING AFFINITY PREDICTED BY RF-SCORE:    0.00 PKD
ROOT
HETATM    1  C   UNL     1      -8.301   6.847  66.934  1.00  0.00    -0.114 C  
HETATM    2  C   UNL     1      -8.744   7.579  68.205  1.00  0.00    -0.122 C  
HETATM    3  N   UNL     1      -8.253   8.971  68.135  1.00  0.00    -0.112 NA 
HETATM    4  H1  UNL     1      -8.548   9.459  68.981  1.00  0.00     0.000 HD 
HETATM    5  H2  UNL     1      -8.548   9.449  67.284  1.00  0.00     0.000 HD 
ENDROOT
BRANCH   2   6
HETATM    6  C   UNL     1      -8.239   6.897  69.514  1.00  0.00    -0.131 C  
HETATM    7  H   UNL     1      -7.767   5.072  70.106  1.00  0.00     0.000 HD 
HETATM    8  O   UNL     1      -8.074   5.486  69.309  1.00  0.00    -0.093 OA 
BRANCH   6   9
HETATM    9  C   UNL     1      -9.139   7.153  70.709  1.00  0.00    -0.153 A  
HETATM   10  C   UNL     1      -9.729   6.097  71.424  1.00  0.00    -0.187 A  
HETATM   11  C   UNL     1     -10.582   6.364  72.490  1.00  0.00    -0.214 A  
HETATM   12  C   UNL     1     -10.858   7.671  72.871  1.00  0.00    -0.446 A  
HETATM   13  O   UNL     1     -11.182   5.356  73.185  1.00  0.00    -0.299 OA 
HETATM   14  C   UNL     1     -10.281   8.728  72.171  1.00  0.00    -0.371 A  
HETATM   15  H   UNL     1     -11.765   5.539  73.913  1.00  0.00     0.000 HD 
HETATM   16  C   UNL     1      -9.429   8.472  71.094  1.00  0.00    -0.249 A  
ENDBRANCH   6   9
ENDBRANCH   2   6
TORSDOF 2
ENDMDL
MODEL      245
REMARK 921   NORMALIZED FREE ENERGY PREDICTED BY IDOCK:   -2.00 KCAL/MOL
REMARK 922        TOTAL FREE ENERGY PREDICTED BY IDOCK:   -2.43 KCAL/MOL
REMARK 923 INTER-LIGAND FREE ENERGY PREDICTED BY IDOCK:   -2.40 KCAL/MOL
REMARK 924 INTRA-LIGAND FREE ENERGY PREDICTED BY IDOCK:   -0.03 KCAL/MOL
REMARK 927      BINDING AFFINITY PREDICTED BY RF-SCORE:    0.00 PKD
ROOT
HETATM    1  C   UNL     1      -9.840   4.401  65.225  1.00  0.00    -0.209 C  
HETATM    2  C   UNL     1      -8.662   3.642  65.846  1.00  0.00    -0.119 C  
HETATM    3  N   UNL     1      -8.798   2.211  65.502  1.00  0.00    -0.119 NA 
HETATM    4  H1  UNL     1      -8.014   1.706  65.915  1.00  0.00     0.000 HD 
HETATM    5  H2  UNL     1      -8.880   2.055  64.498  1.00  0.00     0.000 HD 
ENDROOT
BRANCH   2   6
HETATM    6  C   UNL     1      -8.566   3.816  67.393  1.00  0.00    -0.103 C  
HETATM    7  H   UNL     1      -9.217   2.867  68.999  1.00  0.00     0.000 HD 
HETATM    8  O   UNL     1      -9.276   2.762  68.058  1.00  0.00    -0.168 OA 
BRANCH   6   9
HETATM    9  C   UNL     1      -9.057   5.168  67.876  1.00  0.00    -0.121 A  
HETATM   10  C   UNL     1     -10.227   5.292  68.645  1.00  0.00    -0.223 A  
HETATM   11  C   UNL     1     -10.675   6.549  69.039  1.00  0.00    -0.278 A  
HETATM   12  C   UNL     1      -9.974   7.696  68.692  1.00  0.00    -0.181 A  
HETATM   13  O   UNL     1     -11.819   6.696  69.767  1.00  0.00    -0.640 OA 
HETATM   14  C   UNL     1      -8.813   7.588  67.930  1.00  0.00    -0.126 A  
HETATM   15  H   UNL     1     -12.125   7.554  70.036  1.00  0.00     0.000 HD 
HETATM   16  C   UNL     1      -8.358   6.333  67.521  1.00  0.00    -0.113 A  
ENDBRANCH   6   9
ENDBRANCH   2   6
TORSDOF 2
ENDMDL
MODEL      246
REMARK 921   NORMALIZED FREE ENERGY PREDICTED BY IDOCK:   -1.99 KCAL/MOL
REMARK 922        TOTAL FREE ENERGY PREDICTED BY IDOCK:   -2.43 KCAL/MOL
REMARK 923 INTER-LIGAND FREE ENERGY PREDICTED BY IDOCK:   -2.41 KCAL/MOL
REMARK 924 INTRA-LIGAND FREE ENERGY PREDICTED BY IDOCK:   -0.01 KCAL/MOL
REMARK 927      BINDING AFFINITY PREDICTED BY RF-SCORE:    0.00 PKD
ROOT
HETATM    1  C   UNL     1      -9.774   7.261  67.609  1.00  0.00    -0.173 C  
HETATM    2  C   UNL     1      -9.830   8.765  67.893  1.00  0.00    -0.169 C  
HETATM    3  N   UNL     1      -8.445   9.268  68.010  1.00  0.00    -0.120 NA 
HETATM    4  H1  UNL     1      -8.482  10.270  68.199  1.00  0.00     0.000 HD 
HETATM    5  H2  UNL     1      -7.876   9.044  67.195  1.00  0.00     0.000 HD 
ENDROOT
BRANCH   2   6
HETATM    6  C   UNL     1     -10.639   9.118  69.179  1.00  0.00    -0.208 C  
HETATM    7  H   UNL     1     -10.748  10.625  70.453  1.00  0.00     0.000 HD 
HETATM    8  O   UNL     1     -10.255  10.410  69.670  1.00  0.00    -0.232 OA 
BRANCH   6   9
HETATM    9  C   UNL     1     -10.508   8.078  70.276  1.00  0.00    -0.222 A  
HETATM   10  C   UNL     1      -9.355   7.997  71.076  1.00  0.00    -0.170 A  
HETATM   11  C   UNL     1      -9.246   7.006  72.047  1.00  0.00    -0.138 A  
HETATM   12  C   UNL     1     -10.270   6.090  72.249  1.00  0.00    -0.215 A  
HETATM   13  O   UNL     1      -8.129   6.894  72.821  1.00  0.00    -0.107 OA 
HETATM   14  C   UNL     1     -11.418   6.158  71.462  1.00  0.00    -0.325 A  
HETATM   15  H   UNL     1      -8.055   6.218  73.483  1.00  0.00     0.000 HD 
HETATM   16  C   UNL     1     -11.536   7.143  70.479  1.00  0.00    -0.334 A  
ENDBRANCH   6   9
ENDBRANCH   2   6
TORSDOF 2
ENDMDL
MODEL      247
REMARK 921   NORMALIZED FREE ENERGY PREDICTED BY IDOCK:   -1.99 KCAL/MOL
REMARK 922        TOTAL FREE ENERGY PREDICTED BY IDOCK:   -2.42 KCAL/MOL
REMARK 923 INTER-LIGAND FREE ENERGY PREDICTED BY IDOCK:   -2.25 KCAL/MOL
REMARK 924 INTRA-LIGAND FREE ENERGY PREDICTED BY IDOCK:   -0.18 KCAL/MOL
REMARK 927      BINDING AFFINITY PREDICTED BY RF-SCORE:    0.00 PKD
ROOT
HETATM    1  C   UNL     1      -6.337   6.833  68.393  1.00  0.00    -0.031 C  
HETATM    2  C   UNL     1      -6.890   8.013  67.587  1.00  0.00    -0.070 C  
HETATM    3  N   UNL     1      -6.307   9.259  68.126  1.00  0.00    -0.054 NA 
HETATM    4  H1  UNL     1      -6.675  10.045  67.589  1.00  0.00     0.000 HD 
HETATM    5  H2  UNL     1      -5.288   9.240  68.143  1.00  0.00     0.000 HD 
ENDROOT
BRANCH   2   6
HETATM    6  C   UNL     1      -8.448   8.095  67.609  1.00  0.00    -0.131 C  
HETATM    7  H   UNL     1      -9.966   6.836  67.485  1.00  0.00     0.000 HD 
HETATM    8  O   UNL     1      -9.018   6.786  67.471  1.00  0.00    -0.117 OA 
BRANCH   6   9
HETATM    9  C   UNL     1      -9.014   9.030  66.556  1.00  0.00    -0.177 A  
HETATM   10  C   UNL     1      -8.869   8.763  65.184  1.00  0.00    -0.177 A  
HETATM   11  C   UNL     1      -9.363   9.659  64.241  1.00  0.00    -0.114 A  
HETATM   12  C   UNL     1     -10.013  10.822  64.635  1.00  0.00    -0.386 A  
HETATM   13  O   UNL     1      -9.217   9.432  62.905  1.00  0.00    -0.458 OA 
HETATM   14  C   UNL     1     -10.163  11.099  65.993  1.00  0.00    -0.300 A  
HETATM   15  H   UNL     1      -9.554  10.044  62.262  1.00  0.00     0.000 HD 
HETATM   16  C   UNL     1      -9.664  10.211  66.948  1.00  0.00    -0.233 A  
ENDBRANCH   6   9
ENDBRANCH   2   6
TORSDOF 2
ENDMDL
MODEL      248
REMARK 921   NORMALIZED FREE ENERGY PREDICTED BY IDOCK:   -1.98 KCAL/MOL
REMARK 922        TOTAL FREE ENERGY PREDICTED BY IDOCK:   -2.41 KCAL/MOL
REMARK 923 INTER-LIGAND FREE ENERGY PREDICTED BY IDOCK:   -2.45 KCAL/MOL
REMARK 924 INTRA-LIGAND FREE ENERGY PREDICTED BY IDOCK:    0.04 KCAL/MOL
REMARK 927      BINDING AFFINITY PREDICTED BY RF-SCORE:    0.00 PKD
ROOT
HETATM    1  C   UNL     1      -7.591   9.226  70.232  1.00  0.00    -0.125 C  
HETATM    2  C   UNL     1      -9.018   9.124  69.685  1.00  0.00    -0.155 C  
HETATM    3  N   UNL     1      -9.634   7.890  70.217  1.00  0.00    -0.171 NA 
HETATM    4  H1  UNL     1     -10.584   7.822  69.853  1.00  0.00     0.000 HD 
HETATM    5  H2  UNL     1      -9.600   7.842  71.235  1.00  0.00     0.000 HD 
ENDROOT
BRANCH   2   6
HETATM    6  C   UNL     1      -9.080   9.125  68.126  1.00  0.00    -0.132 C  
HETATM    7  H   UNL     1     -10.298   9.805  66.727  1.00  0.00     0.000 HD 
HETATM    8  O   UNL     1     -10.261   9.804  67.675  1.00  0.00    -0.185 OA 
BRANCH   6   9
HETATM    9  C   UNL     1      -9.009   7.735  67.522  1.00  0.00    -0.126 A  
HETATM   10  C   UNL     1     -10.150   7.103  66.998  1.00  0.00    -0.308 A  
HETATM   11  C   UNL     1     -10.063   5.811  66.488  1.00  0.00    -0.171 A  
HETATM   12  C   UNL     1      -8.853   5.130  66.477  1.00  0.00    -0.117 A  
HETATM   13  O   UNL     1     -11.160   5.170  65.994  1.00  0.00    -0.743 OA 
HETATM   14  C   UNL     1      -7.713   5.744  66.994  1.00  0.00    -0.101 A  
HETATM   15  H   UNL     1     -11.100   4.289  65.646  1.00  0.00     0.000 HD 
HETATM   16  C   UNL     1      -7.790   7.037  67.516  1.00  0.00    -0.112 A  
ENDBRANCH   6   9
ENDBRANCH   2   6
TORSDOF 2
ENDMDL
MODEL      249
REMARK 921   NORMALIZED FREE ENERGY PREDICTED BY IDOCK:   -1.92 KCAL/MOL
REMARK 922        TOTAL FREE ENERGY PREDICTED BY IDOCK:   -2.35 KCAL/MOL
REMARK 923 INTER-LIGAND FREE ENERGY PREDICTED BY IDOCK:   -2.21 KCAL/MOL
REMARK 924 INTRA-LIGAND FREE ENERGY PREDICTED BY IDOCK:   -0.14 KCAL/MOL
REMARK 927      BINDING AFFINITY PREDICTED BY RF-SCORE:    0.00 PKD
ROOT
HETATM    1  C   UNL     1      -9.205   8.506  72.111  1.00  0.00    -0.336 C  
HETATM    2  C   UNL     1     -10.117   7.424  71.524  1.00  0.00    -0.185 C  
HETATM    3  N   UNL     1     -11.282   8.085  70.899  1.00  0.00    -0.263 NA 
HETATM    4  H1  UNL     1     -11.888   7.365  70.507  1.00  0.00     0.000 HD 
HETATM    5  H2  UNL     1     -11.011   8.786  70.210  1.00  0.00     0.000 HD 
ENDROOT
BRANCH   2   6
HETATM    6  C   UNL     1     -10.596   6.382  72.583  1.00  0.00    -0.224 C  
HETATM    7  H   UNL     1     -10.918   6.344  74.532  1.00  0.00     0.000 HD 
HETATM    8  O   UNL     1     -10.626   6.978  73.888  1.00  0.00    -0.371 OA 
BRANCH   6   9
HETATM    9  C   UNL     1      -9.759   5.117  72.600  1.00  0.00    -0.178 A  
HETATM   10  C   UNL     1      -8.458   5.105  73.133  1.00  0.00    -0.110 A  
HETATM   11  C   UNL     1      -7.699   3.939  73.098  1.00  0.00    -0.075 A  
HETATM   12  C   UNL     1      -8.212   2.771  72.549  1.00  0.00    -0.062 A  
HETATM   13  O   UNL     1      -6.427   3.908  73.589  1.00  0.00    -0.037 OA 
HETATM   14  C   UNL     1      -9.500   2.769  72.017  1.00  0.00    -0.197 A  
HETATM   15  H   UNL     1      -5.909   3.113  73.565  1.00  0.00     0.000 HD 
HETATM   16  C   UNL     1     -10.268   3.935  72.039  1.00  0.00    -0.169 A  
ENDBRANCH   6   9
ENDBRANCH   2   6
TORSDOF 2
ENDMDL
MODEL      250
REMARK 921   NORMALIZED FREE ENERGY PREDICTED BY IDOCK:   -1.92 KCAL/MOL
REMARK 922        TOTAL FREE ENERGY PREDICTED BY IDOCK:   -2.34 KCAL/MOL
REMARK 923 INTER-LIGAND FREE ENERGY PREDICTED BY IDOCK:   -2.36 KCAL/MOL
REMARK 924 INTRA-LIGAND FREE ENERGY PREDICTED BY IDOCK:    0.02 KCAL/MOL
REMARK 927      BINDING AFFINITY PREDICTED BY RF-SCORE:    0.00 PKD
ROOT
HETATM    1  C   UNL     1     -10.789   4.650  73.617  1.00  0.00    -0.375 C  
HETATM    2  C   UNL     1      -9.903   5.281  72.538  1.00  0.00    -0.162 C  
HETATM    3  N   UNL     1      -8.656   5.752  73.177  1.00  0.00    -0.117 NA 
HETATM    4  H1  UNL     1      -8.066   6.172  72.459  1.00  0.00     0.000 HD 
HETATM    5  H2  UNL     1      -8.178   5.016  73.695  1.00  0.00     0.000 HD 
ENDROOT
BRANCH   2   6
HETATM    6  C   UNL     1     -10.597   6.457  71.784  1.00  0.00    -0.220 C  
HETATM    7  H   UNL     1     -12.446   7.018  71.366  1.00  0.00     0.000 HD 
HETATM    8  O   UNL     1     -12.023   6.302  71.825  1.00  0.00    -0.321 OA 
BRANCH   6   9
HETATM    9  C   UNL     1     -10.126   6.611  70.350  1.00  0.00    -0.205 A  
HETATM   10  C   UNL     1      -8.773   6.460  70.002  1.00  0.00    -0.142 A  
HETATM   11  C   UNL     1      -8.363   6.647  68.685  1.00  0.00    -0.123 A  
HETATM   12  C   UNL     1      -9.280   6.975  67.695  1.00  0.00    -0.120 A  
HETATM   13  O   UNL     1      -7.053   6.527  68.328  1.00  0.00    -0.077 OA 
HETATM   14  C   UNL     1     -10.625   7.128  68.025  1.00  0.00    -0.251 A  
HETATM   15  H   UNL     1      -6.774   6.655  67.429  1.00  0.00     0.000 HD 
HETATM   16  C   UNL     1     -11.046   6.951  69.345  1.00  0.00    -0.249 A  
ENDBRANCH   6   9
ENDBRANCH   2   6
TORSDOF 2
ENDMDL
MODEL      251
REMARK 921   NORMALIZED FREE ENERGY PREDICTED BY IDOCK:   -1.90 KCAL/MOL
REMARK 922        TOTAL FREE ENERGY PREDICTED BY IDOCK:   -2.32 KCAL/MOL
REMARK 923 INTER-LIGAND FREE ENERGY PREDICTED BY IDOCK:   -2.12 KCAL/MOL
REMARK 924 INTRA-LIGAND FREE ENERGY PREDICTED BY IDOCK:   -0.20 KCAL/MOL
REMARK 927      BINDING AFFINITY PREDICTED BY RF-SCORE:    0.00 PKD
ROOT
HETATM    1  C   UNL     1      -9.404   5.145  73.524  1.00  0.00    -0.133 C  
HETATM    2  C   UNL     1      -9.075   3.990  72.572  1.00  0.00    -0.110 C  
HETATM    3  N   UNL     1      -8.181   3.047  73.276  1.00  0.00    -0.071 NA 
HETATM    4  H1  UNL     1      -7.962   2.278  72.643  1.00  0.00     0.000 HD 
HETATM    5  H2  UNL     1      -8.570   2.726  74.162  1.00  0.00     0.000 HD 
ENDROOT
BRANCH   2   6
HETATM    6  C   UNL     1      -8.414   4.462  71.239  1.00  0.00    -0.098 C  
HETATM    7  H   UNL     1      -6.669   5.193  70.669  1.00  0.00     0.000 HD 
HETATM    8  O   UNL     1      -7.071   4.907  71.480  1.00  0.00    -0.052 OA 
BRANCH   6   9
HETATM    9  C   UNL     1      -9.207   5.541  70.527  1.00  0.00    -0.179 A  
HETATM   10  C   UNL     1      -8.725   6.857  70.420  1.00  0.00    -0.147 A  
HETATM   11  C   UNL     1      -9.493   7.835  69.796  1.00  0.00    -0.160 A  
HETATM   12  C   UNL     1     -10.737   7.530  69.261  1.00  0.00    -0.185 A  
HETATM   13  O   UNL     1      -9.055   9.123  69.700  1.00  0.00    -0.145 OA 
HETATM   14  C   UNL     1     -11.228   6.230  69.359  1.00  0.00    -0.489 A  
HETATM   15  H   UNL     1      -9.580   9.791  69.274  1.00  0.00     0.000 HD 
HETATM   16  C   UNL     1     -10.470   5.241  69.991  1.00  0.00    -0.351 A  
ENDBRANCH   6   9
ENDBRANCH   2   6
TORSDOF 2
ENDMDL
MODEL      252
REMARK 921   NORMALIZED FREE ENERGY PREDICTED BY IDOCK:   -1.89 KCAL/MOL
REMARK 922        TOTAL FREE ENERGY PREDICTED BY IDOCK:   -2.32 KCAL/MOL
REMARK 923 INTER-LIGAND FREE ENERGY PREDICTED BY IDOCK:   -2.16 KCAL/MOL
REMARK 924 INTRA-LIGAND FREE ENERGY PREDICTED BY IDOCK:   -0.15 KCAL/MOL
REMARK 927      BINDING AFFINITY PREDICTED BY RF-SCORE:    0.00 PKD
ROOT
HETATM    1  C   UNL     1     -10.211   3.170  72.535  1.00  0.00    -0.216 C  
HETATM    2  C   UNL     1      -9.922   4.668  72.391  1.00  0.00    -0.173 C  
HETATM    3  N   UNL     1     -10.840   5.407  73.283  1.00  0.00    -0.275 NA 
HETATM    4  H1  UNL     1     -10.647   6.404  73.187  1.00  0.00     0.000 HD 
HETATM    5  H2  UNL     1     -10.788   5.089  74.250  1.00  0.00     0.000 HD 
ENDROOT
BRANCH   2   6
HETATM    6  C   UNL     1     -10.066   5.183  70.925  1.00  0.00    -0.232 C  
HETATM    7  H   UNL     1      -9.913   4.430  69.105  1.00  0.00     0.000 HD 
HETATM    8  O   UNL     1      -9.825   4.116  69.997  1.00  0.00    -0.217 OA 
BRANCH   6   9
HETATM    9  C   UNL     1      -9.167   6.365  70.615  1.00  0.00    -0.162 A  
HETATM   10  C   UNL     1      -9.617   7.688  70.762  1.00  0.00    -0.166 A  
HETATM   11  C   UNL     1      -8.783   8.752  70.430  1.00  0.00    -0.166 A  
HETATM   12  C   UNL     1      -7.496   8.528  69.959  1.00  0.00    -0.060 A  
HETATM   13  O   UNL     1      -9.205  10.044  70.545  1.00  0.00    -0.322 OA 
HETATM   14  C   UNL     1      -7.037   7.221  69.808  1.00  0.00    -0.072 A  
HETATM   15  H   UNL     1      -8.636  10.769  70.318  1.00  0.00     0.000 HD 
HETATM   16  C   UNL     1      -7.867   6.145  70.130  1.00  0.00    -0.102 A  
ENDBRANCH   6   9
ENDBRANCH   2   6
TORSDOF 2
ENDMDL
MODEL      253
REMARK 921   NORMALIZED FREE ENERGY PREDICTED BY IDOCK:   -1.89 KCAL/MOL
REMARK 922        TOTAL FREE ENERGY PREDICTED BY IDOCK:   -2.31 KCAL/MOL
REMARK 923 INTER-LIGAND FREE ENERGY PREDICTED BY IDOCK:   -2.14 KCAL/MOL
REMARK 924 INTRA-LIGAND FREE ENERGY PREDICTED BY IDOCK:   -0.17 KCAL/MOL
REMARK 927      BINDING AFFINITY PREDICTED BY RF-SCORE:    0.00 PKD
ROOT
HETATM    1  C   UNL     1      -7.063  11.814  69.077  1.00  0.00    -0.100 C  
HETATM    2  C   UNL     1      -7.703  12.824  68.119  1.00  0.00    -0.137 C  
HETATM    3  N   UNL     1      -7.967  14.072  68.866  1.00  0.00    -0.299 NA 
HETATM    4  H1  UNL     1      -8.393  14.744  68.229  1.00  0.00     0.000 HD 
HETATM    5  H2  UNL     1      -7.133  14.439  69.323  1.00  0.00     0.000 HD 
ENDROOT
BRANCH   2   6
HETATM    6  C   UNL     1      -9.020  12.301  67.465  1.00  0.00    -0.180 C  
HETATM    7  H   UNL     1     -10.854  11.862  68.056  1.00  0.00     0.000 HD 
HETATM    8  O   UNL     1     -10.053  12.180  68.454  1.00  0.00    -0.206 OA 
BRANCH   6   9
HETATM    9  C   UNL     1      -8.842  10.988  66.726  1.00  0.00    -0.158 A  
HETATM   10  C   UNL     1      -7.821  10.813  65.777  1.00  0.00    -0.106 A  
HETATM   11  C   UNL     1      -7.708   9.610  65.085  1.00  0.00    -0.117 A  
HETATM   12  C   UNL     1      -8.590   8.565  65.325  1.00  0.00    -0.192 A  
HETATM   13  O   UNL     1      -6.739   9.424  64.144  1.00  0.00    -0.090 OA 
HETATM   14  C   UNL     1      -9.608   8.725  66.263  1.00  0.00    -0.328 A  
HETATM   15  H   UNL     1      -6.662   8.604  63.673  1.00  0.00     0.000 HD 
HETATM   16  C   UNL     1      -9.737   9.930  66.958  1.00  0.00    -0.230 A  
ENDBRANCH   6   9
ENDBRANCH   2   6
TORSDOF 2
ENDMDL
MODEL      254
REMARK 921   NORMALIZED FREE ENERGY PREDICTED BY IDOCK:   -1.87 KCAL/MOL
REMARK 922        TOTAL FREE ENERGY PREDICTED BY IDOCK:   -2.29 KCAL/MOL
REMARK 923 INTER-LIGAND FREE ENERGY PREDICTED BY IDOCK:   -2.38 KCAL/MOL
REMARK 924 INTRA-LIGAND FREE ENERGY PREDICTED BY IDOCK:    0.09 KCAL/MOL
REMARK 927      BINDING AFFINITY PREDICTED BY RF-SCORE:    0.00 PKD
ROOT
HETATM    1  C   UNL     1      -8.917   6.958  66.090  1.00  0.00    -0.157 C  
HETATM    2  C   UNL     1      -8.189   8.250  66.475  1.00  0.00    -0.106 C  
HETATM    3  N   UNL     1      -7.020   7.895  67.307  1.00  0.00    -0.073 NA 
HETATM    4  H1  UNL     1      -6.534   8.755  67.563  1.00  0.00     0.000 HD 
HETATM    5  H2  UNL     1      -6.406   7.219  66.853  1.00  0.00     0.000 HD 
ENDROOT
BRANCH   2   6
HETATM    6  C   UNL     1      -9.098   9.266  67.234  1.00  0.00    -0.126 C  
HETATM    7  H   UNL     1      -9.016  11.168  67.761  1.00  0.00     0.000 HD 
HETATM    8  O   UNL     1      -8.462  10.550  67.300  1.00  0.00    -0.122 OA 
BRANCH   6   9
HETATM    9  C   UNL     1      -9.489   8.799  68.623  1.00  0.00    -0.143 A  
HETATM   10  C   UNL     1     -10.521   7.866  68.821  1.00  0.00    -0.198 A  
HETATM   11  C   UNL     1     -10.884   7.487  70.110  1.00  0.00    -0.249 A  
HETATM   12  C   UNL     1     -10.233   8.014  71.218  1.00  0.00    -0.230 A  
HETATM   13  O   UNL     1     -11.896   6.599  70.328  1.00  0.00    -0.494 OA 
HETATM   14  C   UNL     1      -9.208   8.941  71.036  1.00  0.00    -0.307 A  
HETATM   15  H   UNL     1     -12.144   6.342  71.207  1.00  0.00     0.000 HD 
HETATM   16  C   UNL     1      -8.840   9.335  69.748  1.00  0.00    -0.174 A  
ENDBRANCH   6   9
ENDBRANCH   2   6
TORSDOF 2
ENDMDL
MODEL      255
REMARK 921   NORMALIZED FREE ENERGY PREDICTED BY IDOCK:   -1.85 KCAL/MOL
REMARK 922        TOTAL FREE ENERGY PREDICTED BY IDOCK:   -2.27 KCAL/MOL
REMARK 923 INTER-LIGAND FREE ENERGY PREDICTED BY IDOCK:   -2.36 KCAL/MOL
REMARK 924 INTRA-LIGAND FREE ENERGY PREDICTED BY IDOCK:    0.09 KCAL/MOL
REMARK 927      BINDING AFFINITY PREDICTED BY RF-SCORE:    0.00 PKD
ROOT
HETATM    1  C   UNL     1      -9.214   2.770  70.805  1.00  0.00    -0.204 C  
HETATM    2  C   UNL     1      -8.470   3.043  69.495  1.00  0.00    -0.061 C  
HETATM    3  N   UNL     1      -7.289   3.880  69.796  1.00  0.00    -0.048 NA 
HETATM    4  H1  UNL     1      -6.793   4.061  68.923  1.00  0.00     0.000 HD 
HETATM    5  H2  UNL     1      -6.688   3.468  70.509  1.00  0.00     0.000 HD 
ENDROOT
BRANCH   2   6
HETATM    6  C   UNL     1      -9.358   3.737  68.416  1.00  0.00    -0.166 C  
HETATM    7  H   UNL     1      -9.272   4.078  66.472  1.00  0.00     0.000 HD 
HETATM    8  O   UNL     1      -8.731   3.656  67.128  1.00  0.00    -0.105 OA 
BRANCH   6   9
HETATM    9  C   UNL     1      -9.690   5.179  68.750  1.00  0.00    -0.215 A  
HETATM   10  C   UNL     1     -10.808   5.513  69.534  1.00  0.00    -0.254 A  
HETATM   11  C   UNL     1     -11.110   6.847  69.790  1.00  0.00    -0.271 A  
HETATM   12  C   UNL     1     -10.313   7.867  69.287  1.00  0.00    -0.222 A  
HETATM   13  O   UNL     1     -12.201   7.196  70.530  1.00  0.00    -0.559 OA 
HETATM   14  C   UNL     1      -9.201   7.551  68.508  1.00  0.00    -0.143 A  
HETATM   15  H   UNL     1     -12.407   8.106  70.704  1.00  0.00     0.000 HD 
HETATM   16  C   UNL     1      -8.893   6.216  68.237  1.00  0.00    -0.112 A  
ENDBRANCH   6   9
ENDBRANCH   2   6
TORSDOF 2
ENDMDL
MODEL      256
REMARK 921   NORMALIZED FREE ENERGY PREDICTED BY IDOCK:   -1.83 KCAL/MOL
REMARK 922        TOTAL FREE ENERGY PREDICTED BY IDOCK:   -2.24 KCAL/MOL
REMARK 923 INTER-LIGAND FREE ENERGY PREDICTED BY IDOCK:   -2.10 KCAL/MOL
REMARK 924 INTRA-LIGAND FREE ENERGY PREDICTED BY IDOCK:   -0.14 KCAL/MOL
REMARK 927      BINDING AFFINITY PREDICTED BY RF-SCORE:    0.00 PKD
ROOT
HETATM    1  C   UNL     1     -10.478   8.596  67.337  1.00  0.00    -0.351 C  
HETATM    2  C   UNL     1     -10.521   7.150  66.832  1.00  0.00    -0.294 C  
HETATM    3  N   UNL     1     -11.361   6.360  67.757  1.00  0.00    -0.655 NA 
HETATM    4  H1  UNL     1     -11.390   5.397  67.420  1.00  0.00     0.000 HD 
HETATM    5  H2  UNL     1     -12.290   6.760  67.881  1.00  0.00     0.000 HD 
ENDROOT
BRANCH   2   6
HETATM    6  C   UNL     1      -9.108   6.502  66.703  1.00  0.00    -0.147 C  
HETATM    7  H   UNL     1      -7.788   5.657  67.907  1.00  0.00     0.000 HD 
HETATM    8  O   UNL     1      -8.648   6.052  67.986  1.00  0.00    -0.115 OA 
BRANCH   6   9
HETATM    9  C   UNL     1      -8.082   7.421  66.068  1.00  0.00    -0.124 A  
HETATM   10  C   UNL     1      -7.053   8.008  66.825  1.00  0.00    -0.081 A  
HETATM   11  C   UNL     1      -6.151   8.879  66.223  1.00  0.00    -0.063 A  
HETATM   12  C   UNL     1      -6.243   9.176  64.870  1.00  0.00    -0.066 A  
HETATM   13  O   UNL     1      -5.158   9.477  66.942  1.00  0.00    -0.034 OA 
HETATM   14  C   UNL     1      -7.258   8.602  64.107  1.00  0.00    -0.092 A  
HETATM   15  H   UNL     1      -4.543  10.072  66.530  1.00  0.00     0.000 HD 
HETATM   16  C   UNL     1      -8.174   7.732  64.702  1.00  0.00    -0.080 A  
ENDBRANCH   6   9
ENDBRANCH   2   6
TORSDOF 2
ENDMDL
MODEL      257
REMARK 921   NORMALIZED FREE ENERGY PREDICTED BY IDOCK:   -1.81 KCAL/MOL
REMARK 922        TOTAL FREE ENERGY PREDICTED BY IDOCK:   -2.22 KCAL/MOL
REMARK 923 INTER-LIGAND FREE ENERGY PREDICTED BY IDOCK:   -2.23 KCAL/MOL
REMARK 924 INTRA-LIGAND FREE ENERGY PREDICTED BY IDOCK:    0.00 KCAL/MOL
REMARK 927      BINDING AFFINITY PREDICTED BY RF-SCORE:    0.00 PKD
ROOT
HETATM    1  C   UNL     1     -10.608   7.842  67.018  1.00  0.00    -0.381 C  
HETATM    2  C   UNL     1      -9.237   7.439  66.466  1.00  0.00    -0.165 C  
HETATM    3  N   UNL     1      -8.456   6.828  67.562  1.00  0.00    -0.121 NA 
HETATM    4  H1  UNL     1      -7.543   6.559  67.195  1.00  0.00     0.000 HD 
HETATM    5  H2  UNL     1      -8.944   6.050  68.006  1.00  0.00     0.000 HD 
ENDROOT
BRANCH   2   6
HETATM    6  C   UNL     1      -8.448   8.634  65.847  1.00  0.00    -0.146 C  
HETATM    7  H   UNL     1      -6.585   9.016  65.313  1.00  0.00     0.000 HD 
HETATM    8  O   UNL     1      -7.064   8.289  65.690  1.00  0.00    -0.069 OA 
BRANCH   6   9
HETATM    9  C   UNL     1      -8.584   9.919  66.641  1.00  0.00    -0.130 A  
HETATM   10  C   UNL     1      -7.839  10.140  67.812  1.00  0.00    -0.098 A  
HETATM   11  C   UNL     1      -8.015  11.311  68.543  1.00  0.00    -0.145 A  
HETATM   12  C   UNL     1      -8.917  12.282  68.127  1.00  0.00    -0.192 A  
HETATM   13  O   UNL     1      -7.318  11.539  69.693  1.00  0.00    -0.354 OA 
HETATM   14  C   UNL     1      -9.663  12.075  66.968  1.00  0.00    -0.204 A  
HETATM   15  H   UNL     1      -7.439  12.338  70.191  1.00  0.00     0.000 HD 
HETATM   16  C   UNL     1      -9.501  10.900  66.231  1.00  0.00    -0.222 A  
ENDBRANCH   6   9
ENDBRANCH   2   6
TORSDOF 2
ENDMDL
MODEL      258
REMARK 921   NORMALIZED FREE ENERGY PREDICTED BY IDOCK:   -1.79 KCAL/MOL
REMARK 922        TOTAL FREE ENERGY PREDICTED BY IDOCK:   -2.20 KCAL/MOL
REMARK 923 INTER-LIGAND FREE ENERGY PREDICTED BY IDOCK:   -2.33 KCAL/MOL
REMARK 924 INTRA-LIGAND FREE ENERGY PREDICTED BY IDOCK:    0.12 KCAL/MOL
REMARK 927      BINDING AFFINITY PREDICTED BY RF-SCORE:    0.00 PKD
ROOT
HETATM    1  C   UNL     1      -7.366   9.395  70.625  1.00  0.00    -0.140 C  
HETATM    2  C   UNL     1      -8.315   9.939  69.552  1.00  0.00    -0.168 C  
HETATM    3  N   UNL     1      -9.613  10.244  70.189  1.00  0.00    -0.375 NA 
HETATM    4  H1  UNL     1     -10.245  10.606  69.474  1.00  0.00     0.000 HD 
HETATM    5  H2  UNL     1      -9.521  10.873  70.986  1.00  0.00     0.000 HD 
ENDROOT
BRANCH   2   6
HETATM    6  C   UNL     1      -8.521   8.955  68.358  1.00  0.00    -0.129 C  
HETATM    7  H   UNL     1      -9.494   8.950  66.639  1.00  0.00     0.000 HD 
HETATM    8  O   UNL     1      -9.369   9.549  67.365  1.00  0.00    -0.129 OA 
BRANCH   6   9
HETATM    9  C   UNL     1      -9.070   7.606  68.782  1.00  0.00    -0.139 A  
HETATM   10  C   UNL     1      -8.247   6.470  68.860  1.00  0.00    -0.119 A  
HETATM   11  C   UNL     1      -8.788   5.236  69.212  1.00  0.00    -0.100 A  
HETATM   12  C   UNL     1     -10.140   5.108  69.500  1.00  0.00    -0.316 A  
HETATM   13  O   UNL     1      -8.013   4.116  69.274  1.00  0.00    -0.057 OA 
HETATM   14  C   UNL     1     -10.968   6.226  69.426  1.00  0.00    -0.440 A  
HETATM   15  H   UNL     1      -8.382   3.275  69.514  1.00  0.00     0.000 HD 
HETATM   16  C   UNL     1     -10.439   7.467  69.065  1.00  0.00    -0.216 A  
ENDBRANCH   6   9
ENDBRANCH   2   6
TORSDOF 2
ENDMDL
MODEL      259
REMARK 921   NORMALIZED FREE ENERGY PREDICTED BY IDOCK:   -1.76 KCAL/MOL
REMARK 922        TOTAL FREE ENERGY PREDICTED BY IDOCK:   -2.17 KCAL/MOL
REMARK 923 INTER-LIGAND FREE ENERGY PREDICTED BY IDOCK:   -1.98 KCAL/MOL
REMARK 924 INTRA-LIGAND FREE ENERGY PREDICTED BY IDOCK:   -0.19 KCAL/MOL
REMARK 927      BINDING AFFINITY PREDICTED BY RF-SCORE:    0.00 PKD
ROOT
HETATM    1  C   UNL     1      -9.750   8.618  68.934  1.00  0.00    -0.171 C  
HETATM    2  C   UNL     1     -10.495   7.421  69.533  1.00  0.00    -0.232 C  
HETATM    3  N   UNL     1     -11.537   7.932  70.449  1.00  0.00    -0.458 NA 
HETATM    4  H1  UNL     1     -12.034   7.134  70.847  1.00  0.00     0.000 HD 
HETATM    5  H2  UNL     1     -12.164   8.598  69.999  1.00  0.00     0.000 HD 
ENDROOT
BRANCH   2   6
HETATM    6  C   UNL     1      -9.558   6.428  70.287  1.00  0.00    -0.164 C  
HETATM    7  H   UNL     1      -7.955   6.540  71.437  1.00  0.00     0.000 HD 
HETATM    8  O   UNL     1      -8.526   7.145  70.978  1.00  0.00    -0.126 OA 
BRANCH   6   9
HETATM    9  C   UNL     1      -8.950   5.373  69.381  1.00  0.00    -0.124 A  
HETATM   10  C   UNL     1      -7.644   5.502  68.878  1.00  0.00    -0.087 A  
HETATM   11  C   UNL     1      -7.129   4.538  68.016  1.00  0.00    -0.064 A  
HETATM   12  C   UNL     1      -7.885   3.433  67.648  1.00  0.00    -0.077 A  
HETATM   13  O   UNL     1      -5.872   4.652  67.498  1.00  0.00    -0.021 OA 
HETATM   14  C   UNL     1      -9.182   3.293  68.140  1.00  0.00    -0.243 A  
HETATM   15  H   UNL     1      -5.521   3.994  66.910  1.00  0.00     0.000 HD 
HETATM   16  C   UNL     1      -9.713   4.258  68.998  1.00  0.00    -0.209 A  
ENDBRANCH   6   9
ENDBRANCH   2   6
TORSDOF 2
ENDMDL
MODEL      260
REMARK 921   NORMALIZED FREE ENERGY PREDICTED BY IDOCK:   -1.75 KCAL/MOL
REMARK 922        TOTAL FREE ENERGY PREDICTED BY IDOCK:   -2.16 KCAL/MOL
REMARK 923 INTER-LIGAND FREE ENERGY PREDICTED BY IDOCK:   -2.45 KCAL/MOL
REMARK 924 INTRA-LIGAND FREE ENERGY PREDICTED BY IDOCK:    0.29 KCAL/MOL
REMARK 927      BINDING AFFINITY PREDICTED BY RF-SCORE:    0.00 PKD
ROOT
HETATM    1  C   UNL     1      -6.464  12.368  69.475  1.00  0.00    -0.090 C  
HETATM    2  C   UNL     1      -6.955  12.863  68.111  1.00  0.00    -0.102 C  
HETATM    3  N   UNL     1      -6.706  14.318  68.027  1.00  0.00    -0.130 NA 
HETATM    4  H1  UNL     1      -7.032  14.647  67.118  1.00  0.00     0.000 HD 
HETATM    5  H2  UNL     1      -5.731  14.559  68.204  1.00  0.00     0.000 HD 
ENDROOT
BRANCH   2   6
HETATM    6  C   UNL     1      -8.465  12.562  67.855  1.00  0.00    -0.171 C  
HETATM    7  H   UNL     1      -9.537  11.571  66.523  1.00  0.00     0.000 HD 
HETATM    8  O   UNL     1      -8.618  11.755  66.679  1.00  0.00    -0.178 OA 
BRANCH   6   9
HETATM    9  C   UNL     1      -9.316  13.813  67.750  1.00  0.00    -0.213 A  
HETATM   10  C   UNL     1      -9.900  14.203  66.533  1.00  0.00    -0.298 A  
HETATM   11  C   UNL     1     -10.643  15.378  66.458  1.00  0.00    -0.306 A  
HETATM   12  C   UNL     1     -10.828  16.177  67.579  1.00  0.00    -0.284 A  
HETATM   13  O   UNL     1     -11.201  15.788  65.283  1.00  0.00    -0.282 OA 
HETATM   14  C   UNL     1     -10.254  15.802  68.792  1.00  0.00    -0.217 A  
HETATM   15  H   UNL     1     -11.708  16.590  65.233  1.00  0.00     0.000 HD 
HETATM   16  C   UNL     1      -9.499  14.630  68.878  1.00  0.00    -0.173 A  
ENDBRANCH   6   9
ENDBRANCH   2   6
TORSDOF 2
ENDMDL
MODEL      261
REMARK 921   NORMALIZED FREE ENERGY PREDICTED BY IDOCK:   -1.60 KCAL/MOL
REMARK 922        TOTAL FREE ENERGY PREDICTED BY IDOCK:   -1.99 KCAL/MOL
REMARK 923 INTER-LIGAND FREE ENERGY PREDICTED BY IDOCK:   -2.14 KCAL/MOL
REMARK 924 INTRA-LIGAND FREE ENERGY PREDICTED BY IDOCK:    0.15 KCAL/MOL
REMARK 927      BINDING AFFINITY PREDICTED BY RF-SCORE:    0.00 PKD
ROOT
HETATM    1  C   UNL     1      -6.786   3.209  71.045  1.00  0.00    -0.032 C  
HETATM    2  C   UNL     1      -8.253   2.915  71.372  1.00  0.00    -0.062 C  
HETATM    3  N   UNL     1      -8.913   2.418  70.146  1.00  0.00    -0.083 NA 
HETATM    4  H1  UNL     1      -9.890   2.222  70.365  1.00  0.00     0.000 HD 
HETATM    5  H2  UNL     1      -8.434   1.615  69.741  1.00  0.00     0.000 HD 
ENDROOT
BRANCH   2   6
HETATM    6  C   UNL     1      -9.019   4.155  71.929  1.00  0.00    -0.119 C  
HETATM    7  H   UNL     1     -10.780   4.521  72.747  1.00  0.00     0.000 HD 
HETATM    8  O   UNL     1     -10.314   3.766  72.408  1.00  0.00    -0.172 OA 
BRANCH   6   9
HETATM    9  C   UNL     1      -9.147   5.283  70.922  1.00  0.00    -0.168 A  
HETATM   10  C   UNL     1     -10.358   5.539  70.256  1.00  0.00    -0.349 A  
HETATM   11  C   UNL     1     -10.433   6.554  69.307  1.00  0.00    -0.219 A  
HETATM   12  C   UNL     1      -9.324   7.335  69.010  1.00  0.00    -0.148 A  
HETATM   13  O   UNL     1     -11.592   6.807  68.634  1.00  0.00    -0.551 OA 
HETATM   14  C   UNL     1      -8.117   7.092  69.662  1.00  0.00    -0.130 A  
HETATM   15  H   UNL     1     -11.643   7.500  67.986  1.00  0.00     0.000 HD 
HETATM   16  C   UNL     1      -8.027   6.070  70.610  1.00  0.00    -0.111 A  
ENDBRANCH   6   9
ENDBRANCH   2   6
TORSDOF 2
ENDMDL
MODEL      262
REMARK 921   NORMALIZED FREE ENERGY PREDICTED BY IDOCK:   -1.60 KCAL/MOL
REMARK 922        TOTAL FREE ENERGY PREDICTED BY IDOCK:   -1.99 KCAL/MOL
REMARK 923 INTER-LIGAND FREE ENERGY PREDICTED BY IDOCK:   -1.81 KCAL/MOL
REMARK 924 INTRA-LIGAND FREE ENERGY PREDICTED BY IDOCK:   -0.18 KCAL/MOL
REMARK 927      BINDING AFFINITY PREDICTED BY RF-SCORE:    0.00 PKD
ROOT
HETATM    1  C   UNL     1      -8.490   7.362  67.706  1.00  0.00    -0.118 C  
HETATM    2  C   UNL     1      -8.435   7.561  69.223  1.00  0.00    -0.136 C  
HETATM    3  N   UNL     1      -7.571   8.726  69.509  1.00  0.00    -0.078 NA 
HETATM    4  H1  UNL     1      -7.535   8.859  70.520  1.00  0.00     0.000 HD 
HETATM    5  H2  UNL     1      -7.869   9.566  69.014  1.00  0.00     0.000 HD 
ENDROOT
BRANCH   2   6
HETATM    6  C   UNL     1      -7.914   6.306  69.990  1.00  0.00    -0.111 C  
HETATM    7  H   UNL     1      -8.123   4.345  69.866  1.00  0.00     0.000 HD 
HETATM    8  O   UNL     1      -8.440   5.109  69.400  1.00  0.00    -0.089 OA 
BRANCH   6   9
HETATM    9  C   UNL     1      -8.221   6.340  71.475  1.00  0.00    -0.118 A  
HETATM   10  C   UNL     1      -9.529   6.541  71.950  1.00  0.00    -0.153 A  
HETATM   11  C   UNL     1      -9.774   6.609  73.318  1.00  0.00    -0.170 A  
HETATM   12  C   UNL     1      -8.740   6.470  74.235  1.00  0.00    -0.159 A  
HETATM   13  O   UNL     1     -11.030   6.824  73.802  1.00  0.00    -0.499 OA 
HETATM   14  C   UNL     1      -7.438   6.270  73.778  1.00  0.00    -0.090 A  
HETATM   15  H   UNL     1     -11.197   6.871  74.735  1.00  0.00     0.000 HD 
HETATM   16  C   UNL     1      -7.179   6.209  72.407  1.00  0.00    -0.085 A  
ENDBRANCH   6   9
ENDBRANCH   2   6
TORSDOF 2
ENDMDL
MODEL      263
REMARK 921   NORMALIZED FREE ENERGY PREDICTED BY IDOCK:   -1.58 KCAL/MOL
REMARK 922        TOTAL FREE ENERGY PREDICTED BY IDOCK:   -1.97 KCAL/MOL
REMARK 923 INTER-LIGAND FREE ENERGY PREDICTED BY IDOCK:   -2.07 KCAL/MOL
REMARK 924 INTRA-LIGAND FREE ENERGY PREDICTED BY IDOCK:    0.10 KCAL/MOL
REMARK 927      BINDING AFFINITY PREDICTED BY RF-SCORE:    0.00 PKD
ROOT
HETATM    1  C   UNL     1      -7.158   2.433  70.672  1.00  0.00    -0.033 C  
HETATM    2  C   UNL     1      -8.405   2.548  71.554  1.00  0.00    -0.062 C  
HETATM    3  N   UNL     1      -9.597   2.534  70.679  1.00  0.00    -0.127 NA 
HETATM    4  H1  UNL     1     -10.427   2.610  71.266  1.00  0.00     0.000 HD 
HETATM    5  H2  UNL     1      -9.624   1.721  70.066  1.00  0.00     0.000 HD 
ENDROOT
BRANCH   2   6
HETATM    6  C   UNL     1      -8.410   3.826  72.448  1.00  0.00    -0.089 C  
HETATM    7  H   UNL     1      -8.572   4.245  74.373  1.00  0.00     0.000 HD 
HETATM    8  O   UNL     1      -8.569   3.467  73.829  1.00  0.00    -0.081 OA 
BRANCH   6   9
HETATM    9  C   UNL     1      -9.465   4.837  72.043  1.00  0.00    -0.186 A  
HETATM   10  C   UNL     1      -9.288   5.676  70.928  1.00  0.00    -0.190 A  
HETATM   11  C   UNL     1     -10.256   6.623  70.605  1.00  0.00    -0.189 A  
HETATM   12  C   UNL     1     -11.411   6.749  71.365  1.00  0.00    -0.336 A  
HETATM   13  O   UNL     1     -10.097   7.461  69.541  1.00  0.00    -0.179 OA 
HETATM   14  C   UNL     1     -11.599   5.925  72.473  1.00  0.00    -0.327 A  
HETATM   15  H   UNL     1     -10.757   8.107  69.321  1.00  0.00     0.000 HD 
HETATM   16  C   UNL     1     -10.632   4.977  72.812  1.00  0.00    -0.274 A  
ENDBRANCH   6   9
ENDBRANCH   2   6
TORSDOF 2
ENDMDL
MODEL      264
REMARK 921   NORMALIZED FREE ENERGY PREDICTED BY IDOCK:   -1.52 KCAL/MOL
REMARK 922        TOTAL FREE ENERGY PREDICTED BY IDOCK:   -1.90 KCAL/MOL
REMARK 923 INTER-LIGAND FREE ENERGY PREDICTED BY IDOCK:   -1.84 KCAL/MOL
REMARK 924 INTRA-LIGAND FREE ENERGY PREDICTED BY IDOCK:   -0.06 KCAL/MOL
REMARK 927      BINDING AFFINITY PREDICTED BY RF-SCORE:    0.00 PKD
ROOT
HETATM    1  C   UNL     1      -6.852  11.557  69.767  1.00  0.00     0.010 C  
HETATM    2  C   UNL     1      -6.865  12.928  69.084  1.00  0.00    -0.054 C  
HETATM    3  N   UNL     1      -7.279  13.940  70.079  1.00  0.00    -0.217 NA 
HETATM    4  H1  UNL     1      -7.287  14.853  69.624  1.00  0.00     0.000 HD 
HETATM    5  H2  UNL     1      -6.699  13.925  70.917  1.00  0.00     0.000 HD 
ENDROOT
BRANCH   2   6
HETATM    6  C   UNL     1      -7.803  12.985  67.838  1.00  0.00    -0.149 C  
HETATM    7  H   UNL     1      -9.729  13.254  67.488  1.00  0.00     0.000 HD 
HETATM    8  O   UNL     1      -9.158  13.219  68.246  1.00  0.00    -0.196 OA 
BRANCH   6   9
HETATM    9  C   UNL     1      -7.721  11.745  66.968  1.00  0.00    -0.158 A  
HETATM   10  C   UNL     1      -8.863  10.983  66.666  1.00  0.00    -0.168 A  
HETATM   11  C   UNL     1      -8.751   9.827  65.900  1.00  0.00    -0.139 A  
HETATM   12  C   UNL     1      -7.518   9.412  65.413  1.00  0.00    -0.099 A  
HETATM   13  O   UNL     1      -9.841   9.061  65.612  1.00  0.00    -0.461 OA 
HETATM   14  C   UNL     1      -6.377  10.157  65.705  1.00  0.00    -0.102 A  
HETATM   15  H   UNL     1      -9.764   8.272  65.089  1.00  0.00     0.000 HD 
HETATM   16  C   UNL     1      -6.476  11.315  66.481  1.00  0.00    -0.111 A  
ENDBRANCH   6   9
ENDBRANCH   2   6
TORSDOF 2
ENDMDL
MODEL      265
REMARK 921   NORMALIZED FREE ENERGY PREDICTED BY IDOCK:   -1.49 KCAL/MOL
REMARK 922        TOTAL FREE ENERGY PREDICTED BY IDOCK:   -1.86 KCAL/MOL
REMARK 923 INTER-LIGAND FREE ENERGY PREDICTED BY IDOCK:   -2.85 KCAL/MOL
REMARK 924 INTRA-LIGAND FREE ENERGY PREDICTED BY IDOCK:    0.98 KCAL/MOL
REMARK 927      BINDING AFFINITY PREDICTED BY RF-SCORE:    0.00 PKD
ROOT
HETATM    1  C   UNL     1     -10.910   6.058  67.559  1.00  0.00    -0.393 C  
HETATM    2  C   UNL     1     -10.810   6.095  69.087  1.00  0.00    -0.351 C  
HETATM    3  N   UNL     1     -12.034   6.731  69.618  1.00  0.00    -0.605 NA 
HETATM    4  H1  UNL     1     -11.967   6.755  70.636  1.00  0.00     0.000 HD 
HETATM    5  H2  UNL     1     -12.886   6.276  69.292  1.00  0.00     0.000 HD 
ENDROOT
BRANCH   2   6
HETATM    6  C   UNL     1      -9.545   6.849  69.602  1.00  0.00    -0.146 C  
HETATM    7  H   UNL     1      -8.803   7.405  71.347  1.00  0.00     0.000 HD 
HETATM    8  O   UNL     1      -9.573   6.946  71.033  1.00  0.00    -0.170 OA 
BRANCH   6   9
HETATM    9  C   UNL     1      -9.374   8.224  68.984  1.00  0.00    -0.147 A  
HETATM   10  C   UNL     1     -10.024   8.578  67.789  1.00  0.00    -0.241 A  
HETATM   11  C   UNL     1      -9.816   9.833  67.225  1.00  0.00    -0.181 A  
HETATM   12  C   UNL     1      -8.975  10.756  67.832  1.00  0.00    -0.139 A  
HETATM   13  O   UNL     1     -10.419  10.191  66.055  1.00  0.00    -0.194 OA 
HETATM   14  C   UNL     1      -8.324  10.419  69.016  1.00  0.00    -0.150 A  
HETATM   15  H   UNL     1     -10.276  11.047  65.670  1.00  0.00     0.000 HD 
HETATM   16  C   UNL     1      -8.518   9.159  69.588  1.00  0.00    -0.133 A  
ENDBRANCH   6   9
ENDBRANCH   2   6
TORSDOF 2
ENDMDL
MODEL      266
REMARK 921   NORMALIZED FREE ENERGY PREDICTED BY IDOCK:   -1.45 KCAL/MOL
REMARK 922        TOTAL FREE ENERGY PREDICTED BY IDOCK:   -1.82 KCAL/MOL
REMARK 923 INTER-LIGAND FREE ENERGY PREDICTED BY IDOCK:   -1.85 KCAL/MOL
REMARK 924 INTRA-LIGAND FREE ENERGY PREDICTED BY IDOCK:    0.03 KCAL/MOL
REMARK 927      BINDING AFFINITY PREDICTED BY RF-SCORE:    0.00 PKD
ROOT
HETATM    1  C   UNL     1     -10.867  10.322  68.176  1.00  0.00    -0.312 C  
HETATM    2  C   UNL     1     -10.684  11.842  68.121  1.00  0.00    -0.214 C  
HETATM    3  N   UNL     1     -11.365  12.349  66.910  1.00  0.00    -0.312 NA 
HETATM    4  H1  UNL     1     -11.243  13.361  66.874  1.00  0.00     0.000 HD 
HETATM    5  H2  UNL     1     -12.344  12.070  66.865  1.00  0.00     0.000 HD 
ENDROOT
BRANCH   2   6
HETATM    6  C   UNL     1      -9.187  12.281  68.119  1.00  0.00    -0.197 C  
HETATM    7  H   UNL     1      -8.087  13.668  67.240  1.00  0.00     0.000 HD 
HETATM    8  O   UNL     1      -8.998  13.400  67.241  1.00  0.00    -0.202 OA 
BRANCH   6   9
HETATM    9  C   UNL     1      -8.233  11.159  67.755  1.00  0.00    -0.119 A  
HETATM   10  C   UNL     1      -7.393  10.569  68.715  1.00  0.00    -0.092 A  
HETATM   11  C   UNL     1      -6.499   9.570  68.343  1.00  0.00    -0.053 A  
HETATM   12  C   UNL     1      -6.428   9.132  67.027  1.00  0.00    -0.064 A  
HETATM   13  O   UNL     1      -5.660   8.998  69.253  1.00  0.00    -0.035 OA 
HETATM   14  C   UNL     1      -7.254   9.709  66.065  1.00  0.00    -0.098 A  
HETATM   15  H   UNL     1      -5.050   8.316  68.999  1.00  0.00     0.000 HD 
HETATM   16  C   UNL     1      -8.149  10.718  66.424  1.00  0.00    -0.153 A  
ENDBRANCH   6   9
ENDBRANCH   2   6
TORSDOF 2
ENDMDL
MODEL      267
REMARK 921   NORMALIZED FREE ENERGY PREDICTED BY IDOCK:   -1.43 KCAL/MOL
REMARK 922        TOTAL FREE ENERGY PREDICTED BY IDOCK:   -1.80 KCAL/MOL
REMARK 923 INTER-LIGAND FREE ENERGY PREDICTED BY IDOCK:   -1.62 KCAL/MOL
REMARK 924 INTRA-LIGAND FREE ENERGY PREDICTED BY IDOCK:   -0.18 KCAL/MOL
REMARK 927      BINDING AFFINITY PREDICTED BY RF-SCORE:    0.00 PKD
ROOT
HETATM    1  C   UNL     1     -10.100   8.055  66.620  1.00  0.00    -0.329 C  
HETATM    2  C   UNL     1      -9.783   6.571  66.828  1.00  0.00    -0.164 C  
HETATM    3  N   UNL     1      -9.992   6.246  68.255  1.00  0.00    -0.132 NA 
HETATM    4  H1  UNL     1      -9.781   5.258  68.393  1.00  0.00     0.000 HD 
HETATM    5  H2  UNL     1     -10.924   6.498  68.582  1.00  0.00     0.000 HD 
ENDROOT
BRANCH   2   6
HETATM    6  C   UNL     1      -8.335   6.185  66.396  1.00  0.00    -0.120 C  
HETATM    7  H   UNL     1      -7.181   6.438  64.811  1.00  0.00     0.000 HD 
HETATM    8  O   UNL     1      -8.063   6.673  65.074  1.00  0.00    -0.124 OA 
BRANCH   6   9
HETATM    9  C   UNL     1      -8.063   4.695  66.473  1.00  0.00    -0.103 A  
HETATM   10  C   UNL     1      -8.850   3.768  65.769  1.00  0.00    -0.124 A  
HETATM   11  C   UNL     1      -8.602   2.404  65.892  1.00  0.00    -0.113 A  
HETATM   12  C   UNL     1      -7.574   1.936  66.699  1.00  0.00    -0.065 A  
HETATM   13  O   UNL     1      -9.365   1.484  65.234  1.00  0.00    -0.242 OA 
HETATM   14  C   UNL     1      -6.786   2.844  67.404  1.00  0.00    -0.041 A  
HETATM   15  H   UNL     1      -9.196   0.554  65.319  1.00  0.00     0.000 HD 
HETATM   16  C   UNL     1      -7.030   4.215  67.295  1.00  0.00    -0.059 A  
ENDBRANCH   6   9
ENDBRANCH   2   6
TORSDOF 2
ENDMDL
MODEL      268
REMARK 921   NORMALIZED FREE ENERGY PREDICTED BY IDOCK:   -1.25 KCAL/MOL
REMARK 922        TOTAL FREE ENERGY PREDICTED BY IDOCK:   -1.60 KCAL/MOL
REMARK 923 INTER-LIGAND FREE ENERGY PREDICTED BY IDOCK:   -1.47 KCAL/MOL
REMARK 924 INTRA-LIGAND FREE ENERGY PREDICTED BY IDOCK:   -0.13 KCAL/MOL
REMARK 927      BINDING AFFINITY PREDICTED BY RF-SCORE:    0.00 PKD
ROOT
HETATM    1  C   UNL     1      -8.086   7.641  68.124  1.00  0.00    -0.124 C  
HETATM    2  C   UNL     1      -8.820   6.834  69.199  1.00  0.00    -0.134 C  
HETATM    3  N   UNL     1      -9.370   7.777  70.195  1.00  0.00    -0.154 NA 
HETATM    4  H1  UNL     1      -9.860   7.239  70.911  1.00  0.00     0.000 HD 
HETATM    5  H2  UNL     1      -9.959   8.494  69.773  1.00  0.00     0.000 HD 
ENDROOT
BRANCH   2   6
HETATM    6  C   UNL     1      -7.912   5.778  69.903  1.00  0.00    -0.096 C  
HETATM    7  H   UNL     1      -5.977   5.489  70.180  1.00  0.00     0.000 HD 
HETATM    8  O   UNL     1      -6.530   6.131  69.751  1.00  0.00    -0.039 OA 
BRANCH   6   9
HETATM    9  C   UNL     1      -8.151   4.362  69.416  1.00  0.00    -0.061 A  
HETATM   10  C   UNL     1      -8.755   4.105  68.173  1.00  0.00    -0.117 A  
HETATM   11  C   UNL     1      -8.999   2.795  67.771  1.00  0.00    -0.161 A  
HETATM   12  C   UNL     1      -8.642   1.723  68.580  1.00  0.00    -0.093 A  
HETATM   13  O   UNL     1      -9.603   2.521  66.580  1.00  0.00    -0.385 OA 
HETATM   14  C   UNL     1      -8.043   1.964  69.815  1.00  0.00    -0.057 A  
HETATM   15  H   UNL     1      -9.769   1.627  66.306  1.00  0.00     0.000 HD 
HETATM   16  C   UNL     1      -7.801   3.274  70.233  1.00  0.00    -0.046 A  
ENDBRANCH   6   9
ENDBRANCH   2   6
TORSDOF 2
ENDMDL
MODEL      269
REMARK 921   NORMALIZED FREE ENERGY PREDICTED BY IDOCK:   -1.22 KCAL/MOL
REMARK 922        TOTAL FREE ENERGY PREDICTED BY IDOCK:   -1.57 KCAL/MOL
REMARK 923 INTER-LIGAND FREE ENERGY PREDICTED BY IDOCK:   -1.42 KCAL/MOL
REMARK 924 INTRA-LIGAND FREE ENERGY PREDICTED BY IDOCK:   -0.15 KCAL/MOL
REMARK 927      BINDING AFFINITY PREDICTED BY RF-SCORE:    0.00 PKD
ROOT
HETATM    1  C   UNL     1     -10.488   7.552  69.987  1.00  0.00    -0.231 C  
HETATM    2  C   UNL     1      -9.161   8.005  69.370  1.00  0.00    -0.148 C  
HETATM    3  N   UNL     1      -9.414   8.420  67.974  1.00  0.00    -0.142 NA 
HETATM    4  H1  UNL     1      -8.530   8.722  67.564  1.00  0.00     0.000 HD 
HETATM    5  H2  UNL     1     -10.142   9.129  67.902  1.00  0.00     0.000 HD 
ENDROOT
BRANCH   2   6
HETATM    6  C   UNL     1      -8.056   6.904  69.411  1.00  0.00    -0.127 C  
HETATM    7  H   UNL     1      -7.939   4.958  69.086  1.00  0.00     0.000 HD 
HETATM    8  O   UNL     1      -8.612   5.628  69.061  1.00  0.00    -0.104 OA 
BRANCH   6   9
HETATM    9  C   UNL     1      -7.343   6.819  70.748  1.00  0.00    -0.078 A  
HETATM   10  C   UNL     1      -7.346   7.896  71.651  1.00  0.00    -0.070 A  
HETATM   11  C   UNL     1      -6.649   7.804  72.851  1.00  0.00    -0.069 A  
HETATM   12  C   UNL     1      -5.951   6.650  73.183  1.00  0.00    -0.057 A  
HETATM   13  O   UNL     1      -6.619   8.844  73.734  1.00  0.00    -0.317 OA 
HETATM   14  C   UNL     1      -5.939   5.575  72.297  1.00  0.00    -0.030 A  
HETATM   15  H   UNL     1      -6.143   8.780  74.553  1.00  0.00     0.000 HD 
HETATM   16  C   UNL     1      -6.628   5.659  71.085  1.00  0.00    -0.044 A  
ENDBRANCH   6   9
ENDBRANCH   2   6
TORSDOF 2
ENDMDL
MODEL      270
REMARK 921   NORMALIZED FREE ENERGY PREDICTED BY IDOCK:   -0.99 KCAL/MOL
REMARK 922        TOTAL FREE ENERGY PREDICTED BY IDOCK:   -1.31 KCAL/MOL
REMARK 923 INTER-LIGAND FREE ENERGY PREDICTED BY IDOCK:   -1.14 KCAL/MOL
REMARK 924 INTRA-LIGAND FREE ENERGY PREDICTED BY IDOCK:   -0.17 KCAL/MOL
REMARK 927      BINDING AFFINITY PREDICTED BY RF-SCORE:    0.00 PKD
ROOT
HETATM    1  C   UNL     1      -8.568   7.843  71.616  1.00  0.00    -0.147 C  
HETATM    2  C   UNL     1      -9.068   6.493  71.092  1.00  0.00    -0.152 C  
HETATM    3  N   UNL     1     -10.505   6.622  70.770  1.00  0.00    -0.212 NA 
HETATM    4  H1  UNL     1     -10.837   5.723  70.421  1.00  0.00     0.000 HD 
HETATM    5  H2  UNL     1     -10.695   7.388  70.125  1.00  0.00     0.000 HD 
ENDROOT
BRANCH   2   6
HETATM    6  C   UNL     1      -8.846   5.322  72.099  1.00  0.00    -0.130 C  
HETATM    7  H   UNL     1      -7.913   5.051  73.820  1.00  0.00     0.000 HD 
HETATM    8  O   UNL     1      -8.048   5.763  73.207  1.00  0.00    -0.113 OA 
BRANCH   6   9
HETATM    9  C   UNL     1      -8.227   4.092  71.461  1.00  0.00    -0.087 A  
HETATM   10  C   UNL     1      -7.210   4.198  70.497  1.00  0.00    -0.041 A  
HETATM   11  C   UNL     1      -6.691   3.054  69.899  1.00  0.00    -0.034 A  
HETATM   12  C   UNL     1      -7.156   1.793  70.250  1.00  0.00    -0.033 A  
HETATM   13  O   UNL     1      -5.719   3.133  68.946  1.00  0.00    -0.021 OA 
HETATM   14  C   UNL     1      -8.164   1.673  71.205  1.00  0.00    -0.056 A  
HETATM   15  H   UNL     1      -5.365   2.352  68.539  1.00  0.00     0.000 HD 
HETATM   16  C   UNL     1      -8.699   2.815  71.805  1.00  0.00    -0.110 A  
ENDBRANCH   6   9
ENDBRANCH   2   6
TORSDOF 2
ENDMDL
MODEL      271
REMARK 921   NORMALIZED FREE ENERGY PREDICTED BY IDOCK:   -0.74 KCAL/MOL
REMARK 922        TOTAL FREE ENERGY PREDICTED BY IDOCK:   -1.03 KCAL/MOL
REMARK 923 INTER-LIGAND FREE ENERGY PREDICTED BY IDOCK:   -1.45 KCAL/MOL
REMARK 924 INTRA-LIGAND FREE ENERGY PREDICTED BY IDOCK:    0.42 KCAL/MOL
REMARK 927      BINDING AFFINITY PREDICTED BY RF-SCORE:    0.00 PKD
ROOT
HETATM    1  C   UNL     1      -6.182  10.870  69.937  1.00  0.00    -0.117 C  
HETATM    2  C   UNL     1      -6.779  11.434  68.643  1.00  0.00    -0.070 C  
HETATM    3  N   UNL     1      -7.549  12.650  68.977  1.00  0.00    -0.323 NA 
HETATM    4  H1  UNL     1      -7.946  13.026  68.116  1.00  0.00     0.000 HD 
HETATM    5  H2  UNL     1      -6.995  13.338  69.486  1.00  0.00     0.000 HD 
ENDROOT
BRANCH   2   6
HETATM    6  C   UNL     1      -7.686  10.413  67.888  1.00  0.00    -0.089 C  
HETATM    7  H   UNL     1      -9.573  10.307  67.310  1.00  0.00     0.000 HD 
HETATM    8  O   UNL     1      -9.021  10.927  67.770  1.00  0.00    -0.136 OA 
BRANCH   6   9
HETATM    9  C   UNL     1      -7.706   9.039  68.531  1.00  0.00    -0.097 A  
HETATM   10  C   UNL     1      -8.232   8.839  69.819  1.00  0.00    -0.117 A  
HETATM   11  C   UNL     1      -8.199   7.574  70.399  1.00  0.00    -0.123 A  
HETATM   12  C   UNL     1      -7.660   6.491  69.716  1.00  0.00    -0.097 A  
HETATM   13  O   UNL     1      -8.684   7.359  71.655  1.00  0.00    -0.116 OA 
HETATM   14  C   UNL     1      -7.135   6.676  68.439  1.00  0.00    -0.083 A  
HETATM   15  H   UNL     1      -8.662   6.496  72.050  1.00  0.00     0.000 HD 
HETATM   16  C   UNL     1      -7.154   7.942  67.850  1.00  0.00    -0.086 A  
ENDBRANCH   6   9
ENDBRANCH   2   6
TORSDOF 2
ENDMDL
MODEL      272
REMARK 921   NORMALIZED FREE ENERGY PREDICTED BY IDOCK:    3.52 KCAL/MOL
REMARK 922        TOTAL FREE ENERGY PREDICTED BY IDOCK:    3.73 KCAL/MOL
REMARK 923 INTER-LIGAND FREE ENERGY PREDICTED BY IDOCK:    3.90 KCAL/MOL
REMARK 924 INTRA-LIGAND FREE ENERGY PREDICTED BY IDOCK:   -0.16 KCAL/MOL
REMARK 927      BINDING AFFINITY PREDICTED BY RF-SCORE:    0.00 PKD
ROOT
HETATM    1  C   UNL     1     -12.134  14.260  72.921  1.00  0.00     0.130 C  
HETATM    2  C   UNL     1     -11.029  14.726  71.968  1.00  0.00     0.902 C  
HETATM    3  N   UNL     1      -9.808  14.983  72.760  1.00  0.00     3.948 NA 
HETATM    4  H1  UNL     1      -9.072  15.293  72.125  1.00  0.00     0.000 HD 
HETATM    5  H2  UNL     1      -9.528  14.179  73.321  1.00  0.00     0.000 HD 
ENDROOT
BRANCH   2   6
HETATM    6  C   UNL     1     -11.417  15.998  71.152  1.00  0.00    -0.419 C  
HETATM    7  H   UNL     1     -12.848  17.360  71.190  1.00  0.00     0.000 HD 
HETATM    8  O   UNL     1     -12.612  16.586  71.686  1.00  0.00     0.149 OA 
BRANCH   6   9
HETATM    9  C   UNL     1     -11.579  15.733  69.668  1.00  0.00    -0.363 A  
HETATM   10  C   UNL     1     -12.089  14.513  69.192  1.00  0.00    -0.299 A  
HETATM   11  C   UNL     1     -12.188  14.282  67.823  1.00  0.00    -0.164 A  
HETATM   12  C   UNL     1     -11.796  15.250  66.907  1.00  0.00     0.102 A  
HETATM   13  O   UNL     1     -12.660  13.098  67.337  1.00  0.00    -0.030 OA 
HETATM   14  C   UNL     1     -11.288  16.464  67.365  1.00  0.00     0.160 A  
HETATM   15  H   UNL     1     -12.727  12.942  66.403  1.00  0.00     0.000 HD 
HETATM   16  C   UNL     1     -11.177  16.704  68.737  1.00  0.00    -0.217 A  
ENDBRANCH   6   9
ENDBRANCH   2   6
TORSDOF 2
ENDMDL
