MODEL        1
REMARK 921   NORMALIZED FREE ENERGY PREDICTED BY IDOCK:   -9.23 KCAL/MOL
REMARK 922        TOTAL FREE ENERGY PREDICTED BY IDOCK:   -9.88 KCAL/MOL
REMARK 923 INTER-LIGAND FREE ENERGY PREDICTED BY IDOCK:  -10.31 KCAL/MOL
REMARK 924 INTRA-LIGAND FREE ENERGY PREDICTED BY IDOCK:    0.43 KCAL/MOL
REMARK 927      BINDING AFFINITY PREDICTED BY RF-SCORE:    0.00 PKD
ROOT
HETATM    1  C   UNL     1     -11.087  12.134  66.363  1.00  0.00    -0.358 C  
HETATM    2  C   UNL     1     -11.111  11.710  67.830  1.00  0.00    -0.247 C  
HETATM    3  C   UNL     1     -11.950  12.742  68.669  1.00  0.00    -0.272 C  
HETATM    4  O   UNL     1      -9.802  11.596  68.383  1.00  0.00    -0.193 OA 
HETATM    5  C   UNL     1     -12.163  12.347  70.124  1.00  0.00    -0.303 C  
HETATM    6  H   UNL     1      -9.817  11.333  69.295  1.00  0.00     0.000 HD 
HETATM    7  C   UNL     1     -12.627  13.412  71.028  1.00  0.00    -0.425 A  
HETATM    8  C   UNL     1     -11.806  11.176  70.680  1.00  0.00    -0.403 C  
HETATM    9  C   UNL     1     -12.044  14.676  70.926  1.00  0.00    -0.393 A  
HETATM   10  C   UNL     1     -12.231  15.601  71.966  1.00  0.00    -0.436 A  
HETATM   11  C   UNL     1     -11.217  15.005  69.726  1.00  0.00    -0.277 C  
HETATM   12  O   UNL     1     -11.562  16.792  72.042  1.00  0.00    -0.528 OA 
HETATM   13  C   UNL     1     -13.100  15.317  73.025  1.00  0.00    -0.612 A  
HETATM   14  C   UNL     1     -11.340  14.125  68.510  1.00  0.00    -0.312 C  
HETATM   15  O   UNL     1     -10.485  15.990  69.748  1.00  0.00    -0.275 OA 
HETATM   16  H   UNL     1     -11.689  17.419  72.746  1.00  0.00     0.000 HD 
HETATM   17  C   UNL     1     -10.786  14.511  67.334  1.00  0.00    -0.282 C  
HETATM   18  C   UNL     1     -13.783  14.109  73.053  1.00  0.00     0.010 A  
HETATM   19  O   UNL     1     -10.044  15.688  67.221  1.00  0.00    -0.248 OA 
HETATM   20  C   UNL     1     -10.601  13.578  66.131  1.00  0.00    -0.290 C  
HETATM   21  C   UNL     1     -13.539  13.148  72.064  1.00  0.00    -0.554 A  
HETATM   22  H   UNL     1      -9.656  15.959  66.398  1.00  0.00     0.000 HD 
HETATM   23  C   UNL     1     -11.263  13.954  64.723  1.00  0.00    -0.369 C  
HETATM   24  O   UNL     1      -9.168  13.582  65.987  1.00  0.00    -0.481 OA 
HETATM   25  H   UNL     1      -8.868  14.472  65.845  1.00  0.00     0.000 HD 
HETATM   26  O   UNL     1     -11.612  15.085  64.393  1.00  0.00    -0.353 OA 
HETATM   27  C   UNL     1     -11.354  12.805  63.695  1.00  0.00    -0.514 C  
HETATM   28  H   UNL     1      -8.352  11.683  63.723  1.00  0.00     0.000 HD 
HETATM   29  C   UNL     1     -10.348  11.940  63.944  1.00  0.00    -0.389 C  
HETATM   30  C   UNL     1     -10.482  11.145  65.285  1.00  0.00    -0.263 C  
HETATM   31  O   UNL     1      -9.061  12.291  63.548  1.00  0.00     0.203 OA 
ENDROOT
BRANCH  27  32
HETATM   32  C   UNL     1     -12.660  12.093  63.516  1.00  0.00    -0.506 C  
HETATM   33  N   UNL     1     -12.726  11.218  62.456  1.00  0.00    -0.099 N  
HETATM   34  H1  UNL     1     -13.615  10.733  62.334  1.00  0.00     0.000 HD 
HETATM   35  H2  UNL     1     -11.934  11.064  61.830  1.00  0.00     0.000 HD 
HETATM   36  O   UNL     1     -13.590  12.213  64.293  1.00  0.00    -0.515 OA 
ENDBRANCH  27  32
BRANCH  30  37
HETATM   37  N   UNL     1      -9.403  10.218  65.683  1.00  0.00    -0.178 NA 
HETATM   38  C   UNL     1      -8.438   9.830  64.653  1.00  0.00    -0.172 C  
HETATM   39  C   UNL     1      -9.971   8.989  66.260  1.00  0.00    -0.281 C  
ENDBRANCH  30  37
TORSDOF 2
ENDMDL
MODEL        2
REMARK 921   NORMALIZED FREE ENERGY PREDICTED BY IDOCK:   -9.21 KCAL/MOL
REMARK 922        TOTAL FREE ENERGY PREDICTED BY IDOCK:   -9.86 KCAL/MOL
REMARK 923 INTER-LIGAND FREE ENERGY PREDICTED BY IDOCK:  -10.04 KCAL/MOL
REMARK 924 INTRA-LIGAND FREE ENERGY PREDICTED BY IDOCK:    0.18 KCAL/MOL
REMARK 927      BINDING AFFINITY PREDICTED BY RF-SCORE:    0.00 PKD
ROOT
HETATM    1  C   UNL     1      -9.224  16.983  68.280  1.00  0.00    -0.255 C  
HETATM    2  C   UNL     1     -10.595  16.588  68.824  1.00  0.00    -0.322 C  
HETATM    3  C   UNL     1     -10.537  15.129  69.407  1.00  0.00    -0.258 C  
HETATM    4  O   UNL     1     -11.615  16.666  67.832  1.00  0.00    -0.008 OA 
HETATM    5  C   UNL     1     -11.811  14.677  70.108  1.00  0.00    -0.365 C  
HETATM    6  H   UNL     1     -12.468  16.420  68.170  1.00  0.00     0.000 HD 
HETATM    7  C   UNL     1     -11.942  13.233  70.359  1.00  0.00    -0.350 A  
HETATM    8  C   UNL     1     -12.885  15.448  70.356  1.00  0.00    -0.355 C  
HETATM    9  C   UNL     1     -11.577  12.344  69.347  1.00  0.00    -0.371 A  
HETATM   10  C   UNL     1     -11.985  11.003  69.435  1.00  0.00    -0.337 A  
HETATM   11  C   UNL     1     -10.782  12.844  68.185  1.00  0.00    -0.241 C  
HETATM   12  O   UNL     1     -11.831  10.101  68.418  1.00  0.00    -0.676 OA 
HETATM   13  C   UNL     1     -12.629  10.528  70.583  1.00  0.00    -0.457 A  
HETATM   14  C   UNL     1     -10.088  14.174  68.314  1.00  0.00    -0.241 C  
HETATM   15  O   UNL     1     -10.691  12.155  67.173  1.00  0.00    -0.221 OA 
HETATM   16  H   UNL     1     -12.107   9.194  68.478  1.00  0.00     0.000 HD 
HETATM   17  C   UNL     1      -9.181  14.560  67.381  1.00  0.00    -0.200 C  
HETATM   18  C   UNL     1     -12.870  11.388  71.645  1.00  0.00    -0.497 A  
HETATM   19  O   UNL     1      -8.906  13.780  66.256  1.00  0.00    -0.458 OA 
HETATM   20  C   UNL     1      -8.641  15.990  67.257  1.00  0.00    -0.184 C  
HETATM   21  C   UNL     1     -12.541  12.745  71.532  1.00  0.00    -0.259 A  
HETATM   22  H   UNL     1      -8.271  14.050  65.603  1.00  0.00     0.000 HD 
HETATM   23  C   UNL     1      -7.065  16.256  67.360  1.00  0.00    -0.168 C  
HETATM   24  O   UNL     1      -9.088  16.347  65.935  1.00  0.00    -0.429 OA 
HETATM   25  H   UNL     1      -8.729  15.735  65.304  1.00  0.00     0.000 HD 
HETATM   26  O   UNL     1      -6.198  15.407  67.175  1.00  0.00    -0.307 OA 
HETATM   27  C   UNL     1      -6.648  17.723  67.606  1.00  0.00    -0.191 C  
HETATM   28  H   UNL     1      -8.313  19.252  65.335  1.00  0.00     0.000 HD 
HETATM   29  C   UNL     1      -7.601  18.523  67.084  1.00  0.00    -0.223 C  
HETATM   30  C   UNL     1      -8.976  18.480  67.831  1.00  0.00    -0.284 C  
HETATM   31  O   UNL     1      -7.642  18.689  65.702  1.00  0.00    -0.505 OA 
ENDROOT
BRANCH  27  32
HETATM   32  C   UNL     1      -6.271  18.147  68.992  1.00  0.00    -0.237 C  
HETATM   33  N   UNL     1      -5.903  17.135  69.850  1.00  0.00    -0.232 N  
HETATM   34  H1  UNL     1      -5.647  17.424  70.794  1.00  0.00     0.000 HD 
HETATM   35  H2  UNL     1      -5.888  16.157  69.560  1.00  0.00     0.000 HD 
HETATM   36  O   UNL     1      -6.218  19.314  69.334  1.00  0.00    -0.267 OA 
ENDBRANCH  27  32
BRANCH  30  37
HETATM   37  N   UNL     1     -10.106  19.272  67.304  1.00  0.00    -0.359 NA 
HETATM   38  C   UNL     1     -10.524  19.010  65.926  1.00  0.00    -0.399 C  
HETATM   39  C   UNL     1      -9.825  20.711  67.427  1.00  0.00    -0.387 C  
ENDBRANCH  30  37
TORSDOF 2
ENDMDL
MODEL        3
REMARK 921   NORMALIZED FREE ENERGY PREDICTED BY IDOCK:   -8.66 KCAL/MOL
REMARK 922        TOTAL FREE ENERGY PREDICTED BY IDOCK:   -9.24 KCAL/MOL
REMARK 923 INTER-LIGAND FREE ENERGY PREDICTED BY IDOCK:   -9.33 KCAL/MOL
REMARK 924 INTRA-LIGAND FREE ENERGY PREDICTED BY IDOCK:    0.09 KCAL/MOL
REMARK 927      BINDING AFFINITY PREDICTED BY RF-SCORE:    0.00 PKD
ROOT
HETATM    1  C   UNL     1      -8.881  12.794  68.006  1.00  0.00    -0.195 C  
HETATM    2  C   UNL     1      -8.103  14.107  68.063  1.00  0.00    -0.149 C  
HETATM    3  C   UNL     1      -9.102  15.320  68.016  1.00  0.00    -0.176 C  
HETATM    4  O   UNL     1      -7.159  14.223  67.002  1.00  0.00    -0.368 OA 
HETATM    5  C   UNL     1      -8.450  16.682  68.210  1.00  0.00    -0.203 C  
HETATM    6  H   UNL     1      -6.675  15.040  67.037  1.00  0.00     0.000 HD 
HETATM    7  C   UNL     1      -9.259  17.853  67.834  1.00  0.00    -0.263 A  
HETATM    8  C   UNL     1      -7.161  16.897  68.525  1.00  0.00    -0.198 C  
HETATM    9  C   UNL     1      -9.991  17.805  66.647  1.00  0.00    -0.338 A  
HETATM   10  C   UNL     1     -10.503  18.998  66.111  1.00  0.00    -0.467 A  
HETATM   11  C   UNL     1     -10.193  16.492  65.964  1.00  0.00    -0.356 C  
HETATM   12  O   UNL     1     -11.077  19.081  64.872  1.00  0.00    -0.334 OA 
HETATM   13  C   UNL     1     -10.403  20.199  66.822  1.00  0.00    -0.505 A  
HETATM   14  C   UNL     1      -9.932  15.232  66.747  1.00  0.00    -0.249 C  
HETATM   15  O   UNL     1     -10.587  16.469  64.802  1.00  0.00    -0.684 OA 
HETATM   16  H   UNL     1     -11.424  19.888  64.510  1.00  0.00     0.000 HD 
HETATM   17  C   UNL     1     -10.314  14.030  66.246  1.00  0.00    -0.293 C  
HETATM   18  C   UNL     1      -9.791  20.216  68.067  1.00  0.00    -0.498 A  
HETATM   19  O   UNL     1     -10.898  13.912  64.983  1.00  0.00    -0.337 OA 
HETATM   20  C   UNL     1      -9.847  12.684  66.811  1.00  0.00    -0.235 C  
HETATM   21  C   UNL     1      -9.205  19.048  68.571  1.00  0.00    -0.413 A  
HETATM   22  H   UNL     1     -11.166  13.071  64.632  1.00  0.00     0.000 HD 
HETATM   23  C   UNL     1     -10.928  11.619  67.323  1.00  0.00    -0.267 C  
HETATM   24  O   UNL     1      -9.147  12.130  65.680  1.00  0.00    -0.429 OA 
HETATM   25  H   UNL     1      -9.743  12.062  64.943  1.00  0.00     0.000 HD 
HETATM   26  O   UNL     1     -12.110  11.607  66.993  1.00  0.00    -0.547 OA 
HETATM   27  C   UNL     1     -10.379  10.480  68.210  1.00  0.00    -0.193 C  
HETATM   28  H   UNL     1      -7.912   9.432  66.453  1.00  0.00     0.000 HD 
HETATM   29  C   UNL     1      -9.090  10.269  67.871  1.00  0.00    -0.131 C  
HETATM   30  C   UNL     1      -8.113  11.432  68.249  1.00  0.00    -0.143 C  
HETATM   31  O   UNL     1      -8.819   9.580  66.692  1.00  0.00    -0.132 OA 
ENDROOT
BRANCH  27  32
HETATM   32  C   UNL     1     -10.550  10.570  69.695  1.00  0.00    -0.242 C  
HETATM   33  N   UNL     1     -11.412  11.546  70.142  1.00  0.00    -0.496 N  
HETATM   34  H1  UNL     1     -11.528  11.608  71.153  1.00  0.00     0.000 HD 
HETATM   35  H2  UNL     1     -11.904  12.169  69.501  1.00  0.00     0.000 HD 
HETATM   36  O   UNL     1     -10.025   9.791  70.469  1.00  0.00    -0.265 OA 
ENDBRANCH  27  32
BRANCH  30  37
HETATM   37  N   UNL     1      -6.690  11.329  67.867  1.00  0.00    -0.062 NA 
HETATM   38  C   UNL     1      -6.392  10.941  66.487  1.00  0.00    -0.125 C  
HETATM   39  C   UNL     1      -5.985  10.398  68.762  1.00  0.00    -0.040 C  
ENDBRANCH  30  37
TORSDOF 2
ENDMDL
MODEL        4
REMARK 921   NORMALIZED FREE ENERGY PREDICTED BY IDOCK:   -8.41 KCAL/MOL
REMARK 922        TOTAL FREE ENERGY PREDICTED BY IDOCK:   -8.97 KCAL/MOL
REMARK 923 INTER-LIGAND FREE ENERGY PREDICTED BY IDOCK:   -9.26 KCAL/MOL
REMARK 924 INTRA-LIGAND FREE ENERGY PREDICTED BY IDOCK:    0.29 KCAL/MOL
REMARK 927      BINDING AFFINITY PREDICTED BY RF-SCORE:    0.00 PKD
ROOT
HETATM    1  C   UNL     1     -10.179   8.854  69.720  1.00  0.00    -0.207 C  
HETATM    2  C   UNL     1     -10.067  10.350  69.440  1.00  0.00    -0.229 C  
HETATM    3  C   UNL     1     -10.948  10.726  68.193  1.00  0.00    -0.308 C  
HETATM    4  O   UNL     1      -8.721  10.761  69.216  1.00  0.00    -0.314 OA 
HETATM    5  C   UNL     1     -11.029  12.219  67.904  1.00  0.00    -0.265 C  
HETATM    6  H   UNL     1      -8.652  11.692  69.042  1.00  0.00     0.000 HD 
HETATM    7  C   UNL     1     -11.537  12.600  66.576  1.00  0.00    -0.441 A  
HETATM    8  C   UNL     1     -10.524  13.196  68.677  1.00  0.00    -0.242 C  
HETATM    9  C   UNL     1     -11.087  11.891  65.461  1.00  0.00    -0.356 A  
HETATM   10  C   UNL     1     -11.298  12.427  64.179  1.00  0.00    -0.379 A  
HETATM   11  C   UNL     1     -10.375  10.593  65.657  1.00  0.00    -0.216 C  
HETATM   12  O   UNL     1     -10.745  11.901  63.044  1.00  0.00    -0.667 OA 
HETATM   13  C   UNL     1     -12.065  13.584  64.009  1.00  0.00    -0.494 A  
HETATM   14  C   UNL     1     -10.488   9.911  66.996  1.00  0.00    -0.296 C  
HETATM   15  O   UNL     1      -9.743  10.103  64.726  1.00  0.00    -0.294 OA 
HETATM   16  H   UNL     1     -10.888  12.264  62.177  1.00  0.00     0.000 HD 
HETATM   17  C   UNL     1     -10.051   8.636  67.147  1.00  0.00    -0.261 C  
HETATM   18  C   UNL     1     -12.623  14.212  65.113  1.00  0.00    -0.426 A  
HETATM   19  O   UNL     1      -9.437   7.940  66.104  1.00  0.00    -0.331 OA 
HETATM   20  C   UNL     1      -9.852   7.959  68.508  1.00  0.00    -0.177 C  
HETATM   21  C   UNL     1     -12.350  13.732  66.400  1.00  0.00    -0.460 A  
HETATM   22  H   UNL     1      -9.131   7.047  66.210  1.00  0.00     0.000 HD 
HETATM   23  C   UNL     1     -10.637   6.604  68.845  1.00  0.00    -0.230 C  
HETATM   24  O   UNL     1      -8.438   7.684  68.484  1.00  0.00    -0.128 OA 
HETATM   25  H   UNL     1      -8.237   7.133  67.737  1.00  0.00     0.000 HD 
HETATM   26  O   UNL     1     -11.115   5.846  68.006  1.00  0.00    -0.252 OA 
HETATM   27  C   UNL     1     -10.680   6.206  70.336  1.00  0.00    -0.347 C  
HETATM   28  H   UNL     1      -7.587   6.424  71.146  1.00  0.00     0.000 HD 
HETATM   29  C   UNL     1      -9.580   6.709  70.935  1.00  0.00    -0.175 C  
HETATM   30  C   UNL     1      -9.549   8.269  71.050  1.00  0.00    -0.160 C  
HETATM   31  O   UNL     1      -8.361   6.070  70.725  1.00  0.00    -0.122 OA 
ENDROOT
BRANCH  27  32
HETATM   32  C   UNL     1     -11.918   6.493  71.128  1.00  0.00    -0.306 C  
HETATM   33  N   UNL     1     -12.916   7.166  70.459  1.00  0.00    -0.427 N  
HETATM   34  H1  UNL     1     -13.759   7.361  70.998  1.00  0.00     0.000 HD 
HETATM   35  H2  UNL     1     -12.818   7.451  69.484  1.00  0.00     0.000 HD 
HETATM   36  O   UNL     1     -12.079   6.100  72.269  1.00  0.00    -0.311 OA 
ENDBRANCH  27  32
BRANCH  30  37
HETATM   37  N   UNL     1      -8.362   8.925  71.633  1.00  0.00    -0.336 NA 
HETATM   38  C   UNL     1      -7.072   8.678  70.986  1.00  0.00    -0.076 C  
HETATM   39  C   UNL     1      -8.229   8.573  73.056  1.00  0.00    -0.026 C  
ENDBRANCH  30  37
TORSDOF 2
ENDMDL
MODEL        5
REMARK 921   NORMALIZED FREE ENERGY PREDICTED BY IDOCK:   -8.32 KCAL/MOL
REMARK 922        TOTAL FREE ENERGY PREDICTED BY IDOCK:   -8.86 KCAL/MOL
REMARK 923 INTER-LIGAND FREE ENERGY PREDICTED BY IDOCK:   -8.96 KCAL/MOL
REMARK 924 INTRA-LIGAND FREE ENERGY PREDICTED BY IDOCK:    0.10 KCAL/MOL
REMARK 927      BINDING AFFINITY PREDICTED BY RF-SCORE:    0.00 PKD
ROOT
HETATM    1  C   UNL     1      -9.618   9.021  69.083  1.00  0.00    -0.161 C  
HETATM    2  C   UNL     1     -10.404  10.164  68.446  1.00  0.00    -0.183 C  
HETATM    3  C   UNL     1     -10.669  11.289  69.513  1.00  0.00    -0.147 C  
HETATM    4  O   UNL     1     -11.643   9.729  67.894  1.00  0.00    -0.523 OA 
HETATM    5  C   UNL     1     -11.322  12.546  68.956  1.00  0.00    -0.342 C  
HETATM    6  H   UNL     1     -12.132  10.440  67.497  1.00  0.00     0.000 HD 
HETATM    7  C   UNL     1     -11.902  13.472  69.943  1.00  0.00    -0.386 A  
HETATM    8  C   UNL     1     -11.563  12.796  67.658  1.00  0.00    -0.412 C  
HETATM    9  C   UNL     1     -12.642  12.942  71.001  1.00  0.00    -0.376 A  
HETATM   10  C   UNL     1     -13.461  13.796  71.758  1.00  0.00    -0.376 A  
HETATM   11  C   UNL     1     -12.563  11.479  71.288  1.00  0.00    -0.347 C  
HETATM   12  O   UNL     1     -14.352  13.349  72.694  1.00  0.00    -0.709 OA 
HETATM   13  C   UNL     1     -13.434  15.179  71.548  1.00  0.00    -0.549 A  
HETATM   14  C   UNL     1     -11.428  10.692  70.686  1.00  0.00    -0.374 C  
HETATM   15  O   UNL     1     -13.400  10.960  72.021  1.00  0.00    -0.448 OA 
HETATM   16  H   UNL     1     -14.906  13.927  73.207  1.00  0.00     0.000 HD 
HETATM   17  C   UNL     1     -11.189   9.421  71.097  1.00  0.00    -0.357 C  
HETATM   18  C   UNL     1     -12.594  15.715  70.582  1.00  0.00    -0.461 A  
HETATM   19  O   UNL     1     -12.007   8.785  72.032  1.00  0.00    -0.333 OA 
HETATM   20  C   UNL     1     -10.263   8.447  70.360  1.00  0.00    -0.197 C  
HETATM   21  C   UNL     1     -11.837  14.864  69.768  1.00  0.00    -0.356 A  
HETATM   22  H   UNL     1     -11.840   7.895  72.321  1.00  0.00     0.000 HD 
HETATM   23  C   UNL     1      -9.016   7.800  71.129  1.00  0.00    -0.138 C  
HETATM   24  O   UNL     1     -11.183   7.399  70.001  1.00  0.00    -0.350 OA 
HETATM   25  H   UNL     1     -11.581   7.045  70.788  1.00  0.00     0.000 HD 
HETATM   26  O   UNL     1      -8.912   7.718  72.349  1.00  0.00    -0.129 OA 
HETATM   27  C   UNL     1      -7.939   7.150  70.233  1.00  0.00    -0.116 C  
HETATM   28  H   UNL     1      -9.724   5.264  68.353  1.00  0.00     0.000 HD 
HETATM   29  C   UNL     1      -8.538   6.726  69.100  1.00  0.00    -0.131 C  
HETATM   30  C   UNL     1      -9.051   7.867  68.160  1.00  0.00    -0.133 C  
HETATM   31  O   UNL     1      -9.302   5.563  69.150  1.00  0.00    -0.119 OA 
ENDROOT
BRANCH  27  32
HETATM   32  C   UNL     1      -6.683   7.911  69.939  1.00  0.00    -0.037 C  
HETATM   33  N   UNL     1      -6.496   9.063  70.669  1.00  0.00    -0.049 N  
HETATM   34  H1  UNL     1      -5.640   9.581  70.469  1.00  0.00     0.000 HD 
HETATM   35  H2  UNL     1      -7.171   9.379  71.366  1.00  0.00     0.000 HD 
HETATM   36  O   UNL     1      -5.835   7.513  69.162  1.00  0.00    -0.028 OA 
ENDBRANCH  27  32
BRANCH  30  37
HETATM   37  N   UNL     1      -9.776   7.511  66.924  1.00  0.00    -0.194 NA 
HETATM   38  C   UNL     1     -10.894   6.574  67.048  1.00  0.00    -0.395 C  
HETATM   39  C   UNL     1      -8.844   6.975  65.919  1.00  0.00    -0.103 C  
ENDBRANCH  30  37
TORSDOF 2
ENDMDL
MODEL        6
REMARK 921   NORMALIZED FREE ENERGY PREDICTED BY IDOCK:   -8.22 KCAL/MOL
REMARK 922        TOTAL FREE ENERGY PREDICTED BY IDOCK:   -8.75 KCAL/MOL
REMARK 923 INTER-LIGAND FREE ENERGY PREDICTED BY IDOCK:   -8.91 KCAL/MOL
REMARK 924 INTRA-LIGAND FREE ENERGY PREDICTED BY IDOCK:    0.16 KCAL/MOL
REMARK 927      BINDING AFFINITY PREDICTED BY RF-SCORE:    0.00 PKD
ROOT
HETATM    1  C   UNL     1      -9.117  13.411  67.830  1.00  0.00    -0.208 C  
HETATM    2  C   UNL     1      -7.774  14.082  68.107  1.00  0.00    -0.143 C  
HETATM    3  C   UNL     1      -7.996  15.606  68.429  1.00  0.00    -0.136 C  
HETATM    4  O   UNL     1      -6.867  13.951  67.016  1.00  0.00    -0.390 OA 
HETATM    5  C   UNL     1      -6.740  16.349  68.862  1.00  0.00    -0.174 C  
HETATM    6  H   UNL     1      -6.032  14.369  67.188  1.00  0.00     0.000 HD 
HETATM    7  C   UNL     1      -6.810  17.819  68.838  1.00  0.00    -0.240 A  
HETATM    8  C   UNL     1      -5.539  15.790  69.095  1.00  0.00    -0.103 C  
HETATM    9  C   UNL     1      -7.415  18.440  67.744  1.00  0.00    -0.236 A  
HETATM   10  C   UNL     1      -7.214  19.815  67.542  1.00  0.00    -0.244 A  
HETATM   11  C   UNL     1      -8.243  17.625  66.806  1.00  0.00    -0.243 C  
HETATM   12  O   UNL     1      -7.615  20.476  66.413  1.00  0.00    -0.462 OA 
HETATM   13  C   UNL     1      -6.532  20.583  68.492  1.00  0.00    -0.310 A  
HETATM   14  C   UNL     1      -8.703  16.263  67.257  1.00  0.00    -0.200 C  
HETATM   15  O   UNL     1      -8.548  18.087  65.710  1.00  0.00    -0.490 OA 
HETATM   16  H   UNL     1      -7.479  21.406  66.276  1.00  0.00     0.000 HD 
HETATM   17  C   UNL     1      -9.634  15.588  66.536  1.00  0.00    -0.272 C  
HETATM   18  C   UNL     1      -6.047  19.983  69.645  1.00  0.00    -0.377 A  
HETATM   19  O   UNL     1     -10.147  16.093  65.340  1.00  0.00    -0.485 OA 
HETATM   20  C   UNL     1      -9.955  14.103  66.737  1.00  0.00    -0.267 C  
HETATM   21  C   UNL     1      -6.171  18.599  69.816  1.00  0.00    -0.225 A  
HETATM   22  H   UNL     1     -10.799  15.621  64.835  1.00  0.00     0.000 HD 
HETATM   23  C   UNL     1     -11.449  13.653  67.096  1.00  0.00    -0.342 C  
HETATM   24  O   UNL     1      -9.602  13.560  65.450  1.00  0.00    -0.512 OA 
HETATM   25  H   UNL     1     -10.118  13.986  64.776  1.00  0.00     0.000 HD 
HETATM   26  O   UNL     1     -12.453  14.328  66.885  1.00  0.00    -0.338 OA 
HETATM   27  C   UNL     1     -11.605  12.219  67.648  1.00  0.00    -0.421 C  
HETATM   28  H   UNL     1      -9.975  10.517  65.476  1.00  0.00     0.000 HD 
HETATM   29  C   UNL     1     -10.600  11.468  67.151  1.00  0.00    -0.237 C  
HETATM   30  C   UNL     1      -9.176  11.836  67.687  1.00  0.00    -0.180 C  
HETATM   31  O   UNL     1     -10.682  11.046  65.826  1.00  0.00    -0.228 OA 
ENDROOT
BRANCH  27  32
HETATM   32  C   UNL     1     -11.759  12.023  69.125  1.00  0.00    -0.330 C  
HETATM   33  N   UNL     1     -11.785  13.172  69.883  1.00  0.00    -0.469 N  
HETATM   34  H1  UNL     1     -11.890  13.038  70.889  1.00  0.00     0.000 HD 
HETATM   35  H2  UNL     1     -11.704  14.099  69.465  1.00  0.00     0.000 HD 
HETATM   36  O   UNL     1     -11.926  10.929  69.633  1.00  0.00    -0.304 OA 
ENDBRANCH  27  32
BRANCH  30  37
HETATM   37  N   UNL     1      -8.000  11.116  67.159  1.00  0.00    -0.133 NA 
HETATM   38  C   UNL     1      -7.978  10.828  65.724  1.00  0.00    -0.122 C  
HETATM   39  C   UNL     1      -7.811   9.846  67.879  1.00  0.00    -0.090 C  
ENDBRANCH  30  37
TORSDOF 2
ENDMDL
MODEL        7
REMARK 921   NORMALIZED FREE ENERGY PREDICTED BY IDOCK:   -8.17 KCAL/MOL
REMARK 922        TOTAL FREE ENERGY PREDICTED BY IDOCK:   -8.69 KCAL/MOL
REMARK 923 INTER-LIGAND FREE ENERGY PREDICTED BY IDOCK:   -9.16 KCAL/MOL
REMARK 924 INTRA-LIGAND FREE ENERGY PREDICTED BY IDOCK:    0.47 KCAL/MOL
REMARK 927      BINDING AFFINITY PREDICTED BY RF-SCORE:    0.00 PKD
ROOT
HETATM    1  C   UNL     1      -9.647  11.233  66.994  1.00  0.00    -0.197 C  
HETATM    2  C   UNL     1     -10.639  12.387  67.122  1.00  0.00    -0.224 C  
HETATM    3  C   UNL     1     -10.804  12.781  68.636  1.00  0.00    -0.284 C  
HETATM    4  O   UNL     1     -11.913  12.071  66.569  1.00  0.00    -0.616 OA 
HETATM    5  C   UNL     1     -11.661  14.016  68.876  1.00  0.00    -0.351 C  
HETATM    6  H   UNL     1     -12.530  12.789  66.650  1.00  0.00     0.000 HD 
HETATM    7  C   UNL     1     -12.131  14.226  70.255  1.00  0.00    -0.403 A  
HETATM    8  C   UNL     1     -12.160  14.823  67.923  1.00  0.00    -0.161 C  
HETATM    9  C   UNL     1     -12.611  13.128  70.971  1.00  0.00    -0.397 A  
HETATM   10  C   UNL     1     -13.351  13.347  72.145  1.00  0.00    -0.520 A  
HETATM   11  C   UNL     1     -12.347  11.750  70.460  1.00  0.00    -0.299 C  
HETATM   12  O   UNL     1     -14.009  12.353  72.816  1.00  0.00    -0.502 OA 
HETATM   13  C   UNL     1     -13.490  14.637  72.668  1.00  0.00    -0.580 A  
HETATM   14  C   UNL     1     -11.275  11.567  69.418  1.00  0.00    -0.324 C  
HETATM   15  O   UNL     1     -12.982  10.803  70.915  1.00  0.00    -0.348 OA 
HETATM   16  H   UNL     1     -14.509  12.502  73.610  1.00  0.00     0.000 HD 
HETATM   17  C   UNL     1     -10.849  10.321  69.093  1.00  0.00    -0.233 C  
HETATM   18  C   UNL     1     -12.896  15.712  72.023  1.00  0.00    -0.518 A  
HETATM   19  O   UNL     1     -11.418   9.178  69.658  1.00  0.00    -0.438 OA 
HETATM   20  C   UNL     1      -9.989  10.007  67.862  1.00  0.00    -0.154 C  
HETATM   21  C   UNL     1     -12.228  15.513  70.809  1.00  0.00    -0.450 A  
HETATM   22  H   UNL     1     -11.120   8.305  69.431  1.00  0.00     0.000 HD 
HETATM   23  C   UNL     1      -8.568   9.293  68.046  1.00  0.00    -0.121 C  
HETATM   24  O   UNL     1     -10.860   9.127  67.126  1.00  0.00    -0.318 OA 
HETATM   25  H   UNL     1     -11.071   8.372  67.661  1.00  0.00     0.000 HD 
HETATM   26  O   UNL     1      -8.233   8.644  69.033  1.00  0.00    -0.118 OA 
HETATM   27  C   UNL     1      -7.620   9.361  66.829  1.00  0.00    -0.097 C  
HETATM   28  H   UNL     1      -9.541   8.359  64.467  1.00  0.00     0.000 HD 
HETATM   29  C   UNL     1      -8.376   9.449  65.714  1.00  0.00    -0.122 C  
HETATM   30  C   UNL     1      -9.157  10.796  65.554  1.00  0.00    -0.199 C  
HETATM   31  O   UNL     1      -9.009   8.298  65.251  1.00  0.00    -0.095 OA 
ENDROOT
BRANCH  27  32
HETATM   32  C   UNL     1      -6.515  10.371  66.825  1.00  0.00    -0.076 C  
HETATM   33  N   UNL     1      -6.150  10.866  68.056  1.00  0.00    -0.050 N  
HETATM   34  H1  UNL     1      -5.398  11.555  68.054  1.00  0.00     0.000 HD 
HETATM   35  H2  UNL     1      -6.604  10.564  68.919  1.00  0.00     0.000 HD 
HETATM   36  O   UNL     1      -5.916  10.692  65.815  1.00  0.00    -0.116 OA 
ENDBRANCH  27  32
BRANCH  30  37
HETATM   37  N   UNL     1     -10.062  10.970  64.400  1.00  0.00    -0.306 NA 
HETATM   38  C   UNL     1      -9.746  10.225  63.180  1.00  0.00    -0.167 C  
HETATM   39  C   UNL     1     -10.173  12.394  64.046  1.00  0.00    -0.375 C  
ENDBRANCH  30  37
TORSDOF 2
ENDMDL
MODEL        8
REMARK 921   NORMALIZED FREE ENERGY PREDICTED BY IDOCK:   -7.67 KCAL/MOL
REMARK 922        TOTAL FREE ENERGY PREDICTED BY IDOCK:   -8.13 KCAL/MOL
REMARK 923 INTER-LIGAND FREE ENERGY PREDICTED BY IDOCK:   -8.33 KCAL/MOL
REMARK 924 INTRA-LIGAND FREE ENERGY PREDICTED BY IDOCK:    0.20 KCAL/MOL
REMARK 927      BINDING AFFINITY PREDICTED BY RF-SCORE:    0.00 PKD
ROOT
HETATM    1  C   UNL     1     -10.221  11.989  68.550  1.00  0.00    -0.218 C  
HETATM    2  C   UNL     1     -11.225  11.326  69.489  1.00  0.00    -0.272 C  
HETATM    3  C   UNL     1     -10.571  10.063  70.162  1.00  0.00    -0.350 C  
HETATM    4  O   UNL     1     -12.423  10.944  68.820  1.00  0.00    -0.767 OA 
HETATM    5  C   UNL     1     -11.431   9.401  71.230  1.00  0.00    -0.433 C  
HETATM    6  H   UNL     1     -13.048  10.531  69.405  1.00  0.00     0.000 HD 
HETATM    7  C   UNL     1     -11.035   8.043  71.637  1.00  0.00    -0.288 A  
HETATM    8  C   UNL     1     -12.600   9.871  71.698  1.00  0.00    -0.519 C  
HETATM    9  C   UNL     1     -10.662   7.132  70.648  1.00  0.00    -0.255 A  
HETATM   10  C   UNL     1     -10.593   5.766  70.968  1.00  0.00    -0.253 A  
HETATM   11  C   UNL     1     -10.368   7.627  69.270  1.00  0.00    -0.217 C  
HETATM   12  O   UNL     1     -10.411   4.783  70.034  1.00  0.00    -0.249 OA 
HETATM   13  C   UNL     1     -10.760   5.334  72.288  1.00  0.00    -0.282 A  
HETATM   14  C   UNL     1     -10.120   9.100  69.078  1.00  0.00    -0.199 C  
HETATM   15  O   UNL     1     -10.310   6.828  68.340  1.00  0.00    -0.169 OA 
HETATM   16  H   UNL     1     -10.364   3.858  70.251  1.00  0.00     0.000 HD 
HETATM   17  C   UNL     1      -9.632   9.558  67.898  1.00  0.00    -0.133 C  
HETATM   18  C   UNL     1     -10.998   6.261  73.293  1.00  0.00    -0.221 A  
HETATM   19  O   UNL     1      -9.402   8.706  66.816  1.00  0.00    -0.156 OA 
HETATM   20  C   UNL     1      -9.617  11.038  67.498  1.00  0.00    -0.164 C  
HETATM   21  C   UNL     1     -11.151   7.615  72.970  1.00  0.00    -0.437 A  
HETATM   22  H   UNL     1      -9.061   9.026  65.990  1.00  0.00     0.000 HD 
HETATM   23  C   UNL     1      -8.229  11.749  67.131  1.00  0.00    -0.169 C  
HETATM   24  O   UNL     1     -10.457  11.024  66.328  1.00  0.00    -0.248 OA 
HETATM   25  H   UNL     1     -10.085  10.438  65.680  1.00  0.00     0.000 HD 
HETATM   26  O   UNL     1      -7.209  11.157  66.788  1.00  0.00    -0.131 OA 
HETATM   27  C   UNL     1      -8.249  13.293  67.116  1.00  0.00    -0.123 C  
HETATM   28  H   UNL     1     -10.805  13.882  65.274  1.00  0.00     0.000 HD 
HETATM   29  C   UNL     1      -9.502  13.692  66.812  1.00  0.00    -0.270 C  
HETATM   30  C   UNL     1     -10.572  13.396  67.915  1.00  0.00    -0.245 C  
HETATM   31  O   UNL     1      -9.923  13.601  65.488  1.00  0.00    -0.283 OA 
ENDROOT
BRANCH  27  32
HETATM   32  C   UNL     1      -7.706  14.037  68.297  1.00  0.00    -0.141 C  
HETATM   33  N   UNL     1      -7.129  13.264  69.279  1.00  0.00    -0.302 N  
HETATM   34  H1  UNL     1      -6.759  13.770  70.083  1.00  0.00     0.000 HD 
HETATM   35  H2  UNL     1      -7.075  12.247  69.208  1.00  0.00     0.000 HD 
HETATM   36  O   UNL     1      -7.700  15.252  68.367  1.00  0.00    -0.118 OA 
ENDBRANCH  27  32
BRANCH  30  37
HETATM   37  N   UNL     1     -11.986  13.737  67.657  1.00  0.00    -0.368 NA 
HETATM   38  C   UNL     1     -12.362  14.035  66.274  1.00  0.00    -0.448 C  
HETATM   39  C   UNL     1     -12.400  14.874  68.495  1.00  0.00     0.094 C  
ENDBRANCH  30  37
TORSDOF 2
ENDMDL
MODEL        9
REMARK 921   NORMALIZED FREE ENERGY PREDICTED BY IDOCK:   -7.66 KCAL/MOL
REMARK 922        TOTAL FREE ENERGY PREDICTED BY IDOCK:   -8.12 KCAL/MOL
REMARK 923 INTER-LIGAND FREE ENERGY PREDICTED BY IDOCK:   -8.23 KCAL/MOL
REMARK 924 INTRA-LIGAND FREE ENERGY PREDICTED BY IDOCK:    0.11 KCAL/MOL
REMARK 927      BINDING AFFINITY PREDICTED BY RF-SCORE:    0.00 PKD
ROOT
HETATM    1  C   UNL     1      -8.772  12.080  67.734  1.00  0.00    -0.161 C  
HETATM    2  C   UNL     1      -7.586  13.030  67.879  1.00  0.00    -0.144 C  
HETATM    3  C   UNL     1      -8.102  14.489  68.159  1.00  0.00    -0.137 C  
HETATM    4  O   UNL     1      -6.749  13.031  66.726  1.00  0.00    -0.373 OA 
HETATM    5  C   UNL     1      -7.005  15.499  68.463  1.00  0.00    -0.114 C  
HETATM    6  H   UNL     1      -6.011  13.623  66.816  1.00  0.00     0.000 HD 
HETATM    7  C   UNL     1      -7.386  16.919  68.388  1.00  0.00    -0.202 A  
HETATM    8  C   UNL     1      -5.700  15.216  68.622  1.00  0.00    -0.090 C  
HETATM    9  C   UNL     1      -8.182  17.340  67.323  1.00  0.00    -0.213 A  
HETATM   10  C   UNL     1      -8.291  18.715  67.052  1.00  0.00    -0.269 A  
HETATM   11  C   UNL     1      -8.881  16.322  66.484  1.00  0.00    -0.283 C  
HETATM   12  O   UNL     1      -8.899  19.215  65.934  1.00  0.00    -0.450 OA 
HETATM   13  C   UNL     1      -7.723  19.657  67.916  1.00  0.00    -0.331 A  
HETATM   14  C   UNL     1      -9.011  14.921  67.021  1.00  0.00    -0.256 C  
HETATM   15  O   UNL     1      -9.352  16.651  65.399  1.00  0.00    -0.370 OA 
HETATM   16  H   UNL     1      -8.973  20.145  65.751  1.00  0.00     0.000 HD 
HETATM   17  C   UNL     1      -9.825  14.029  66.402  1.00  0.00    -0.296 C  
HETATM   18  C   UNL     1      -7.044  19.235  69.050  1.00  0.00    -0.391 A  
HETATM   19  O   UNL     1     -10.515  14.351  65.232  1.00  0.00    -0.339 OA 
HETATM   20  C   UNL     1      -9.810  12.522  66.685  1.00  0.00    -0.241 C  
HETATM   21  C   UNL     1      -6.861  17.866  69.282  1.00  0.00    -0.183 A  
HETATM   22  H   UNL     1     -11.085  13.727  64.798  1.00  0.00     0.000 HD 
HETATM   23  C   UNL     1     -11.148  11.791  67.177  1.00  0.00    -0.296 C  
HETATM   24  O   UNL     1      -9.440  11.996  65.396  1.00  0.00    -0.387 OA 
HETATM   25  H   UNL     1     -10.080  12.269  64.749  1.00  0.00     0.000 HD 
HETATM   26  O   UNL     1     -12.283  12.230  67.019  1.00  0.00    -0.522 OA 
HETATM   27  C   UNL     1     -10.958  10.388  67.794  1.00  0.00    -0.369 C  
HETATM   28  H   UNL     1      -9.158   8.948  65.567  1.00  0.00     0.000 HD 
HETATM   29  C   UNL     1      -9.854   9.837  67.248  1.00  0.00    -0.181 C  
HETATM   30  C   UNL     1      -8.507  10.521  67.656  1.00  0.00    -0.115 C  
HETATM   31  O   UNL     1      -9.935   9.336  65.951  1.00  0.00    -0.307 OA 
ENDROOT
BRANCH  27  32
HETATM   32  C   UNL     1     -10.965  10.244  69.284  1.00  0.00    -0.241 C  
HETATM   33  N   UNL     1     -11.296  11.376  69.995  1.00  0.00    -0.474 N  
HETATM   34  H1  UNL     1     -11.301  11.278  71.010  1.00  0.00     0.000 HD 
HETATM   35  H2  UNL     1     -11.522  12.258  69.535  1.00  0.00     0.000 HD 
HETATM   36  O   UNL     1     -10.766   9.183  69.847  1.00  0.00    -0.222 OA 
ENDBRANCH  27  32
BRANCH  30  37
HETATM   37  N   UNL     1      -7.244  10.034  67.066  1.00  0.00    -0.089 NA 
HETATM   38  C   UNL     1      -7.191   9.903  65.608  1.00  0.00    -0.113 C  
HETATM   39  C   UNL     1      -6.871   8.737  67.652  1.00  0.00    -0.071 C  
ENDBRANCH  30  37
TORSDOF 2
ENDMDL
MODEL       10
REMARK 921   NORMALIZED FREE ENERGY PREDICTED BY IDOCK:   -7.62 KCAL/MOL
REMARK 922        TOTAL FREE ENERGY PREDICTED BY IDOCK:   -8.08 KCAL/MOL
REMARK 923 INTER-LIGAND FREE ENERGY PREDICTED BY IDOCK:   -8.25 KCAL/MOL
REMARK 924 INTRA-LIGAND FREE ENERGY PREDICTED BY IDOCK:    0.16 KCAL/MOL
REMARK 927      BINDING AFFINITY PREDICTED BY RF-SCORE:    0.00 PKD
ROOT
HETATM    1  C   UNL     1      -9.694  11.819  67.633  1.00  0.00    -0.186 C  
HETATM    2  C   UNL     1      -9.314  10.650  68.540  1.00  0.00    -0.170 C  
HETATM    3  C   UNL     1     -10.612   9.906  69.024  1.00  0.00    -0.240 C  
HETATM    4  O   UNL     1      -8.551  11.066  69.669  1.00  0.00    -0.345 OA 
HETATM    5  C   UNL     1     -10.351   8.635  69.819  1.00  0.00    -0.212 C  
HETATM    6  H   UNL     1      -8.315  10.339  70.233  1.00  0.00     0.000 HD 
HETATM    7  C   UNL     1     -11.490   8.097  70.582  1.00  0.00    -0.237 A  
HETATM    8  C   UNL     1      -9.149   8.068  70.021  1.00  0.00    -0.152 C  
HETATM    9  C   UNL     1     -12.294   8.987  71.296  1.00  0.00    -0.361 A  
HETATM   10  C   UNL     1     -13.171   8.483  72.271  1.00  0.00    -0.327 A  
HETATM   11  C   UNL     1     -12.188  10.451  71.022  1.00  0.00    -0.393 C  
HETATM   12  O   UNL     1     -13.867   9.279  73.139  1.00  0.00    -0.995 OA 
HETATM   13  C   UNL     1     -13.341   7.105  72.433  1.00  0.00     0.293 A  
HETATM   14  C   UNL     1     -11.507  10.893  69.753  1.00  0.00    -0.390 C  
HETATM   15  O   UNL     1     -12.674  11.252  71.815  1.00  0.00    -0.364 OA 
HETATM   16  H   UNL     1     -14.461   8.939  73.799  1.00  0.00     0.000 HD 
HETATM   17  C   UNL     1     -11.586  12.188  69.356  1.00  0.00    -0.317 C  
HETATM   18  C   UNL     1     -12.635   6.222  71.627  1.00  0.00     0.083 A  
HETATM   19  O   UNL     1     -12.237  13.155  70.125  1.00  0.00    -0.329 OA 
HETATM   20  C   UNL     1     -10.706  12.799  68.259  1.00  0.00    -0.239 C  
HETATM   21  C   UNL     1     -11.698   6.714  70.710  1.00  0.00    -0.445 A  
HETATM   22  H   UNL     1     -12.292  14.062  69.847  1.00  0.00     0.000 HD 
HETATM   23  C   UNL     1     -11.388  13.473  66.976  1.00  0.00    -0.324 C  
HETATM   24  O   UNL     1      -9.996  13.812  68.996  1.00  0.00    -0.415 OA 
HETATM   25  H   UNL     1     -10.620  14.416  69.382  1.00  0.00     0.000 HD 
HETATM   26  O   UNL     1     -12.547  13.876  66.930  1.00  0.00    -0.267 OA 
HETATM   27  C   UNL     1     -10.456  13.712  65.768  1.00  0.00    -0.296 C  
HETATM   28  H   UNL     1      -7.984  15.210  67.153  1.00  0.00     0.000 HD 
HETATM   29  C   UNL     1      -9.200  13.877  66.234  1.00  0.00    -0.088 C  
HETATM   30  C   UNL     1      -8.554  12.592  66.854  1.00  0.00    -0.151 C  
HETATM   31  O   UNL     1      -8.867  15.093  66.824  1.00  0.00    -0.236 OA 
ENDROOT
BRANCH  27  32
HETATM   32  C   UNL     1     -10.494  12.750  64.621  1.00  0.00    -0.350 C  
HETATM   33  N   UNL     1     -11.577  11.899  64.587  1.00  0.00    -0.286 N  
HETATM   34  H1  UNL     1     -11.603  11.244  63.806  1.00  0.00     0.000 HD 
HETATM   35  H2  UNL     1     -12.307  11.923  65.300  1.00  0.00     0.000 HD 
HETATM   36  O   UNL     1      -9.669  12.754  63.726  1.00  0.00    -0.185 OA 
ENDBRANCH  27  32
BRANCH  30  37
HETATM   37  N   UNL     1      -7.206  12.680  67.449  1.00  0.00    -0.148 NA 
HETATM   38  C   UNL     1      -6.605  14.011  67.557  1.00  0.00    -0.081 C  
HETATM   39  C   UNL     1      -6.266  11.815  66.718  1.00  0.00    -0.094 C  
ENDBRANCH  30  37
TORSDOF 2
ENDMDL
MODEL       11
REMARK 921   NORMALIZED FREE ENERGY PREDICTED BY IDOCK:   -7.35 KCAL/MOL
REMARK 922        TOTAL FREE ENERGY PREDICTED BY IDOCK:   -7.78 KCAL/MOL
REMARK 923 INTER-LIGAND FREE ENERGY PREDICTED BY IDOCK:   -7.95 KCAL/MOL
REMARK 924 INTRA-LIGAND FREE ENERGY PREDICTED BY IDOCK:    0.17 KCAL/MOL
REMARK 927      BINDING AFFINITY PREDICTED BY RF-SCORE:    0.00 PKD
ROOT
HETATM    1  C   UNL     1      -9.608   8.044  69.709  1.00  0.00    -0.171 C  
HETATM    2  C   UNL     1     -10.305   9.157  68.930  1.00  0.00    -0.214 C  
HETATM    3  C   UNL     1     -10.595  10.373  69.884  1.00  0.00    -0.299 C  
HETATM    4  O   UNL     1     -11.521   8.719  68.331  1.00  0.00    -0.011 OA 
HETATM    5  C   UNL     1     -11.160  11.602  69.185  1.00  0.00    -0.302 C  
HETATM    6  H   UNL     1     -11.955   9.412  67.846  1.00  0.00     0.000 HD 
HETATM    7  C   UNL     1     -11.767  12.625  70.052  1.00  0.00    -0.289 A  
HETATM    8  C   UNL     1     -11.306  11.752  67.857  1.00  0.00    -0.362 C  
HETATM    9  C   UNL     1     -12.595  12.209  71.096  1.00  0.00    -0.360 A  
HETATM   10  C   UNL     1     -13.428  13.149  71.724  1.00  0.00    -0.335 A  
HETATM   11  C   UNL     1     -12.592  10.772  71.503  1.00  0.00    -0.395 C  
HETATM   12  O   UNL     1     -14.396  12.811  72.630  1.00  0.00    -0.579 OA 
HETATM   13  C   UNL     1     -13.333  14.509  71.407  1.00  0.00    -0.427 A  
HETATM   14  C   UNL     1     -11.452   9.901  71.046  1.00  0.00    -0.466 C  
HETATM   15  O   UNL     1     -13.495  10.344  72.216  1.00  0.00    -0.363 OA 
HETATM   16  H   UNL     1     -14.959  13.447  73.056  1.00  0.00     0.000 HD 
HETATM   17  C   UNL     1     -11.291   8.661  71.572  1.00  0.00    -0.289 C  
HETATM   18  C   UNL     1     -12.411  14.935  70.461  1.00  0.00    -0.419 A  
HETATM   19  O   UNL     1     -12.193   8.131  72.497  1.00  0.00    -0.487 OA 
HETATM   20  C   UNL     1     -10.357   7.599  70.981  1.00  0.00    -0.202 C  
HETATM   21  C   UNL     1     -11.636  13.995  69.771  1.00  0.00    -0.344 A  
HETATM   22  H   UNL     1     -12.080   7.264  72.866  1.00  0.00     0.000 HD 
HETATM   23  C   UNL     1      -9.189   6.975  71.882  1.00  0.00    -0.140 C  
HETATM   24  O   UNL     1     -11.292   6.556  70.644  1.00  0.00    -0.304 OA 
HETATM   25  H   UNL     1     -11.754   6.282  71.427  1.00  0.00     0.000 HD 
HETATM   26  O   UNL     1      -9.169   6.990  73.110  1.00  0.00    -0.130 OA 
HETATM   27  C   UNL     1      -8.082   6.218  71.116  1.00  0.00    -0.118 C  
HETATM   28  H   UNL     1      -9.812   4.246  69.275  1.00  0.00     0.000 HD 
HETATM   29  C   UNL     1      -8.621   5.722  69.983  1.00  0.00    -0.128 C  
HETATM   30  C   UNL     1      -9.026   6.800  68.922  1.00  0.00    -0.131 C  
HETATM   31  O   UNL     1      -9.433   4.594  70.073  1.00  0.00    -0.137 OA 
ENDROOT
BRANCH  27  32
HETATM   32  C   UNL     1      -6.781   6.909  70.850  1.00  0.00    -0.054 C  
HETATM   33  N   UNL     1      -6.502   7.993  71.652  1.00  0.00    -0.040 N  
HETATM   34  H1  UNL     1      -5.616   8.464  71.471  1.00  0.00     0.000 HD 
HETATM   35  H2  UNL     1      -7.143   8.306  72.383  1.00  0.00     0.000 HD 
HETATM   36  O   UNL     1      -5.975   6.509  70.031  1.00  0.00    -0.021 OA 
ENDBRANCH  27  32
BRANCH  30  37
HETATM   37  N   UNL     1      -9.682   6.368  67.672  1.00  0.00    -0.117 NA 
HETATM   38  C   UNL     1      -9.850   4.928  67.464  1.00  0.00    -0.167 C  
HETATM   39  C   UNL     1      -8.971   6.914  66.505  1.00  0.00    -0.150 C  
ENDBRANCH  30  37
TORSDOF 2
ENDMDL
MODEL       12
REMARK 921   NORMALIZED FREE ENERGY PREDICTED BY IDOCK:   -7.32 KCAL/MOL
REMARK 922        TOTAL FREE ENERGY PREDICTED BY IDOCK:   -7.75 KCAL/MOL
REMARK 923 INTER-LIGAND FREE ENERGY PREDICTED BY IDOCK:   -7.88 KCAL/MOL
REMARK 924 INTRA-LIGAND FREE ENERGY PREDICTED BY IDOCK:    0.13 KCAL/MOL
REMARK 927      BINDING AFFINITY PREDICTED BY RF-SCORE:    0.00 PKD
ROOT
HETATM    1  C   UNL     1     -10.030  12.501  68.480  1.00  0.00    -0.170 C  
HETATM    2  C   UNL     1     -11.093  11.803  69.325  1.00  0.00    -0.218 C  
HETATM    3  C   UNL     1     -10.518  10.457  69.900  1.00  0.00    -0.266 C  
HETATM    4  O   UNL     1     -12.283  11.539  68.588  1.00  0.00    -0.492 OA 
HETATM    5  C   UNL     1     -11.442   9.743  70.877  1.00  0.00    -0.447 C  
HETATM    6  H   UNL     1     -12.945  11.104  69.114  1.00  0.00     0.000 HD 
HETATM    7  C   UNL     1     -11.119   8.337  71.172  1.00  0.00    -0.289 A  
HETATM    8  C   UNL     1     -12.604  10.223  71.352  1.00  0.00    -0.539 C  
HETATM    9  C   UNL     1     -10.752   7.501  70.116  1.00  0.00    -0.248 A  
HETATM   10  C   UNL     1     -10.753   6.111  70.314  1.00  0.00    -0.291 A  
HETATM   11  C   UNL     1     -10.391   8.103  68.798  1.00  0.00    -0.202 C  
HETATM   12  O   UNL     1     -10.582   5.207  69.301  1.00  0.00    -0.192 OA 
HETATM   13  C   UNL     1     -10.983   5.572  71.584  1.00  0.00    -0.238 A  
HETATM   14  C   UNL     1     -10.072   9.574  68.747  1.00  0.00    -0.202 C  
HETATM   15  O   UNL     1     -10.336   7.388  67.802  1.00  0.00    -0.186 OA 
HETATM   16  H   UNL     1     -10.583   4.266  69.435  1.00  0.00     0.000 HD 
HETATM   17  C   UNL     1      -9.525  10.112  67.628  1.00  0.00    -0.148 C  
HETATM   18  C   UNL     1     -11.215   6.416  72.661  1.00  0.00    -0.290 A  
HETATM   19  O   UNL     1      -9.296   9.350  66.481  1.00  0.00    -0.151 OA 
HETATM   20  C   UNL     1      -9.432  11.620  67.365  1.00  0.00    -0.167 C  
HETATM   21  C   UNL     1     -11.298   7.799  72.457  1.00  0.00    -0.429 A  
HETATM   22  H   UNL     1      -8.913   9.726  65.698  1.00  0.00     0.000 HD 
HETATM   23  C   UNL     1      -8.004  12.295  67.105  1.00  0.00    -0.161 C  
HETATM   24  O   UNL     1     -10.232  11.749  66.174  1.00  0.00    -0.209 OA 
HETATM   25  H   UNL     1      -9.864  11.206  65.487  1.00  0.00     0.000 HD 
HETATM   26  O   UNL     1      -6.999  11.690  66.741  1.00  0.00    -0.134 OA 
HETATM   27  C   UNL     1      -7.956  13.834  67.229  1.00  0.00    -0.135 C  
HETATM   28  H   UNL     1     -10.420  14.702  65.372  1.00  0.00     0.000 HD 
HETATM   29  C   UNL     1      -9.179  14.316  66.925  1.00  0.00    -0.254 C  
HETATM   30  C   UNL     1     -10.298  13.973  67.964  1.00  0.00    -0.240 C  
HETATM   31  O   UNL     1      -9.559  14.363  65.587  1.00  0.00    -0.255 OA 
ENDROOT
BRANCH  27  32
HETATM   32  C   UNL     1      -7.421  14.444  68.488  1.00  0.00    -0.122 C  
HETATM   33  N   UNL     1      -6.933  13.559  69.423  1.00  0.00    -0.299 N  
HETATM   34  H1  UNL     1      -6.569  13.975  70.280  1.00  0.00     0.000 HD 
HETATM   35  H2  UNL     1      -6.936  12.551  69.268  1.00  0.00     0.000 HD 
HETATM   36  O   UNL     1      -7.347  15.647  68.660  1.00  0.00    -0.118 OA 
ENDBRANCH  27  32
BRANCH  30  37
HETATM   37  N   UNL     1     -11.686  14.401  67.696  1.00  0.00    -0.375 NA 
HETATM   38  C   UNL     1     -12.204  14.188  66.343  1.00  0.00    -0.446 C  
HETATM   39  C   UNL     1     -11.857  15.824  68.029  1.00  0.00     0.033 C  
ENDBRANCH  30  37
TORSDOF 2
ENDMDL
MODEL       13
REMARK 921   NORMALIZED FREE ENERGY PREDICTED BY IDOCK:   -7.15 KCAL/MOL
REMARK 922        TOTAL FREE ENERGY PREDICTED BY IDOCK:   -7.55 KCAL/MOL
REMARK 923 INTER-LIGAND FREE ENERGY PREDICTED BY IDOCK:   -8.27 KCAL/MOL
REMARK 924 INTRA-LIGAND FREE ENERGY PREDICTED BY IDOCK:    0.72 KCAL/MOL
REMARK 927      BINDING AFFINITY PREDICTED BY RF-SCORE:    0.00 PKD
ROOT
HETATM    1  C   UNL     1      -9.480  10.413  67.869  1.00  0.00    -0.150 C  
HETATM    2  C   UNL     1     -10.292  11.700  67.745  1.00  0.00    -0.182 C  
HETATM    3  C   UNL     1     -10.608  12.272  69.175  1.00  0.00    -0.025 C  
HETATM    4  O   UNL     1     -11.508  11.506  67.028  1.00  0.00    -0.441 OA 
HETATM    5  C   UNL     1     -11.292  13.632  69.175  1.00  0.00    -0.335 C  
HETATM    6  H   UNL     1     -12.014  12.307  66.951  1.00  0.00     0.000 HD 
HETATM    7  C   UNL     1     -11.916  14.049  70.441  1.00  0.00    -0.398 A  
HETATM    8  C   UNL     1     -11.522  14.394  68.091  1.00  0.00    -0.337 C  
HETATM    9  C   UNL     1     -12.654  13.110  71.163  1.00  0.00    -0.403 A  
HETATM   10  C   UNL     1     -13.510  13.552  72.185  1.00  0.00    -0.537 A  
HETATM   11  C   UNL     1     -12.532  11.662  70.817  1.00  0.00    -0.330 C  
HETATM   12  O   UNL     1     -14.400  12.735  72.826  1.00  0.00    -0.568 OA 
HETATM   13  C   UNL     1     -13.524  14.897  72.570  1.00  0.00    -0.548 A  
HETATM   14  C   UNL     1     -11.364  11.224  69.973  1.00  0.00    -0.292 C  
HETATM   15  O   UNL     1     -13.363  10.866  71.246  1.00  0.00    -0.253 OA 
HETATM   16  H   UNL     1     -14.980  13.034  73.518  1.00  0.00     0.000 HD 
HETATM   17  C   UNL     1     -11.091   9.903  69.824  1.00  0.00    -0.254 C  
HETATM   18  C   UNL     1     -12.688  15.806  71.937  1.00  0.00    -0.516 A  
HETATM   19  O   UNL     1     -11.903   8.916  70.388  1.00  0.00    -0.469 OA 
HETATM   20  C   UNL     1     -10.124   9.345  68.774  1.00  0.00    -0.193 C  
HETATM   21  C   UNL     1     -11.892  15.389  70.863  1.00  0.00    -0.400 A  
HETATM   22  H   UNL     1     -11.712   7.991  70.285  1.00  0.00     0.000 HD 
HETATM   23  C   UNL     1      -8.868   8.465  69.236  1.00  0.00    -0.142 C  
HETATM   24  O   UNL     1     -11.005   8.521  67.987  1.00  0.00    -0.475 OA 
HETATM   25  H   UNL     1     -11.403   7.863  68.545  1.00  0.00     0.000 HD 
HETATM   26  O   UNL     1      -8.780   7.885  70.314  1.00  0.00    -0.136 OA 
HETATM   27  C   UNL     1      -7.759   8.272  68.180  1.00  0.00    -0.106 C  
HETATM   28  H   UNL     1      -9.455   7.301  65.640  1.00  0.00     0.000 HD 
HETATM   29  C   UNL     1      -8.327   8.345  66.958  1.00  0.00    -0.114 C  
HETATM   30  C   UNL     1      -8.862   9.762  66.565  1.00  0.00    -0.138 C  
HETATM   31  O   UNL     1      -9.055   7.250  66.500  1.00  0.00    -0.144 OA 
ENDROOT
BRANCH  27  32
HETATM   32  C   UNL     1      -6.523   9.115  68.263  1.00  0.00    -0.055 C  
HETATM   33  N   UNL     1      -5.576   8.889  67.289  1.00  0.00    -0.038 N  
HETATM   34  H1  UNL     1      -4.735   9.463  67.346  1.00  0.00     0.000 HD 
HETATM   35  H2  UNL     1      -5.708   8.191  66.557  1.00  0.00     0.000 HD 
HETATM   36  O   UNL     1      -6.380   9.998  69.088  1.00  0.00    -0.043 OA 
ENDBRANCH  27  32
BRANCH  30  37
HETATM   37  N   UNL     1      -9.557   9.937  65.274  1.00  0.00    -0.277 NA 
HETATM   38  C   UNL     1      -9.135   9.082  64.163  1.00  0.00     0.222 C  
HETATM   39  C   UNL     1      -9.467  11.337  64.828  1.00  0.00    -0.194 C  
ENDBRANCH  30  37
TORSDOF 2
ENDMDL
MODEL       14
REMARK 921   NORMALIZED FREE ENERGY PREDICTED BY IDOCK:   -7.14 KCAL/MOL
REMARK 922        TOTAL FREE ENERGY PREDICTED BY IDOCK:   -7.55 KCAL/MOL
REMARK 923 INTER-LIGAND FREE ENERGY PREDICTED BY IDOCK:   -7.72 KCAL/MOL
REMARK 924 INTRA-LIGAND FREE ENERGY PREDICTED BY IDOCK:    0.18 KCAL/MOL
REMARK 927      BINDING AFFINITY PREDICTED BY RF-SCORE:    0.00 PKD
ROOT
HETATM    1  C   UNL     1      -9.433  13.049  66.947  1.00  0.00    -0.242 C  
HETATM    2  C   UNL     1      -8.380  11.944  66.986  1.00  0.00    -0.178 C  
HETATM    3  C   UNL     1      -8.947  10.642  66.312  1.00  0.00    -0.180 C  
HETATM    4  O   UNL     1      -7.954  11.649  68.313  1.00  0.00    -0.128 OA 
HETATM    5  C   UNL     1      -7.935   9.515  66.164  1.00  0.00    -0.107 C  
HETATM    6  H   UNL     1      -7.298  10.962  68.338  1.00  0.00     0.000 HD 
HETATM    7  C   UNL     1      -8.482   8.180  65.870  1.00  0.00    -0.153 A  
HETATM    8  C   UNL     1      -6.623   9.597  66.445  1.00  0.00    -0.071 C  
HETATM    9  C   UNL     1      -9.616   7.756  66.564  1.00  0.00    -0.270 A  
HETATM   10  C   UNL     1      -9.962   6.395  66.541  1.00  0.00    -0.103 A  
HETATM   11  C   UNL     1     -10.420   8.753  67.331  1.00  0.00    -0.279 C  
HETATM   12  O   UNL     1     -10.944   5.855  67.326  1.00  0.00    -0.410 OA 
HETATM   13  C   UNL     1      -9.265   5.496  65.726  1.00  0.00    -0.132 A  
HETATM   14  C   UNL     1     -10.212  10.216  67.039  1.00  0.00    -0.290 C  
HETATM   15  O   UNL     1     -11.242   8.363  68.155  1.00  0.00     0.276 OA 
HETATM   16  H   UNL     1     -11.178   4.934  67.310  1.00  0.00     0.000 HD 
HETATM   17  C   UNL     1     -11.070  11.138  67.543  1.00  0.00    -0.291 C  
HETATM   18  C   UNL     1      -8.220   5.950  64.933  1.00  0.00    -0.135 A  
HETATM   19  O   UNL     1     -12.124  10.780  68.386  1.00  0.00    -0.805 OA 
HETATM   20  C   UNL     1     -10.792  12.646  67.552  1.00  0.00    -0.239 C  
HETATM   21  C   UNL     1      -7.816   7.289  65.013  1.00  0.00    -0.125 A  
HETATM   22  H   UNL     1     -12.725  11.425  68.738  1.00  0.00     0.000 HD 
HETATM   23  C   UNL     1     -11.814  13.647  66.831  1.00  0.00    -0.411 C  
HETATM   24  O   UNL     1     -10.787  12.925  68.965  1.00  0.00    -0.341 OA 
HETATM   25  H   UNL     1     -11.624  12.677  69.339  1.00  0.00     0.000 HD 
HETATM   26  O   UNL     1     -12.984  13.384  66.570  1.00  0.00     0.053 OA 
HETATM   27  C   UNL     1     -11.279  15.070  66.557  1.00  0.00    -0.312 C  
HETATM   28  H   UNL     1     -10.115  15.880  69.432  1.00  0.00     0.000 HD 
HETATM   29  C   UNL     1     -10.346  15.353  67.490  1.00  0.00    -0.264 C  
HETATM   30  C   UNL     1      -9.027  14.517  67.376  1.00  0.00    -0.200 C  
HETATM   31  O   UNL     1     -10.772  15.681  68.775  1.00  0.00    -0.231 OA 
ENDROOT
BRANCH  27  32
HETATM   32  C   UNL     1     -10.801  15.413  65.180  1.00  0.00    -0.431 C  
HETATM   33  N   UNL     1     -10.984  14.441  64.222  1.00  0.00    -0.593 N  
HETATM   34  H1  UNL     1     -10.659  14.674  63.284  1.00  0.00     0.000 HD 
HETATM   35  H2  UNL     1     -11.418  13.542  64.437  1.00  0.00     0.000 HD 
HETATM   36  O   UNL     1     -10.346  16.504  64.891  1.00  0.00    -0.591 OA 
ENDBRANCH  27  32
BRANCH  30  37
HETATM   37  N   UNL     1      -7.966  14.705  68.386  1.00  0.00    -0.130 NA 
HETATM   38  C   UNL     1      -8.123  15.816  69.326  1.00  0.00    -0.241 C  
HETATM   39  C   UNL     1      -6.655  14.847  67.732  1.00  0.00    -0.168 C  
ENDBRANCH  30  37
TORSDOF 2
ENDMDL
MODEL       15
REMARK 921   NORMALIZED FREE ENERGY PREDICTED BY IDOCK:   -7.07 KCAL/MOL
REMARK 922        TOTAL FREE ENERGY PREDICTED BY IDOCK:   -7.47 KCAL/MOL
REMARK 923 INTER-LIGAND FREE ENERGY PREDICTED BY IDOCK:   -7.61 KCAL/MOL
REMARK 924 INTRA-LIGAND FREE ENERGY PREDICTED BY IDOCK:    0.15 KCAL/MOL
REMARK 927      BINDING AFFINITY PREDICTED BY RF-SCORE:    0.00 PKD
ROOT
HETATM    1  C   UNL     1      -8.327  11.640  68.318  1.00  0.00    -0.159 C  
HETATM    2  C   UNL     1      -7.704  13.019  68.113  1.00  0.00    -0.143 C  
HETATM    3  C   UNL     1      -8.835  14.082  67.859  1.00  0.00    -0.185 C  
HETATM    4  O   UNL     1      -6.777  13.040  67.032  1.00  0.00    -0.435 OA 
HETATM    5  C   UNL     1      -8.343  15.521  67.783  1.00  0.00    -0.155 C  
HETATM    6  H   UNL     1      -6.389  13.898  66.905  1.00  0.00     0.000 HD 
HETATM    7  C   UNL     1      -9.280  16.501  67.211  1.00  0.00    -0.224 A  
HETATM    8  C   UNL     1      -7.088  15.935  68.028  1.00  0.00    -0.141 C  
HETATM    9  C   UNL     1      -9.998  16.149  66.067  1.00  0.00    -0.373 A  
HETATM   10  C   UNL     1     -10.642  17.155  65.328  1.00  0.00    -0.043 A  
HETATM   11  C   UNL     1     -10.047  14.717  65.645  1.00  0.00    -0.366 C  
HETATM   12  O   UNL     1     -11.218  16.938  64.106  1.00  0.00    -1.386 OA 
HETATM   13  C   UNL     1     -10.682  18.471  65.800  1.00  0.00    -0.193 A  
HETATM   14  C   UNL     1      -9.646  13.664  66.645  1.00  0.00    -0.289 C  
HETATM   15  O   UNL     1     -10.432  14.432  64.515  1.00  0.00    -0.349 OA 
HETATM   16  H   UNL     1     -11.654  17.619  63.606  1.00  0.00     0.000 HD 
HETATM   17  C   UNL     1      -9.887  12.354  66.384  1.00  0.00    -0.240 C  
HETATM   18  C   UNL     1     -10.079  18.790  67.008  1.00  0.00    -0.399 A  
HETATM   19  O   UNL     1     -10.450  11.936  65.177  1.00  0.00    -0.265 OA 
HETATM   20  C   UNL     1      -9.271  11.199  67.182  1.00  0.00    -0.158 C  
HETATM   21  C   UNL     1      -9.365  17.811  67.710  1.00  0.00    -0.257 A  
HETATM   22  H   UNL     1     -10.619  11.019  64.994  1.00  0.00     0.000 HD 
HETATM   23  C   UNL     1     -10.224  10.134  67.904  1.00  0.00    -0.180 C  
HETATM   24  O   UNL     1      -8.509  10.525  66.162  1.00  0.00    -0.142 OA 
HETATM   25  H   UNL     1      -9.090  10.254  65.462  1.00  0.00     0.000 HD 
HETATM   26  O   UNL     1     -11.396   9.927  67.604  1.00  0.00    -0.151 OA 
HETATM   27  C   UNL     1      -9.551   9.251  68.978  1.00  0.00    -0.159 C  
HETATM   28  H   UNL     1      -6.976   8.177  67.401  1.00  0.00     0.000 HD 
HETATM   29  C   UNL     1      -8.245   9.127  68.660  1.00  0.00    -0.114 C  
HETATM   30  C   UNL     1      -7.408  10.443  68.796  1.00  0.00    -0.089 C  
HETATM   31  O   UNL     1      -7.895   8.264  67.625  1.00  0.00    -0.104 OA 
ENDROOT
BRANCH  27  32
HETATM   32  C   UNL     1      -9.735   9.599  70.423  1.00  0.00    -0.245 C  
HETATM   33  N   UNL     1     -10.704  10.537  70.695  1.00  0.00    -0.327 N  
HETATM   34  H1  UNL     1     -10.830  10.774  71.679  1.00  0.00     0.000 HD 
HETATM   35  H2  UNL     1     -11.263  10.970  69.959  1.00  0.00     0.000 HD 
HETATM   36  O   UNL     1      -9.127   9.043  71.319  1.00  0.00    -0.235 OA 
ENDBRANCH  27  32
BRANCH  30  37
HETATM   37  N   UNL     1      -5.982  10.431  68.413  1.00  0.00    -0.040 NA 
HETATM   38  C   UNL     1      -5.420   9.159  67.956  1.00  0.00    -0.034 C  
HETATM   39  C   UNL     1      -5.150  10.923  69.523  1.00  0.00    -0.038 C  
ENDBRANCH  30  37
TORSDOF 2
ENDMDL
MODEL       16
REMARK 921   NORMALIZED FREE ENERGY PREDICTED BY IDOCK:   -7.07 KCAL/MOL
REMARK 922        TOTAL FREE ENERGY PREDICTED BY IDOCK:   -7.46 KCAL/MOL
REMARK 923 INTER-LIGAND FREE ENERGY PREDICTED BY IDOCK:   -7.62 KCAL/MOL
REMARK 924 INTRA-LIGAND FREE ENERGY PREDICTED BY IDOCK:    0.15 KCAL/MOL
REMARK 927      BINDING AFFINITY PREDICTED BY RF-SCORE:    0.00 PKD
ROOT
HETATM    1  C   UNL     1     -10.043  11.363  68.678  1.00  0.00    -0.217 C  
HETATM    2  C   UNL     1     -11.054  10.702  69.611  1.00  0.00    -0.284 C  
HETATM    3  C   UNL     1     -10.390   9.472  70.331  1.00  0.00    -0.334 C  
HETATM    4  O   UNL     1     -12.228  10.277  68.924  1.00  0.00    -0.638 OA 
HETATM    5  C   UNL     1     -11.261   8.818  71.395  1.00  0.00    -0.362 C  
HETATM    6  H   UNL     1     -12.858   9.866  69.505  1.00  0.00     0.000 HD 
HETATM    7  C   UNL     1     -10.846   7.480  71.847  1.00  0.00    -0.264 A  
HETATM    8  C   UNL     1     -12.451   9.274  71.825  1.00  0.00    -0.458 C  
HETATM    9  C   UNL     1     -10.430   6.552  70.890  1.00  0.00    -0.263 A  
HETATM   10  C   UNL     1     -10.339   5.196  71.248  1.00  0.00    -0.205 A  
HETATM   11  C   UNL     1     -10.114   7.019  69.508  1.00  0.00    -0.173 C  
HETATM   12  O   UNL     1     -10.114   4.194  70.344  1.00  0.00    -0.163 OA 
HETATM   13  C   UNL     1     -10.528   4.795  72.574  1.00  0.00    -0.264 A  
HETATM   14  C   UNL     1      -9.892   8.491  69.283  1.00  0.00    -0.185 C  
HETATM   15  O   UNL     1     -10.017   6.198  68.600  1.00  0.00    -0.136 OA 
HETATM   16  H   UNL     1     -10.052   3.277  70.586  1.00  0.00     0.000 HD 
HETATM   17  C   UNL     1      -9.387   8.930  68.103  1.00  0.00    -0.142 C  
HETATM   18  C   UNL     1     -10.810   5.742  73.549  1.00  0.00    -0.272 A  
HETATM   19  O   UNL     1      -9.113   8.056  67.049  1.00  0.00    -0.135 OA 
HETATM   20  C   UNL     1      -9.394  10.400  67.666  1.00  0.00    -0.148 C  
HETATM   21  C   UNL     1     -10.984   7.083  73.187  1.00  0.00    -0.315 A  
HETATM   22  H   UNL     1      -8.759   8.362  66.223  1.00  0.00     0.000 HD 
HETATM   23  C   UNL     1      -8.013  11.131  67.313  1.00  0.00    -0.137 C  
HETATM   24  O   UNL     1     -10.205  10.338  66.477  1.00  0.00    -0.220 OA 
HETATM   25  H   UNL     1      -9.805   9.744  65.854  1.00  0.00     0.000 HD 
HETATM   26  O   UNL     1      -6.973  10.554  67.009  1.00  0.00    -0.082 OA 
HETATM   27  C   UNL     1      -8.066  12.673  67.258  1.00  0.00    -0.178 C  
HETATM   28  H   UNL     1     -10.589  13.160  65.342  1.00  0.00     0.000 HD 
HETATM   29  C   UNL     1      -9.320  13.038  66.915  1.00  0.00    -0.241 C  
HETATM   30  C   UNL     1     -10.409  12.746  68.000  1.00  0.00    -0.229 C  
HETATM   31  O   UNL     1      -9.707  12.904  65.584  1.00  0.00    -0.214 OA 
ENDROOT
BRANCH  27  32
HETATM   32  C   UNL     1      -7.567  13.459  68.431  1.00  0.00    -0.133 C  
HETATM   33  N   UNL     1      -6.829  12.753  69.355  1.00  0.00    -0.303 N  
HETATM   34  H1  UNL     1      -6.489  13.288  70.154  1.00  0.00     0.000 HD 
HETATM   35  H2  UNL     1      -6.635  11.757  69.248  1.00  0.00     0.000 HD 
HETATM   36  O   UNL     1      -7.730  14.660  68.540  1.00  0.00    -0.113 OA 
ENDBRANCH  27  32
BRANCH  30  37
HETATM   37  N   UNL     1     -11.823  13.049  67.700  1.00  0.00    -0.362 NA 
HETATM   38  C   UNL     1     -12.238  12.996  66.297  1.00  0.00    -0.320 C  
HETATM   39  C   UNL     1     -12.187  14.372  68.231  1.00  0.00    -0.125 C  
ENDBRANCH  30  37
TORSDOF 2
ENDMDL
MODEL       17
REMARK 921   NORMALIZED FREE ENERGY PREDICTED BY IDOCK:   -7.02 KCAL/MOL
REMARK 922        TOTAL FREE ENERGY PREDICTED BY IDOCK:   -7.41 KCAL/MOL
REMARK 923 INTER-LIGAND FREE ENERGY PREDICTED BY IDOCK:   -7.57 KCAL/MOL
REMARK 924 INTRA-LIGAND FREE ENERGY PREDICTED BY IDOCK:    0.16 KCAL/MOL
REMARK 927      BINDING AFFINITY PREDICTED BY RF-SCORE:    0.00 PKD
ROOT
HETATM    1  C   UNL     1      -9.361  12.628  67.800  1.00  0.00    -0.198 C  
HETATM    2  C   UNL     1     -10.180  13.831  68.263  1.00  0.00    -0.245 C  
HETATM    3  C   UNL     1      -9.639  15.139  67.578  1.00  0.00    -0.207 C  
HETATM    4  O   UNL     1     -10.158  13.988  69.679  1.00  0.00    -0.323 OA 
HETATM    5  C   UNL     1     -10.469  16.385  67.854  1.00  0.00    -0.307 C  
HETATM    6  H   UNL     1     -10.667  14.737  69.967  1.00  0.00     0.000 HD 
HETATM    7  C   UNL     1      -9.834  17.675  67.539  1.00  0.00    -0.299 A  
HETATM    8  C   UNL     1     -11.642  16.417  68.510  1.00  0.00    -0.100 C  
HETATM    9  C   UNL     1      -8.498  17.866  67.895  1.00  0.00    -0.251 A  
HETATM   10  C   UNL     1      -7.971  19.168  67.900  1.00  0.00    -0.284 A  
HETATM   11  C   UNL     1      -7.668  16.686  68.283  1.00  0.00    -0.183 C  
HETATM   12  O   UNL     1      -6.736  19.478  68.399  1.00  0.00    -0.260 OA 
HETATM   13  C   UNL     1      -8.728  20.245  67.425  1.00  0.00    -0.428 A  
HETATM   14  C   UNL     1      -8.170  15.312  67.927  1.00  0.00    -0.151 C  
HETATM   15  O   UNL     1      -6.595  16.862  68.853  1.00  0.00    -0.170 OA 
HETATM   16  H   UNL     1      -6.379  20.359  68.402  1.00  0.00     0.000 HD 
HETATM   17  C   UNL     1      -7.353  14.236  68.056  1.00  0.00    -0.142 C  
HETATM   18  C   UNL     1     -10.012  20.028  66.946  1.00  0.00    -0.584 A  
HETATM   19  O   UNL     1      -6.060  14.351  68.570  1.00  0.00    -0.081 OA 
HETATM   20  C   UNL     1      -7.841  12.783  68.002  1.00  0.00    -0.150 C  
HETATM   21  C   UNL     1     -10.574  18.747  67.014  1.00  0.00    -0.483 A  
HETATM   22  H   UNL     1      -5.488  13.599  68.660  1.00  0.00     0.000 HD 
HETATM   23  C   UNL     1      -7.233  11.780  66.912  1.00  0.00    -0.103 C  
HETATM   24  O   UNL     1      -7.483  12.316  69.316  1.00  0.00    -0.327 OA 
HETATM   25  H   UNL     1      -6.547  12.412  69.441  1.00  0.00     0.000 HD 
HETATM   26  O   UNL     1      -6.160  11.939  66.336  1.00  0.00    -0.134 OA 
HETATM   27  C   UNL     1      -8.033  10.480  66.677  1.00  0.00    -0.125 C  
HETATM   28  H   UNL     1      -8.433   9.422  69.675  1.00  0.00     0.000 HD 
HETATM   29  C   UNL     1      -8.691  10.181  67.816  1.00  0.00    -0.121 C  
HETATM   30  C   UNL     1      -9.845  11.171  68.188  1.00  0.00    -0.180 C  
HETATM   31  O   UNL     1      -7.969   9.633  68.873  1.00  0.00    -0.085 OA 
ENDROOT
BRANCH  27  32
HETATM   32  C   UNL     1      -8.931  10.387  65.482  1.00  0.00    -0.176 C  
HETATM   33  N   UNL     1      -8.830  11.416  64.574  1.00  0.00    -0.368 N  
HETATM   34  H1  UNL     1      -9.441  11.353  63.760  1.00  0.00     0.000 HD 
HETATM   35  H2  UNL     1      -8.183  12.195  64.706  1.00  0.00     0.000 HD 
HETATM   36  O   UNL     1      -9.657   9.433  65.274  1.00  0.00    -0.269 OA 
ENDBRANCH  27  32
BRANCH  30  37
HETATM   37  N   UNL     1     -10.588  10.970  69.448  1.00  0.00    -0.207 NA 
HETATM   38  C   UNL     1     -10.356   9.719  70.172  1.00  0.00    -0.282 C  
HETATM   39  C   UNL     1     -12.035  11.098  69.216  1.00  0.00    -0.351 C  
ENDBRANCH  30  37
TORSDOF 2
ENDMDL
MODEL       18
REMARK 921   NORMALIZED FREE ENERGY PREDICTED BY IDOCK:   -7.01 KCAL/MOL
REMARK 922        TOTAL FREE ENERGY PREDICTED BY IDOCK:   -7.40 KCAL/MOL
REMARK 923 INTER-LIGAND FREE ENERGY PREDICTED BY IDOCK:   -7.68 KCAL/MOL
REMARK 924 INTRA-LIGAND FREE ENERGY PREDICTED BY IDOCK:    0.28 KCAL/MOL
REMARK 927      BINDING AFFINITY PREDICTED BY RF-SCORE:    0.00 PKD
ROOT
HETATM    1  C   UNL     1      -9.267  13.473  67.091  1.00  0.00    -0.236 C  
HETATM    2  C   UNL     1      -8.404  12.216  67.002  1.00  0.00    -0.173 C  
HETATM    3  C   UNL     1      -9.322  10.951  66.827  1.00  0.00    -0.185 C  
HETATM    4  O   UNL     1      -7.571  12.049  68.146  1.00  0.00    -0.103 OA 
HETATM    5  C   UNL     1      -8.566   9.652  66.584  1.00  0.00    -0.137 C  
HETATM    6  H   UNL     1      -7.035  11.266  68.090  1.00  0.00     0.000 HD 
HETATM    7  C   UNL     1      -9.333   8.408  66.760  1.00  0.00    -0.235 A  
HETATM    8  C   UNL     1      -7.240   9.539  66.396  1.00  0.00    -0.089 C  
HETATM    9  C   UNL     1     -10.187   8.300  67.858  1.00  0.00    -0.276 A  
HETATM   10  C   UNL     1     -10.675   7.034  68.223  1.00  0.00    -0.182 A  
HETATM   11  C   UNL     1     -10.544   9.527  68.631  1.00  0.00    -0.210 C  
HETATM   12  O   UNL     1     -11.369   6.800  69.378  1.00  0.00    -0.488 OA 
HETATM   13  C   UNL     1     -10.423   5.915  67.422  1.00  0.00    -0.311 A  
HETATM   14  C   UNL     1     -10.285  10.870  67.999  1.00  0.00    -0.202 C  
HETATM   15  O   UNL     1     -11.059   9.416  69.740  1.00  0.00    -0.233 OA 
HETATM   16  H   UNL     1     -11.699   5.944  69.625  1.00  0.00     0.000 HD 
HETATM   17  C   UNL     1     -10.794  11.994  68.562  1.00  0.00    -0.233 C  
HETATM   18  C   UNL     1      -9.683   6.053  66.256  1.00  0.00    -0.119 A  
HETATM   19  O   UNL     1     -11.514  11.958  69.758  1.00  0.00    -0.393 OA 
HETATM   20  C   UNL     1     -10.359  13.413  68.177  1.00  0.00    -0.247 C  
HETATM   21  C   UNL     1      -9.124   7.295  65.928  1.00  0.00    -0.064 A  
HETATM   22  H   UNL     1     -11.871  12.745  70.152  1.00  0.00     0.000 HD 
HETATM   23  C   UNL     1     -11.446  14.463  67.647  1.00  0.00    -0.346 C  
HETATM   24  O   UNL     1      -9.819  13.892  69.424  1.00  0.00    -0.382 OA 
HETATM   25  H   UNL     1     -10.491  13.855  70.093  1.00  0.00     0.000 HD 
HETATM   26  O   UNL     1     -12.655  14.378  67.843  1.00  0.00     0.076 OA 
HETATM   27  C   UNL     1     -10.882  15.711  66.933  1.00  0.00    -0.282 C  
HETATM   28  H   UNL     1      -8.686  16.715  69.041  1.00  0.00     0.000 HD 
HETATM   29  C   UNL     1      -9.652  15.957  67.431  1.00  0.00    -0.221 C  
HETATM   30  C   UNL     1      -8.567  14.892  67.059  1.00  0.00    -0.238 C  
HETATM   31  O   UNL     1      -9.552  16.542  68.690  1.00  0.00    -0.224 OA 
ENDROOT
BRANCH  27  32
HETATM   32  C   UNL     1     -10.889  15.756  65.436  1.00  0.00    -0.364 C  
HETATM   33  N   UNL     1     -11.380  14.635  64.804  1.00  0.00    -0.447 N  
HETATM   34  H1  UNL     1     -11.384  14.666  63.785  1.00  0.00     0.000 HD 
HETATM   35  H2  UNL     1     -11.717  13.824  65.324  1.00  0.00     0.000 HD 
HETATM   36  O   UNL     1     -10.555  16.740  64.803  1.00  0.00    -0.674 OA 
ENDBRANCH  27  32
BRANCH  30  37
HETATM   37  N   UNL     1      -7.202  15.034  67.604  1.00  0.00    -0.169 NA 
HETATM   38  C   UNL     1      -7.059  15.050  69.062  1.00  0.00    -0.133 C  
HETATM   39  C   UNL     1      -6.562  16.248  67.073  1.00  0.00    -0.158 C  
ENDBRANCH  30  37
TORSDOF 2
ENDMDL
MODEL       19
REMARK 921   NORMALIZED FREE ENERGY PREDICTED BY IDOCK:   -7.00 KCAL/MOL
REMARK 922        TOTAL FREE ENERGY PREDICTED BY IDOCK:   -7.39 KCAL/MOL
REMARK 923 INTER-LIGAND FREE ENERGY PREDICTED BY IDOCK:   -7.51 KCAL/MOL
REMARK 924 INTRA-LIGAND FREE ENERGY PREDICTED BY IDOCK:    0.12 KCAL/MOL
REMARK 927      BINDING AFFINITY PREDICTED BY RF-SCORE:    0.00 PKD
ROOT
HETATM    1  C   UNL     1     -10.410  12.454  68.129  1.00  0.00    -0.231 C  
HETATM    2  C   UNL     1     -11.381  11.493  68.812  1.00  0.00    -0.265 C  
HETATM    3  C   UNL     1     -10.619  10.647  69.896  1.00  0.00    -0.203 C  
HETATM    4  O   UNL     1     -12.020  10.620  67.886  1.00  0.00    -0.737 OA 
HETATM    5  C   UNL     1     -11.514   9.753  70.743  1.00  0.00    -0.417 C  
HETATM    6  H   UNL     1     -12.624  10.022  68.311  1.00  0.00     0.000 HD 
HETATM    7  C   UNL     1     -10.839   8.700  71.519  1.00  0.00    -0.352 A  
HETATM    8  C   UNL     1     -12.858   9.732  70.711  1.00  0.00    -0.230 C  
HETATM    9  C   UNL     1      -9.824   7.965  70.904  1.00  0.00    -0.192 A  
HETATM   10  C   UNL     1      -9.393   6.766  71.496  1.00  0.00    -0.153 A  
HETATM   11  C   UNL     1      -9.238   8.458  69.622  1.00  0.00    -0.160 C  
HETATM   12  O   UNL     1      -8.537   5.891  70.885  1.00  0.00    -0.128 OA 
HETATM   13  C   UNL     1      -9.872   6.380  72.752  1.00  0.00    -0.179 A  
HETATM   14  C   UNL     1      -9.482   9.891  69.228  1.00  0.00    -0.218 C  
HETATM   15  O   UNL     1      -8.555   7.701  68.938  1.00  0.00    -0.128 OA 
HETATM   16  H   UNL     1      -8.245   5.080  71.286  1.00  0.00     0.000 HD 
HETATM   17  C   UNL     1      -8.790  10.441  68.199  1.00  0.00    -0.132 C  
HETATM   18  C   UNL     1     -10.783   7.185  73.422  1.00  0.00    -0.410 A  
HETATM   19  O   UNL     1      -7.885   9.696  67.440  1.00  0.00    -0.095 OA 
HETATM   20  C   UNL     1      -9.160  11.773  67.538  1.00  0.00    -0.175 C  
HETATM   21  C   UNL     1     -11.280   8.339  72.802  1.00  0.00    -0.322 A  
HETATM   22  H   UNL     1      -7.400  10.080  66.720  1.00  0.00     0.000 HD 
HETATM   23  C   UNL     1      -8.092  12.965  67.497  1.00  0.00    -0.181 C  
HETATM   24  O   UNL     1      -9.439  11.352  66.188  1.00  0.00    -0.203 OA 
HETATM   25  H   UNL     1      -8.669  10.933  65.824  1.00  0.00     0.000 HD 
HETATM   26  O   UNL     1      -6.879  12.822  67.623  1.00  0.00    -0.116 OA 
HETATM   27  C   UNL     1      -8.658  14.364  67.168  1.00  0.00    -0.237 C  
HETATM   28  H   UNL     1     -10.372  13.756  64.529  1.00  0.00     0.000 HD 
HETATM   29  C   UNL     1      -9.760  14.201  66.407  1.00  0.00    -0.298 C  
HETATM   30  C   UNL     1     -10.980  13.557  67.147  1.00  0.00    -0.291 C  
HETATM   31  O   UNL     1      -9.596  13.871  65.065  1.00  0.00     0.005 OA 
ENDROOT
BRANCH  27  32
HETATM   32  C   UNL     1      -8.899  15.330  68.287  1.00  0.00    -0.171 C  
HETATM   33  N   UNL     1      -8.405  14.960  69.517  1.00  0.00    -0.420 N  
HETATM   34  H1  UNL     1      -8.569  15.617  70.278  1.00  0.00     0.000 HD 
HETATM   35  H2  UNL     1      -7.906  14.081  69.658  1.00  0.00     0.000 HD 
HETATM   36  O   UNL     1      -9.431  16.412  68.122  1.00  0.00    -0.208 OA 
ENDBRANCH  27  32
BRANCH  30  37
HETATM   37  N   UNL     1     -12.216  13.278  66.389  1.00  0.00    -0.387 NA 
HETATM   38  C   UNL     1     -12.089  12.480  65.168  1.00  0.00    -0.446 C  
HETATM   39  C   UNL     1     -12.899  14.534  66.041  1.00  0.00     0.170 C  
ENDBRANCH  30  37
TORSDOF 2
ENDMDL
MODEL       20
REMARK 921   NORMALIZED FREE ENERGY PREDICTED BY IDOCK:   -6.98 KCAL/MOL
REMARK 922        TOTAL FREE ENERGY PREDICTED BY IDOCK:   -7.37 KCAL/MOL
REMARK 923 INTER-LIGAND FREE ENERGY PREDICTED BY IDOCK:   -7.60 KCAL/MOL
REMARK 924 INTRA-LIGAND FREE ENERGY PREDICTED BY IDOCK:    0.23 KCAL/MOL
REMARK 927      BINDING AFFINITY PREDICTED BY RF-SCORE:    0.00 PKD
ROOT
HETATM    1  C   UNL     1      -9.469  13.415  68.375  1.00  0.00    -0.176 C  
HETATM    2  C   UNL     1     -10.685  12.628  68.858  1.00  0.00    -0.164 C  
HETATM    3  C   UNL     1     -10.263  11.153  69.203  1.00  0.00    -0.163 C  
HETATM    4  O   UNL     1     -11.737  12.613  67.898  1.00  0.00    -0.330 OA 
HETATM    5  C   UNL     1     -11.365  10.312  69.831  1.00  0.00    -0.354 C  
HETATM    6  H   UNL     1     -12.494  12.123  68.198  1.00  0.00     0.000 HD 
HETATM    7  C   UNL     1     -11.144   8.856  69.851  1.00  0.00    -0.146 A  
HETATM    8  C   UNL     1     -12.577  10.758  70.205  1.00  0.00    -0.350 C  
HETATM    9  C   UNL     1     -10.627   8.244  68.709  1.00  0.00    -0.152 A  
HETATM   10  C   UNL     1     -10.707   6.847  68.586  1.00  0.00    -0.216 A  
HETATM   11  C   UNL     1     -10.022   9.089  67.636  1.00  0.00    -0.201 C  
HETATM   12  O   UNL     1     -10.392   6.173  67.438  1.00  0.00    -0.158 OA 
HETATM   13  C   UNL     1     -11.172   6.064  69.648  1.00  0.00    -0.428 A  
HETATM   14  C   UNL     1      -9.652  10.510  67.969  1.00  0.00    -0.159 C  
HETATM   15  O   UNL     1      -9.818   8.604  66.527  1.00  0.00    -0.237 OA 
HETATM   16  H   UNL     1     -10.446   5.228  67.355  1.00  0.00     0.000 HD 
HETATM   17  C   UNL     1      -8.902  11.237  67.104  1.00  0.00    -0.153 C  
HETATM   18  C   UNL     1     -11.561   6.671  70.835  1.00  0.00    -0.416 A  
HETATM   19  O   UNL     1      -8.502  10.726  65.868  1.00  0.00    -0.160 OA 
HETATM   20  C   UNL     1      -8.716  12.756  67.204  1.00  0.00    -0.202 C  
HETATM   21  C   UNL     1     -11.562   8.067  70.936  1.00  0.00    -0.284 A  
HETATM   22  H   UNL     1      -7.976  11.234  65.261  1.00  0.00     0.000 HD 
HETATM   23  C   UNL     1      -7.243  13.370  67.337  1.00  0.00    -0.103 C  
HETATM   24  O   UNL     1      -9.291  13.194  65.958  1.00  0.00    -0.458 OA 
HETATM   25  H   UNL     1      -8.827  12.788  65.236  1.00  0.00     0.000 HD 
HETATM   26  O   UNL     1      -6.210  12.788  67.015  1.00  0.00    -0.252 OA 
HETATM   27  C   UNL     1      -7.168  14.838  67.810  1.00  0.00    -0.192 C  
HETATM   28  H   UNL     1      -9.242  16.257  65.820  1.00  0.00     0.000 HD 
HETATM   29  C   UNL     1      -8.303  15.459  67.427  1.00  0.00    -0.183 C  
HETATM   30  C   UNL     1      -9.596  14.979  68.167  1.00  0.00    -0.207 C  
HETATM   31  O   UNL     1      -8.442  15.820  66.090  1.00  0.00    -0.291 OA 
ENDROOT
BRANCH  27  32
HETATM   32  C   UNL     1      -6.841  15.123  69.243  1.00  0.00    -0.153 C  
HETATM   33  N   UNL     1      -6.550  14.026  70.022  1.00  0.00    -0.338 N  
HETATM   34  H1  UNL     1      -6.328  14.220  70.998  1.00  0.00     0.000 HD 
HETATM   35  H2  UNL     1      -6.558  13.077  69.647  1.00  0.00     0.000 HD 
HETATM   36  O   UNL     1      -6.759  16.252  69.691  1.00  0.00    -0.206 OA 
ENDBRANCH  27  32
BRANCH  30  37
HETATM   37  N   UNL     1     -10.901  15.551  67.780  1.00  0.00    -0.301 NA 
HETATM   38  C   UNL     1     -10.886  16.763  66.958  1.00  0.00    -0.066 C  
HETATM   39  C   UNL     1     -11.717  15.824  68.974  1.00  0.00    -0.396 C  
ENDBRANCH  30  37
TORSDOF 2
ENDMDL
MODEL       21
REMARK 921   NORMALIZED FREE ENERGY PREDICTED BY IDOCK:   -6.95 KCAL/MOL
REMARK 922        TOTAL FREE ENERGY PREDICTED BY IDOCK:   -7.33 KCAL/MOL
REMARK 923 INTER-LIGAND FREE ENERGY PREDICTED BY IDOCK:   -7.49 KCAL/MOL
REMARK 924 INTRA-LIGAND FREE ENERGY PREDICTED BY IDOCK:    0.15 KCAL/MOL
REMARK 927      BINDING AFFINITY PREDICTED BY RF-SCORE:    0.00 PKD
ROOT
HETATM    1  C   UNL     1      -9.911  11.627  68.704  1.00  0.00    -0.192 C  
HETATM    2  C   UNL     1     -10.866  10.761  69.522  1.00  0.00    -0.242 C  
HETATM    3  C   UNL     1     -10.161   9.409  69.909  1.00  0.00    -0.247 C  
HETATM    4  O   UNL     1     -12.079  10.485  68.826  1.00  0.00    -0.739 OA 
HETATM    5  C   UNL     1     -10.968   8.523  70.849  1.00  0.00    -0.292 C  
HETATM    6  H   UNL     1     -12.673   9.946  69.336  1.00  0.00     0.000 HD 
HETATM    7  C   UNL     1     -10.527   7.123  70.965  1.00  0.00    -0.230 A  
HETATM    8  C   UNL     1     -12.130   8.857  71.437  1.00  0.00    -0.381 C  
HETATM    9  C   UNL     1     -10.169   6.438  69.803  1.00  0.00    -0.226 A  
HETATM   10  C   UNL     1     -10.058   5.038  69.842  1.00  0.00    -0.274 A  
HETATM   11  C   UNL     1      -9.935   7.206  68.543  1.00  0.00    -0.159 C  
HETATM   12  O   UNL     1      -9.887   4.266  68.725  1.00  0.00    -0.140 OA 
HETATM   13  C   UNL     1     -10.168   4.349  71.053  1.00  0.00    -0.121 A  
HETATM   14  C   UNL     1      -9.727   8.694  68.641  1.00  0.00    -0.171 C  
HETATM   15  O   UNL     1      -9.892   6.610  67.471  1.00  0.00    -0.122 OA 
HETATM   16  H   UNL     1      -9.812   3.319  68.752  1.00  0.00     0.000 HD 
HETATM   17  C   UNL     1      -9.292   9.392  67.562  1.00  0.00    -0.127 C  
HETATM   18  C   UNL     1     -10.392   5.050  72.230  1.00  0.00    -0.267 A  
HETATM   19  O   UNL     1      -9.081   8.778  66.326  1.00  0.00    -0.166 OA 
HETATM   20  C   UNL     1      -9.323  10.921  67.466  1.00  0.00    -0.154 C  
HETATM   21  C   UNL     1     -10.586   6.436  72.188  1.00  0.00    -0.249 A  
HETATM   22  H   UNL     1      -8.776   9.266  65.570  1.00  0.00     0.000 HD 
HETATM   23  C   UNL     1      -7.966  11.731  67.206  1.00  0.00    -0.161 C  
HETATM   24  O   UNL     1     -10.204  11.116  66.342  1.00  0.00    -0.219 OA 
HETATM   25  H   UNL     1      -9.842  10.681  65.580  1.00  0.00     0.000 HD 
HETATM   26  O   UNL     1      -6.946  11.249  66.721  1.00  0.00    -0.129 OA 
HETATM   27  C   UNL     1      -8.021  13.246  67.500  1.00  0.00    -0.186 C  
HETATM   28  H   UNL     1     -10.653  14.115  65.891  1.00  0.00     0.000 HD 
HETATM   29  C   UNL     1      -9.293  13.661  67.320  1.00  0.00    -0.233 C  
HETATM   30  C   UNL     1     -10.316  13.121  68.374  1.00  0.00    -0.253 C  
HETATM   31  O   UNL     1      -9.758  13.823  66.018  1.00  0.00    -0.286 OA 
ENDROOT
BRANCH  27  32
HETATM   32  C   UNL     1      -7.453  13.755  68.789  1.00  0.00    -0.098 C  
HETATM   33  N   UNL     1      -6.763  12.836  69.546  1.00  0.00    -0.310 N  
HETATM   34  H1  UNL     1      -6.376  13.183  70.423  1.00  0.00     0.000 HD 
HETATM   35  H2  UNL     1      -6.646  11.867  69.248  1.00  0.00     0.000 HD 
HETATM   36  O   UNL     1      -7.523  14.923  69.126  1.00  0.00    -0.136 OA 
ENDBRANCH  27  32
BRANCH  30  37
HETATM   37  N   UNL     1     -11.745  13.465  68.232  1.00  0.00    -0.336 NA 
HETATM   38  C   UNL     1     -12.109  14.389  67.156  1.00  0.00    -0.333 C  
HETATM   39  C   UNL     1     -12.269  14.010  69.494  1.00  0.00    -0.308 C  
ENDBRANCH  30  37
TORSDOF 2
ENDMDL
MODEL       22
REMARK 921   NORMALIZED FREE ENERGY PREDICTED BY IDOCK:   -6.92 KCAL/MOL
REMARK 922        TOTAL FREE ENERGY PREDICTED BY IDOCK:   -7.29 KCAL/MOL
REMARK 923 INTER-LIGAND FREE ENERGY PREDICTED BY IDOCK:   -7.65 KCAL/MOL
REMARK 924 INTRA-LIGAND FREE ENERGY PREDICTED BY IDOCK:    0.36 KCAL/MOL
REMARK 927      BINDING AFFINITY PREDICTED BY RF-SCORE:    0.00 PKD
ROOT
HETATM    1  C   UNL     1      -9.585  13.054  67.256  1.00  0.00    -0.225 C  
HETATM    2  C   UNL     1      -8.338  12.299  67.709  1.00  0.00    -0.162 C  
HETATM    3  C   UNL     1      -8.280  10.895  67.004  1.00  0.00    -0.134 C  
HETATM    4  O   UNL     1      -8.292  12.127  69.123  1.00  0.00    -0.329 OA 
HETATM    5  C   UNL     1      -7.004  10.108  67.269  1.00  0.00    -0.083 C  
HETATM    6  H   UNL     1      -7.516  11.657  69.404  1.00  0.00     0.000 HD 
HETATM    7  C   UNL     1      -7.039   8.675  66.933  1.00  0.00    -0.075 A  
HETATM    8  C   UNL     1      -5.926  10.561  67.931  1.00  0.00    -0.043 C  
HETATM    9  C   UNL     1      -8.172   7.936  67.278  1.00  0.00    -0.122 A  
HETATM   10  C   UNL     1      -8.104   6.533  67.263  1.00  0.00    -0.113 A  
HETATM   11  C   UNL     1      -9.420   8.654  67.676  1.00  0.00    -0.141 C  
HETATM   12  O   UNL     1      -9.096   5.727  67.751  1.00  0.00    -0.109 OA 
HETATM   13  C   UNL     1      -6.965   5.881  66.779  1.00  0.00    -0.068 A  
HETATM   14  C   UNL     1      -9.541  10.117  67.341  1.00  0.00    -0.180 C  
HETATM   15  O   UNL     1     -10.320   8.036  68.237  1.00  0.00    -0.201 OA 
HETATM   16  H   UNL     1      -9.050   4.778  67.740  1.00  0.00     0.000 HD 
HETATM   17  C   UNL     1     -10.733  10.749  67.479  1.00  0.00    -0.264 C  
HETATM   18  C   UNL     1      -5.890   6.623  66.311  1.00  0.00    -0.025 A  
HETATM   19  O   UNL     1     -11.859  10.095  67.983  1.00  0.00    -0.638 OA 
HETATM   20  C   UNL     1     -10.900  12.273  67.446  1.00  0.00    -0.239 C  
HETATM   21  C   UNL     1      -5.917   8.020  66.399  1.00  0.00    -0.041 A  
HETATM   22  H   UNL     1     -12.694  10.537  68.080  1.00  0.00     0.000 HD 
HETATM   23  C   UNL     1     -11.873  12.944  66.366  1.00  0.00    -0.415 C  
HETATM   24  O   UNL     1     -11.421  12.529  68.765  1.00  0.00    -0.263 OA 
HETATM   25  H   UNL     1     -12.231  12.047  68.882  1.00  0.00     0.000 HD 
HETATM   26  O   UNL     1     -12.780  12.358  65.781  1.00  0.00    -0.392 OA 
HETATM   27  C   UNL     1     -11.692  14.463  66.152  1.00  0.00    -0.384 C  
HETATM   28  H   UNL     1     -11.773  15.548  69.167  1.00  0.00     0.000 HD 
HETATM   29  C   UNL     1     -11.220  14.994  67.300  1.00  0.00    -0.338 C  
HETATM   30  C   UNL     1      -9.758  14.574  67.666  1.00  0.00    -0.215 C  
HETATM   31  O   UNL     1     -12.105  15.174  68.359  1.00  0.00    -0.241 OA 
ENDROOT
BRANCH  27  32
HETATM   32  C   UNL     1     -10.915  14.941  64.965  1.00  0.00    -0.420 C  
HETATM   33  N   UNL     1     -10.286  13.964  64.226  1.00  0.00    -0.533 N  
HETATM   34  H1  UNL     1      -9.757  14.290  63.418  1.00  0.00     0.000 HD 
HETATM   35  H2  UNL     1     -10.345  12.976  64.473  1.00  0.00     0.000 HD 
HETATM   36  O   UNL     1     -10.892  16.107  64.616  1.00  0.00    -0.650 OA 
ENDBRANCH  27  32
BRANCH  30  37
HETATM   37  N   UNL     1      -9.168  15.050  68.933  1.00  0.00    -0.199 NA 
HETATM   38  C   UNL     1     -10.033  15.820  69.829  1.00  0.00    -0.250 C  
HETATM   39  C   UNL     1      -7.961  15.850  68.668  1.00  0.00    -0.156 C  
ENDBRANCH  30  37
TORSDOF 2
ENDMDL
MODEL       23
REMARK 921   NORMALIZED FREE ENERGY PREDICTED BY IDOCK:   -6.80 KCAL/MOL
REMARK 922        TOTAL FREE ENERGY PREDICTED BY IDOCK:   -7.16 KCAL/MOL
REMARK 923 INTER-LIGAND FREE ENERGY PREDICTED BY IDOCK:   -7.49 KCAL/MOL
REMARK 924 INTRA-LIGAND FREE ENERGY PREDICTED BY IDOCK:    0.33 KCAL/MOL
REMARK 927      BINDING AFFINITY PREDICTED BY RF-SCORE:    0.00 PKD
ROOT
HETATM    1  C   UNL     1      -9.921  14.392  67.819  1.00  0.00    -0.226 C  
HETATM    2  C   UNL     1      -9.508  12.933  67.995  1.00  0.00    -0.213 C  
HETATM    3  C   UNL     1      -8.851  12.400  66.669  1.00  0.00    -0.156 C  
HETATM    4  O   UNL     1     -10.606  12.099  68.354  1.00  0.00    -0.212 OA 
HETATM    5  C   UNL     1      -8.270  10.997  66.773  1.00  0.00    -0.149 C  
HETATM    6  H   UNL     1     -10.349  11.191  68.464  1.00  0.00     0.000 HD 
HETATM    7  C   UNL     1      -7.963  10.322  65.501  1.00  0.00    -0.151 A  
HETATM    8  C   UNL     1      -8.175  10.268  67.898  1.00  0.00    -0.109 C  
HETATM    9  C   UNL     1      -8.886  10.413  64.458  1.00  0.00    -0.225 A  
HETATM   10  C   UNL     1      -8.777   9.533  63.369  1.00  0.00    -0.222 A  
HETATM   11  C   UNL     1      -9.979  11.428  64.535  1.00  0.00    -0.271 C  
HETATM   12  O   UNL     1      -9.727   9.425  62.391  1.00  0.00    -0.510 OA 
HETATM   13  C   UNL     1      -7.683   8.668  63.260  1.00  0.00    -0.134 A  
HETATM   14  C   UNL     1      -9.842  12.552  65.528  1.00  0.00    -0.197 C  
HETATM   15  O   UNL     1     -10.941  11.340  63.777  1.00  0.00    -0.387 OA 
HETATM   16  H   UNL     1      -9.652   8.829  61.654  1.00  0.00     0.000 HD 
HETATM   17  C   UNL     1     -10.691  13.610  65.478  1.00  0.00    -0.296 C  
HETATM   18  C   UNL     1      -6.695   8.676  64.235  1.00  0.00    -0.074 A  
HETATM   19  O   UNL     1     -11.741  13.668  64.559  1.00  0.00    -0.367 OA 
HETATM   20  C   UNL     1     -10.826  14.648  66.598  1.00  0.00    -0.312 C  
HETATM   21  C   UNL     1      -6.839   9.491  65.365  1.00  0.00    -0.086 A  
HETATM   22  H   UNL     1     -12.334  14.408  64.524  1.00  0.00     0.000 HD 
HETATM   23  C   UNL     1     -10.569  16.197  66.282  1.00  0.00    -0.274 C  
HETATM   24  O   UNL     1     -12.204  14.474  66.981  1.00  0.00    -0.523 OA 
HETATM   25  H   UNL     1     -12.762  14.631  66.229  1.00  0.00     0.000 HD 
HETATM   26  O   UNL     1     -10.618  16.701  65.164  1.00  0.00    -0.645 OA 
HETATM   27  C   UNL     1     -10.352  17.105  67.512  1.00  0.00    -0.341 C  
HETATM   28  H   UNL     1     -12.859  16.314  69.344  1.00  0.00     0.000 HD 
HETATM   29  C   UNL     1     -11.010  16.561  68.556  1.00  0.00    -0.350 C  
HETATM   30  C   UNL     1     -10.413  15.212  69.080  1.00  0.00    -0.248 C  
HETATM   31  O   UNL     1     -12.395  16.697  68.609  1.00  0.00     0.602 OA 
ENDROOT
BRANCH  27  32
HETATM   32  C   UNL     1      -8.956  17.498  67.886  1.00  0.00    -0.251 C  
HETATM   33  N   UNL     1      -7.965  17.085  67.024  1.00  0.00    -0.190 N  
HETATM   34  H1  UNL     1      -7.014  17.353  67.279  1.00  0.00     0.000 HD 
HETATM   35  H2  UNL     1      -8.169  16.546  66.183  1.00  0.00     0.000 HD 
HETATM   36  O   UNL     1      -8.702  18.199  68.848  1.00  0.00    -0.237 OA 
ENDBRANCH  27  32
BRANCH  30  37
HETATM   37  N   UNL     1     -11.095  14.501  70.180  1.00  0.00    -0.146 NA 
HETATM   38  C   UNL     1     -12.437  13.980  69.912  1.00  0.00    -0.246 C  
HETATM   39  C   UNL     1     -11.171  15.358  71.374  1.00  0.00    -0.342 C  
ENDBRANCH  30  37
TORSDOF 2
ENDMDL
MODEL       24
REMARK 921   NORMALIZED FREE ENERGY PREDICTED BY IDOCK:   -6.79 KCAL/MOL
REMARK 922        TOTAL FREE ENERGY PREDICTED BY IDOCK:   -7.15 KCAL/MOL
REMARK 923 INTER-LIGAND FREE ENERGY PREDICTED BY IDOCK:   -7.54 KCAL/MOL
REMARK 924 INTRA-LIGAND FREE ENERGY PREDICTED BY IDOCK:    0.39 KCAL/MOL
REMARK 927      BINDING AFFINITY PREDICTED BY RF-SCORE:    0.00 PKD
ROOT
HETATM    1  C   UNL     1      -9.587   8.389  69.472  1.00  0.00    -0.170 C  
HETATM    2  C   UNL     1      -9.913   9.407  68.381  1.00  0.00    -0.170 C  
HETATM    3  C   UNL     1      -9.968  10.852  69.000  1.00  0.00    -0.206 C  
HETATM    4  O   UNL     1     -11.144   9.121  67.723  1.00  0.00    -0.507 OA 
HETATM    5  C   UNL     1     -10.145  11.969  67.981  1.00  0.00    -0.199 C  
HETATM    6  H   UNL     1     -11.346   9.755  67.044  1.00  0.00     0.000 HD 
HETATM    7  C   UNL     1     -10.548  13.280  68.513  1.00  0.00    -0.270 A  
HETATM    8  C   UNL     1     -10.133  11.820  66.645  1.00  0.00    -0.231 C  
HETATM    9  C   UNL     1     -11.540  13.326  69.493  1.00  0.00    -0.349 A  
HETATM   10  C   UNL     1     -12.160  14.554  69.781  1.00  0.00    -0.331 A  
HETATM   11  C   UNL     1     -11.933  12.069  70.196  1.00  0.00    -0.321 C  
HETATM   12  O   UNL     1     -13.257  14.671  70.591  1.00  0.00    -0.511 OA 
HETATM   13  C   UNL     1     -11.701  15.738  69.196  1.00  0.00    -0.398 A  
HETATM   14  C   UNL     1     -11.013  10.880  70.103  1.00  0.00    -0.153 C  
HETATM   15  O   UNL     1     -12.973  12.040  70.849  1.00  0.00    -0.167 OA 
HETATM   16  H   UNL     1     -13.676  15.501  70.786  1.00  0.00     0.000 HD 
HETATM   17  C   UNL     1     -11.215   9.801  70.900  1.00  0.00    -0.359 C  
HETATM   18  C   UNL     1     -10.624  15.705  68.322  1.00  0.00    -0.262 A  
HETATM   19  O   UNL     1     -12.297   9.728  71.779  1.00  0.00    -0.376 OA 
HETATM   20  C   UNL     1     -10.530   8.445  70.689  1.00  0.00    -0.200 C  
HETATM   21  C   UNL     1     -10.053  14.476  67.967  1.00  0.00    -0.226 A  
HETATM   22  H   UNL     1     -12.438   8.973  72.338  1.00  0.00     0.000 HD 
HETATM   23  C   UNL     1      -9.639   7.813  71.860  1.00  0.00    -0.165 C  
HETATM   24  O   UNL     1     -11.665   7.589  70.455  1.00  0.00    -0.449 OA 
HETATM   25  H   UNL     1     -12.246   7.624  71.205  1.00  0.00     0.000 HD 
HETATM   26  O   UNL     1      -9.721   8.121  73.046  1.00  0.00    -0.275 OA 
HETATM   27  C   UNL     1      -8.696   6.665  71.440  1.00  0.00    -0.129 C  
HETATM   28  H   UNL     1     -10.701   4.745  69.838  1.00  0.00     0.000 HD 
HETATM   29  C   UNL     1      -9.243   6.043  70.374  1.00  0.00    -0.156 C  
HETATM   30  C   UNL     1      -9.272   6.893  69.060  1.00  0.00    -0.137 C  
HETATM   31  O   UNL     1     -10.316   5.182  70.588  1.00  0.00    -0.249 OA 
ENDROOT
BRANCH  27  32
HETATM   32  C   UNL     1      -7.245   6.961  71.219  1.00  0.00    -0.076 C  
HETATM   33  N   UNL     1      -6.807   8.185  71.672  1.00  0.00    -0.057 N  
HETATM   34  H1  UNL     1      -5.818   8.387  71.522  1.00  0.00     0.000 HD 
HETATM   35  H2  UNL     1      -7.432   8.849  72.130  1.00  0.00     0.000 HD 
HETATM   36  O   UNL     1      -6.471   6.154  70.738  1.00  0.00    -0.038 OA 
ENDBRANCH  27  32
BRANCH  30  37
HETATM   37  N   UNL     1      -9.905   6.329  67.852  1.00  0.00    -0.121 NA 
HETATM   38  C   UNL     1      -9.939   4.871  67.730  1.00  0.00    -0.131 C  
HETATM   39  C   UNL     1      -9.269   6.871  66.640  1.00  0.00    -0.157 C  
ENDBRANCH  30  37
TORSDOF 2
ENDMDL
MODEL       25
REMARK 921   NORMALIZED FREE ENERGY PREDICTED BY IDOCK:   -6.68 KCAL/MOL
REMARK 922        TOTAL FREE ENERGY PREDICTED BY IDOCK:   -7.04 KCAL/MOL
REMARK 923 INTER-LIGAND FREE ENERGY PREDICTED BY IDOCK:   -7.13 KCAL/MOL
REMARK 924 INTRA-LIGAND FREE ENERGY PREDICTED BY IDOCK:    0.10 KCAL/MOL
REMARK 927      BINDING AFFINITY PREDICTED BY RF-SCORE:    0.00 PKD
ROOT
HETATM    1  C   UNL     1     -10.198   9.351  68.869  1.00  0.00    -0.215 C  
HETATM    2  C   UNL     1     -10.900  10.706  68.917  1.00  0.00    -0.231 C  
HETATM    3  C   UNL     1     -10.283  11.664  67.833  1.00  0.00    -0.203 C  
HETATM    4  O   UNL     1     -10.814  11.317  70.201  1.00  0.00    -0.440 OA 
HETATM    5  C   UNL     1     -11.001  12.999  67.689  1.00  0.00    -0.277 C  
HETATM    6  H   UNL     1     -11.251  12.160  70.229  1.00  0.00     0.000 HD 
HETATM    7  C   UNL     1     -10.277  14.054  66.959  1.00  0.00    -0.261 A  
HETATM    8  C   UNL     1     -12.143  13.347  68.307  1.00  0.00    -0.271 C  
HETATM    9  C   UNL     1      -8.918  14.233  67.220  1.00  0.00    -0.221 A  
HETATM   10  C   UNL     1      -8.290  15.414  66.790  1.00  0.00    -0.250 A  
HETATM   11  C   UNL     1      -8.171  13.179  67.969  1.00  0.00    -0.158 C  
HETATM   12  O   UNL     1      -7.016  15.761  67.148  1.00  0.00    -0.203 OA 
HETATM   13  C   UNL     1      -8.976  16.336  65.993  1.00  0.00    -0.325 A  
HETATM   14  C   UNL     1      -8.794  11.813  68.092  1.00  0.00    -0.169 C  
HETATM   15  O   UNL     1      -7.067  13.438  68.439  1.00  0.00    -0.090 OA 
HETATM   16  H   UNL     1      -6.591  16.560  66.856  1.00  0.00     0.000 HD 
HETATM   17  C   UNL     1      -8.061  10.772  68.562  1.00  0.00    -0.133 C  
HETATM   18  C   UNL     1     -10.291  16.087  65.624  1.00  0.00    -0.414 A  
HETATM   19  O   UNL     1      -6.744  10.937  68.997  1.00  0.00    -0.058 OA 
HETATM   20  C   UNL     1      -8.664   9.431  68.995  1.00  0.00    -0.136 C  
HETATM   21  C   UNL     1     -10.950  14.954  66.116  1.00  0.00    -0.334 A  
HETATM   22  H   UNL     1      -6.231  10.209  69.326  1.00  0.00     0.000 HD 
HETATM   23  C   UNL     1      -8.178   8.076  68.293  1.00  0.00    -0.123 C  
HETATM   24  O   UNL     1      -8.296   9.392  70.387  1.00  0.00    -0.174 OA 
HETATM   25  H   UNL     1      -7.350   9.441  70.464  1.00  0.00     0.000 HD 
HETATM   26  O   UNL     1      -7.118   7.943  67.687  1.00  0.00    -0.079 OA 
HETATM   27  C   UNL     1      -9.086   6.846  68.507  1.00  0.00    -0.127 C  
HETATM   28  H   UNL     1      -9.457   6.871  71.691  1.00  0.00     0.000 HD 
HETATM   29  C   UNL     1      -9.724   6.997  69.687  1.00  0.00    -0.157 C  
HETATM   30  C   UNL     1     -10.780   8.151  69.721  1.00  0.00    -0.229 C  
HETATM   31  O   UNL     1      -9.009   6.765  70.860  1.00  0.00    -0.148 OA 
ENDROOT
BRANCH  27  32
HETATM   32  C   UNL     1     -10.033   6.444  67.419  1.00  0.00    -0.138 C  
HETATM   33  N   UNL     1      -9.867   7.086  66.212  1.00  0.00    -0.419 N  
HETATM   34  H1  UNL     1     -10.511   6.813  65.471  1.00  0.00     0.000 HD 
HETATM   35  H2  UNL     1      -9.144   7.792  66.068  1.00  0.00     0.000 HD 
HETATM   36  O   UNL     1     -10.855   5.557  67.551  1.00  0.00    -0.192 OA 
ENDBRANCH  27  32
BRANCH  30  37
HETATM   37  N   UNL     1     -11.490   8.441  70.983  1.00  0.00    -0.267 NA 
HETATM   38  C   UNL     1     -10.674   8.613  72.187  1.00  0.00    -0.347 C  
HETATM   39  C   UNL     1     -12.492   7.399  71.259  1.00  0.00    -0.346 C  
ENDBRANCH  30  37
TORSDOF 2
ENDMDL
MODEL       26
REMARK 921   NORMALIZED FREE ENERGY PREDICTED BY IDOCK:   -6.67 KCAL/MOL
REMARK 922        TOTAL FREE ENERGY PREDICTED BY IDOCK:   -7.02 KCAL/MOL
REMARK 923 INTER-LIGAND FREE ENERGY PREDICTED BY IDOCK:   -7.35 KCAL/MOL
REMARK 924 INTRA-LIGAND FREE ENERGY PREDICTED BY IDOCK:    0.32 KCAL/MOL
REMARK 927      BINDING AFFINITY PREDICTED BY RF-SCORE:    0.00 PKD
ROOT
HETATM    1  C   UNL     1      -9.282   8.569  70.089  1.00  0.00    -0.159 C  
HETATM    2  C   UNL     1      -8.555   9.267  68.943  1.00  0.00    -0.130 C  
HETATM    3  C   UNL     1      -8.819  10.816  69.009  1.00  0.00    -0.135 C  
HETATM    4  O   UNL     1      -8.948   8.769  67.667  1.00  0.00    -0.134 OA 
HETATM    5  C   UNL     1      -8.028  11.635  67.999  1.00  0.00    -0.132 C  
HETATM    6  H   UNL     1      -8.496   9.204  66.954  1.00  0.00     0.000 HD 
HETATM    7  C   UNL     1      -8.483  13.018  67.779  1.00  0.00    -0.188 A  
HETATM    8  C   UNL     1      -7.075  11.161  67.178  1.00  0.00    -0.113 C  
HETATM    9  C   UNL     1      -9.853  13.259  67.667  1.00  0.00    -0.230 A  
HETATM   10  C   UNL     1     -10.290  14.488  67.146  1.00  0.00    -0.265 A  
HETATM   11  C   UNL     1     -10.819  12.198  68.080  1.00  0.00    -0.222 C  
HETATM   12  O   UNL     1     -11.596  14.751  66.833  1.00  0.00    -0.359 OA 
HETATM   13  C   UNL     1      -9.377  15.511  66.871  1.00  0.00    -0.252 A  
HETATM   14  C   UNL     1     -10.315  11.068  68.940  1.00  0.00    -0.223 C  
HETATM   15  O   UNL     1     -11.995  12.283  67.738  1.00  0.00    -0.474 OA 
HETATM   16  H   UNL     1     -11.892  15.583  66.481  1.00  0.00     0.000 HD 
HETATM   17  C   UNL     1     -11.194  10.213  69.521  1.00  0.00    -0.238 C  
HETATM   18  C   UNL     1      -8.024  15.312  67.112  1.00  0.00    -0.251 A  
HETATM   19  O   UNL     1     -12.569  10.309  69.301  1.00  0.00    -0.556 OA 
HETATM   20  C   UNL     1     -10.789   8.881  70.163  1.00  0.00    -0.231 C  
HETATM   21  C   UNL     1      -7.572  14.062  67.553  1.00  0.00    -0.195 A  
HETATM   22  H   UNL     1     -13.185   9.711  69.707  1.00  0.00     0.000 HD 
HETATM   23  C   UNL     1     -11.135   8.603  71.702  1.00  0.00    -0.305 C  
HETATM   24  O   UNL     1     -11.513   7.941  69.346  1.00  0.00    -0.373 OA 
HETATM   25  H   UNL     1     -12.442   8.133  69.392  1.00  0.00     0.000 HD 
HETATM   26  O   UNL     1     -12.003   9.191  72.342  1.00  0.00    -0.278 OA 
HETATM   27  C   UNL     1     -10.373   7.431  72.360  1.00  0.00    -0.263 C  
HETATM   28  H   UNL     1     -10.854   5.081  70.235  1.00  0.00     0.000 HD 
HETATM   29  C   UNL     1     -10.064   6.539  71.396  1.00  0.00    -0.191 C  
HETATM   30  C   UNL     1      -9.001   7.034  70.359  1.00  0.00    -0.155 C  
HETATM   31  O   UNL     1     -11.072   5.709  70.913  1.00  0.00    -0.237 OA 
ENDROOT
BRANCH  27  32
HETATM   32  C   UNL     1      -9.193   7.732  73.231  1.00  0.00    -0.258 C  
HETATM   33  N   UNL     1      -8.682   6.667  73.938  1.00  0.00    -0.135 N  
HETATM   34  H1  UNL     1      -7.879   6.871  74.532  1.00  0.00     0.000 HD 
HETATM   35  H2  UNL     1      -9.083   5.731  73.873  1.00  0.00     0.000 HD 
HETATM   36  O   UNL     1      -8.660   8.825  73.268  1.00  0.00    -0.345 OA 
ENDBRANCH  27  32
BRANCH  30  37
HETATM   37  N   UNL     1      -8.637   6.159  69.227  1.00  0.00    -0.119 NA 
HETATM   38  C   UNL     1      -9.732   5.557  68.465  1.00  0.00    -0.134 C  
HETATM   39  C   UNL     1      -7.751   5.075  69.682  1.00  0.00    -0.064 C  
ENDBRANCH  30  37
TORSDOF 2
ENDMDL
MODEL       27
REMARK 921   NORMALIZED FREE ENERGY PREDICTED BY IDOCK:   -6.66 KCAL/MOL
REMARK 922        TOTAL FREE ENERGY PREDICTED BY IDOCK:   -7.01 KCAL/MOL
REMARK 923 INTER-LIGAND FREE ENERGY PREDICTED BY IDOCK:   -7.42 KCAL/MOL
REMARK 924 INTRA-LIGAND FREE ENERGY PREDICTED BY IDOCK:    0.41 KCAL/MOL
REMARK 927      BINDING AFFINITY PREDICTED BY RF-SCORE:    0.00 PKD
ROOT
HETATM    1  C   UNL     1      -9.075  14.001  66.889  1.00  0.00    -0.262 C  
HETATM    2  C   UNL     1      -7.986  12.935  66.982  1.00  0.00    -0.022 C  
HETATM    3  C   UNL     1      -8.639  11.505  66.996  1.00  0.00    -0.161 C  
HETATM    4  O   UNL     1      -7.165  13.098  68.135  1.00  0.00    -0.092 OA 
HETATM    5  C   UNL     1      -7.642  10.355  66.942  1.00  0.00    -0.107 C  
HETATM    6  H   UNL     1      -6.487  12.435  68.193  1.00  0.00     0.000 HD 
HETATM    7  C   UNL     1      -8.160   9.025  67.300  1.00  0.00    -0.103 A  
HETATM    8  C   UNL     1      -6.314  10.476  66.768  1.00  0.00    -0.079 C  
HETATM    9  C   UNL     1      -9.005   8.913  68.405  1.00  0.00    -0.134 A  
HETATM   10  C   UNL     1      -9.250   7.642  68.952  1.00  0.00    -0.139 A  
HETATM   11  C   UNL     1      -9.610  10.145  68.991  1.00  0.00    -0.196 C  
HETATM   12  O   UNL     1      -9.916   7.446  70.131  1.00  0.00    -0.183 OA 
HETATM   13  C   UNL     1      -8.768   6.490  68.321  1.00  0.00    -0.117 A  
HETATM   14  C   UNL     1      -9.598  11.408  68.170  1.00  0.00    -0.190 C  
HETATM   15  O   UNL     1     -10.122  10.097  70.106  1.00  0.00    -0.246 OA 
HETATM   16  H   UNL     1     -10.081   6.587  70.501  1.00  0.00     0.000 HD 
HETATM   17  C   UNL     1     -10.327  12.482  68.565  1.00  0.00    -0.222 C  
HETATM   18  C   UNL     1      -8.039   6.600  67.145  1.00  0.00    -0.113 A  
HETATM   19  O   UNL     1     -11.057  12.479  69.755  1.00  0.00    -0.478 OA 
HETATM   20  C   UNL     1     -10.162  13.888  67.976  1.00  0.00    -0.246 C  
HETATM   21  C   UNL     1      -7.721   7.866  66.639  1.00  0.00    -0.098 A  
HETATM   22  H   UNL     1     -11.568  13.230  70.032  1.00  0.00     0.000 HD 
HETATM   23  C   UNL     1     -11.417  14.620  67.302  1.00  0.00    -0.372 C  
HETATM   24  O   UNL     1      -9.756  14.636  69.138  1.00  0.00    -0.324 OA 
HETATM   25  H   UNL     1     -10.426  14.566  69.808  1.00  0.00     0.000 HD 
HETATM   26  O   UNL     1     -12.592  14.332  67.513  1.00  0.00    -0.010 OA 
HETATM   27  C   UNL     1     -11.085  15.838  66.412  1.00  0.00    -0.070 C  
HETATM   28  H   UNL     1      -9.177  17.540  68.345  1.00  0.00     0.000 HD 
HETATM   29  C   UNL     1      -9.938  16.387  66.865  1.00  0.00    -0.271 C  
HETATM   30  C   UNL     1      -8.660  15.509  66.649  1.00  0.00    -0.290 C  
HETATM   31  O   UNL     1      -9.984  17.154  68.026  1.00  0.00    -0.272 OA 
ENDROOT
BRANCH  27  32
HETATM   32  C   UNL     1     -11.063  15.666  64.925  1.00  0.00    -0.402 C  
HETATM   33  N   UNL     1     -11.102  14.367  64.471  1.00  0.00    -0.584 N  
HETATM   34  H1  UNL     1     -11.087  14.249  63.458  1.00  0.00     0.000 HD 
HETATM   35  H2  UNL     1     -11.144  13.571  65.108  1.00  0.00     0.000 HD 
HETATM   36  O   UNL     1     -11.083  16.604  64.150  1.00  0.00    -1.005 OA 
ENDBRANCH  27  32
BRANCH  30  37
HETATM   37  N   UNL     1      -7.362  15.990  67.164  1.00  0.00    -0.203 NA 
HETATM   38  C   UNL     1      -7.302  16.382  68.573  1.00  0.00    -0.181 C  
HETATM   39  C   UNL     1      -6.878  17.122  66.357  1.00  0.00    -0.249 C  
ENDBRANCH  30  37
TORSDOF 2
ENDMDL
MODEL       28
REMARK 921   NORMALIZED FREE ENERGY PREDICTED BY IDOCK:   -6.62 KCAL/MOL
REMARK 922        TOTAL FREE ENERGY PREDICTED BY IDOCK:   -6.96 KCAL/MOL
REMARK 923 INTER-LIGAND FREE ENERGY PREDICTED BY IDOCK:   -7.28 KCAL/MOL
REMARK 924 INTRA-LIGAND FREE ENERGY PREDICTED BY IDOCK:    0.31 KCAL/MOL
REMARK 927      BINDING AFFINITY PREDICTED BY RF-SCORE:    0.00 PKD
ROOT
HETATM    1  C   UNL     1     -10.486  11.076  66.768  1.00  0.00    -0.300 C  
HETATM    2  C   UNL     1     -10.657   9.562  66.663  1.00  0.00    -0.104 C  
HETATM    3  C   UNL     1     -10.173   8.878  67.994  1.00  0.00    -0.262 C  
HETATM    4  O   UNL     1      -9.948   9.012  65.557  1.00  0.00    -0.437 OA 
HETATM    5  C   UNL     1     -10.429   7.379  68.061  1.00  0.00    -0.253 C  
HETATM    6  H   UNL     1     -10.054   8.070  65.492  1.00  0.00     0.000 HD 
HETATM    7  C   UNL     1      -9.700   6.639  69.104  1.00  0.00    -0.148 A  
HETATM    8  C   UNL     1     -11.116   6.659  67.158  1.00  0.00    -0.427 C  
HETATM    9  C   UNL     1      -8.352   6.934  69.313  1.00  0.00    -0.129 A  
HETATM   10  C   UNL     1      -7.564   6.041  70.060  1.00  0.00    -0.087 A  
HETATM   11  C   UNL     1      -7.774   8.177  68.720  1.00  0.00    -0.107 C  
HETATM   12  O   UNL     1      -6.205   6.149  70.170  1.00  0.00    -0.029 OA 
HETATM   13  C   UNL     1      -8.147   4.944  70.702  1.00  0.00    -0.086 A  
HETATM   14  C   UNL     1      -8.720   9.247  68.242  1.00  0.00    -0.129 C  
HETATM   15  O   UNL     1      -6.555   8.309  68.661  1.00  0.00    -0.052 OA 
HETATM   16  H   UNL     1      -5.672   5.545  70.676  1.00  0.00     0.000 HD 
HETATM   17  C   UNL     1      -8.246  10.473  67.908  1.00  0.00    -0.107 C  
HETATM   18  C   UNL     1      -9.514   4.729  70.601  1.00  0.00    -0.238 A  
HETATM   19  O   UNL     1      -6.881  10.767  67.938  1.00  0.00    -0.070 OA 
HETATM   20  C   UNL     1      -9.061  11.525  67.148  1.00  0.00    -0.167 C  
HETATM   21  C   UNL     1     -10.292   5.567  69.792  1.00  0.00    -0.366 A  
HETATM   22  H   UNL     1      -6.548  11.625  67.704  1.00  0.00     0.000 HD 
HETATM   23  C   UNL     1      -9.305  12.968  67.800  1.00  0.00    -0.199 C  
HETATM   24  O   UNL     1      -8.275  11.682  65.951  1.00  0.00    -0.372 OA 
HETATM   25  H   UNL     1      -7.397  11.958  66.185  1.00  0.00     0.000 HD 
HETATM   26  O   UNL     1      -8.617  13.458  68.690  1.00  0.00    -0.111 OA 
HETATM   27  C   UNL     1     -10.429  13.812  67.161  1.00  0.00    -0.272 C  
HETATM   28  H   UNL     1      -9.666  13.647  64.052  1.00  0.00     0.000 HD 
HETATM   29  C   UNL     1     -10.543  13.447  65.866  1.00  0.00    -0.283 C  
HETATM   30  C   UNL     1     -11.096  12.001  65.637  1.00  0.00    -0.313 C  
HETATM   31  O   UNL     1      -9.586  13.904  64.963  1.00  0.00     0.005 OA 
ENDROOT
BRANCH  27  32
HETATM   32  C   UNL     1     -11.765  13.870  67.835  1.00  0.00    -0.361 C  
HETATM   33  N   UNL     1     -12.775  14.466  67.115  1.00  0.00    -0.229 N  
HETATM   34  H1  UNL     1     -13.685  14.506  67.574  1.00  0.00     0.000 HD 
HETATM   35  H2  UNL     1     -12.624  14.845  66.179  1.00  0.00     0.000 HD 
HETATM   36  O   UNL     1     -11.980  13.362  68.920  1.00  0.00    -0.330 OA 
ENDBRANCH  27  32
BRANCH  30  37
HETATM   37  N   UNL     1     -11.201  11.480  64.259  1.00  0.00    -0.319 NA 
HETATM   38  C   UNL     1     -10.007  11.568  63.416  1.00  0.00    -0.417 C  
HETATM   39  C   UNL     1     -12.309  12.135  63.547  1.00  0.00    -0.574 C  
ENDBRANCH  30  37
TORSDOF 2
ENDMDL
MODEL       29
REMARK 921   NORMALIZED FREE ENERGY PREDICTED BY IDOCK:   -6.44 KCAL/MOL
REMARK 922        TOTAL FREE ENERGY PREDICTED BY IDOCK:   -6.76 KCAL/MOL
REMARK 923 INTER-LIGAND FREE ENERGY PREDICTED BY IDOCK:   -7.45 KCAL/MOL
REMARK 924 INTRA-LIGAND FREE ENERGY PREDICTED BY IDOCK:    0.69 KCAL/MOL
REMARK 927      BINDING AFFINITY PREDICTED BY RF-SCORE:    0.00 PKD
ROOT
HETATM    1  C   UNL     1      -7.892  16.740  68.090  1.00  0.00    -0.182 C  
HETATM    2  C   UNL     1      -7.459  15.344  68.531  1.00  0.00    -0.117 C  
HETATM    3  C   UNL     1      -8.269  14.258  67.733  1.00  0.00    -0.178 C  
HETATM    4  O   UNL     1      -7.635  15.139  69.930  1.00  0.00    -0.270 OA 
HETATM    5  C   UNL     1      -7.821  12.825  67.986  1.00  0.00    -0.150 C  
HETATM    6  H   UNL     1      -7.366  14.270  70.205  1.00  0.00     0.000 HD 
HETATM    7  C   UNL     1      -8.746  11.765  67.550  1.00  0.00    -0.159 A  
HETATM    8  C   UNL     1      -6.754  12.453  68.714  1.00  0.00    -0.092 C  
HETATM    9  C   UNL     1     -10.109  11.924  67.804  1.00  0.00    -0.200 A  
HETATM   10  C   UNL     1     -10.959  10.811  67.694  1.00  0.00    -0.306 A  
HETATM   11  C   UNL     1     -10.627  13.265  68.208  1.00  0.00    -0.251 C  
HETATM   12  O   UNL     1     -12.269  10.822  68.090  1.00  0.00    -0.765 OA 
HETATM   13  C   UNL     1     -10.477   9.592  67.205  1.00  0.00    -0.323 A  
HETATM   14  C   UNL     1      -9.754  14.469  67.972  1.00  0.00    -0.218 C  
HETATM   15  O   UNL     1     -11.751  13.359  68.694  1.00  0.00    -0.305 OA 
HETATM   16  H   UNL     1     -12.843  10.069  68.016  1.00  0.00     0.000 HD 
HETATM   17  C   UNL     1     -10.266  15.718  68.112  1.00  0.00    -0.230 C  
HETATM   18  C   UNL     1      -9.147   9.477  66.826  1.00  0.00    -0.173 A  
HETATM   19  O   UNL     1     -11.581  15.931  68.532  1.00  0.00    -0.377 OA 
HETATM   20  C   UNL     1      -9.410  16.988  68.180  1.00  0.00    -0.254 C  
HETATM   21  C   UNL     1      -8.274  10.558  67.010  1.00  0.00    -0.125 A  
HETATM   22  H   UNL     1     -11.940  16.805  68.630  1.00  0.00     0.000 HD 
HETATM   23  C   UNL     1      -9.643  18.162  67.117  1.00  0.00    -0.277 C  
HETATM   24  O   UNL     1      -9.737  17.479  69.495  1.00  0.00     0.048 OA 
HETATM   25  H   UNL     1     -10.672  17.632  69.551  1.00  0.00     0.000 HD 
HETATM   26  O   UNL     1     -10.670  18.320  66.462  1.00  0.00    -0.321 OA 
HETATM   27  C   UNL     1      -8.513  19.210  67.015  1.00  0.00    -0.304 C  
HETATM   28  H   UNL     1      -8.091  19.996  70.094  1.00  0.00     0.000 HD 
HETATM   29  C   UNL     1      -7.893  19.274  68.212  1.00  0.00    -0.319 C  
HETATM   30  C   UNL     1      -7.075  17.997  68.598  1.00  0.00    -0.267 C  
HETATM   31  O   UNL     1      -8.527  19.951  69.251  1.00  0.00    -0.058 OA 
ENDROOT
BRANCH  27  32
HETATM   32  C   UNL     1      -7.530  19.109  65.891  1.00  0.00    -0.238 C  
HETATM   33  N   UNL     1      -6.845  20.265  65.587  1.00  0.00    -0.301 N  
HETATM   34  H1  UNL     1      -6.175  20.196  64.821  1.00  0.00     0.000 HD 
HETATM   35  H2  UNL     1      -6.999  21.136  66.096  1.00  0.00     0.000 HD 
HETATM   36  O   UNL     1      -7.284  18.063  65.319  1.00  0.00    -0.409 OA 
ENDBRANCH  27  32
BRANCH  30  37
HETATM   37  N   UNL     1      -6.409  17.939  69.914  1.00  0.00    -0.127 NA 
HETATM   38  C   UNL     1      -6.118  19.213  70.576  1.00  0.00    -0.031 C  
HETATM   39  C   UNL     1      -5.152  17.180  69.820  1.00  0.00    -0.170 C  
ENDBRANCH  30  37
TORSDOF 2
ENDMDL
MODEL       30
REMARK 921   NORMALIZED FREE ENERGY PREDICTED BY IDOCK:   -6.42 KCAL/MOL
REMARK 922        TOTAL FREE ENERGY PREDICTED BY IDOCK:   -6.74 KCAL/MOL
REMARK 923 INTER-LIGAND FREE ENERGY PREDICTED BY IDOCK:   -6.99 KCAL/MOL
REMARK 924 INTRA-LIGAND FREE ENERGY PREDICTED BY IDOCK:    0.25 KCAL/MOL
REMARK 927      BINDING AFFINITY PREDICTED BY RF-SCORE:    0.00 PKD
ROOT
HETATM    1  C   UNL     1      -9.240   6.295  71.157  1.00  0.00    -0.159 C  
HETATM    2  C   UNL     1      -9.787   6.292  69.732  1.00  0.00    -0.165 C  
HETATM    3  C   UNL     1      -9.591   7.711  69.083  1.00  0.00    -0.155 C  
HETATM    4  O   UNL     1     -11.164   5.929  69.681  1.00  0.00    -0.395 OA 
HETATM    5  C   UNL     1      -9.970   7.790  67.611  1.00  0.00    -0.230 C  
HETATM    6  H   UNL     1     -11.504   5.927  68.794  1.00  0.00     0.000 HD 
HETATM    7  C   UNL     1     -10.140   9.141  67.051  1.00  0.00    -0.316 A  
HETATM    8  C   UNL     1     -10.327   6.750  66.836  1.00  0.00    -0.324 C  
HETATM    9  C   UNL     1     -10.828  10.093  67.804  1.00  0.00    -0.346 A  
HETATM   10  C   UNL     1     -11.277  11.266  67.175  1.00  0.00    -0.275 A  
HETATM   11  C   UNL     1     -11.090   9.832  69.251  1.00  0.00    -0.149 C  
HETATM   12  O   UNL     1     -12.107  12.172  67.778  1.00  0.00    -0.508 OA 
HETATM   13  C   UNL     1     -10.924  11.545  65.851  1.00  0.00    -0.301 A  
HETATM   14  C   UNL     1     -10.298   8.750  69.937  1.00  0.00    -0.212 C  
HETATM   15  O   UNL     1     -11.916  10.516  69.849  1.00  0.00    -0.276 OA 
HETATM   16  H   UNL     1     -12.410  12.966  67.353  1.00  0.00     0.000 HD 
HETATM   17  C   UNL     1     -10.340   8.631  71.288  1.00  0.00    -0.239 C  
HETATM   18  C   UNL     1     -10.125  10.655  65.147  1.00  0.00    -0.374 A  
HETATM   19  O   UNL     1     -11.149   9.453  72.074  1.00  0.00    -0.265 OA 
HETATM   20  C   UNL     1      -9.816   7.410  72.052  1.00  0.00    -0.162 C  
HETATM   21  C   UNL     1      -9.742   9.445  65.739  1.00  0.00    -0.354 A  
HETATM   22  H   UNL     1     -11.178   9.371  73.020  1.00  0.00     0.000 HD 
HETATM   23  C   UNL     1      -8.681   7.595  73.166  1.00  0.00    -0.172 C  
HETATM   24  O   UNL     1     -11.019   6.937  72.688  1.00  0.00    -0.244 OA 
HETATM   25  H   UNL     1     -11.375   7.624  73.240  1.00  0.00     0.000 HD 
HETATM   26  O   UNL     1      -8.424   8.653  73.734  1.00  0.00    -0.333 OA 
HETATM   27  C   UNL     1      -7.953   6.305  73.604  1.00  0.00    -0.100 C  
HETATM   28  H   UNL     1     -10.422   4.363  74.244  1.00  0.00     0.000 HD 
HETATM   29  C   UNL     1      -8.801   5.268  73.435  1.00  0.00    -0.113 C  
HETATM   30  C   UNL     1      -9.132   4.926  71.945  1.00  0.00    -0.136 C  
HETATM   31  O   UNL     1      -9.825   5.093  74.363  1.00  0.00    -0.158 OA 
ENDROOT
BRANCH  27  32
HETATM   32  C   UNL     1      -6.600   6.007  73.036  1.00  0.00    -0.065 C  
HETATM   33  N   UNL     1      -6.117   6.920  72.125  1.00  0.00    -0.038 N  
HETATM   34  H1  UNL     1      -5.196   6.717  71.738  1.00  0.00     0.000 HD 
HETATM   35  H2  UNL     1      -6.649   7.747  71.853  1.00  0.00     0.000 HD 
HETATM   36  O   UNL     1      -5.924   5.063  73.400  1.00  0.00    -0.024 OA 
ENDBRANCH  27  32
BRANCH  30  37
HETATM   37  N   UNL     1     -10.098   3.849  71.651  1.00  0.00    -0.145 NA 
HETATM   38  C   UNL     1     -10.522   3.004  72.770  1.00  0.00    -0.127 C  
HETATM   39  C   UNL     1      -9.580   2.970  70.590  1.00  0.00    -0.131 C  
ENDBRANCH  30  37
TORSDOF 2
ENDMDL
MODEL       31
REMARK 921   NORMALIZED FREE ENERGY PREDICTED BY IDOCK:   -6.38 KCAL/MOL
REMARK 922        TOTAL FREE ENERGY PREDICTED BY IDOCK:   -6.70 KCAL/MOL
REMARK 923 INTER-LIGAND FREE ENERGY PREDICTED BY IDOCK:   -7.04 KCAL/MOL
REMARK 924 INTRA-LIGAND FREE ENERGY PREDICTED BY IDOCK:    0.35 KCAL/MOL
REMARK 927      BINDING AFFINITY PREDICTED BY RF-SCORE:    0.00 PKD
ROOT
HETATM    1  C   UNL     1      -8.765  10.536  67.569  1.00  0.00    -0.125 C  
HETATM    2  C   UNL     1      -8.030   9.469  68.376  1.00  0.00    -0.093 C  
HETATM    3  C   UNL     1      -9.050   8.381  68.875  1.00  0.00    -0.147 C  
HETATM    4  O   UNL     1      -7.331  10.017  69.490  1.00  0.00    -0.084 OA 
HETATM    5  C   UNL     1      -8.410   7.188  69.572  1.00  0.00    -0.133 C  
HETATM    6  H   UNL     1      -6.874   9.353  69.992  1.00  0.00     0.000 HD 
HETATM    7  C   UNL     1      -9.312   6.328  70.355  1.00  0.00    -0.171 A  
HETATM    8  C   UNL     1      -7.090   6.955  69.674  1.00  0.00    -0.068 C  
HETATM    9  C   UNL     1     -10.274   6.933  71.165  1.00  0.00    -0.211 A  
HETATM   10  C   UNL     1     -10.920   6.165  72.148  1.00  0.00    -0.262 A  
HETATM   11  C   UNL     1     -10.577   8.384  70.982  1.00  0.00    -0.214 C  
HETATM   12  O   UNL     1     -11.742   6.702  73.101  1.00  0.00    -0.446 OA 
HETATM   13  C   UNL     1     -10.708   4.785  72.228  1.00  0.00    -0.185 A  
HETATM   14  C   UNL     1     -10.124   9.055  69.712  1.00  0.00    -0.209 C  
HETATM   15  O   UNL     1     -11.205   8.985  71.850  1.00  0.00    -0.354 OA 
HETATM   16  H   UNL     1     -12.180   6.182  73.766  1.00  0.00     0.000 HD 
HETATM   17  C   UNL     1     -10.568  10.299  69.406  1.00  0.00    -0.237 C  
HETATM   18  C   UNL     1      -9.849   4.165  71.330  1.00  0.00    -0.254 A  
HETATM   19  O   UNL     1     -11.399  11.017  70.268  1.00  0.00    -0.393 OA 
HETATM   20  C   UNL     1      -9.956  11.177  68.307  1.00  0.00    -0.187 C  
HETATM   21  C   UNL     1      -9.139   4.935  70.401  1.00  0.00    -0.173 A  
HETATM   22  H   UNL     1     -11.711  11.888  70.054  1.00  0.00     0.000 HD 
HETATM   23  C   UNL     1     -10.876  11.707  67.108  1.00  0.00    -0.261 C  
HETATM   24  O   UNL     1      -9.493  12.306  69.072  1.00  0.00    -0.393 OA 
HETATM   25  H   UNL     1     -10.226  12.700  69.528  1.00  0.00     0.000 HD 
HETATM   26  O   UNL     1     -12.100  11.786  67.147  1.00  0.00    -0.592 OA 
HETATM   27  C   UNL     1     -10.122  12.246  65.872  1.00  0.00    -0.272 C  
HETATM   28  H   UNL     1      -8.048  14.281  67.225  1.00  0.00     0.000 HD 
HETATM   29  C   UNL     1      -8.927  12.718  66.284  1.00  0.00     0.054 C  
HETATM   30  C   UNL     1      -7.925  11.625  66.784  1.00  0.00    -0.140 C  
HETATM   31  O   UNL     1      -8.889  13.948  66.935  1.00  0.00    -0.231 OA 
ENDROOT
BRANCH  27  32
HETATM   32  C   UNL     1      -9.981  11.367  64.668  1.00  0.00    -0.268 C  
HETATM   33  N   UNL     1      -9.229  11.879  63.636  1.00  0.00    -0.476 N  
HETATM   34  H1  UNL     1      -9.133  11.281  62.816  1.00  0.00     0.000 HD 
HETATM   35  H2  UNL     1      -8.794  12.801  63.687  1.00  0.00     0.000 HD 
HETATM   36  O   UNL     1     -10.434  10.238  64.617  1.00  0.00    -0.185 OA 
ENDBRANCH  27  32
BRANCH  30  37
HETATM   37  N   UNL     1      -6.611  12.040  67.315  1.00  0.00    -0.134 NA 
HETATM   38  C   UNL     1      -6.372  13.477  67.465  1.00  0.00    -0.082 C  
HETATM   39  C   UNL     1      -5.526  11.484  66.491  1.00  0.00    -0.117 C  
ENDBRANCH  30  37
TORSDOF 2
ENDMDL
MODEL       32
REMARK 921   NORMALIZED FREE ENERGY PREDICTED BY IDOCK:   -6.20 KCAL/MOL
REMARK 922        TOTAL FREE ENERGY PREDICTED BY IDOCK:   -6.49 KCAL/MOL
REMARK 923 INTER-LIGAND FREE ENERGY PREDICTED BY IDOCK:   -6.64 KCAL/MOL
REMARK 924 INTRA-LIGAND FREE ENERGY PREDICTED BY IDOCK:    0.15 KCAL/MOL
REMARK 927      BINDING AFFINITY PREDICTED BY RF-SCORE:    0.00 PKD
ROOT
HETATM    1  C   UNL     1      -8.823  11.257  66.972  1.00  0.00    -0.153 C  
HETATM    2  C   UNL     1     -10.013  12.200  66.808  1.00  0.00    -0.203 C  
HETATM    3  C   UNL     1      -9.502  13.666  66.562  1.00  0.00    -0.270 C  
HETATM    4  O   UNL     1     -10.880  12.179  67.939  1.00  0.00    -0.203 OA 
HETATM    5  C   UNL     1     -10.600  14.672  66.242  1.00  0.00    -0.306 C  
HETATM    6  H   UNL     1     -11.620  12.765  67.837  1.00  0.00     0.000 HD 
HETATM    7  C   UNL     1     -10.233  16.093  66.346  1.00  0.00    -0.315 A  
HETATM    8  C   UNL     1     -11.897  14.380  66.045  1.00  0.00    -0.379 C  
HETATM    9  C   UNL     1      -9.468  16.507  67.437  1.00  0.00    -0.228 A  
HETATM   10  C   UNL     1      -9.379  17.878  67.729  1.00  0.00    -0.262 A  
HETATM   11  C   UNL     1      -8.783  15.483  68.281  1.00  0.00    -0.170 C  
HETATM   12  O   UNL     1      -8.805  18.369  68.870  1.00  0.00    -0.256 OA 
HETATM   13  C   UNL     1      -9.932  18.828  66.863  1.00  0.00    -0.382 A  
HETATM   14  C   UNL     1      -8.627  14.090  67.729  1.00  0.00    -0.183 C  
HETATM   15  O   UNL     1      -8.344  15.801  69.382  1.00  0.00    -0.244 OA 
HETATM   16  H   UNL     1      -8.744  19.297  69.067  1.00  0.00     0.000 HD 
HETATM   17  C   UNL     1      -7.822  13.197  68.357  1.00  0.00    -0.135 C  
HETATM   18  C   UNL     1     -10.577  18.415  65.706  1.00  0.00    -0.236 A  
HETATM   19  O   UNL     1      -7.166  13.509  69.550  1.00  0.00    -0.320 OA 
HETATM   20  C   UNL     1      -7.816  11.694  68.054  1.00  0.00    -0.128 C  
HETATM   21  C   UNL     1     -10.742  17.048  65.451  1.00  0.00    -0.126 A  
HETATM   22  H   UNL     1      -6.602  12.884  69.990  1.00  0.00     0.000 HD 
HETATM   23  C   UNL     1      -6.460  10.981  67.588  1.00  0.00    -0.060 C  
HETATM   24  O   UNL     1      -8.216  11.148  69.326  1.00  0.00    -0.354 OA 
HETATM   25  H   UNL     1      -7.596  11.417  69.993  1.00  0.00     0.000 HD 
HETATM   26  O   UNL     1      -5.333  11.427  67.782  1.00  0.00    -0.043 OA 
HETATM   27  C   UNL     1      -6.622   9.585  66.948  1.00  0.00    -0.068 C  
HETATM   28  H   UNL     1      -8.467   8.100  69.107  1.00  0.00     0.000 HD 
HETATM   29  C   UNL     1      -7.735   9.017  67.457  1.00  0.00    -0.096 C  
HETATM   30  C   UNL     1      -9.077   9.696  67.022  1.00  0.00    -0.135 C  
HETATM   31  O   UNL     1      -7.683   8.500  68.748  1.00  0.00    -0.098 OA 
ENDROOT
BRANCH  27  32
HETATM   32  C   UNL     1      -6.574   9.461  65.456  1.00  0.00    -0.070 C  
HETATM   33  N   UNL     1      -6.237  10.606  64.770  1.00  0.00    -0.361 N  
HETATM   34  H1  UNL     1      -6.204  10.522  63.754  1.00  0.00     0.000 HD 
HETATM   35  H2  UNL     1      -6.032  11.484  65.247  1.00  0.00     0.000 HD 
HETATM   36  O   UNL     1      -6.746   8.406  64.875  1.00  0.00    -0.066 OA 
ENDBRANCH  27  32
BRANCH  30  37
HETATM   37  N   UNL     1     -10.350   9.191  67.572  1.00  0.00    -0.245 NA 
HETATM   38  C   UNL     1     -10.485   9.156  69.030  1.00  0.00    -0.221 C  
HETATM   39  C   UNL     1     -10.631   7.840  67.058  1.00  0.00    -0.326 C  
ENDBRANCH  30  37
TORSDOF 2
ENDMDL
MODEL       33
REMARK 921   NORMALIZED FREE ENERGY PREDICTED BY IDOCK:   -6.15 KCAL/MOL
REMARK 922        TOTAL FREE ENERGY PREDICTED BY IDOCK:   -6.43 KCAL/MOL
REMARK 923 INTER-LIGAND FREE ENERGY PREDICTED BY IDOCK:   -6.89 KCAL/MOL
REMARK 924 INTRA-LIGAND FREE ENERGY PREDICTED BY IDOCK:    0.46 KCAL/MOL
REMARK 927      BINDING AFFINITY PREDICTED BY RF-SCORE:    0.00 PKD
ROOT
HETATM    1  C   UNL     1      -9.091  14.678  67.419  1.00  0.00    -0.203 C  
HETATM    2  C   UNL     1      -8.304  13.386  67.216  1.00  0.00    -0.176 C  
HETATM    3  C   UNL     1      -9.296  12.175  67.067  1.00  0.00    -0.201 C  
HETATM    4  O   UNL     1      -7.395  13.132  68.284  1.00  0.00    -0.097 OA 
HETATM    5  C   UNL     1      -8.628  10.852  66.717  1.00  0.00    -0.137 C  
HETATM    6  H   UNL     1      -6.905  12.328  68.157  1.00  0.00     0.000 HD 
HETATM    7  C   UNL     1      -9.442   9.640  66.905  1.00  0.00    -0.198 A  
HETATM    8  C   UNL     1      -7.328  10.684  66.420  1.00  0.00    -0.138 C  
HETATM    9  C   UNL     1     -10.214   9.529  68.063  1.00  0.00    -0.244 A  
HETATM   10  C   UNL     1     -10.737   8.274  68.417  1.00  0.00    -0.019 A  
HETATM   11  C   UNL     1     -10.447  10.739  68.906  1.00  0.00    -0.205 C  
HETATM   12  O   UNL     1     -11.352   8.026  69.614  1.00  0.00    -0.453 OA 
HETATM   13  C   UNL     1     -10.605   7.179  67.558  1.00  0.00    -0.348 A  
HETATM   14  C   UNL     1     -10.169  12.092  68.307  1.00  0.00    -0.209 C  
HETATM   15  O   UNL     1     -10.881  10.607  70.047  1.00  0.00    -0.274 OA 
HETATM   16  H   UNL     1     -11.706   7.177  69.854  1.00  0.00     0.000 HD 
HETATM   17  C   UNL     1     -10.575  13.216  68.950  1.00  0.00    -0.131 C  
HETATM   18  C   UNL     1      -9.950   7.329  66.343  1.00  0.00    -0.094 A  
HETATM   19  O   UNL     1     -11.202  13.165  70.196  1.00  0.00    -0.472 OA 
HETATM   20  C   UNL     1     -10.098  14.627  68.585  1.00  0.00    -0.238 C  
HETATM   21  C   UNL     1      -9.355   8.554  66.019  1.00  0.00    -0.266 A  
HETATM   22  H   UNL     1     -11.487  13.951  70.646  1.00  0.00     0.000 HD 
HETATM   23  C   UNL     1     -11.168  15.749  68.181  1.00  0.00    -0.344 C  
HETATM   24  O   UNL     1      -9.441  15.027  69.802  1.00  0.00    -0.444 OA 
HETATM   25  H   UNL     1     -10.061  14.995  70.521  1.00  0.00     0.000 HD 
HETATM   26  O   UNL     1     -12.361  15.714  68.469  1.00  0.00     0.010 OA 
HETATM   27  C   UNL     1     -10.597  16.996  67.473  1.00  0.00    -0.310 C  
HETATM   28  H   UNL     1      -8.197  17.806  69.437  1.00  0.00     0.000 HD 
HETATM   29  C   UNL     1      -9.321  17.162  67.881  1.00  0.00    -0.249 C  
HETATM   30  C   UNL     1      -8.324  16.062  67.386  1.00  0.00    -0.167 C  
HETATM   31  O   UNL     1      -9.095  17.689  69.150  1.00  0.00    -0.089 OA 
ENDROOT
BRANCH  27  32
HETATM   32  C   UNL     1     -10.716  17.103  65.984  1.00  0.00    -0.113 C  
HETATM   33  N   UNL     1     -10.546  18.364  65.457  1.00  0.00    -0.170 N  
HETATM   34  H1  UNL     1     -10.628  18.437  64.443  1.00  0.00     0.000 HD 
HETATM   35  H2  UNL     1     -10.352  19.175  66.045  1.00  0.00     0.000 HD 
HETATM   36  O   UNL     1     -10.879  16.137  65.263  1.00  0.00    -0.383 OA 
ENDBRANCH  27  32
BRANCH  30  37
HETATM   37  N   UNL     1      -6.916  16.116  67.827  1.00  0.00    -0.130 NA 
HETATM   38  C   UNL     1      -6.659  16.543  69.204  1.00  0.00    -0.200 C  
HETATM   39  C   UNL     1      -6.130  16.980  66.931  1.00  0.00    -0.200 C  
ENDBRANCH  30  37
TORSDOF 2
ENDMDL
MODEL       34
REMARK 921   NORMALIZED FREE ENERGY PREDICTED BY IDOCK:   -6.10 KCAL/MOL
REMARK 922        TOTAL FREE ENERGY PREDICTED BY IDOCK:   -6.38 KCAL/MOL
REMARK 923 INTER-LIGAND FREE ENERGY PREDICTED BY IDOCK:   -6.88 KCAL/MOL
REMARK 924 INTRA-LIGAND FREE ENERGY PREDICTED BY IDOCK:    0.50 KCAL/MOL
REMARK 927      BINDING AFFINITY PREDICTED BY RF-SCORE:    0.00 PKD
ROOT
HETATM    1  C   UNL     1      -9.231  12.749  67.774  1.00  0.00    -0.199 C  
HETATM    2  C   UNL     1      -8.428  11.526  68.211  1.00  0.00    -0.159 C  
HETATM    3  C   UNL     1      -9.321  10.236  68.105  1.00  0.00    -0.144 C  
HETATM    4  O   UNL     1      -7.927  11.653  69.539  1.00  0.00    -0.298 OA 
HETATM    5  C   UNL     1      -8.583   8.933  68.379  1.00  0.00    -0.134 C  
HETATM    6  H   UNL     1      -7.427  10.892  69.810  1.00  0.00     0.000 HD 
HETATM    7  C   UNL     1      -9.420   7.750  68.636  1.00  0.00    -0.152 A  
HETATM    8  C   UNL     1      -7.258   8.808  68.575  1.00  0.00    -0.074 C  
HETATM    9  C   UNL     1     -10.533   7.888  69.466  1.00  0.00    -0.226 A  
HETATM   10  C   UNL     1     -11.151   6.734  69.978  1.00  0.00    -0.315 A  
HETATM   11  C   UNL     1     -11.026   9.255  69.808  1.00  0.00    -0.196 C  
HETATM   12  O   UNL     1     -12.129   6.766  70.933  1.00  0.00    -0.377 OA 
HETATM   13  C   UNL     1     -10.747   5.463  69.556  1.00  0.00    -0.249 A  
HETATM   14  C   UNL     1     -10.557  10.415  68.970  1.00  0.00    -0.247 C  
HETATM   15  O   UNL     1     -11.815   9.399  70.738  1.00  0.00    -0.276 OA 
HETATM   16  H   UNL     1     -12.547   5.986  71.279  1.00  0.00     0.000 HD 
HETATM   17  C   UNL     1     -11.147  11.630  69.100  1.00  0.00    -0.245 C  
HETATM   18  C   UNL     1      -9.725   5.336  68.625  1.00  0.00    -0.199 A  
HETATM   19  O   UNL     1     -12.153  11.862  70.040  1.00  0.00    -0.311 OA 
HETATM   20  C   UNL     1     -10.568  12.925  68.519  1.00  0.00    -0.253 C  
HETATM   21  C   UNL     1      -9.050   6.477  68.173  1.00  0.00    -0.114 A  
HETATM   22  H   UNL     1     -12.566  12.712  70.131  1.00  0.00     0.000 HD 
HETATM   23  C   UNL     1     -11.436  13.795  67.493  1.00  0.00    -0.330 C  
HETATM   24  O   UNL     1     -10.350  13.698  69.715  1.00  0.00    -0.158 OA 
HETATM   25  H   UNL     1     -11.173  13.806  70.175  1.00  0.00     0.000 HD 
HETATM   26  O   UNL     1     -12.658  13.733  67.382  1.00  0.00    -0.068 OA 
HETATM   27  C   UNL     1     -10.655  14.850  66.679  1.00  0.00    -0.305 C  
HETATM   28  H   UNL     1      -9.040  16.374  68.990  1.00  0.00     0.000 HD 
HETATM   29  C   UNL     1      -9.587  15.234  67.408  1.00  0.00    -0.207 C  
HETATM   30  C   UNL     1      -8.488  14.135  67.594  1.00  0.00    -0.185 C  
HETATM   31  O   UNL     1      -9.792  16.103  68.477  1.00  0.00    -0.215 OA 
ENDROOT
BRANCH  27  32
HETATM   32  C   UNL     1     -10.273  14.538  65.265  1.00  0.00    -0.402 C  
HETATM   33  N   UNL     1     -10.391  13.219  64.888  1.00  0.00    -0.425 N  
HETATM   34  H1  UNL     1     -10.131  13.007  63.926  1.00  0.00     0.000 HD 
HETATM   35  H2  UNL     1     -10.719  12.499  65.533  1.00  0.00     0.000 HD 
HETATM   36  O   UNL     1      -9.947  15.395  64.464  1.00  0.00     0.013 OA 
ENDBRANCH  27  32
BRANCH  30  37
HETATM   37  N   UNL     1      -7.306  14.432  68.427  1.00  0.00    -0.108 NA 
HETATM   38  C   UNL     1      -7.497  15.334  69.566  1.00  0.00    -0.214 C  
HETATM   39  C   UNL     1      -6.217  14.973  67.598  1.00  0.00    -0.110 C  
ENDBRANCH  30  37
TORSDOF 2
ENDMDL
MODEL       35
REMARK 921   NORMALIZED FREE ENERGY PREDICTED BY IDOCK:   -6.08 KCAL/MOL
REMARK 922        TOTAL FREE ENERGY PREDICTED BY IDOCK:   -6.36 KCAL/MOL
REMARK 923 INTER-LIGAND FREE ENERGY PREDICTED BY IDOCK:   -6.46 KCAL/MOL
REMARK 924 INTRA-LIGAND FREE ENERGY PREDICTED BY IDOCK:    0.09 KCAL/MOL
REMARK 927      BINDING AFFINITY PREDICTED BY RF-SCORE:    0.00 PKD
ROOT
HETATM    1  C   UNL     1      -8.985   5.076  68.442  1.00  0.00    -0.123 C  
HETATM    2  C   UNL     1      -9.547   5.305  69.843  1.00  0.00    -0.177 C  
HETATM    3  C   UNL     1     -10.668   6.406  69.795  1.00  0.00    -0.341 C  
HETATM    4  O   UNL     1      -8.539   5.689  70.774  1.00  0.00    -0.124 OA 
HETATM    5  C   UNL     1     -11.402   6.618  71.112  1.00  0.00    -0.355 C  
HETATM    6  H   UNL     1      -8.889   5.832  71.646  1.00  0.00     0.000 HD 
HETATM    7  C   UNL     1     -12.202   7.849  71.222  1.00  0.00    -0.314 A  
HETATM    8  C   UNL     1     -11.247   5.879  72.224  1.00  0.00    -0.343 C  
HETATM    9  C   UNL     1     -11.658   9.043  70.746  1.00  0.00    -0.313 A  
HETATM   10  C   UNL     1     -12.249  10.261  71.122  1.00  0.00    -0.397 A  
HETATM   11  C   UNL     1     -10.452   8.998  69.868  1.00  0.00    -0.215 C  
HETATM   12  O   UNL     1     -11.691  11.481  70.855  1.00  0.00    -0.356 OA 
HETATM   13  C   UNL     1     -13.444  10.278  71.850  1.00  0.00    -0.403 A  
HETATM   14  C   UNL     1     -10.083   7.687  69.225  1.00  0.00    -0.190 C  
HETATM   15  O   UNL     1      -9.809  10.026  69.670  1.00  0.00    -0.214 OA 
HETATM   16  H   UNL     1     -12.091  12.305  71.110  1.00  0.00     0.000 HD 
HETATM   17  C   UNL     1      -9.138   7.649  68.252  1.00  0.00    -0.136 C  
HETATM   18  C   UNL     1     -14.053   9.083  72.207  1.00  0.00    -0.485 A  
HETATM   19  O   UNL     1      -8.442   8.793  67.858  1.00  0.00    -0.124 OA 
HETATM   20  C   UNL     1      -8.489   6.357  67.744  1.00  0.00    -0.117 C  
HETATM   21  C   UNL     1     -13.428   7.866  71.907  1.00  0.00    -0.331 A  
HETATM   22  H   UNL     1      -7.781   8.768  67.177  1.00  0.00     0.000 HD 
HETATM   23  C   UNL     1      -8.583   5.976  66.191  1.00  0.00    -0.142 C  
HETATM   24  O   UNL     1      -7.107   6.581  68.085  1.00  0.00    -0.077 OA 
HETATM   25  H   UNL     1      -6.801   7.371  67.655  1.00  0.00     0.000 HD 
HETATM   26  O   UNL     1      -8.815   6.775  65.288  1.00  0.00    -0.002 OA 
HETATM   27  C   UNL     1      -8.249   4.510  65.838  1.00  0.00    -0.110 C  
HETATM   28  H   UNL     1      -5.447   4.113  67.343  1.00  0.00     0.000 HD 
HETATM   29  C   UNL     1      -7.386   4.043  66.765  1.00  0.00    -0.072 C  
HETATM   30  C   UNL     1      -7.992   3.868  68.197  1.00  0.00    -0.076 C  
HETATM   31  O   UNL     1      -6.054   4.442  66.690  1.00  0.00    -0.029 OA 
ENDROOT
BRANCH  27  32
HETATM   32  C   UNL     1      -9.371   3.548  65.596  1.00  0.00    -0.158 C  
HETATM   33  N   UNL     1     -10.627   4.103  65.503  1.00  0.00    -0.495 N  
HETATM   34  H1  UNL     1     -11.391   3.448  65.338  1.00  0.00     0.000 HD 
HETATM   35  H2  UNL     1     -10.785   5.107  65.593  1.00  0.00     0.000 HD 
HETATM   36  O   UNL     1      -9.193   2.357  65.417  1.00  0.00    -0.139 OA 
ENDBRANCH  27  32
BRANCH  30  37
HETATM   37  N   UNL     1      -7.116   3.421  69.299  1.00  0.00    -0.045 NA 
HETATM   38  C   UNL     1      -5.792   4.039  69.397  1.00  0.00    -0.018 C  
HETATM   39  C   UNL     1      -6.933   1.962  69.249  1.00  0.00    -0.033 C  
ENDBRANCH  30  37
TORSDOF 2
ENDMDL
MODEL       36
REMARK 921   NORMALIZED FREE ENERGY PREDICTED BY IDOCK:   -6.06 KCAL/MOL
REMARK 922        TOTAL FREE ENERGY PREDICTED BY IDOCK:   -6.34 KCAL/MOL
REMARK 923 INTER-LIGAND FREE ENERGY PREDICTED BY IDOCK:   -6.50 KCAL/MOL
REMARK 924 INTRA-LIGAND FREE ENERGY PREDICTED BY IDOCK:    0.16 KCAL/MOL
REMARK 927      BINDING AFFINITY PREDICTED BY RF-SCORE:    0.00 PKD
ROOT
HETATM    1  C   UNL     1      -8.891   9.419  67.412  1.00  0.00    -0.135 C  
HETATM    2  C   UNL     1      -9.827   9.517  68.614  1.00  0.00    -0.162 C  
HETATM    3  C   UNL     1      -9.374   8.503  69.727  1.00  0.00    -0.161 C  
HETATM    4  O   UNL     1     -11.186   9.267  68.264  1.00  0.00    -0.486 OA 
HETATM    5  C   UNL     1     -10.148   8.611  71.033  1.00  0.00    -0.273 C  
HETATM    6  H   UNL     1     -11.768   9.328  69.012  1.00  0.00     0.000 HD 
HETATM    7  C   UNL     1     -10.012   7.483  71.968  1.00  0.00    -0.212 A  
HETATM    8  C   UNL     1     -11.064   9.550  71.326  1.00  0.00    -0.449 C  
HETATM    9  C   UNL     1     -10.056   6.185  71.458  1.00  0.00    -0.227 A  
HETATM   10  C   UNL     1     -10.250   5.109  72.341  1.00  0.00    -0.198 A  
HETATM   11  C   UNL     1      -9.919   5.972  69.986  1.00  0.00    -0.177 C  
HETATM   12  O   UNL     1     -10.483   3.827  71.924  1.00  0.00    -0.040 OA 
HETATM   13  C   UNL     1     -10.262   5.317  73.724  1.00  0.00    -0.250 A  
HETATM   14  C   UNL     1      -9.373   7.098  69.149  1.00  0.00    -0.141 C  
HETATM   15  O   UNL     1     -10.226   4.887  69.500  1.00  0.00    -0.234 OA 
HETATM   16  H   UNL     1     -10.614   3.099  72.522  1.00  0.00     0.000 HD 
HETATM   17  C   UNL     1      -9.023   6.876  67.857  1.00  0.00    -0.121 C  
HETATM   18  C   UNL     1     -10.083   6.596  74.232  1.00  0.00    -0.378 A  
HETATM   19  O   UNL     1      -9.207   5.634  67.247  1.00  0.00    -0.111 OA 
HETATM   20  C   UNL     1      -8.736   7.994  66.847  1.00  0.00    -0.130 C  
HETATM   21  C   UNL     1      -9.972   7.684  73.357  1.00  0.00    -0.373 A  
HETATM   22  H   UNL     1      -8.962   5.478  66.343  1.00  0.00     0.000 HD 
HETATM   23  C   UNL     1      -7.316   8.055  66.110  1.00  0.00    -0.074 C  
HETATM   24  O   UNL     1      -9.761   7.756  65.863  1.00  0.00    -0.437 OA 
HETATM   25  H   UNL     1      -9.666   6.877  65.515  1.00  0.00     0.000 HD 
HETATM   26  O   UNL     1      -6.546   7.105  65.994  1.00  0.00    -0.049 OA 
HETATM   27  C   UNL     1      -6.975   9.394  65.419  1.00  0.00    -0.090 C  
HETATM   28  H   UNL     1      -9.621   9.910  63.686  1.00  0.00     0.000 HD 
HETATM   29  C   UNL     1      -8.133   9.984  65.057  1.00  0.00    -0.145 C  
HETATM   30  C   UNL     1      -9.016  10.486  66.248  1.00  0.00    -0.158 C  
HETATM   31  O   UNL     1      -8.806   9.494  63.941  1.00  0.00    -0.219 OA 
ENDROOT
BRANCH  27  32
HETATM   32  C   UNL     1      -6.060  10.356  66.112  1.00  0.00    -0.096 C  
HETATM   33  N   UNL     1      -5.474   9.898  67.270  1.00  0.00    -0.042 N  
HETATM   34  H1  UNL     1      -4.851  10.553  67.742  1.00  0.00     0.000 HD 
HETATM   35  H2  UNL     1      -5.652   8.961  67.634  1.00  0.00     0.000 HD 
HETATM   36  O   UNL     1      -5.783  11.450  65.655  1.00  0.00    -0.132 OA 
ENDBRANCH  27  32
BRANCH  30  37
HETATM   37  N   UNL     1     -10.332  11.091  65.964  1.00  0.00    -0.251 NA 
HETATM   38  C   UNL     1     -10.718  11.230  64.559  1.00  0.00    -0.323 C  
HETATM   39  C   UNL     1     -10.434  12.417  66.595  1.00  0.00    -0.229 C  
ENDBRANCH  30  37
TORSDOF 2
ENDMDL
MODEL       37
REMARK 921   NORMALIZED FREE ENERGY PREDICTED BY IDOCK:   -6.06 KCAL/MOL
REMARK 922        TOTAL FREE ENERGY PREDICTED BY IDOCK:   -6.34 KCAL/MOL
REMARK 923 INTER-LIGAND FREE ENERGY PREDICTED BY IDOCK:   -6.61 KCAL/MOL
REMARK 924 INTRA-LIGAND FREE ENERGY PREDICTED BY IDOCK:    0.27 KCAL/MOL
REMARK 927      BINDING AFFINITY PREDICTED BY RF-SCORE:    0.00 PKD
ROOT
HETATM    1  C   UNL     1     -10.163  13.342  67.747  1.00  0.00    -0.235 C  
HETATM    2  C   UNL     1     -10.324  11.892  67.297  1.00  0.00    -0.205 C  
HETATM    3  C   UNL     1      -9.561  10.939  68.288  1.00  0.00    -0.169 C  
HETATM    4  O   UNL     1      -9.851  11.681  65.970  1.00  0.00    -0.216 OA 
HETATM    5  C   UNL     1      -9.770   9.454  68.022  1.00  0.00    -0.167 C  
HETATM    6  H   UNL     1      -9.951  10.778  65.690  1.00  0.00     0.000 HD 
HETATM    7  C   UNL     1      -8.826   8.534  68.678  1.00  0.00    -0.136 A  
HETATM    8  C   UNL     1     -10.617   8.931  67.119  1.00  0.00    -0.301 C  
HETATM    9  C   UNL     1      -7.470   8.863  68.685  1.00  0.00    -0.088 A  
HETATM   10  C   UNL     1      -6.529   7.873  69.011  1.00  0.00    -0.037 A  
HETATM   11  C   UNL     1      -7.052  10.251  68.326  1.00  0.00    -0.079 C  
HETATM   12  O   UNL     1      -5.178   8.046  68.876  1.00  0.00    -0.022 OA 
HETATM   13  C   UNL     1      -6.944   6.613  69.455  1.00  0.00    -0.067 A  
HETATM   14  C   UNL     1      -8.096  11.336  68.332  1.00  0.00    -0.143 C  
HETATM   15  O   UNL     1      -5.874  10.479  68.064  1.00  0.00    -0.040 OA 
HETATM   16  H   UNL     1      -4.541   7.375  69.096  1.00  0.00     0.000 HD 
HETATM   17  C   UNL     1      -7.724  12.638  68.233  1.00  0.00    -0.135 C  
HETATM   18  C   UNL     1      -8.299   6.335  69.574  1.00  0.00    -0.118 A  
HETATM   19  O   UNL     1      -6.388  13.010  68.067  1.00  0.00    -0.086 OA 
HETATM   20  C   UNL     1      -8.699  13.784  67.940  1.00  0.00    -0.183 C  
HETATM   21  C   UNL     1      -9.243   7.288  69.173  1.00  0.00    -0.139 A  
HETATM   22  H   UNL     1      -6.127  13.921  67.999  1.00  0.00     0.000 HD 
HETATM   23  C   UNL     1      -8.828  15.002  68.972  1.00  0.00    -0.205 C  
HETATM   24  O   UNL     1      -8.181  14.283  66.692  1.00  0.00    -0.383 OA 
HETATM   25  H   UNL     1      -7.279  14.555  66.811  1.00  0.00     0.000 HD 
HETATM   26  O   UNL     1      -7.978  15.307  69.805  1.00  0.00    -0.204 OA 
HETATM   27  C   UNL     1     -10.076  15.896  68.802  1.00  0.00    -0.221 C  
HETATM   28  H   UNL     1      -9.973  16.551  65.667  1.00  0.00     0.000 HD 
HETATM   29  C   UNL     1     -10.449  15.852  67.506  1.00  0.00    -0.298 C  
HETATM   30  C   UNL     1     -11.011  14.470  67.031  1.00  0.00    -0.312 C  
HETATM   31  O   UNL     1      -9.710  16.581  66.579  1.00  0.00    -0.244 OA 
ENDROOT
BRANCH  27  32
HETATM   32  C   UNL     1     -11.243  15.693  69.719  1.00  0.00    -0.321 C  
HETATM   33  N   UNL     1     -10.940  15.256  70.989  1.00  0.00    -0.516 N  
HETATM   34  H1  UNL     1     -11.735  15.118  71.612  1.00  0.00     0.000 HD 
HETATM   35  H2  UNL     1      -9.980  15.081  71.287  1.00  0.00     0.000 HD 
HETATM   36  O   UNL     1     -12.387  15.963  69.401  1.00  0.00    -0.209 OA 
ENDBRANCH  27  32
BRANCH  30  37
HETATM   37  N   UNL     1     -11.391  14.297  65.615  1.00  0.00    -0.312 NA 
HETATM   38  C   UNL     1     -11.379  15.490  64.765  1.00  0.00    -0.357 C  
HETATM   39  C   UNL     1     -12.724  13.681  65.513  1.00  0.00    -0.466 C  
ENDBRANCH  30  37
TORSDOF 2
ENDMDL
MODEL       38
REMARK 921   NORMALIZED FREE ENERGY PREDICTED BY IDOCK:   -6.05 KCAL/MOL
REMARK 922        TOTAL FREE ENERGY PREDICTED BY IDOCK:   -6.33 KCAL/MOL
REMARK 923 INTER-LIGAND FREE ENERGY PREDICTED BY IDOCK:   -6.68 KCAL/MOL
REMARK 924 INTRA-LIGAND FREE ENERGY PREDICTED BY IDOCK:    0.35 KCAL/MOL
REMARK 927      BINDING AFFINITY PREDICTED BY RF-SCORE:    0.00 PKD
ROOT
HETATM    1  C   UNL     1      -9.523  12.691  66.667  1.00  0.00    -0.244 C  
HETATM    2  C   UNL     1      -8.117  12.194  66.338  1.00  0.00     0.215 C  
HETATM    3  C   UNL     1      -8.069  10.626  66.440  1.00  0.00    -0.148 C  
HETATM    4  O   UNL     1      -7.128  12.759  67.195  1.00  0.00    -0.321 OA 
HETATM    5  C   UNL     1      -6.753  10.004  65.994  1.00  0.00    -0.100 C  
HETATM    6  H   UNL     1      -6.253  12.449  66.990  1.00  0.00     0.000 HD 
HETATM    7  C   UNL     1      -6.526   8.604  66.387  1.00  0.00    -0.062 A  
HETATM    8  C   UNL     1      -5.725  10.663  65.432  1.00  0.00    -0.133 C  
HETATM    9  C   UNL     1      -6.858   8.213  67.685  1.00  0.00    -0.070 A  
HETATM   10  C   UNL     1      -6.363   6.995  68.179  1.00  0.00    -0.039 A  
HETATM   11  C   UNL     1      -7.709   9.108  68.523  1.00  0.00    -0.093 C  
HETATM   12  O   UNL     1      -6.484   6.609  69.486  1.00  0.00    -0.040 OA 
HETATM   13  C   UNL     1      -5.664   6.118  67.343  1.00  0.00    -0.016 A  
HETATM   14  C   UNL     1      -8.483  10.205  67.839  1.00  0.00    -0.118 C  
HETATM   15  O   UNL     1      -7.780   8.917  69.734  1.00  0.00    -0.072 OA 
HETATM   16  H   UNL     1      -6.150   5.784  69.821  1.00  0.00     0.000 HD 
HETATM   17  C   UNL     1      -9.434  10.892  68.521  1.00  0.00    -0.185 C  
HETATM   18  C   UNL     1      -5.452   6.453  66.013  1.00  0.00    -0.014 A  
HETATM   19  O   UNL     1      -9.686  10.654  69.874  1.00  0.00    -0.411 OA 
HETATM   20  C   UNL     1     -10.066  12.197  68.022  1.00  0.00    -0.204 C  
HETATM   21  C   UNL     1      -5.869   7.701  65.534  1.00  0.00    -0.038 A  
HETATM   22  H   UNL     1     -10.352  11.134  70.351  1.00  0.00     0.000 HD 
HETATM   23  C   UNL     1     -11.653  12.287  67.823  1.00  0.00    -0.351 C  
HETATM   24  O   UNL     1      -9.674  13.116  69.059  1.00  0.00    -0.399 OA 
HETATM   25  H   UNL     1     -10.008  12.811  69.894  1.00  0.00     0.000 HD 
HETATM   26  O   UNL     1     -12.469  11.543  68.360  1.00  0.00    -0.319 OA 
HETATM   27  C   UNL     1     -12.156  13.474  66.974  1.00  0.00    -0.401 C  
HETATM   28  H   UNL     1     -10.644  15.938  68.357  1.00  0.00     0.000 HD 
HETATM   29  C   UNL     1     -11.268  14.483  67.095  1.00  0.00    -0.333 C  
HETATM   30  C   UNL     1      -9.876  14.216  66.431  1.00  0.00    -0.296 C  
HETATM   31  O   UNL     1     -11.270  15.228  68.271  1.00  0.00    -0.285 OA 
ENDROOT
BRANCH  27  32
HETATM   32  C   UNL     1     -12.526  13.236  65.542  1.00  0.00    -0.474 C  
HETATM   33  N   UNL     1     -12.833  14.359  64.807  1.00  0.00    -0.603 N  
HETATM   34  H1  UNL     1     -13.085  14.197  63.832  1.00  0.00     0.000 HD 
HETATM   35  H2  UNL     1     -12.811  15.295  65.212  1.00  0.00     0.000 HD 
HETATM   36  O   UNL     1     -12.490  12.135  65.024  1.00  0.00    -0.490 OA 
ENDBRANCH  27  32
BRANCH  30  37
HETATM   37  N   UNL     1      -8.811  15.231  66.560  1.00  0.00    -0.296 NA 
HETATM   38  C   UNL     1      -8.402  15.607  67.914  1.00  0.00    -0.146 C  
HETATM   39  C   UNL     1      -9.184  16.460  65.841  1.00  0.00    -0.199 C  
ENDBRANCH  30  37
TORSDOF 2
ENDMDL
MODEL       39
REMARK 921   NORMALIZED FREE ENERGY PREDICTED BY IDOCK:   -6.04 KCAL/MOL
REMARK 922        TOTAL FREE ENERGY PREDICTED BY IDOCK:   -6.32 KCAL/MOL
REMARK 923 INTER-LIGAND FREE ENERGY PREDICTED BY IDOCK:   -6.42 KCAL/MOL
REMARK 924 INTRA-LIGAND FREE ENERGY PREDICTED BY IDOCK:    0.10 KCAL/MOL
REMARK 927      BINDING AFFINITY PREDICTED BY RF-SCORE:    0.00 PKD
ROOT
HETATM    1  C   UNL     1      -9.408   7.674  68.474  1.00  0.00    -0.147 C  
HETATM    2  C   UNL     1     -10.264   8.843  68.954  1.00  0.00    -0.206 C  
HETATM    3  C   UNL     1     -10.353   9.936  67.827  1.00  0.00    -0.268 C  
HETATM    4  O   UNL     1      -9.760   9.429  70.150  1.00  0.00    -0.202 OA 
HETATM    5  C   UNL     1     -11.300  11.087  68.137  1.00  0.00    -0.374 C  
HETATM    6  H   UNL     1     -10.293  10.157  70.449  1.00  0.00     0.000 HD 
HETATM    7  C   UNL     1     -11.163  12.290  67.299  1.00  0.00    -0.358 A  
HETATM    8  C   UNL     1     -12.116  11.166  69.202  1.00  0.00    -0.352 C  
HETATM    9  C   UNL     1      -9.880  12.753  67.002  1.00  0.00    -0.231 A  
HETATM   10  C   UNL     1      -9.725  14.051  66.487  1.00  0.00    -0.295 A  
HETATM   11  C   UNL     1      -8.705  11.869  67.258  1.00  0.00    -0.171 C  
HETATM   12  O   UNL     1      -8.509  14.658  66.331  1.00  0.00    -0.415 OA 
HETATM   13  C   UNL     1     -10.842  14.821  66.147  1.00  0.00    -0.321 A  
HETATM   14  C   UNL     1      -8.950  10.398  67.471  1.00  0.00    -0.138 C  
HETATM   15  O   UNL     1      -7.575  12.349  67.263  1.00  0.00    -0.148 OA 
HETATM   16  H   UNL     1      -8.404  15.536  65.982  1.00  0.00     0.000 HD 
HETATM   17  C   UNL     1      -7.907   9.530  67.482  1.00  0.00    -0.102 C  
HETATM   18  C   UNL     1     -12.118  14.302  66.320  1.00  0.00    -0.433 A  
HETATM   19  O   UNL     1      -6.586   9.966  67.358  1.00  0.00    -0.068 OA 
HETATM   20  C   UNL     1      -8.009   8.081  67.971  1.00  0.00    -0.128 C  
HETATM   21  C   UNL     1     -12.283  13.042  66.909  1.00  0.00    -0.233 A  
HETATM   22  H   UNL     1      -5.856   9.359  67.366  1.00  0.00     0.000 HD 
HETATM   23  C   UNL     1      -7.621   6.879  66.986  1.00  0.00    -0.102 C  
HETATM   24  O   UNL     1      -7.087   8.090  69.078  1.00  0.00    -0.063 OA 
HETATM   25  H   UNL     1      -6.225   8.341  68.769  1.00  0.00     0.000 HD 
HETATM   26  O   UNL     1      -6.912   6.992  65.990  1.00  0.00    -0.062 OA 
HETATM   27  C   UNL     1      -8.107   5.477  67.413  1.00  0.00    -0.101 C  
HETATM   28  H   UNL     1      -7.097   5.350  70.453  1.00  0.00     0.000 HD 
HETATM   29  C   UNL     1      -8.202   5.460  68.760  1.00  0.00    -0.094 C  
HETATM   30  C   UNL     1      -9.341   6.357  69.350  1.00  0.00    -0.141 C  
HETATM   31  O   UNL     1      -7.030   5.362  69.505  1.00  0.00    -0.058 OA 
ENDROOT
BRANCH  27  32
HETATM   32  C   UNL     1      -9.331   4.905  66.768  1.00  0.00    -0.138 C  
HETATM   33  N   UNL     1      -9.795   5.578  65.660  1.00  0.00    -0.370 N  
HETATM   34  H1  UNL     1     -10.629   5.188  65.220  1.00  0.00     0.000 HD 
HETATM   35  H2  UNL     1      -9.334   6.414  65.301  1.00  0.00     0.000 HD 
HETATM   36  O   UNL     1      -9.853   3.871  67.141  1.00  0.00    -0.194 OA 
ENDBRANCH  27  32
BRANCH  30  37
HETATM   37  N   UNL     1      -9.492   6.457  70.815  1.00  0.00    -0.168 NA 
HETATM   38  C   UNL     1      -8.266   6.554  71.611  1.00  0.00    -0.112 C  
HETATM   39  C   UNL     1     -10.278   5.325  71.329  1.00  0.00    -0.224 C  
ENDBRANCH  30  37
TORSDOF 2
ENDMDL
MODEL       40
REMARK 921   NORMALIZED FREE ENERGY PREDICTED BY IDOCK:   -6.03 KCAL/MOL
REMARK 922        TOTAL FREE ENERGY PREDICTED BY IDOCK:   -6.31 KCAL/MOL
REMARK 923 INTER-LIGAND FREE ENERGY PREDICTED BY IDOCK:   -6.40 KCAL/MOL
REMARK 924 INTRA-LIGAND FREE ENERGY PREDICTED BY IDOCK:    0.10 KCAL/MOL
REMARK 927      BINDING AFFINITY PREDICTED BY RF-SCORE:    0.00 PKD
ROOT
HETATM    1  C   UNL     1      -8.754  11.240  66.685  1.00  0.00    -0.174 C  
HETATM    2  C   UNL     1      -9.748  12.218  67.306  1.00  0.00    -0.195 C  
HETATM    3  C   UNL     1      -9.314  13.695  66.983  1.00  0.00    -0.249 C  
HETATM    4  O   UNL     1      -9.864  12.051  68.716  1.00  0.00    -0.366 OA 
HETATM    5  C   UNL     1     -10.309  14.757  67.430  1.00  0.00    -0.242 C  
HETATM    6  H   UNL     1     -10.483  12.660  69.102  1.00  0.00     0.000 HD 
HETATM    7  C   UNL     1      -9.812  16.142  67.473  1.00  0.00    -0.237 A  
HETATM    8  C   UNL     1     -11.529  14.522  67.946  1.00  0.00    -0.348 C  
HETATM    9  C   UNL     1      -8.543  16.378  68.004  1.00  0.00    -0.185 A  
HETATM   10  C   UNL     1      -8.181  17.691  68.348  1.00  0.00    -0.289 A  
HETATM   11  C   UNL     1      -7.612  15.230  68.216  1.00  0.00    -0.112 C  
HETATM   12  O   UNL     1      -7.038  18.001  69.034  1.00  0.00    -0.270 OA 
HETATM   13  C   UNL     1      -9.020  18.767  68.038  1.00  0.00    -0.326 A  
HETATM   14  C   UNL     1      -7.912  13.929  67.518  1.00  0.00    -0.190 C  
HETATM   15  O   UNL     1      -6.620  15.378  68.923  1.00  0.00    -0.104 OA 
HETATM   16  H   UNL     1      -6.793  18.889  69.267  1.00  0.00     0.000 HD 
HETATM   17  C   UNL     1      -6.984  12.939  67.500  1.00  0.00    -0.149 C  
HETATM   18  C   UNL     1     -10.224  18.538  67.387  1.00  0.00    -0.401 A  
HETATM   19  O   UNL     1      -5.763  13.063  68.164  1.00  0.00    -0.074 OA 
HETATM   20  C   UNL     1      -7.286  11.496  67.080  1.00  0.00    -0.146 C  
HETATM   21  C   UNL     1     -10.630  17.225  67.115  1.00  0.00    -0.256 A  
HETATM   22  H   UNL     1      -5.113  12.371  68.151  1.00  0.00     0.000 HD 
HETATM   23  C   UNL     1      -6.471  10.832  65.872  1.00  0.00    -0.097 C  
HETATM   24  O   UNL     1      -6.985  10.780  68.293  1.00  0.00    -0.067 OA 
HETATM   25  H   UNL     1      -6.081  10.938  68.536  1.00  0.00     0.000 HD 
HETATM   26  O   UNL     1      -5.381  11.224  65.464  1.00  0.00    -0.243 OA 
HETATM   27  C   UNL     1      -7.084   9.546  65.275  1.00  0.00    -0.099 C  
HETATM   28  H   UNL     1      -7.603   7.801  67.912  1.00  0.00     0.000 HD 
HETATM   29  C   UNL     1      -7.795   8.932  66.244  1.00  0.00    -0.102 C  
HETATM   30  C   UNL     1      -9.087   9.692  66.694  1.00  0.00    -0.148 C  
HETATM   31  O   UNL     1      -7.103   8.233  67.230  1.00  0.00    -0.077 OA 
ENDROOT
BRANCH  27  32
HETATM   32  C   UNL     1      -7.861   9.638  63.998  1.00  0.00    -0.137 C  
HETATM   33  N   UNL     1      -7.775  10.838  63.328  1.00  0.00    -0.359 N  
HETATM   34  H1  UNL     1      -8.305  10.900  62.459  1.00  0.00     0.000 HD 
HETATM   35  H2  UNL     1      -7.217  11.616  63.680  1.00  0.00     0.000 HD 
HETATM   36  O   UNL     1      -8.476   8.698  63.529  1.00  0.00    -0.158 OA 
ENDBRANCH  27  32
BRANCH  30  37
HETATM   37  N   UNL     1      -9.903   9.137  67.792  1.00  0.00    -0.165 NA 
HETATM   38  C   UNL     1      -9.206   8.765  69.025  1.00  0.00    -0.141 C  
HETATM   39  C   UNL     1     -10.660   7.964  67.326  1.00  0.00    -0.295 C  
ENDBRANCH  30  37
TORSDOF 2
ENDMDL
MODEL       41
REMARK 921   NORMALIZED FREE ENERGY PREDICTED BY IDOCK:   -6.01 KCAL/MOL
REMARK 922        TOTAL FREE ENERGY PREDICTED BY IDOCK:   -6.28 KCAL/MOL
REMARK 923 INTER-LIGAND FREE ENERGY PREDICTED BY IDOCK:   -6.56 KCAL/MOL
REMARK 924 INTRA-LIGAND FREE ENERGY PREDICTED BY IDOCK:    0.28 KCAL/MOL
REMARK 927      BINDING AFFINITY PREDICTED BY RF-SCORE:    0.00 PKD
ROOT
HETATM    1  C   UNL     1      -9.147   9.739  66.907  1.00  0.00    -0.162 C  
HETATM    2  C   UNL     1     -10.357  10.604  66.563  1.00  0.00    -0.241 C  
HETATM    3  C   UNL     1      -9.884  12.054  66.180  1.00  0.00    -0.255 C  
HETATM    4  O   UNL     1     -11.295  10.675  67.634  1.00  0.00    -0.395 OA 
HETATM    5  C   UNL     1     -10.993  12.969  65.679  1.00  0.00    -0.296 C  
HETATM    6  H   UNL     1     -12.047  11.214  67.420  1.00  0.00     0.000 HD 
HETATM    7  C   UNL     1     -10.684  14.408  65.639  1.00  0.00    -0.326 A  
HETATM    8  C   UNL     1     -12.263  12.602  65.438  1.00  0.00    -0.517 C  
HETATM    9  C   UNL     1     -10.008  14.975  66.720  1.00  0.00    -0.254 A  
HETATM   10  C   UNL     1      -9.987  16.373  66.855  1.00  0.00    -0.271 A  
HETATM   11  C   UNL     1      -9.344  14.084  67.717  1.00  0.00    -0.205 C  
HETATM   12  O   UNL     1      -9.506  17.014  67.964  1.00  0.00    -0.245 OA 
HETATM   13  C   UNL     1     -10.515  17.194  65.852  1.00  0.00    -0.265 A  
HETATM   14  C   UNL     1      -9.102  12.645  67.340  1.00  0.00    -0.191 C  
HETATM   15  O   UNL     1      -8.989  14.544  68.798  1.00  0.00    -0.188 OA 
HETATM   16  H   UNL     1      -9.491  17.960  68.055  1.00  0.00     0.000 HD 
HETATM   17  C   UNL     1      -8.309  11.864  68.116  1.00  0.00    -0.161 C  
HETATM   18  C   UNL     1     -11.068  16.625  64.714  1.00  0.00    -0.120 A  
HETATM   19  O   UNL     1      -7.744  12.338  69.302  1.00  0.00    -0.328 OA 
HETATM   20  C   UNL     1      -8.230  10.338  67.991  1.00  0.00    -0.113 C  
HETATM   21  C   UNL     1     -11.168  15.232  64.609  1.00  0.00    -0.366 A  
HETATM   22  H   UNL     1      -7.189  11.792  69.845  1.00  0.00     0.000 HD 
HETATM   23  C   UNL     1      -6.822   9.636  67.695  1.00  0.00    -0.082 C  
HETATM   24  O   UNL     1      -8.693   9.924  69.291  1.00  0.00    -0.144 OA 
HETATM   25  H   UNL     1      -8.128  10.293  69.959  1.00  0.00     0.000 HD 
HETATM   26  O   UNL     1      -5.726  10.149  67.903  1.00  0.00    -0.042 OA 
HETATM   27  C   UNL     1      -6.891   8.170  67.212  1.00  0.00    -0.074 C  
HETATM   28  H   UNL     1      -8.820   6.863  69.413  1.00  0.00     0.000 HD 
HETATM   29  C   UNL     1      -8.015   7.617  67.715  1.00  0.00    -0.121 C  
HETATM   30  C   UNL     1      -9.349   8.184  67.123  1.00  0.00    -0.145 C  
HETATM   31  O   UNL     1      -8.029   7.252  69.059  1.00  0.00    -0.115 OA 
ENDROOT
BRANCH  27  32
HETATM   32  C   UNL     1      -6.742   7.880  65.751  1.00  0.00    -0.045 C  
HETATM   33  N   UNL     1      -6.865   6.558  65.386  1.00  0.00    -0.047 N  
HETATM   34  H1  UNL     1      -6.763   6.361  64.391  1.00  0.00     0.000 HD 
HETATM   35  H2  UNL     1      -7.048   5.822  66.068  1.00  0.00     0.000 HD 
HETATM   36  O   UNL     1      -6.593   8.753  64.915  1.00  0.00    -0.068 OA 
ENDBRANCH  27  32
BRANCH  30  37
HETATM   37  N   UNL     1     -10.637   7.690  67.650  1.00  0.00    -0.240 NA 
HETATM   38  C   UNL     1     -10.747   7.517  69.099  1.00  0.00    -0.151 C  
HETATM   39  C   UNL     1     -10.996   6.414  67.011  1.00  0.00    -0.389 C  
ENDBRANCH  30  37
TORSDOF 2
ENDMDL
MODEL       42
REMARK 921   NORMALIZED FREE ENERGY PREDICTED BY IDOCK:   -5.93 KCAL/MOL
REMARK 922        TOTAL FREE ENERGY PREDICTED BY IDOCK:   -6.20 KCAL/MOL
REMARK 923 INTER-LIGAND FREE ENERGY PREDICTED BY IDOCK:   -6.66 KCAL/MOL
REMARK 924 INTRA-LIGAND FREE ENERGY PREDICTED BY IDOCK:    0.46 KCAL/MOL
REMARK 927      BINDING AFFINITY PREDICTED BY RF-SCORE:    0.00 PKD
ROOT
HETATM    1  C   UNL     1      -8.806  12.886  66.776  1.00  0.00    -0.152 C  
HETATM    2  C   UNL     1      -9.765  13.885  66.134  1.00  0.00    -0.272 C  
HETATM    3  C   UNL     1      -9.328  15.352  66.497  1.00  0.00    -0.311 C  
HETATM    4  O   UNL     1     -11.116  13.675  66.536  1.00  0.00    -0.299 OA 
HETATM    5  C   UNL     1     -10.127  16.441  65.795  1.00  0.00    -0.352 C  
HETATM    6  H   UNL     1     -11.712  14.297  66.136  1.00  0.00     0.000 HD 
HETATM    7  C   UNL     1     -10.005  17.800  66.347  1.00  0.00    -0.345 A  
HETATM    8  C   UNL     1     -11.053  16.242  64.840  1.00  0.00    -0.301 C  
HETATM    9  C   UNL     1     -10.034  17.962  67.732  1.00  0.00    -0.331 A  
HETATM   10  C   UNL     1     -10.241  19.245  68.266  1.00  0.00    -0.418 A  
HETATM   11  C   UNL     1      -9.869  16.767  68.613  1.00  0.00    -0.261 C  
HETATM   12  O   UNL     1     -10.461  19.480  69.595  1.00  0.00    -0.464 OA 
HETATM   13  C   UNL     1     -10.279  20.366  67.430  1.00  0.00    -0.427 A  
HETATM   14  C   UNL     1      -9.311  15.506  68.008  1.00  0.00    -0.193 C  
HETATM   15  O   UNL     1     -10.162  16.847  69.802  1.00  0.00    -0.117 OA 
HETATM   16  H   UNL     1     -10.600  20.349  69.956  1.00  0.00     0.000 HD 
HETATM   17  C   UNL     1      -8.936  14.477  68.809  1.00  0.00    -0.157 C  
HETATM   18  C   UNL     1     -10.114  20.213  66.061  1.00  0.00    -0.497 A  
HETATM   19  O   UNL     1      -9.104  14.524  70.195  1.00  0.00     0.147 OA 
HETATM   20  C   UNL     1      -8.635  13.063  68.297  1.00  0.00    -0.167 C  
HETATM   21  C   UNL     1      -9.991  18.930  65.513  1.00  0.00     0.494 A  
HETATM   22  H   UNL     1      -8.841  13.804  70.756  1.00  0.00     0.000 HD 
HETATM   23  C   UNL     1      -7.201  12.406  68.574  1.00  0.00    -0.103 C  
HETATM   24  O   UNL     1      -9.640  12.293  68.984  1.00  0.00    -0.401 OA 
HETATM   25  H   UNL     1      -9.535  12.403  69.922  1.00  0.00     0.000 HD 
HETATM   26  O   UNL     1      -6.425  12.763  69.456  1.00  0.00    -0.117 OA 
HETATM   27  C   UNL     1      -6.853  11.170  67.716  1.00  0.00    -0.073 C  
HETATM   28  H   UNL     1      -9.468   9.359  68.111  1.00  0.00     0.000 HD 
HETATM   29  C   UNL     1      -8.006  10.555  67.380  1.00  0.00    -0.110 C  
HETATM   30  C   UNL     1      -8.913  11.355  66.387  1.00  0.00    -0.191 C  
HETATM   31  O   UNL     1      -8.656   9.792  68.347  1.00  0.00    -0.117 OA 
ENDROOT
BRANCH  27  32
HETATM   32  C   UNL     1      -5.955  11.340  66.530  1.00  0.00    -0.144 C  
HETATM   33  N   UNL     1      -6.006  10.335  65.589  1.00  0.00    -0.092 N  
HETATM   34  H1  UNL     1      -5.395  10.451  64.781  1.00  0.00     0.000 HD 
HETATM   35  H2  UNL     1      -6.618   9.526  65.694  1.00  0.00     0.000 HD 
HETATM   36  O   UNL     1      -5.270  12.331  66.355  1.00  0.00    -0.247 OA 
ENDBRANCH  27  32
BRANCH  30  37
HETATM   37  N   UNL     1     -10.226  10.800  66.003  1.00  0.00    -0.247 NA 
HETATM   38  C   UNL     1     -10.579   9.482  66.536  1.00  0.00    -0.062 C  
HETATM   39  C   UNL     1     -10.352  10.745  64.538  1.00  0.00    -0.331 C  
ENDBRANCH  30  37
TORSDOF 2
ENDMDL
MODEL       43
REMARK 921   NORMALIZED FREE ENERGY PREDICTED BY IDOCK:   -5.85 KCAL/MOL
REMARK 922        TOTAL FREE ENERGY PREDICTED BY IDOCK:   -6.10 KCAL/MOL
REMARK 923 INTER-LIGAND FREE ENERGY PREDICTED BY IDOCK:   -6.23 KCAL/MOL
REMARK 924 INTRA-LIGAND FREE ENERGY PREDICTED BY IDOCK:    0.13 KCAL/MOL
REMARK 927      BINDING AFFINITY PREDICTED BY RF-SCORE:    0.00 PKD
ROOT
HETATM    1  C   UNL     1      -8.331   4.483  66.424  1.00  0.00    -0.106 C  
HETATM    2  C   UNL     1      -7.766   4.714  67.823  1.00  0.00    -0.082 C  
HETATM    3  C   UNL     1      -8.862   4.386  68.902  1.00  0.00    -0.134 C  
HETATM    4  O   UNL     1      -7.300   6.048  68.005  1.00  0.00    -0.080 OA 
HETATM    5  C   UNL     1      -8.368   4.443  70.341  1.00  0.00    -0.086 C  
HETATM    6  H   UNL     1      -6.948   6.192  68.876  1.00  0.00     0.000 HD 
HETATM    7  C   UNL     1      -9.405   4.490  71.385  1.00  0.00    -0.206 A  
HETATM    8  C   UNL     1      -7.093   4.626  70.726  1.00  0.00    -0.041 C  
HETATM    9  C   UNL     1     -10.508   5.324  71.193  1.00  0.00    -0.275 A  
HETATM   10  C   UNL     1     -11.332   5.629  72.289  1.00  0.00    -0.240 A  
HETATM   11  C   UNL     1     -10.772   5.887  69.836  1.00  0.00    -0.336 C  
HETATM   12  O   UNL     1     -12.326   6.569  72.244  1.00  0.00    -0.511 OA 
HETATM   13  C   UNL     1     -11.136   5.003  73.524  1.00  0.00    -0.386 A  
HETATM   14  C   UNL     1     -10.080   5.259  68.654  1.00  0.00    -0.238 C  
HETATM   15  O   UNL     1     -11.558   6.822  69.711  1.00  0.00    -0.298 OA 
HETATM   16  H   UNL     1     -12.883   6.775  72.985  1.00  0.00     0.000 HD 
HETATM   17  C   UNL     1     -10.458   5.587  67.393  1.00  0.00    -0.219 C  
HETATM   18  C   UNL     1     -10.118   4.072  73.673  1.00  0.00    -0.182 A  
HETATM   19  O   UNL     1     -11.444   6.545  67.146  1.00  0.00    -0.768 OA 
HETATM   20  C   UNL     1      -9.645   5.237  66.141  1.00  0.00    -0.161 C  
HETATM   21  C   UNL     1      -9.241   3.823  72.610  1.00  0.00    -0.138 A  
HETATM   22  H   UNL     1     -11.709   6.774  66.263  1.00  0.00     0.000 HD 
HETATM   23  C   UNL     1     -10.314   4.365  64.977  1.00  0.00    -0.142 C  
HETATM   24  O   UNL     1      -9.342   6.548  65.626  1.00  0.00    -0.377 OA 
HETATM   25  H   UNL     1     -10.152   7.013  65.452  1.00  0.00     0.000 HD 
HETATM   26  O   UNL     1     -11.522   4.235  64.805  1.00  0.00    -0.229 OA 
HETATM   27  C   UNL     1      -9.334   3.746  63.955  1.00  0.00    -0.144 C  
HETATM   28  H   UNL     1      -7.568   6.293  63.138  1.00  0.00     0.000 HD 
HETATM   29  C   UNL     1      -8.243   4.538  63.889  1.00  0.00    -0.103 C  
HETATM   30  C   UNL     1      -7.356   4.544  65.178  1.00  0.00    -0.072 C  
HETATM   31  O   UNL     1      -8.336   5.735  63.185  1.00  0.00    -0.108 OA 
ENDROOT
BRANCH  27  32
HETATM   32  C   UNL     1      -8.959   2.303  64.093  1.00  0.00    -0.104 C  
HETATM   33  N   UNL     1      -9.660   1.587  65.037  1.00  0.00    -0.322 N  
HETATM   34  H1  UNL     1      -9.405   0.605  65.130  1.00  0.00     0.000 HD 
HETATM   35  H2  UNL     1     -10.391   2.014  65.608  1.00  0.00     0.000 HD 
HETATM   36  O   UNL     1      -8.140   1.761  63.373  1.00  0.00    -0.060 OA 
ENDBRANCH  27  32
BRANCH  30  37
HETATM   37  N   UNL     1      -6.172   5.425  65.233  1.00  0.00    -0.033 NA 
HETATM   38  C   UNL     1      -6.383   6.850  64.969  1.00  0.00    -0.039 C  
HETATM   39  C   UNL     1      -5.131   4.942  64.313  1.00  0.00    -0.009 C  
ENDBRANCH  30  37
TORSDOF 2
ENDMDL
MODEL       44
REMARK 921   NORMALIZED FREE ENERGY PREDICTED BY IDOCK:   -5.84 KCAL/MOL
REMARK 922        TOTAL FREE ENERGY PREDICTED BY IDOCK:   -6.10 KCAL/MOL
REMARK 923 INTER-LIGAND FREE ENERGY PREDICTED BY IDOCK:   -6.37 KCAL/MOL
REMARK 924 INTRA-LIGAND FREE ENERGY PREDICTED BY IDOCK:    0.27 KCAL/MOL
REMARK 927      BINDING AFFINITY PREDICTED BY RF-SCORE:    0.00 PKD
ROOT
HETATM    1  C   UNL     1     -10.457  11.457  67.014  1.00  0.00    -0.271 C  
HETATM    2  C   UNL     1     -10.466   9.969  67.355  1.00  0.00    -0.260 C  
HETATM    3  C   UNL     1     -10.330   9.776  68.910  1.00  0.00    -0.225 C  
HETATM    4  O   UNL     1      -9.426   9.255  66.692  1.00  0.00    -0.166 OA 
HETATM    5  C   UNL     1     -10.470   8.336  69.382  1.00  0.00    -0.224 C  
HETATM    6  H   UNL     1      -9.431   8.329  66.904  1.00  0.00     0.000 HD 
HETATM    7  C   UNL     1     -10.013   8.051  70.752  1.00  0.00    -0.202 A  
HETATM    8  C   UNL     1     -10.808   7.287  68.612  1.00  0.00    -0.112 C  
HETATM    9  C   UNL     1      -8.811   8.613  71.185  1.00  0.00    -0.249 A  
HETATM   10  C   UNL     1      -8.201   8.110  72.346  1.00  0.00    -0.151 A  
HETATM   11  C   UNL     1      -8.192   9.717  70.392  1.00  0.00    -0.160 C  
HETATM   12  O   UNL     1      -6.944   8.469  72.751  1.00  0.00    -0.186 OA 
HETATM   13  C   UNL     1      -8.850   7.157  73.137  1.00  0.00    -0.158 A  
HETATM   14  C   UNL     1      -9.045  10.436  69.381  1.00  0.00    -0.170 C  
HETATM   15  O   UNL     1      -7.022  10.027  70.599  1.00  0.00    -0.260 OA 
HETATM   16  H   UNL     1      -6.531   8.129  73.537  1.00  0.00     0.000 HD 
HETATM   17  C   UNL     1      -8.597  11.580  68.806  1.00  0.00    -0.052 C  
HETATM   18  C   UNL     1     -10.109   6.699  72.772  1.00  0.00    -0.195 A  
HETATM   19  O   UNL     1      -7.327  12.093  69.078  1.00  0.00    -0.234 OA 
HETATM   20  C   UNL     1      -9.243  12.225  67.574  1.00  0.00    -0.181 C  
HETATM   21  C   UNL     1     -10.688   7.133  71.573  1.00  0.00    -0.245 A  
HETATM   22  H   UNL     1      -7.013  12.894  68.676  1.00  0.00     0.000 HD 
HETATM   23  C   UNL     1      -9.781  13.731  67.654  1.00  0.00    -0.227 C  
HETATM   24  O   UNL     1      -8.162  12.167  66.624  1.00  0.00    -0.339 OA 
HETATM   25  H   UNL     1      -7.414  12.640  66.969  1.00  0.00     0.000 HD 
HETATM   26  O   UNL     1      -9.421  14.560  68.485  1.00  0.00    -0.202 OA 
HETATM   27  C   UNL     1     -10.740  14.163  66.523  1.00  0.00    -0.289 C  
HETATM   28  H   UNL     1      -9.105  13.259  63.919  1.00  0.00     0.000 HD 
HETATM   29  C   UNL     1     -10.447  13.434  65.425  1.00  0.00    -0.302 C  
HETATM   30  C   UNL     1     -10.790  11.911  65.535  1.00  0.00    -0.295 C  
HETATM   31  O   UNL     1      -9.312  13.771  64.691  1.00  0.00     0.626 OA 
ENDROOT
BRANCH  27  32
HETATM   32  C   UNL     1     -12.213  14.185  66.790  1.00  0.00    -0.394 C  
HETATM   33  N   UNL     1     -12.583  14.397  68.100  1.00  0.00    -0.312 N  
HETATM   34  H1  UNL     1     -13.586  14.413  68.282  1.00  0.00     0.000 HD 
HETATM   35  H2  UNL     1     -11.895  14.530  68.842  1.00  0.00     0.000 HD 
HETATM   36  O   UNL     1     -13.047  14.098  65.908  1.00  0.00    -0.373 OA 
ENDBRANCH  27  32
BRANCH  30  37
HETATM   37  N   UNL     1     -10.452  11.014  64.412  1.00  0.00    -0.354 NA 
HETATM   38  C   UNL     1      -9.041  10.918  64.031  1.00  0.00    -0.149 C  
HETATM   39  C   UNL     1     -11.221  11.381  63.213  1.00  0.00    -0.055 C  
ENDBRANCH  30  37
TORSDOF 2
ENDMDL
MODEL       45
REMARK 921   NORMALIZED FREE ENERGY PREDICTED BY IDOCK:   -5.82 KCAL/MOL
REMARK 922        TOTAL FREE ENERGY PREDICTED BY IDOCK:   -6.07 KCAL/MOL
REMARK 923 INTER-LIGAND FREE ENERGY PREDICTED BY IDOCK:   -6.30 KCAL/MOL
REMARK 924 INTRA-LIGAND FREE ENERGY PREDICTED BY IDOCK:    0.23 KCAL/MOL
REMARK 927      BINDING AFFINITY PREDICTED BY RF-SCORE:    0.00 PKD
ROOT
HETATM    1  C   UNL     1      -8.868  12.285  67.674  1.00  0.00    -0.175 C  
HETATM    2  C   UNL     1      -7.660  11.634  68.344  1.00  0.00    -0.126 C  
HETATM    3  C   UNL     1      -7.983  10.133  68.685  1.00  0.00    -0.103 C  
HETATM    4  O   UNL     1      -7.264  12.319  69.529  1.00  0.00    -0.332 OA 
HETATM    5  C   UNL     1      -6.803   9.341  69.228  1.00  0.00    -0.049 C  
HETATM    6  H   UNL     1      -6.512  11.914  69.946  1.00  0.00     0.000 HD 
HETATM    7  C   UNL     1      -7.120   8.060  69.881  1.00  0.00    -0.057 A  
HETATM    8  C   UNL     1      -5.535   9.782  69.315  1.00  0.00    -0.035 C  
HETATM    9  C   UNL     1      -8.210   8.007  70.751  1.00  0.00    -0.113 A  
HETATM   10  C   UNL     1      -8.340   6.909  71.617  1.00  0.00    -0.109 A  
HETATM   11  C   UNL     1      -9.198   9.127  70.755  1.00  0.00    -0.262 C  
HETATM   12  O   UNL     1      -9.267   6.850  72.622  1.00  0.00    -0.136 OA 
HETATM   13  C   UNL     1      -7.471   5.817  71.519  1.00  0.00    -0.093 A  
HETATM   14  C   UNL     1      -9.203  10.081  69.589  1.00  0.00    -0.236 C  
HETATM   15  O   UNL     1      -9.992   9.230  71.686  1.00  0.00    -0.294 OA 
HETATM   16  H   UNL     1      -9.355   6.107  73.208  1.00  0.00     0.000 HD 
HETATM   17  C   UNL     1     -10.218  10.968  69.442  1.00  0.00    -0.067 C  
HETATM   18  C   UNL     1      -6.469   5.817  70.559  1.00  0.00    -0.036 A  
HETATM   19  O   UNL     1     -11.247  11.071  70.380  1.00  0.00    -0.461 OA 
HETATM   20  C   UNL     1     -10.178  12.158  68.475  1.00  0.00    -0.207 C  
HETATM   21  C   UNL     1      -6.281   6.942  69.747  1.00  0.00    -0.034 A  
HETATM   22  H   UNL     1     -11.959  11.692  70.278  1.00  0.00     0.000 HD 
HETATM   23  C   UNL     1     -11.303  12.301  67.344  1.00  0.00    -0.325 C  
HETATM   24  O   UNL     1     -10.291  13.267  69.387  1.00  0.00    -0.411 OA 
HETATM   25  H   UNL     1     -11.098  13.189  69.881  1.00  0.00     0.000 HD 
HETATM   26  O   UNL     1     -12.404  11.759  67.378  1.00  0.00    -0.252 OA 
HETATM   27  C   UNL     1     -10.980  13.286  66.199  1.00  0.00    -0.292 C  
HETATM   28  H   UNL     1     -10.108  15.903  67.831  1.00  0.00     0.000 HD 
HETATM   29  C   UNL     1     -10.152  14.235  66.683  1.00  0.00    -0.273 C  
HETATM   30  C   UNL     1      -8.717  13.731  67.049  1.00  0.00    -0.198 C  
HETATM   31  O   UNL     1     -10.691  15.235  67.490  1.00  0.00    -0.272 OA 
ENDROOT
BRANCH  27  32
HETATM   32  C   UNL     1     -10.490  12.743  64.892  1.00  0.00    -0.321 C  
HETATM   33  N   UNL     1     -10.585  11.379  64.735  1.00  0.00    -0.307 N  
HETATM   34  H1  UNL     1     -10.251  11.009  63.846  1.00  0.00     0.000 HD 
HETATM   35  H2  UNL     1     -10.966  10.775  65.464  1.00  0.00     0.000 HD 
HETATM   36  O   UNL     1     -10.097  13.455  63.986  1.00  0.00    -0.286 OA 
ENDBRANCH  27  32
BRANCH  30  37
HETATM   37  N   UNL     1      -7.752  14.676  67.645  1.00  0.00    -0.161 NA 
HETATM   38  C   UNL     1      -8.099  15.261  68.942  1.00  0.00    -0.180 C  
HETATM   39  C   UNL     1      -7.470  15.778  66.712  1.00  0.00    -0.100 C  
ENDBRANCH  30  37
TORSDOF 2
ENDMDL
MODEL       46
REMARK 921   NORMALIZED FREE ENERGY PREDICTED BY IDOCK:   -5.77 KCAL/MOL
REMARK 922        TOTAL FREE ENERGY PREDICTED BY IDOCK:   -6.02 KCAL/MOL
REMARK 923 INTER-LIGAND FREE ENERGY PREDICTED BY IDOCK:   -6.13 KCAL/MOL
REMARK 924 INTRA-LIGAND FREE ENERGY PREDICTED BY IDOCK:    0.11 KCAL/MOL
REMARK 927      BINDING AFFINITY PREDICTED BY RF-SCORE:    0.00 PKD
ROOT
HETATM    1  C   UNL     1      -9.662   7.784  70.161  1.00  0.00    -0.183 C  
HETATM    2  C   UNL     1     -10.566   9.014  70.195  1.00  0.00    -0.224 C  
HETATM    3  C   UNL     1     -10.402   9.834  68.863  1.00  0.00    -0.225 C  
HETATM    4  O   UNL     1     -10.294   9.856  71.311  1.00  0.00    -0.224 OA 
HETATM    5  C   UNL     1     -11.362  11.007  68.721  1.00  0.00    -0.349 C  
HETATM    6  H   UNL     1     -10.857  10.621  71.332  1.00  0.00     0.000 HD 
HETATM    7  C   UNL     1     -11.031  12.000  67.686  1.00  0.00    -0.287 A  
HETATM    8  C   UNL     1     -12.371  11.300  69.559  1.00  0.00    -0.243 C  
HETATM    9  C   UNL     1      -9.704  12.411  67.556  1.00  0.00    -0.191 A  
HETATM   10  C   UNL     1      -9.417  13.568  66.813  1.00  0.00    -0.269 A  
HETATM   11  C   UNL     1      -8.625  11.626  68.227  1.00  0.00    -0.162 C  
HETATM   12  O   UNL     1      -8.178  14.149  66.774  1.00  0.00    -0.399 OA 
HETATM   13  C   UNL     1     -10.424  14.224  66.099  1.00  0.00    -0.294 A  
HETATM   14  C   UNL     1      -8.945  10.232  68.701  1.00  0.00    -0.144 C  
HETATM   15  O   UNL     1      -7.507  12.117  68.352  1.00  0.00    -0.102 OA 
HETATM   16  H   UNL     1      -7.984  14.931  66.271  1.00  0.00     0.000 HD 
HETATM   17  C   UNL     1      -7.947   9.408  69.108  1.00  0.00    -0.091 C  
HETATM   18  C   UNL     1     -11.722  13.732  66.123  1.00  0.00    -0.392 A  
HETATM   19  O   UNL     1      -6.618   9.831  69.158  1.00  0.00    -0.051 OA 
HETATM   20  C   UNL     1      -8.181   8.098  69.870  1.00  0.00    -0.118 C  
HETATM   21  C   UNL     1     -12.032  12.628  66.927  1.00  0.00    -0.345 A  
HETATM   22  H   UNL     1      -5.919   9.253  69.443  1.00  0.00     0.000 HD 
HETATM   23  C   UNL     1      -7.636   6.718  69.267  1.00  0.00    -0.096 C  
HETATM   24  O   UNL     1      -7.497   8.366  71.110  1.00  0.00    -0.068 OA 
HETATM   25  H   UNL     1      -6.585   8.560  70.931  1.00  0.00     0.000 HD 
HETATM   26  O   UNL     1      -6.741   6.625  68.432  1.00  0.00    -0.059 OA 
HETATM   27  C   UNL     1      -8.233   5.434  69.884  1.00  0.00    -0.096 C  
HETATM   28  H   UNL     1      -7.849   5.991  73.017  1.00  0.00     0.000 HD 
HETATM   29  C   UNL     1      -8.594   5.709  71.155  1.00  0.00    -0.127 C  
HETATM   30  C   UNL     1      -9.803   6.692  71.297  1.00  0.00    -0.177 C  
HETATM   31  O   UNL     1      -7.596   5.798  72.122  1.00  0.00    -0.097 OA 
ENDROOT
BRANCH  27  32
HETATM   32  C   UNL     1      -9.319   4.712  69.148  1.00  0.00    -0.142 C  
HETATM   33  N   UNL     1      -9.595   5.175  67.881  1.00  0.00    -0.130 N  
HETATM   34  H1  UNL     1     -10.335   4.684  67.379  1.00  0.00     0.000 HD 
HETATM   35  H2  UNL     1      -9.091   5.961  67.469  1.00  0.00     0.000 HD 
HETATM   36  O   UNL     1      -9.882   3.731  69.596  1.00  0.00    -0.168 OA 
ENDBRANCH  27  32
BRANCH  30  37
HETATM   37  N   UNL     1     -10.239   7.106  72.646  1.00  0.00    -0.189 NA 
HETATM   38  C   UNL     1      -9.214   7.631  73.550  1.00  0.00    -0.275 C  
HETATM   39  C   UNL     1     -10.921   5.996  73.329  1.00  0.00    -0.215 C  
ENDBRANCH  30  37
TORSDOF 2
ENDMDL
MODEL       47
REMARK 921   NORMALIZED FREE ENERGY PREDICTED BY IDOCK:   -5.77 KCAL/MOL
REMARK 922        TOTAL FREE ENERGY PREDICTED BY IDOCK:   -6.01 KCAL/MOL
REMARK 923 INTER-LIGAND FREE ENERGY PREDICTED BY IDOCK:   -6.14 KCAL/MOL
REMARK 924 INTRA-LIGAND FREE ENERGY PREDICTED BY IDOCK:    0.13 KCAL/MOL
REMARK 927      BINDING AFFINITY PREDICTED BY RF-SCORE:    0.00 PKD
ROOT
HETATM    1  C   UNL     1      -9.299   6.353  69.810  1.00  0.00    -0.151 C  
HETATM    2  C   UNL     1      -8.936   4.900  69.515  1.00  0.00    -0.092 C  
HETATM    3  C   UNL     1      -8.526   4.749  68.004  1.00  0.00    -0.102 C  
HETATM    4  O   UNL     1     -10.003   4.004  69.812  1.00  0.00    -0.180 OA 
HETATM    5  C   UNL     1      -8.006   3.370  67.626  1.00  0.00    -0.080 C  
HETATM    6  H   UNL     1      -9.778   3.100  69.628  1.00  0.00     0.000 HD 
HETATM    7  C   UNL     1      -7.939   3.069  66.186  1.00  0.00    -0.082 A  
HETATM    8  C   UNL     1      -7.770   2.359  68.480  1.00  0.00    -0.054 C  
HETATM    9  C   UNL     1      -9.010   3.447  65.375  1.00  0.00    -0.142 A  
HETATM   10  C   UNL     1      -9.119   2.899  64.086  1.00  0.00    -0.109 A  
HETATM   11  C   UNL     1     -10.025   4.407  65.905  1.00  0.00    -0.240 C  
HETATM   12  O   UNL     1     -10.216   3.069  63.287  1.00  0.00    -0.134 OA 
HETATM   13  C   UNL     1      -8.100   2.094  63.567  1.00  0.00    -0.073 A  
HETATM   14  C   UNL     1      -9.677   5.213  67.128  1.00  0.00    -0.171 C  
HETATM   15  O   UNL     1     -11.099   4.534  65.322  1.00  0.00    -0.221 OA 
HETATM   16  H   UNL     1     -10.289   2.698  62.415  1.00  0.00     0.000 HD 
HETATM   17  C   UNL     1     -10.469   6.248  67.507  1.00  0.00    -0.236 C  
HETATM   18  C   UNL     1      -6.971   1.829  64.330  1.00  0.00    -0.039 A  
HETATM   19  O   UNL     1     -11.647   6.561  66.826  1.00  0.00    -0.731 OA 
HETATM   20  C   UNL     1     -10.373   6.939  68.872  1.00  0.00    -0.189 C  
HETATM   21  C   UNL     1      -6.893   2.303  65.646  1.00  0.00    -0.039 A  
HETATM   22  H   UNL     1     -12.201   7.285  67.091  1.00  0.00     0.000 HD 
HETATM   23  C   UNL     1     -10.092   8.514  68.949  1.00  0.00    -0.203 C  
HETATM   24  O   UNL     1     -11.680   6.672  69.417  1.00  0.00    -0.643 OA 
HETATM   25  H   UNL     1     -12.341   7.032  68.839  1.00  0.00     0.000 HD 
HETATM   26  O   UNL     1     -10.294   9.306  68.033  1.00  0.00    -0.199 OA 
HETATM   27  C   UNL     1      -9.638   9.048  70.325  1.00  0.00    -0.230 C  
HETATM   28  H   UNL     1     -11.859   7.794  72.265  1.00  0.00     0.000 HD 
HETATM   29  C   UNL     1     -10.149   8.240  71.277  1.00  0.00    -0.198 C  
HETATM   30  C   UNL     1      -9.544   6.797  71.309  1.00  0.00    -0.169 C  
HETATM   31  O   UNL     1     -11.499   8.362  71.594  1.00  0.00    -0.258 OA 
ENDROOT
BRANCH  27  32
HETATM   32  C   UNL     1      -8.183   9.317  70.554  1.00  0.00    -0.191 C  
HETATM   33  N   UNL     1      -7.425   9.524  69.423  1.00  0.00    -0.082 N  
HETATM   34  H1  UNL     1      -6.434   9.707  69.579  1.00  0.00     0.000 HD 
HETATM   35  H2  UNL     1      -7.830   9.497  68.487  1.00  0.00     0.000 HD 
HETATM   36  O   UNL     1      -7.696   9.421  71.665  1.00  0.00    -0.294 OA 
ENDBRANCH  27  32
BRANCH  30  37
HETATM   37  N   UNL     1     -10.077   5.814  72.274  1.00  0.00    -0.181 NA 
HETATM   38  C   UNL     1     -11.532   5.750  72.432  1.00  0.00    -0.288 C  
HETATM   39  C   UNL     1      -9.486   6.028  73.604  1.00  0.00    -0.141 C  
ENDBRANCH  30  37
TORSDOF 2
ENDMDL
MODEL       48
REMARK 921   NORMALIZED FREE ENERGY PREDICTED BY IDOCK:   -5.76 KCAL/MOL
REMARK 922        TOTAL FREE ENERGY PREDICTED BY IDOCK:   -6.01 KCAL/MOL
REMARK 923 INTER-LIGAND FREE ENERGY PREDICTED BY IDOCK:   -6.38 KCAL/MOL
REMARK 924 INTRA-LIGAND FREE ENERGY PREDICTED BY IDOCK:    0.37 KCAL/MOL
REMARK 927      BINDING AFFINITY PREDICTED BY RF-SCORE:    0.00 PKD
ROOT
HETATM    1  C   UNL     1     -10.219  12.621  68.268  1.00  0.00    -0.240 C  
HETATM    2  C   UNL     1     -10.816  11.302  68.754  1.00  0.00    -0.208 C  
HETATM    3  C   UNL     1      -9.955  10.732  69.939  1.00  0.00     0.250 C  
HETATM    4  O   UNL     1     -10.903  10.331  67.715  1.00  0.00    -0.252 OA 
HETATM    5  C   UNL     1     -10.535   9.490  70.601  1.00  0.00    -0.374 C  
HETATM    6  H   UNL     1     -11.274   9.511  68.017  1.00  0.00     0.000 HD 
HETATM    7  C   UNL     1      -9.622   8.722  71.464  1.00  0.00    -0.354 A  
HETATM    8  C   UNL     1     -11.736   8.947  70.334  1.00  0.00    -0.055 C  
HETATM    9  C   UNL     1      -8.318   8.499  71.022  1.00  0.00    -0.173 A  
HETATM   10  C   UNL     1      -7.539   7.518  71.659  1.00  0.00    -0.084 A  
HETATM   11  C   UNL     1      -7.789   9.290  69.872  1.00  0.00    -0.109 C  
HETATM   12  O   UNL     1      -6.321   7.104  71.192  1.00  0.00    -0.036 OA 
HETATM   13  C   UNL     1      -8.009   6.869  72.805  1.00  0.00    -0.108 A  
HETATM   14  C   UNL     1      -8.523  10.542  69.467  1.00  0.00    -0.060 C  
HETATM   15  O   UNL     1      -6.764   8.923  69.304  1.00  0.00    -0.048 OA 
HETATM   16  H   UNL     1      -5.795   6.441  71.623  1.00  0.00     0.000 HD 
HETATM   17  C   UNL     1      -7.961  11.404  68.584  1.00  0.00    -0.141 C  
HETATM   18  C   UNL     1      -9.257   7.192  73.319  1.00  0.00    -0.193 A  
HETATM   19  O   UNL     1      -6.728  11.141  67.982  1.00  0.00    -0.061 OA 
HETATM   20  C   UNL     1      -8.727  12.537  67.892  1.00  0.00    -0.180 C  
HETATM   21  C   UNL     1     -10.073   8.108  72.644  1.00  0.00    -0.379 A  
HETATM   22  H   UNL     1      -6.334  11.745  67.364  1.00  0.00     0.000 HD 
HETATM   23  C   UNL     1      -8.232  14.051  68.060  1.00  0.00    -0.155 C  
HETATM   24  O   UNL     1      -8.604  12.159  66.508  1.00  0.00    -0.322 OA 
HETATM   25  H   UNL     1      -7.684  12.107  66.276  1.00  0.00     0.000 HD 
HETATM   26  O   UNL     1      -7.098  14.384  68.394  1.00  0.00    -0.091 OA 
HETATM   27  C   UNL     1      -9.253  15.139  67.663  1.00  0.00    -0.181 C  
HETATM   28  H   UNL     1     -10.155  14.139  64.754  1.00  0.00     0.000 HD 
HETATM   29  C   UNL     1     -10.068  14.624  66.718  1.00  0.00    -0.265 C  
HETATM   30  C   UNL     1     -11.026  13.493  67.222  1.00  0.00    -0.280 C  
HETATM   31  O   UNL     1      -9.582  14.502  65.419  1.00  0.00    -0.212 OA 
ENDROOT
BRANCH  27  32
HETATM   32  C   UNL     1     -10.029  15.834  68.739  1.00  0.00    -0.214 C  
HETATM   33  N   UNL     1     -10.938  16.775  68.311  1.00  0.00    -0.362 N  
HETATM   34  H1  UNL     1     -11.467  17.248  69.044  1.00  0.00     0.000 HD 
HETATM   35  H2  UNL     1     -11.075  16.987  67.322  1.00  0.00     0.000 HD 
HETATM   36  O   UNL     1      -9.929  15.545  69.917  1.00  0.00    -0.281 OA 
ENDBRANCH  27  32
BRANCH  30  37
HETATM   37  N   UNL     1     -11.915  12.819  66.255  1.00  0.00    -0.473 NA 
HETATM   38  C   UNL     1     -11.281  12.117  65.137  1.00  0.00    -0.329 C  
HETATM   39  C   UNL     1     -12.886  13.774  65.699  1.00  0.00    -0.408 C  
ENDBRANCH  30  37
TORSDOF 2
ENDMDL
MODEL       49
REMARK 921   NORMALIZED FREE ENERGY PREDICTED BY IDOCK:   -5.75 KCAL/MOL
REMARK 922        TOTAL FREE ENERGY PREDICTED BY IDOCK:   -6.00 KCAL/MOL
REMARK 923 INTER-LIGAND FREE ENERGY PREDICTED BY IDOCK:   -6.39 KCAL/MOL
REMARK 924 INTRA-LIGAND FREE ENERGY PREDICTED BY IDOCK:    0.39 KCAL/MOL
REMARK 927      BINDING AFFINITY PREDICTED BY RF-SCORE:    0.00 PKD
ROOT
HETATM    1  C   UNL     1      -9.515  10.261  68.309  1.00  0.00    -0.147 C  
HETATM    2  C   UNL     1     -10.355   9.188  68.998  1.00  0.00    -0.215 C  
HETATM    3  C   UNL     1      -9.597   7.811  68.958  1.00  0.00    -0.155 C  
HETATM    4  O   UNL     1     -11.642   9.043  68.404  1.00  0.00     0.084 OA 
HETATM    5  C   UNL     1     -10.274   6.695  69.742  1.00  0.00    -0.214 C  
HETATM    6  H   UNL     1     -12.164   8.376  68.833  1.00  0.00     0.000 HD 
HETATM    7  C   UNL     1      -9.812   5.326  69.460  1.00  0.00    -0.270 A  
HETATM    8  C   UNL     1     -11.357   6.833  70.526  1.00  0.00    -0.394 C  
HETATM    9  C   UNL     1      -9.595   4.955  68.133  1.00  0.00    -0.191 A  
HETATM   10  C   UNL     1      -9.469   3.592  67.816  1.00  0.00    -0.178 A  
HETATM   11  C   UNL     1      -9.525   6.011  67.080  1.00  0.00    -0.127 C  
HETATM   12  O   UNL     1      -9.432   3.118  66.533  1.00  0.00    -0.332 OA 
HETATM   13  C   UNL     1      -9.423   2.627  68.828  1.00  0.00    -0.183 A  
HETATM   14  C   UNL     1      -9.317   7.439  67.512  1.00  0.00    -0.147 C  
HETATM   15  O   UNL     1      -9.610   5.693  65.897  1.00  0.00    -0.128 OA 
HETATM   16  H   UNL     1      -9.346   2.196  66.319  1.00  0.00     0.000 HD 
HETATM   17  C   UNL     1      -9.024   8.392  66.592  1.00  0.00    -0.151 C  
HETATM   18  C   UNL     1      -9.505   3.016  70.158  1.00  0.00    -0.206 A  
HETATM   19  O   UNL     1      -8.964   8.102  65.227  1.00  0.00    -0.381 OA 
HETATM   20  C   UNL     1      -9.079   9.897  66.876  1.00  0.00    -0.142 C  
HETATM   21  C   UNL     1      -9.714   4.363  70.478  1.00  0.00    -0.287 A  
HETATM   22  H   UNL     1      -8.758   8.769  64.582  1.00  0.00     0.000 HD 
HETATM   23  C   UNL     1      -7.771  10.796  66.662  1.00  0.00    -0.141 C  
HETATM   24  O   UNL     1     -10.093  10.324  65.945  1.00  0.00    -0.246 OA 
HETATM   25  H   UNL     1      -9.825  10.099  65.062  1.00  0.00     0.000 HD 
HETATM   26  O   UNL     1      -6.815  10.484  65.958  1.00  0.00    -0.120 OA 
HETATM   27  C   UNL     1      -7.801  12.192  67.321  1.00  0.00    -0.176 C  
HETATM   28  H   UNL     1     -10.618  13.324  66.295  1.00  0.00     0.000 HD 
HETATM   29  C   UNL     1      -9.088  12.591  67.399  1.00  0.00    -0.185 C  
HETATM   30  C   UNL     1      -9.969  11.774  68.402  1.00  0.00    -0.202 C  
HETATM   31  O   UNL     1      -9.712  13.044  66.240  1.00  0.00    -0.266 OA 
ENDROOT
BRANCH  27  32
HETATM   32  C   UNL     1      -7.082  12.398  68.619  1.00  0.00    -0.103 C  
HETATM   33  N   UNL     1      -7.351  13.578  69.273  1.00  0.00    -0.314 N  
HETATM   34  H1  UNL     1      -6.861  13.718  70.157  1.00  0.00     0.000 HD 
HETATM   35  H2  UNL     1      -7.999  14.271  68.898  1.00  0.00     0.000 HD 
HETATM   36  O   UNL     1      -6.359  11.553  69.114  1.00  0.00    -0.062 OA 
ENDBRANCH  27  32
BRANCH  30  37
HETATM   37  N   UNL     1     -11.407  12.089  68.518  1.00  0.00    -0.247 NA 
HETATM   38  C   UNL     1     -11.962  13.056  67.569  1.00  0.00    -0.306 C  
HETATM   39  C   UNL     1     -11.722  12.556  69.878  1.00  0.00    -0.255 C  
ENDBRANCH  30  37
TORSDOF 2
ENDMDL
MODEL       50
REMARK 921   NORMALIZED FREE ENERGY PREDICTED BY IDOCK:   -5.61 KCAL/MOL
REMARK 922        TOTAL FREE ENERGY PREDICTED BY IDOCK:   -5.84 KCAL/MOL
REMARK 923 INTER-LIGAND FREE ENERGY PREDICTED BY IDOCK:   -6.35 KCAL/MOL
REMARK 924 INTRA-LIGAND FREE ENERGY PREDICTED BY IDOCK:    0.51 KCAL/MOL
REMARK 927      BINDING AFFINITY PREDICTED BY RF-SCORE:    0.00 PKD
ROOT
HETATM    1  C   UNL     1      -9.336  12.376  67.826  1.00  0.00    -0.196 C  
HETATM    2  C   UNL     1      -8.442  13.492  67.291  1.00  0.00    -0.193 C  
HETATM    3  C   UNL     1      -8.460  14.711  68.284  1.00  0.00    -0.158 C  
HETATM    4  O   UNL     1      -8.836  13.926  65.992  1.00  0.00    -0.373 OA 
HETATM    5  C   UNL     1      -7.491  15.830  67.926  1.00  0.00    -0.147 C  
HETATM    6  H   UNL     1      -8.279  14.621  65.660  1.00  0.00     0.000 HD 
HETATM    7  C   UNL     1      -7.707  17.121  68.600  1.00  0.00    -0.260 A  
HETATM    8  C   UNL     1      -6.580  15.793  66.938  1.00  0.00     0.206 C  
HETATM    9  C   UNL     1      -9.012  17.599  68.723  1.00  0.00    -0.207 A  
HETATM   10  C   UNL     1      -9.217  18.947  69.063  1.00  0.00    -0.184 A  
HETATM   11  C   UNL     1     -10.157  16.675  68.467  1.00  0.00    -0.266 C  
HETATM   12  O   UNL     1     -10.443  19.552  69.036  1.00  0.00    -0.539 OA 
HETATM   13  C   UNL     1      -8.137  19.766  69.410  1.00  0.00     0.138 A  
HETATM   14  C   UNL     1      -9.890  15.193  68.454  1.00  0.00    -0.223 C  
HETATM   15  O   UNL     1     -11.282  17.138  68.303  1.00  0.00    -0.229 OA 
HETATM   16  H   UNL     1     -10.582  20.463  69.266  1.00  0.00     0.000 HD 
HETATM   17  C   UNL     1     -10.926  14.317  68.451  1.00  0.00    -0.253 C  
HETATM   18  C   UNL     1      -6.850  19.247  69.416  1.00  0.00    -0.316 A  
HETATM   19  O   UNL     1     -12.253  14.747  68.401  1.00  0.00    -0.584 OA 
HETATM   20  C   UNL     1     -10.776  12.821  68.148  1.00  0.00    -0.226 C  
HETATM   21  C   UNL     1      -6.629  17.928  68.998  1.00  0.00    -0.247 A  
HETATM   22  H   UNL     1     -12.979  14.133  68.399  1.00  0.00     0.000 HD 
HETATM   23  C   UNL     1     -11.250  11.739  69.229  1.00  0.00    -0.256 C  
HETATM   24  O   UNL     1     -11.592  12.688  66.968  1.00  0.00    -0.325 OA 
HETATM   25  H   UNL     1     -12.480  12.963  67.166  1.00  0.00     0.000 HD 
HETATM   26  O   UNL     1     -12.048  11.959  70.136  1.00  0.00    -0.317 OA 
HETATM   27  C   UNL     1     -10.725  10.303  69.017  1.00  0.00    -0.257 C  
HETATM   28  H   UNL     1     -11.450   9.805  65.935  1.00  0.00     0.000 HD 
HETATM   29  C   UNL     1     -10.506  10.128  67.697  1.00  0.00    -0.245 C  
HETATM   30  C   UNL     1      -9.320  10.964  67.110  1.00  0.00    -0.159 C  
HETATM   31  O   UNL     1     -11.604   9.928  66.865  1.00  0.00     0.481 OA 
ENDROOT
BRANCH  27  32
HETATM   32  C   UNL     1      -9.564   9.827  69.834  1.00  0.00    -0.235 C  
HETATM   33  N   UNL     1      -9.693   9.965  71.198  1.00  0.00     0.004 N  
HETATM   34  H1  UNL     1      -8.902   9.642  71.755  1.00  0.00     0.000 HD 
HETATM   35  H2  UNL     1     -10.528  10.367  71.625  1.00  0.00     0.000 HD 
HETATM   36  O   UNL     1      -8.590   9.283  69.346  1.00  0.00    -0.129 OA 
ENDBRANCH  27  32
BRANCH  30  37
HETATM   37  N   UNL     1      -9.035  10.894  65.663  1.00  0.00    -0.191 NA 
HETATM   38  C   UNL     1     -10.183  10.845  64.755  1.00  0.00    -0.333 C  
HETATM   39  C   UNL     1      -8.173   9.739  65.366  1.00  0.00    -0.131 C  
ENDBRANCH  30  37
TORSDOF 2
ENDMDL
MODEL       51
REMARK 921   NORMALIZED FREE ENERGY PREDICTED BY IDOCK:   -5.58 KCAL/MOL
REMARK 922        TOTAL FREE ENERGY PREDICTED BY IDOCK:   -5.80 KCAL/MOL
REMARK 923 INTER-LIGAND FREE ENERGY PREDICTED BY IDOCK:   -6.11 KCAL/MOL
REMARK 924 INTRA-LIGAND FREE ENERGY PREDICTED BY IDOCK:    0.32 KCAL/MOL
REMARK 927      BINDING AFFINITY PREDICTED BY RF-SCORE:    0.00 PKD
ROOT
HETATM    1  C   UNL     1      -9.185   9.030  65.992  1.00  0.00    -0.284 C  
HETATM    2  C   UNL     1      -9.466   7.757  66.786  1.00  0.00    -0.197 C  
HETATM    3  C   UNL     1     -10.087   8.126  68.183  1.00  0.00    -0.237 C  
HETATM    4  O   UNL     1      -8.296   6.967  66.976  1.00  0.00    -0.118 OA 
HETATM    5  C   UNL     1     -10.543   6.930  69.007  1.00  0.00    -0.240 C  
HETATM    6  H   UNL     1      -8.471   6.175  67.470  1.00  0.00     0.000 HD 
HETATM    7  C   UNL     1     -10.802   7.181  70.434  1.00  0.00    -0.269 A  
HETATM    8  C   UNL     1     -10.562   5.651  68.590  1.00  0.00    -0.268 C  
HETATM    9  C   UNL     1      -9.902   7.974  71.146  1.00  0.00    -0.198 A  
HETATM   10  C   UNL     1      -9.945   7.966  72.550  1.00  0.00    -0.249 A  
HETATM   11  C   UNL     1      -8.901   8.795  70.400  1.00  0.00    -0.168 C  
HETATM   12  O   UNL     1      -9.000   8.566  73.335  1.00  0.00    -0.263 OA 
HETATM   13  C   UNL     1     -10.961   7.282  73.227  1.00  0.00    -0.355 A  
HETATM   14  C   UNL     1      -9.125   9.033  68.930  1.00  0.00    -0.140 C  
HETATM   15  O   UNL     1      -7.943   9.273  71.001  1.00  0.00    -0.250 OA 
HETATM   16  H   UNL     1      -9.030   8.560  74.285  1.00  0.00     0.000 HD 
HETATM   17  C   UNL     1      -8.373   9.948  68.268  1.00  0.00    -0.110 C  
HETATM   18  C   UNL     1     -11.935   6.603  72.508  1.00  0.00    -0.089 A  
HETATM   19  O   UNL     1      -7.343  10.648  68.899  1.00  0.00    -0.083 OA 
HETATM   20  C   UNL     1      -8.318  10.062  66.740  1.00  0.00    -0.125 C  
HETATM   21  C   UNL     1     -11.851   6.538  71.112  1.00  0.00    -0.383 A  
HETATM   22  H   UNL     1      -6.816  11.289  68.436  1.00  0.00     0.000 HD 
HETATM   23  C   UNL     1      -8.713  11.441  66.030  1.00  0.00    -0.131 C  
HETATM   24  O   UNL     1      -6.926   9.790  66.487  1.00  0.00    -0.083 OA 
HETATM   25  H   UNL     1      -6.392  10.425  66.948  1.00  0.00     0.000 HD 
HETATM   26  O   UNL     1      -8.719  12.537  66.584  1.00  0.00    -0.187 OA 
HETATM   27  C   UNL     1      -8.996  11.359  64.514  1.00  0.00     0.173 C  
HETATM   28  H   UNL     1      -6.409   9.784  63.465  1.00  0.00     0.000 HD 
HETATM   29  C   UNL     1      -8.281  10.331  64.010  1.00  0.00    -0.151 C  
HETATM   30  C   UNL     1      -8.752   8.913  64.474  1.00  0.00    -0.086 C  
HETATM   31  O   UNL     1      -6.913  10.507  63.819  1.00  0.00    -0.038 OA 
ENDROOT
BRANCH  27  32
HETATM   32  C   UNL     1     -10.417  11.324  64.042  1.00  0.00    -0.378 C  
HETATM   33  N   UNL     1     -10.599  11.049  62.706  1.00  0.00    -0.778 N  
HETATM   34  H1  UNL     1     -11.566  11.025  62.385  1.00  0.00     0.000 HD 
HETATM   35  H2  UNL     1      -9.814  10.879  62.075  1.00  0.00     0.000 HD 
HETATM   36  O   UNL     1     -11.366  11.456  64.793  1.00  0.00    -0.195 OA 
ENDBRANCH  27  32
BRANCH  30  37
HETATM   37  N   UNL     1      -7.999   7.723  64.029  1.00  0.00    -0.127 NA 
HETATM   38  C   UNL     1      -6.553   7.719  64.260  1.00  0.00    -0.056 C  
HETATM   39  C   UNL     1      -8.230   7.475  62.597  1.00  0.00    -0.053 C  
ENDBRANCH  30  37
TORSDOF 2
ENDMDL
MODEL       52
REMARK 921   NORMALIZED FREE ENERGY PREDICTED BY IDOCK:   -5.57 KCAL/MOL
REMARK 922        TOTAL FREE ENERGY PREDICTED BY IDOCK:   -5.79 KCAL/MOL
REMARK 923 INTER-LIGAND FREE ENERGY PREDICTED BY IDOCK:   -5.88 KCAL/MOL
REMARK 924 INTRA-LIGAND FREE ENERGY PREDICTED BY IDOCK:    0.09 KCAL/MOL
REMARK 927      BINDING AFFINITY PREDICTED BY RF-SCORE:    0.00 PKD
ROOT
HETATM    1  C   UNL     1      -8.507   8.028  68.179  1.00  0.00    -0.123 C  
HETATM    2  C   UNL     1      -8.220   9.525  68.265  1.00  0.00    -0.113 C  
HETATM    3  C   UNL     1      -9.328  10.325  67.488  1.00  0.00    -0.164 C  
HETATM    4  O   UNL     1      -6.936   9.861  67.747  1.00  0.00    -0.083 OA 
HETATM    5  C   UNL     1      -9.226  11.838  67.624  1.00  0.00    -0.180 C  
HETATM    6  H   UNL     1      -6.757  10.792  67.800  1.00  0.00     0.000 HD 
HETATM    7  C   UNL     1     -10.002  12.634  66.658  1.00  0.00    -0.247 A  
HETATM    8  C   UNL     1      -8.370  12.498  68.422  1.00  0.00    -0.132 C  
HETATM    9  C   UNL     1     -10.002  12.244  65.319  1.00  0.00    -0.250 A  
HETATM   10  C   UNL     1     -10.457  13.147  64.343  1.00  0.00    -0.407 A  
HETATM   11  C   UNL     1      -9.498  10.886  64.952  1.00  0.00    -0.235 C  
HETATM   12  O   UNL     1     -10.333  12.927  62.999  1.00  0.00    -0.208 OA 
HETATM   13  C   UNL     1     -11.031  14.367  64.715  1.00  0.00    -0.409 A  
HETATM   14  C   UNL     1      -9.359   9.857  66.043  1.00  0.00    -0.240 C  
HETATM   15  O   UNL     1      -9.237  10.634  63.779  1.00  0.00    -0.214 OA 
HETATM   16  H   UNL     1     -10.641  13.538  62.339  1.00  0.00     0.000 HD 
HETATM   17  C   UNL     1      -9.123   8.559  65.726  1.00  0.00    -0.167 C  
HETATM   18  C   UNL     1     -11.151  14.693  66.059  1.00  0.00    -0.332 A  
HETATM   19  O   UNL     1      -8.945   8.145  64.404  1.00  0.00    -0.293 OA 
HETATM   20  C   UNL     1      -8.682   7.500  66.742  1.00  0.00    -0.133 C  
HETATM   21  C   UNL     1     -10.625  13.836  67.033  1.00  0.00    -0.278 A  
HETATM   22  H   UNL     1      -8.780   7.237  64.182  1.00  0.00     0.000 HD 
HETATM   23  C   UNL     1      -9.567   6.181  66.952  1.00  0.00    -0.142 C  
HETATM   24  O   UNL     1      -7.397   7.118  66.214  1.00  0.00    -0.073 OA 
HETATM   25  H   UNL     1      -7.504   6.793  65.328  1.00  0.00     0.000 HD 
HETATM   26  O   UNL     1     -10.378   5.747  66.140  1.00  0.00    -0.101 OA 
HETATM   27  C   UNL     1      -9.271   5.371  68.233  1.00  0.00    -0.125 C  
HETATM   28  H   UNL     1      -6.084   5.066  68.075  1.00  0.00     0.000 HD 
HETATM   29  C   UNL     1      -7.980   5.577  68.570  1.00  0.00    -0.088 C  
HETATM   30  C   UNL     1      -7.651   7.027  69.057  1.00  0.00    -0.104 C  
HETATM   31  O   UNL     1      -6.993   4.921  67.839  1.00  0.00    -0.058 OA 
ENDROOT
BRANCH  27  32
HETATM   32  C   UNL     1     -10.178   5.525  69.414  1.00  0.00    -0.259 C  
HETATM   33  N   UNL     1     -11.384   6.141  69.168  1.00  0.00    -0.446 N  
HETATM   34  H1  UNL     1     -12.002   6.246  69.973  1.00  0.00     0.000 HD 
HETATM   35  H2  UNL     1     -11.644   6.473  68.239  1.00  0.00     0.000 HD 
HETATM   36  O   UNL     1      -9.914   5.074  70.514  1.00  0.00    -0.206 OA 
ENDBRANCH  27  32
BRANCH  30  37
HETATM   37  N   UNL     1      -6.255   7.375  69.391  1.00  0.00    -0.031 NA 
HETATM   38  C   UNL     1      -5.216   6.964  68.444  1.00  0.00    -0.016 C  
HETATM   39  C   UNL     1      -5.897   6.844  70.716  1.00  0.00    -0.027 C  
ENDBRANCH  30  37
TORSDOF 2
ENDMDL
MODEL       53
REMARK 921   NORMALIZED FREE ENERGY PREDICTED BY IDOCK:   -5.55 KCAL/MOL
REMARK 922        TOTAL FREE ENERGY PREDICTED BY IDOCK:   -5.77 KCAL/MOL
REMARK 923 INTER-LIGAND FREE ENERGY PREDICTED BY IDOCK:   -5.91 KCAL/MOL
REMARK 924 INTRA-LIGAND FREE ENERGY PREDICTED BY IDOCK:    0.15 KCAL/MOL
REMARK 927      BINDING AFFINITY PREDICTED BY RF-SCORE:    0.00 PKD
ROOT
HETATM    1  C   UNL     1      -9.053   9.486  68.809  1.00  0.00    -0.133 C  
HETATM    2  C   UNL     1     -10.264   8.815  69.452  1.00  0.00    -0.210 C  
HETATM    3  C   UNL     1      -9.787   7.693  70.445  1.00  0.00    -0.183 C  
HETATM    4  O   UNL     1     -11.150   8.255  68.487  1.00  0.00    -0.415 OA 
HETATM    5  C   UNL     1     -10.905   7.049  71.255  1.00  0.00    -0.260 C  
HETATM    6  H   UNL     1     -11.904   7.837  68.888  1.00  0.00     0.000 HD 
HETATM    7  C   UNL     1     -10.577   5.782  71.928  1.00  0.00    -0.285 A  
HETATM    8  C   UNL     1     -12.191   7.441  71.267  1.00  0.00    -0.374 C  
HETATM    9  C   UNL     1      -9.842   4.825  71.226  1.00  0.00    -0.256 A  
HETATM   10  C   UNL     1      -9.793   3.508  71.714  1.00  0.00    -0.160 A  
HETATM   11  C   UNL     1      -9.146   5.217  69.965  1.00  0.00    -0.123 C  
HETATM   12  O   UNL     1      -9.252   2.466  71.012  1.00  0.00    -0.104 OA 
HETATM   13  C   UNL     1     -10.355   3.187  72.954  1.00  0.00    -0.248 A  
HETATM   14  C   UNL     1      -8.944   6.683  69.686  1.00  0.00    -0.142 C  
HETATM   15  O   UNL     1      -8.734   4.345  69.205  1.00  0.00    -0.081 OA 
HETATM   16  H   UNL     1      -9.219   1.575  71.343  1.00  0.00     0.000 HD 
HETATM   17  C   UNL     1      -8.127   7.076  68.676  1.00  0.00    -0.121 C  
HETATM   18  C   UNL     1     -10.969   4.174  73.711  1.00  0.00    -0.331 A  
HETATM   19  O   UNL     1      -7.501   6.154  67.835  1.00  0.00    -0.082 OA 
HETATM   20  C   UNL     1      -8.078   8.507  68.127  1.00  0.00    -0.119 C  
HETATM   21  C   UNL     1     -11.095   5.470  73.196  1.00  0.00    -0.337 A  
HETATM   22  H   UNL     1      -6.929   6.429  67.128  1.00  0.00     0.000 HD 
HETATM   23  C   UNL     1      -6.696   9.316  68.138  1.00  0.00    -0.060 C  
HETATM   24  O   UNL     1      -8.485   8.300  66.761  1.00  0.00    -0.117 OA 
HETATM   25  H   UNL     1      -7.884   7.696  66.341  1.00  0.00     0.000 HD 
HETATM   26  O   UNL     1      -5.584   8.800  68.212  1.00  0.00    -0.037 OA 
HETATM   27  C   UNL     1      -6.810  10.842  67.932  1.00  0.00    -0.072 C  
HETATM   28  H   UNL     1      -8.653  10.998  65.315  1.00  0.00     0.000 HD 
HETATM   29  C   UNL     1      -7.917  11.084  67.199  1.00  0.00    -0.135 C  
HETATM   30  C   UNL     1      -9.268  10.785  67.931  1.00  0.00    -0.150 C  
HETATM   31  O   UNL     1      -7.874  10.828  65.831  1.00  0.00    -0.158 OA 
ENDROOT
BRANCH  27  32
HETATM   32  C   UNL     1      -6.732  11.743  69.125  1.00  0.00    -0.110 C  
HETATM   33  N   UNL     1      -6.338  11.147  70.303  1.00  0.00    -0.191 N  
HETATM   34  H1  UNL     1      -6.286  11.761  71.115  1.00  0.00     0.000 HD 
HETATM   35  H2  UNL     1      -6.113  10.153  70.358  1.00  0.00     0.000 HD 
HETATM   36  O   UNL     1      -6.930  12.942  69.062  1.00  0.00    -0.101 OA 
ENDBRANCH  27  32
BRANCH  30  37
HETATM   37  N   UNL     1     -10.537  10.957  67.197  1.00  0.00    -0.240 NA 
HETATM   38  C   UNL     1     -10.464  11.545  65.858  1.00  0.00    -0.255 C  
HETATM   39  C   UNL     1     -11.485  11.755  67.992  1.00  0.00    -0.319 C  
ENDBRANCH  30  37
TORSDOF 2
ENDMDL
MODEL       54
REMARK 921   NORMALIZED FREE ENERGY PREDICTED BY IDOCK:   -5.52 KCAL/MOL
REMARK 922        TOTAL FREE ENERGY PREDICTED BY IDOCK:   -5.73 KCAL/MOL
REMARK 923 INTER-LIGAND FREE ENERGY PREDICTED BY IDOCK:   -5.88 KCAL/MOL
REMARK 924 INTRA-LIGAND FREE ENERGY PREDICTED BY IDOCK:    0.15 KCAL/MOL
REMARK 927      BINDING AFFINITY PREDICTED BY RF-SCORE:    0.00 PKD
ROOT
HETATM    1  C   UNL     1      -8.529   9.775  67.627  1.00  0.00    -0.122 C  
HETATM    2  C   UNL     1      -9.022  10.777  66.587  1.00  0.00    -0.153 C  
HETATM    3  C   UNL     1      -9.079  12.216  67.218  1.00  0.00    -0.181 C  
HETATM    4  O   UNL     1     -10.303  10.432  66.066  1.00  0.00    -0.241 OA 
HETATM    5  C   UNL     1      -9.421  13.325  66.232  1.00  0.00    -0.196 C  
HETATM    6  H   UNL     1     -10.609  11.056  65.419  1.00  0.00     0.000 HD 
HETATM    7  C   UNL     1      -9.826  14.615  66.814  1.00  0.00    -0.262 A  
HETATM    8  C   UNL     1      -9.550  13.179  64.901  1.00  0.00     0.254 C  
HETATM    9  C   UNL     1     -10.705  14.610  67.898  1.00  0.00    -0.250 A  
HETATM   10  C   UNL     1     -11.349  15.805  68.261  1.00  0.00    -0.354 A  
HETATM   11  C   UNL     1     -10.956  13.334  68.631  1.00  0.00    -0.264 C  
HETATM   12  O   UNL     1     -12.353  15.867  69.188  1.00  0.00    -0.522 OA 
HETATM   13  C   UNL     1     -11.015  17.012  67.637  1.00  0.00    -0.164 A  
HETATM   14  C   UNL     1      -9.995  12.192  68.429  1.00  0.00    -0.206 C  
HETATM   15  O   UNL     1     -11.915  13.253  69.395  1.00  0.00    -0.306 OA 
HETATM   16  H   UNL     1     -12.788  16.676  69.433  1.00  0.00     0.000 HD 
HETATM   17  C   UNL     1     -10.055  11.103  69.236  1.00  0.00    -0.041 C  
HETATM   18  C   UNL     1     -10.040  17.032  66.649  1.00  0.00    -0.308 A  
HETATM   19  O   UNL     1     -11.028  10.976  70.229  1.00  0.00    -0.467 OA 
HETATM   20  C   UNL     1      -9.333   9.783  68.942  1.00  0.00    -0.158 C  
HETATM   21  C   UNL     1      -9.454  15.834  66.224  1.00  0.00    -0.349 A  
HETATM   22  H   UNL     1     -11.070  10.214  70.795  1.00  0.00     0.000 HD 
HETATM   23  C   UNL     1      -8.287   9.194  70.003  1.00  0.00    -0.150 C  
HETATM   24  O   UNL     1     -10.443   8.873  68.829  1.00  0.00    -0.217 OA 
HETATM   25  H   UNL     1     -10.939   8.878  69.639  1.00  0.00     0.000 HD 
HETATM   26  O   UNL     1      -8.253   9.496  71.192  1.00  0.00    -0.295 OA 
HETATM   27  C   UNL     1      -7.342   8.094  69.473  1.00  0.00    -0.081 C  
HETATM   28  H   UNL     1      -9.416   6.080  68.090  1.00  0.00     0.000 HD 
HETATM   29  C   UNL     1      -7.973   7.447  68.470  1.00  0.00    -0.124 C  
HETATM   30  C   UNL     1      -8.188   8.297  67.174  1.00  0.00    -0.119 C  
HETATM   31  O   UNL     1      -8.973   6.535  68.796  1.00  0.00    -0.125 OA 
ENDROOT
BRANCH  27  32
HETATM   32  C   UNL     1      -5.941   8.461  69.096  1.00  0.00    -0.042 C  
HETATM   33  N   UNL     1      -5.535   9.727  69.454  1.00  0.00    -0.035 N  
HETATM   34  H1  UNL     1      -4.580   9.977  69.197  1.00  0.00     0.000 HD 
HETATM   35  H2  UNL     1      -6.151  10.375  69.946  1.00  0.00     0.000 HD 
HETATM   36  O   UNL     1      -5.170   7.678  68.571  1.00  0.00    -0.024 OA 
ENDBRANCH  27  32
BRANCH  30  37
HETATM   37  N   UNL     1      -8.923   7.705  66.038  1.00  0.00    -0.164 NA 
HETATM   38  C   UNL     1      -9.396   6.327  66.190  1.00  0.00    -0.087 C  
HETATM   39  C   UNL     1      -8.113   7.773  64.812  1.00  0.00    -0.131 C  
ENDBRANCH  30  37
TORSDOF 2
ENDMDL
MODEL       55
REMARK 921   NORMALIZED FREE ENERGY PREDICTED BY IDOCK:   -5.47 KCAL/MOL
REMARK 922        TOTAL FREE ENERGY PREDICTED BY IDOCK:   -5.68 KCAL/MOL
REMARK 923 INTER-LIGAND FREE ENERGY PREDICTED BY IDOCK:   -6.85 KCAL/MOL
REMARK 924 INTRA-LIGAND FREE ENERGY PREDICTED BY IDOCK:    1.16 KCAL/MOL
REMARK 927      BINDING AFFINITY PREDICTED BY RF-SCORE:    0.00 PKD
ROOT
HETATM    1  C   UNL     1     -10.876  14.173  67.460  1.00  0.00    -0.280 C  
HETATM    2  C   UNL     1     -10.700  15.421  68.321  1.00  0.00    -0.260 C  
HETATM    3  C   UNL     1      -9.895  16.511  67.522  1.00  0.00    -0.248 C  
HETATM    4  O   UNL     1     -10.037  15.142  69.551  1.00  0.00    -0.239 OA 
HETATM    5  C   UNL     1      -9.781  17.855  68.228  1.00  0.00    -0.327 C  
HETATM    6  H   UNL     1      -9.927  15.919  70.087  1.00  0.00     0.000 HD 
HETATM    7  C   UNL     1      -8.765  18.783  67.704  1.00  0.00    -0.300 A  
HETATM    8  C   UNL     1     -10.395  18.194  69.375  1.00  0.00     0.216 C  
HETATM    9  C   UNL     1      -7.509  18.277  67.369  1.00  0.00    -0.219 A  
HETATM   10  C   UNL     1      -6.441  19.170  67.177  1.00  0.00    -0.188 A  
HETATM   11  C   UNL     1      -7.324  16.800  67.244  1.00  0.00    -0.175 C  
HETATM   12  O   UNL     1      -5.143  18.767  67.022  1.00  0.00    -0.137 OA 
HETATM   13  C   UNL     1      -6.658  20.552  67.186  1.00  0.00    -0.309 A  
HETATM   14  C   UNL     1      -8.550  15.935  67.115  1.00  0.00    -0.221 C  
HETATM   15  O   UNL     1      -6.189  16.332  67.224  1.00  0.00    -0.161 OA 
HETATM   16  H   UNL     1      -4.421  19.372  66.892  1.00  0.00     0.000 HD 
HETATM   17  C   UNL     1      -8.425  14.627  66.776  1.00  0.00    -0.110 C  
HETATM   18  C   UNL     1      -7.938  21.049  67.387  1.00  0.00    -0.085 A  
HETATM   19  O   UNL     1      -7.176  14.029  66.596  1.00  0.00    -0.006 OA 
HETATM   20  C   UNL     1      -9.559  13.602  66.899  1.00  0.00    -0.262 C  
HETATM   21  C   UNL     1      -8.992  20.168  67.660  1.00  0.00    -0.412 A  
HETATM   22  H   UNL     1      -7.088  13.114  66.359  1.00  0.00     0.000 HD 
HETATM   23  C   UNL     1     -10.044  12.794  65.605  1.00  0.00    -0.270 C  
HETATM   24  O   UNL     1      -8.999  12.673  67.846  1.00  0.00    -0.173 OA 
HETATM   25  H   UNL     1      -8.187  12.321  67.501  1.00  0.00     0.000 HD 
HETATM   26  O   UNL     1      -9.377  12.639  64.586  1.00  0.00     0.308 OA 
HETATM   27  C   UNL     1     -11.410  12.084  65.730  1.00  0.00    -0.384 C  
HETATM   28  H   UNL     1     -11.054  10.489  68.486  1.00  0.00     0.000 HD 
HETATM   29  C   UNL     1     -11.608  11.782  67.030  1.00  0.00    -0.244 C  
HETATM   30  C   UNL     1     -11.832  13.017  67.965  1.00  0.00    -0.347 C  
HETATM   31  O   UNL     1     -10.915  10.702  67.571  1.00  0.00    -0.279 OA 
ENDROOT
BRANCH  27  32
HETATM   32  C   UNL     1     -12.620  12.728  65.125  1.00  0.00    -0.444 C  
HETATM   33  N   UNL     1     -12.640  14.105  65.144  1.00  0.00    -0.602 N  
HETATM   34  H1  UNL     1     -13.463  14.543  64.732  1.00  0.00     0.000 HD 
HETATM   35  H2  UNL     1     -11.878  14.652  65.545  1.00  0.00     0.000 HD 
HETATM   36  O   UNL     1     -13.504  12.093  64.580  1.00  0.00    -0.513 OA 
ENDBRANCH  27  32
BRANCH  30  37
HETATM   37  N   UNL     1     -11.996  12.800  69.417  1.00  0.00    -0.291 NA 
HETATM   38  C   UNL     1     -12.331  11.445  69.859  1.00  0.00    -0.214 C  
HETATM   39  C   UNL     1     -13.009  13.718  69.961  1.00  0.00     0.330 C  
ENDBRANCH  30  37
TORSDOF 2
ENDMDL
MODEL       56
REMARK 921   NORMALIZED FREE ENERGY PREDICTED BY IDOCK:   -5.46 KCAL/MOL
REMARK 922        TOTAL FREE ENERGY PREDICTED BY IDOCK:   -5.66 KCAL/MOL
REMARK 923 INTER-LIGAND FREE ENERGY PREDICTED BY IDOCK:   -5.76 KCAL/MOL
REMARK 924 INTRA-LIGAND FREE ENERGY PREDICTED BY IDOCK:    0.09 KCAL/MOL
REMARK 927      BINDING AFFINITY PREDICTED BY RF-SCORE:    0.00 PKD
ROOT
HETATM    1  C   UNL     1      -7.931   7.678  67.206  1.00  0.00    -0.118 C  
HETATM    2  C   UNL     1      -7.860   8.254  68.618  1.00  0.00    -0.120 C  
HETATM    3  C   UNL     1      -8.339   7.176  69.658  1.00  0.00    -0.133 C  
HETATM    4  O   UNL     1      -8.641   9.437  68.761  1.00  0.00    -0.123 OA 
HETATM    5  C   UNL     1      -8.177   7.588  71.114  1.00  0.00    -0.101 C  
HETATM    6  H   UNL     1      -8.597   9.795  69.640  1.00  0.00     0.000 HD 
HETATM    7  C   UNL     1      -8.914   6.787  72.105  1.00  0.00    -0.135 A  
HETATM    8  C   UNL     1      -7.568   8.705  71.550  1.00  0.00    -0.134 C  
HETATM    9  C   UNL     1     -10.232   6.426  71.824  1.00  0.00    -0.222 A  
HETATM   10  C   UNL     1     -11.048   5.951  72.865  1.00  0.00    -0.269 A  
HETATM   11  C   UNL     1     -10.750   6.575  70.431  1.00  0.00    -0.255 C  
HETATM   12  O   UNL     1     -12.393   5.740  72.730  1.00  0.00    -0.541 OA 
HETATM   13  C   UNL     1     -10.514   5.711  74.135  1.00  0.00    -0.281 A  
HETATM   14  C   UNL     1      -9.756   6.748  69.314  1.00  0.00    -0.153 C  
HETATM   15  O   UNL     1     -11.960   6.526  70.227  1.00  0.00    -0.394 OA 
HETATM   16  H   UNL     1     -12.944   5.418  73.434  1.00  0.00     0.000 HD 
HETATM   17  C   UNL     1     -10.163   6.662  68.022  1.00  0.00    -0.167 C  
HETATM   18  C   UNL     1      -9.167   5.946  74.374  1.00  0.00    -0.138 A  
HETATM   19  O   UNL     1     -11.505   6.471  67.685  1.00  0.00    -0.694 OA 
HETATM   20  C   UNL     1      -9.310   7.103  66.827  1.00  0.00    -0.161 C  
HETATM   21  C   UNL     1      -8.366   6.498  73.366  1.00  0.00    -0.124 A  
HETATM   22  H   UNL     1     -11.790   6.409  66.782  1.00  0.00     0.000 HD 
HETATM   23  C   UNL     1      -8.953   6.051  65.674  1.00  0.00    -0.064 C  
HETATM   24  O   UNL     1     -10.127   8.149  66.267  1.00  0.00    -0.466 OA 
HETATM   25  H   UNL     1     -10.976   7.794  66.034  1.00  0.00     0.000 HD 
HETATM   26  O   UNL     1      -9.576   5.017  65.451  1.00  0.00    -0.138 OA 
HETATM   27  C   UNL     1      -7.800   6.457  64.729  1.00  0.00    -0.111 C  
HETATM   28  H   UNL     1      -8.682   9.419  63.880  1.00  0.00     0.000 HD 
HETATM   29  C   UNL     1      -7.756   7.805  64.678  1.00  0.00    -0.121 C  
HETATM   30  C   UNL     1      -7.304   8.499  66.006  1.00  0.00    -0.081 C  
HETATM   31  O   UNL     1      -8.713   8.471  63.916  1.00  0.00    -0.020 OA 
ENDROOT
BRANCH  27  32
HETATM   32  C   UNL     1      -6.441   5.870  64.949  1.00  0.00    -0.038 C  
HETATM   33  N   UNL     1      -6.369   4.852  65.873  1.00  0.00    -0.038 N  
HETATM   34  H1  UNL     1      -5.443   4.452  66.024  1.00  0.00     0.000 HD 
HETATM   35  H2  UNL     1      -7.192   4.518  66.377  1.00  0.00     0.000 HD 
HETATM   36  O   UNL     1      -5.463   6.208  64.309  1.00  0.00    -0.017 OA 
ENDBRANCH  27  32
BRANCH  30  37
HETATM   37  N   UNL     1      -7.281   9.973  66.076  1.00  0.00    -0.106 NA 
HETATM   38  C   UNL     1      -8.451  10.688  65.561  1.00  0.00    -0.175 C  
HETATM   39  C   UNL     1      -6.090  10.501  65.392  1.00  0.00    -0.122 C  
ENDBRANCH  30  37
TORSDOF 2
ENDMDL
MODEL       57
REMARK 921   NORMALIZED FREE ENERGY PREDICTED BY IDOCK:   -5.30 KCAL/MOL
REMARK 922        TOTAL FREE ENERGY PREDICTED BY IDOCK:   -5.49 KCAL/MOL
REMARK 923 INTER-LIGAND FREE ENERGY PREDICTED BY IDOCK:   -5.76 KCAL/MOL
REMARK 924 INTRA-LIGAND FREE ENERGY PREDICTED BY IDOCK:    0.27 KCAL/MOL
REMARK 927      BINDING AFFINITY PREDICTED BY RF-SCORE:    0.00 PKD
ROOT
HETATM    1  C   UNL     1      -8.742   7.169  67.686  1.00  0.00    -0.121 C  
HETATM    2  C   UNL     1      -9.325   8.347  66.908  1.00  0.00    -0.174 C  
HETATM    3  C   UNL     1      -9.310   9.638  67.806  1.00  0.00    -0.142 C  
HETATM    4  O   UNL     1     -10.652   8.094  66.456  1.00  0.00    -0.398 OA 
HETATM    5  C   UNL     1      -9.736  10.911  67.087  1.00  0.00    -0.199 C  
HETATM    6  H   UNL     1     -11.014   8.827  65.972  1.00  0.00     0.000 HD 
HETATM    7  C   UNL     1     -10.074  12.061  67.942  1.00  0.00    -0.199 A  
HETATM    8  C   UNL     1      -9.993  11.021  65.772  1.00  0.00    -0.294 C  
HETATM    9  C   UNL     1     -10.845  11.840  69.084  1.00  0.00    -0.221 A  
HETATM   10  C   UNL     1     -11.442  12.936  69.728  1.00  0.00    -0.132 A  
HETATM   11  C   UNL     1     -11.035  10.444  69.579  1.00  0.00    -0.262 C  
HETATM   12  O   UNL     1     -12.352  12.809  70.741  1.00  0.00    -0.368 OA 
HETATM   13  C   UNL     1     -11.160  14.244  69.318  1.00  0.00    -0.297 A  
HETATM   14  C   UNL     1     -10.107   9.373  69.071  1.00  0.00    -0.202 C  
HETATM   15  O   UNL     1     -11.917  10.209  70.401  1.00  0.00    -0.268 OA 
HETATM   16  H   UNL     1     -12.756  13.551  71.177  1.00  0.00     0.000 HD 
HETATM   17  C   UNL     1     -10.097   8.149  69.657  1.00  0.00    -0.199 C  
HETATM   18  C   UNL     1     -10.284  14.463  68.263  1.00  0.00    -0.241 A  
HETATM   19  O   UNL     1     -10.972   7.823  70.696  1.00  0.00    -0.241 OA 
HETATM   20  C   UNL     1      -9.417   6.917  69.048  1.00  0.00    -0.137 C  
HETATM   21  C   UNL     1      -9.750  13.374  67.564  1.00  0.00    -0.224 A  
HETATM   22  H   UNL     1     -10.965   6.967  71.106  1.00  0.00     0.000 HD 
HETATM   23  C   UNL     1      -8.279   6.148  69.872  1.00  0.00    -0.120 C  
HETATM   24  O   UNL     1     -10.540   6.033  68.869  1.00  0.00    -0.227 OA 
HETATM   25  H   UNL     1     -10.956   5.878  69.708  1.00  0.00     0.000 HD 
HETATM   26  O   UNL     1      -8.129   6.216  71.089  1.00  0.00    -0.117 OA 
HETATM   27  C   UNL     1      -7.397   5.179  69.054  1.00  0.00    -0.061 C  
HETATM   28  H   UNL     1      -9.610   3.445  67.515  1.00  0.00     0.000 HD 
HETATM   29  C   UNL     1      -8.126   4.730  68.011  1.00  0.00    -0.089 C  
HETATM   30  C   UNL     1      -8.457   5.809  66.927  1.00  0.00    -0.108 C  
HETATM   31  O   UNL     1      -9.097   3.761  68.249  1.00  0.00    -0.119 OA 
ENDROOT
BRANCH  27  32
HETATM   32  C   UNL     1      -6.035   5.627  68.623  1.00  0.00    -0.024 C  
HETATM   33  N   UNL     1      -5.313   4.721  67.880  1.00  0.00    -0.011 N  
HETATM   34  H1  UNL     1      -4.386   5.026  67.585  1.00  0.00     0.000 HD 
HETATM   35  H2  UNL     1      -5.682   3.800  67.638  1.00  0.00     0.000 HD 
HETATM   36  O   UNL     1      -5.607   6.745  68.842  1.00  0.00    -0.016 OA 
ENDBRANCH  27  32
BRANCH  30  37
HETATM   37  N   UNL     1      -9.302   5.437  65.775  1.00  0.00    -0.148 NA 
HETATM   38  C   UNL     1     -10.528   4.687  66.055  1.00  0.00    -0.264 C  
HETATM   39  C   UNL     1      -8.518   4.673  64.791  1.00  0.00    -0.137 C  
ENDBRANCH  30  37
TORSDOF 2
ENDMDL
MODEL       58
REMARK 921   NORMALIZED FREE ENERGY PREDICTED BY IDOCK:   -5.27 KCAL/MOL
REMARK 922        TOTAL FREE ENERGY PREDICTED BY IDOCK:   -5.45 KCAL/MOL
REMARK 923 INTER-LIGAND FREE ENERGY PREDICTED BY IDOCK:   -5.60 KCAL/MOL
REMARK 924 INTRA-LIGAND FREE ENERGY PREDICTED BY IDOCK:    0.14 KCAL/MOL
REMARK 927      BINDING AFFINITY PREDICTED BY RF-SCORE:    0.00 PKD
ROOT
HETATM    1  C   UNL     1      -9.061   9.036  68.079  1.00  0.00    -0.140 C  
HETATM    2  C   UNL     1      -9.971  10.183  68.513  1.00  0.00    -0.163 C  
HETATM    3  C   UNL     1      -9.886  11.356  67.469  1.00  0.00    -0.194 C  
HETATM    4  O   UNL     1      -9.644  10.674  69.810  1.00  0.00    -0.427 OA 
HETATM    5  C   UNL     1     -10.860  12.498  67.721  1.00  0.00    -0.254 C  
HETATM    6  H   UNL     1     -10.210  11.387  70.080  1.00  0.00     0.000 HD 
HETATM    7  C   UNL     1     -10.594  13.754  67.001  1.00  0.00    -0.278 A  
HETATM    8  C   UNL     1     -11.824  12.514  68.658  1.00  0.00    -0.340 C  
HETATM    9  C   UNL     1      -9.278  14.215  66.929  1.00  0.00    -0.270 A  
HETATM   10  C   UNL     1      -9.041  15.544  66.539  1.00  0.00    -0.302 A  
HETATM   11  C   UNL     1      -8.159  13.295  67.289  1.00  0.00    -0.142 C  
HETATM   12  O   UNL     1      -7.810  16.139  66.607  1.00  0.00    -0.240 OA 
HETATM   13  C   UNL     1     -10.091  16.355  66.097  1.00  0.00    -0.364 A  
HETATM   14  C   UNL     1      -8.443  11.817  67.356  1.00  0.00    -0.158 C  
HETATM   15  O   UNL     1      -7.039  13.754  67.494  1.00  0.00    -0.173 OA 
HETATM   16  H   UNL     1      -7.650  17.038  66.343  1.00  0.00     0.000 HD 
HETATM   17  C   UNL     1      -7.418  10.933  67.456  1.00  0.00    -0.097 C  
HETATM   18  C   UNL     1     -11.381  15.847  66.044  1.00  0.00     0.212 A  
HETATM   19  O   UNL     1      -6.091  11.353  67.559  1.00  0.00    -0.053 OA 
HETATM   20  C   UNL     1      -7.601   9.454  67.818  1.00  0.00    -0.088 C  
HETATM   21  C   UNL     1     -11.639  14.552  66.508  1.00  0.00    -0.379 A  
HETATM   22  H   UNL     1      -5.374  10.735  67.629  1.00  0.00     0.000 HD 
HETATM   23  C   UNL     1      -7.080   8.320  66.814  1.00  0.00    -0.077 C  
HETATM   24  O   UNL     1      -6.852   9.369  69.045  1.00  0.00    -0.053 OA 
HETATM   25  H   UNL     1      -5.952   9.626  68.884  1.00  0.00     0.000 HD 
HETATM   26  O   UNL     1      -6.231   8.491  65.944  1.00  0.00    -0.051 OA 
HETATM   27  C   UNL     1      -7.633   6.899  67.063  1.00  0.00    -0.102 C  
HETATM   28  H   UNL     1      -7.082   6.537  70.199  1.00  0.00     0.000 HD 
HETATM   29  C   UNL     1      -7.925   6.787  68.376  1.00  0.00    -0.115 C  
HETATM   30  C   UNL     1      -9.132   7.659  68.857  1.00  0.00    -0.140 C  
HETATM   31  O   UNL     1      -6.876   6.616  69.275  1.00  0.00    -0.060 OA 
ENDROOT
BRANCH  27  32
HETATM   32  C   UNL     1      -8.752   6.396  66.205  1.00  0.00    -0.143 C  
HETATM   33  N   UNL     1      -9.035   7.146  65.086  1.00  0.00    -0.316 N  
HETATM   34  H1  UNL     1      -9.797   6.804  64.502  1.00  0.00     0.000 HD 
HETATM   35  H2  UNL     1      -8.514   7.993  64.855  1.00  0.00     0.000 HD 
HETATM   36  O   UNL     1      -9.338   5.352  66.428  1.00  0.00    -0.140 OA 
ENDBRANCH  27  32
BRANCH  30  37
HETATM   37  N   UNL     1      -9.496   7.658  70.288  1.00  0.00    -0.161 NA 
HETATM   38  C   UNL     1      -8.765   6.742  71.165  1.00  0.00    -0.136 C  
HETATM   39  C   UNL     1     -10.934   7.392  70.451  1.00  0.00    -0.251 C  
ENDBRANCH  30  37
TORSDOF 2
ENDMDL
MODEL       59
REMARK 921   NORMALIZED FREE ENERGY PREDICTED BY IDOCK:   -5.19 KCAL/MOL
REMARK 922        TOTAL FREE ENERGY PREDICTED BY IDOCK:   -5.37 KCAL/MOL
REMARK 923 INTER-LIGAND FREE ENERGY PREDICTED BY IDOCK:   -5.48 KCAL/MOL
REMARK 924 INTRA-LIGAND FREE ENERGY PREDICTED BY IDOCK:    0.11 KCAL/MOL
REMARK 927      BINDING AFFINITY PREDICTED BY RF-SCORE:    0.00 PKD
ROOT
HETATM    1  C   UNL     1     -10.166   7.488  70.450  1.00  0.00    -0.202 C  
HETATM    2  C   UNL     1     -10.417   8.180  69.112  1.00  0.00    -0.206 C  
HETATM    3  C   UNL     1      -9.077   8.256  68.292  1.00  0.00    -0.135 C  
HETATM    4  O   UNL     1     -10.955   9.489  69.270  1.00  0.00    -0.318 OA 
HETATM    5  C   UNL     1      -9.232   8.798  66.878  1.00  0.00    -0.195 C  
HETATM    6  H   UNL     1     -11.111   9.919  68.438  1.00  0.00     0.000 HD 
HETATM    7  C   UNL     1      -7.994   9.214  66.199  1.00  0.00    -0.103 A  
HETATM    8  C   UNL     1     -10.396   9.086  66.271  1.00  0.00    -0.130 C  
HETATM    9  C   UNL     1      -7.049   9.944  66.922  1.00  0.00    -0.090 A  
HETATM   10  C   UNL     1      -6.030  10.618  66.229  1.00  0.00    -0.106 A  
HETATM   11  C   UNL     1      -7.158  10.010  68.410  1.00  0.00    -0.072 C  
HETATM   12  O   UNL     1      -5.168  11.497  66.826  1.00  0.00    -0.098 OA 
HETATM   13  C   UNL     1      -5.877  10.452  64.848  1.00  0.00    -0.130 A  
HETATM   14  C   UNL     1      -8.037   9.005  69.107  1.00  0.00    -0.109 C  
HETATM   15  O   UNL     1      -6.515  10.854  69.027  1.00  0.00    -0.049 OA 
HETATM   16  H   UNL     1      -4.478  11.952  66.358  1.00  0.00     0.000 HD 
HETATM   17  C   UNL     1      -7.991   8.884  70.458  1.00  0.00    -0.126 C  
HETATM   18  C   UNL     1      -6.740   9.616  64.153  1.00  0.00    -0.113 A  
HETATM   19  O   UNL     1      -7.185   9.711  71.243  1.00  0.00    -0.329 OA 
HETATM   20  C   UNL     1      -9.031   8.116  71.281  1.00  0.00    -0.146 C  
HETATM   21  C   UNL     1      -7.808   9.006  64.822  1.00  0.00    -0.122 A  
HETATM   22  H   UNL     1      -7.152   9.627  72.189  1.00  0.00     0.000 HD 
HETATM   23  C   UNL     1      -8.566   6.905  72.220  1.00  0.00    -0.119 C  
HETATM   24  O   UNL     1      -9.568   9.165  72.109  1.00  0.00    -0.276 OA 
HETATM   25  H   UNL     1      -8.869   9.553  72.621  1.00  0.00     0.000 HD 
HETATM   26  O   UNL     1      -7.421   6.739  72.633  1.00  0.00    -0.090 OA 
HETATM   27  C   UNL     1      -9.688   5.961  72.703  1.00  0.00    -0.166 C  
HETATM   28  H   UNL     1     -11.831   8.049  73.851  1.00  0.00     0.000 HD 
HETATM   29  C   UNL     1     -10.836   6.668  72.755  1.00  0.00    -0.251 C  
HETATM   30  C   UNL     1     -11.402   7.106  71.363  1.00  0.00    -0.259 C  
HETATM   31  O   UNL     1     -11.023   7.551  73.815  1.00  0.00    -0.266 OA 
ENDROOT
BRANCH  27  32
HETATM   32  C   UNL     1      -9.881   4.648  72.009  1.00  0.00    -0.179 C  
HETATM   33  N   UNL     1      -8.944   4.332  71.051  1.00  0.00    -0.111 N  
HETATM   34  H1  UNL     1      -9.075   3.438  70.578  1.00  0.00     0.000 HD 
HETATM   35  H2  UNL     1      -8.166   4.954  70.828  1.00  0.00     0.000 HD 
HETATM   36  O   UNL     1     -10.762   3.864  72.310  1.00  0.00    -0.025 OA 
ENDBRANCH  27  32
BRANCH  30  37
HETATM   37  N   UNL     1     -12.621   7.937  71.310  1.00  0.00    -0.282 NA 
HETATM   38  C   UNL     1     -12.685   9.093  72.208  1.00  0.00    -0.377 C  
HETATM   39  C   UNL     1     -13.815   7.111  71.549  1.00  0.00    -0.305 C  
ENDBRANCH  30  37
TORSDOF 2
ENDMDL
MODEL       60
REMARK 921   NORMALIZED FREE ENERGY PREDICTED BY IDOCK:   -5.14 KCAL/MOL
REMARK 922        TOTAL FREE ENERGY PREDICTED BY IDOCK:   -5.31 KCAL/MOL
REMARK 923 INTER-LIGAND FREE ENERGY PREDICTED BY IDOCK:   -5.64 KCAL/MOL
REMARK 924 INTRA-LIGAND FREE ENERGY PREDICTED BY IDOCK:    0.33 KCAL/MOL
REMARK 927      BINDING AFFINITY PREDICTED BY RF-SCORE:    0.00 PKD
ROOT
HETATM    1  C   UNL     1      -8.649   7.552  68.958  1.00  0.00    -0.136 C  
HETATM    2  C   UNL     1      -8.087   6.135  68.889  1.00  0.00    -0.108 C  
HETATM    3  C   UNL     1      -8.044   5.651  67.394  1.00  0.00    -0.102 C  
HETATM    4  O   UNL     1      -8.843   5.213  69.669  1.00  0.00    -0.100 OA 
HETATM    5  C   UNL     1      -7.367   4.303  67.186  1.00  0.00    -0.069 C  
HETATM    6  H   UNL     1      -8.493   4.331  69.626  1.00  0.00     0.000 HD 
HETATM    7  C   UNL     1      -7.602   3.648  65.889  1.00  0.00    -0.081 A  
HETATM    8  C   UNL     1      -6.728   3.592  68.131  1.00  0.00    -0.046 C  
HETATM    9  C   UNL     1      -8.895   3.653  65.363  1.00  0.00    -0.123 A  
HETATM   10  C   UNL     1      -9.209   2.778  64.310  1.00  0.00    -0.123 A  
HETATM   11  C   UNL     1      -9.918   4.572  65.945  1.00  0.00    -0.244 C  
HETATM   12  O   UNL     1     -10.481   2.583  63.847  1.00  0.00    -0.319 OA 
HETATM   13  C   UNL     1      -8.211   2.009  63.702  1.00  0.00    -0.080 A  
HETATM   14  C   UNL     1      -9.446   5.710  66.812  1.00  0.00    -0.150 C  
HETATM   15  O   UNL     1     -11.105   4.398  65.687  1.00  0.00    -0.012 OA 
HETATM   16  H   UNL     1     -10.693   1.991  63.135  1.00  0.00     0.000 HD 
HETATM   17  C   UNL     1     -10.310   6.692  67.174  1.00  0.00    -0.252 C  
HETATM   18  C   UNL     1      -6.898   2.107  64.143  1.00  0.00    -0.035 A  
HETATM   19  O   UNL     1     -11.658   6.655  66.814  1.00  0.00    -0.718 OA 
HETATM   20  C   UNL     1     -10.018   7.722  68.271  1.00  0.00    -0.178 C  
HETATM   21  C   UNL     1      -6.592   2.915  65.245  1.00  0.00    -0.036 A  
HETATM   22  H   UNL     1     -12.263   7.342  67.067  1.00  0.00     0.000 HD 
HETATM   23  C   UNL     1     -10.050   9.285  67.923  1.00  0.00    -0.200 C  
HETATM   24  O   UNL     1     -11.066   7.434  69.216  1.00  0.00    -0.423 OA 
HETATM   25  H   UNL     1     -11.910   7.539  68.792  1.00  0.00     0.000 HD 
HETATM   26  O   UNL     1     -10.628   9.776  66.957  1.00  0.00    -0.239 OA 
HETATM   27  C   UNL     1      -9.384  10.217  68.959  1.00  0.00    -0.195 C  
HETATM   28  H   UNL     1     -10.753   9.228  71.683  1.00  0.00     0.000 HD 
HETATM   29  C   UNL     1      -9.469   9.626  70.169  1.00  0.00    -0.253 C  
HETATM   30  C   UNL     1      -8.597   8.336  70.333  1.00  0.00    -0.134 C  
HETATM   31  O   UNL     1     -10.694   9.644  70.831  1.00  0.00    -0.302 OA 
ENDROOT
BRANCH  27  32
HETATM   32  C   UNL     1      -8.003  10.729  68.692  1.00  0.00    -0.133 C  
HETATM   33  N   UNL     1      -7.450  11.509  69.683  1.00  0.00    -0.332 N  
HETATM   34  H1  UNL     1      -6.509  11.858  69.501  1.00  0.00     0.000 HD 
HETATM   35  H2  UNL     1      -7.950  11.725  70.545  1.00  0.00     0.000 HD 
HETATM   36  O   UNL     1      -7.365  10.425  67.701  1.00  0.00    -0.086 OA 
ENDBRANCH  27  32
BRANCH  30  37
HETATM   37  N   UNL     1      -8.665   7.578  71.598  1.00  0.00    -0.115 NA 
HETATM   38  C   UNL     1      -9.915   7.648  72.357  1.00  0.00    -0.203 C  
HETATM   39  C   UNL     1      -7.567   7.976  72.494  1.00  0.00    -0.114 C  
ENDBRANCH  30  37
TORSDOF 2
ENDMDL
MODEL       61
REMARK 921   NORMALIZED FREE ENERGY PREDICTED BY IDOCK:   -5.09 KCAL/MOL
REMARK 922        TOTAL FREE ENERGY PREDICTED BY IDOCK:   -5.25 KCAL/MOL
REMARK 923 INTER-LIGAND FREE ENERGY PREDICTED BY IDOCK:   -5.42 KCAL/MOL
REMARK 924 INTRA-LIGAND FREE ENERGY PREDICTED BY IDOCK:    0.17 KCAL/MOL
REMARK 927      BINDING AFFINITY PREDICTED BY RF-SCORE:    0.00 PKD
ROOT
HETATM    1  C   UNL     1      -8.545   5.982  66.255  1.00  0.00    -0.137 C  
HETATM    2  C   UNL     1      -8.824   6.989  67.368  1.00  0.00    -0.119 C  
HETATM    3  C   UNL     1      -9.688   8.178  66.807  1.00  0.00    -0.303 C  
HETATM    4  O   UNL     1      -7.628   7.501  67.949  1.00  0.00    -0.105 OA 
HETATM    5  C   UNL     1     -10.150   9.174  67.861  1.00  0.00    -0.246 C  
HETATM    6  H   UNL     1      -7.802   8.127  68.641  1.00  0.00     0.000 HD 
HETATM    7  C   UNL     1     -10.652  10.466  67.363  1.00  0.00    -0.321 A  
HETATM    8  C   UNL     1      -9.982   9.047  69.189  1.00  0.00    -0.187 C  
HETATM    9  C   UNL     1      -9.954  11.101  66.336  1.00  0.00    -0.257 A  
HETATM   10  C   UNL     1     -10.215  12.455  66.067  1.00  0.00    -0.245 A  
HETATM   11  C   UNL     1      -8.933  10.334  65.562  1.00  0.00    -0.173 C  
HETATM   12  O   UNL     1      -9.466  13.209  65.206  1.00  0.00    -0.475 OA 
HETATM   13  C   UNL     1     -11.254  13.124  66.724  1.00  0.00    -0.330 A  
HETATM   14  C   UNL     1      -8.946   8.831  65.654  1.00  0.00    -0.248 C  
HETATM   15  O   UNL     1      -8.130  10.938  64.855  1.00  0.00    -0.007 OA 
HETATM   16  H   UNL     1      -9.643  14.125  65.025  1.00  0.00     0.000 HD 
HETATM   17  C   UNL     1      -8.191   8.092  64.803  1.00  0.00    -0.121 C  
HETATM   18  C   UNL     1     -12.034  12.447  67.651  1.00  0.00    -0.249 A  
HETATM   19  O   UNL     1      -7.343   8.686  63.866  1.00  0.00    -0.094 OA 
HETATM   20  C   UNL     1      -7.908   6.597  64.993  1.00  0.00    -0.113 C  
HETATM   21  C   UNL     1     -11.728  11.122  67.984  1.00  0.00    -0.288 A  
HETATM   22  H   UNL     1      -6.815   8.168  63.270  1.00  0.00     0.000 HD 
HETATM   23  C   UNL     1      -8.318   5.558  63.845  1.00  0.00    -0.086 C  
HETATM   24  O   UNL     1      -6.475   6.595  65.132  1.00  0.00    -0.040 OA 
HETATM   25  H   UNL     1      -6.082   6.974  64.355  1.00  0.00     0.000 HD 
HETATM   26  O   UNL     1      -8.516   5.854  62.671  1.00  0.00    -0.089 OA 
HETATM   27  C   UNL     1      -8.352   4.072  64.266  1.00  0.00    -0.096 C  
HETATM   28  H   UNL     1      -5.494   3.742  65.680  1.00  0.00     0.000 HD 
HETATM   29  C   UNL     1      -7.472   3.903  65.275  1.00  0.00    -0.080 C  
HETATM   30  C   UNL     1      -7.872   4.597  66.620  1.00  0.00    -0.099 C  
HETATM   31  O   UNL     1      -6.114   3.861  64.970  1.00  0.00    -0.022 OA 
ENDROOT
BRANCH  27  32
HETATM   32  C   UNL     1      -9.671   3.435  64.574  1.00  0.00    -0.167 C  
HETATM   33  N   UNL     1     -10.783   4.210  64.331  1.00  0.00    -0.545 N  
HETATM   34  H1  UNL     1     -11.682   3.776  64.541  1.00  0.00     0.000 HD 
HETATM   35  H2  UNL     1     -10.712   5.159  63.963  1.00  0.00     0.000 HD 
HETATM   36  O   UNL     1      -9.778   2.281  64.947  1.00  0.00    -0.040 OA 
ENDBRANCH  27  32
BRANCH  30  37
HETATM   37  N   UNL     1      -6.948   4.526  67.770  1.00  0.00    -0.059 NA 
HETATM   38  C   UNL     1      -5.692   3.799  67.577  1.00  0.00    -0.022 C  
HETATM   39  C   UNL     1      -7.630   3.951  68.940  1.00  0.00    -0.054 C  
ENDBRANCH  30  37
TORSDOF 2
ENDMDL
MODEL       62
REMARK 921   NORMALIZED FREE ENERGY PREDICTED BY IDOCK:   -5.07 KCAL/MOL
REMARK 922        TOTAL FREE ENERGY PREDICTED BY IDOCK:   -5.23 KCAL/MOL
REMARK 923 INTER-LIGAND FREE ENERGY PREDICTED BY IDOCK:   -5.35 KCAL/MOL
REMARK 924 INTRA-LIGAND FREE ENERGY PREDICTED BY IDOCK:    0.12 KCAL/MOL
REMARK 927      BINDING AFFINITY PREDICTED BY RF-SCORE:    0.00 PKD
ROOT
HETATM    1  C   UNL     1      -8.822   9.043  68.488  1.00  0.00    -0.134 C  
HETATM    2  C   UNL     1      -8.530   9.087  69.986  1.00  0.00    -0.145 C  
HETATM    3  C   UNL     1      -8.432   7.623  70.553  1.00  0.00    -0.128 C  
HETATM    4  O   UNL     1      -9.517   9.815  70.709  1.00  0.00    -0.311 OA 
HETATM    5  C   UNL     1      -8.003   7.538  72.011  1.00  0.00    -0.103 C  
HETATM    6  H   UNL     1      -9.335   9.842  71.641  1.00  0.00     0.000 HD 
HETATM    7  C   UNL     1      -8.228   6.249  72.684  1.00  0.00    -0.106 A  
HETATM    8  C   UNL     1      -7.602   8.571  72.772  1.00  0.00    -0.056 C  
HETATM    9  C   UNL     1      -9.440   5.589  72.473  1.00  0.00    -0.160 A  
HETATM   10  C   UNL     1      -9.807   4.542  73.335  1.00  0.00    -0.133 A  
HETATM   11  C   UNL     1     -10.325   6.026  71.352  1.00  0.00    -0.220 C  
HETATM   12  O   UNL     1     -11.043   3.955  73.321  1.00  0.00    -0.208 OA 
HETATM   13  C   UNL     1      -8.917   4.073  74.306  1.00  0.00    -0.098 A  
HETATM   14  C   UNL     1      -9.735   6.894  70.272  1.00  0.00    -0.176 C  
HETATM   15  O   UNL     1     -11.493   5.650  71.322  1.00  0.00    -0.112 OA 
HETATM   16  H   UNL     1     -11.292   3.247  73.904  1.00  0.00     0.000 HD 
HETATM   17  C   UNL     1     -10.432   7.126  69.131  1.00  0.00    -0.211 C  
HETATM   18  C   UNL     1      -7.658   4.646  74.423  1.00  0.00    -0.085 A  
HETATM   19  O   UNL     1     -11.722   6.627  68.942  1.00  0.00    -0.575 OA 
HETATM   20  C   UNL     1     -10.061   8.208  68.111  1.00  0.00    -0.198 C  
HETATM   21  C   UNL     1      -7.315   5.743  73.624  1.00  0.00    -0.086 A  
HETATM   22  H   UNL     1     -12.210   6.788  68.144  1.00  0.00     0.000 HD 
HETATM   23  C   UNL     1      -9.767   7.801  66.590  1.00  0.00    -0.222 C  
HETATM   24  O   UNL     1     -11.232   9.047  68.150  1.00  0.00    -0.469 OA 
HETATM   25  H   UNL     1     -11.996   8.533  67.918  1.00  0.00     0.000 HD 
HETATM   26  O   UNL     1     -10.147   6.761  66.058  1.00  0.00     0.180 OA 
HETATM   27  C   UNL     1      -9.043   8.866  65.738  1.00  0.00    -0.276 C  
HETATM   28  H   UNL     1     -10.831  11.464  66.307  1.00  0.00     0.000 HD 
HETATM   29  C   UNL     1      -9.353  10.082  66.235  1.00  0.00    -0.168 C  
HETATM   30  C   UNL     1      -8.758  10.385  67.650  1.00  0.00    -0.118 C  
HETATM   31  O   UNL     1     -10.612  10.609  65.957  1.00  0.00    -0.210 OA 
ENDROOT
BRANCH  27  32
HETATM   32  C   UNL     1      -7.571   8.728  65.501  1.00  0.00    -0.087 C  
HETATM   33  N   UNL     1      -6.991   7.576  65.983  1.00  0.00    -0.060 N  
HETATM   34  H1  UNL     1      -5.989   7.482  65.822  1.00  0.00     0.000 HD 
HETATM   35  H2  UNL     1      -7.531   6.861  66.472  1.00  0.00     0.000 HD 
HETATM   36  O   UNL     1      -6.925   9.537  64.862  1.00  0.00    -0.097 OA 
ENDBRANCH  27  32
BRANCH  30  37
HETATM   37  N   UNL     1      -9.088  11.663  68.312  1.00  0.00    -0.182 NA 
HETATM   38  C   UNL     1     -10.502  12.040  68.376  1.00  0.00    -0.219 C  
HETATM   39  C   UNL     1      -8.352  12.771  67.683  1.00  0.00    -0.175 C  
ENDBRANCH  30  37
TORSDOF 2
ENDMDL
MODEL       63
REMARK 921   NORMALIZED FREE ENERGY PREDICTED BY IDOCK:   -5.06 KCAL/MOL
REMARK 922        TOTAL FREE ENERGY PREDICTED BY IDOCK:   -5.22 KCAL/MOL
REMARK 923 INTER-LIGAND FREE ENERGY PREDICTED BY IDOCK:   -5.48 KCAL/MOL
REMARK 924 INTRA-LIGAND FREE ENERGY PREDICTED BY IDOCK:    0.26 KCAL/MOL
REMARK 927      BINDING AFFINITY PREDICTED BY RF-SCORE:    0.00 PKD
ROOT
HETATM    1  C   UNL     1      -9.624   8.790  66.953  1.00  0.00    -0.249 C  
HETATM    2  C   UNL     1      -9.619   7.420  66.278  1.00  0.00    -0.051 C  
HETATM    3  C   UNL     1      -9.318   6.302  67.343  1.00  0.00    -0.117 C  
HETATM    4  O   UNL     1      -8.669   7.341  65.220  1.00  0.00    -0.335 OA 
HETATM    5  C   UNL     1      -9.428   4.880  66.813  1.00  0.00    -0.154 C  
HETATM    6  H   UNL     1      -8.666   6.489  64.800  1.00  0.00     0.000 HD 
HETATM    7  C   UNL     1      -8.830   3.824  67.646  1.00  0.00    -0.138 A  
HETATM    8  C   UNL     1      -9.864   4.529  65.590  1.00  0.00    -0.227 C  
HETATM    9  C   UNL     1      -7.579   4.056  68.220  1.00  0.00    -0.066 A  
HETATM   10  C   UNL     1      -6.854   2.972  68.741  1.00  0.00    -0.044 A  
HETATM   11  C   UNL     1      -7.033   5.446  68.247  1.00  0.00    -0.061 C  
HETATM   12  O   UNL     1      -5.556   3.067  69.161  1.00  0.00    -0.016 OA 
HETATM   13  C   UNL     1      -7.429   1.698  68.811  1.00  0.00    -0.043 A  
HETATM   14  C   UNL     1      -7.980   6.591  68.002  1.00  0.00    -0.109 C  
HETATM   15  O   UNL     1      -5.843   5.624  68.492  1.00  0.00    -0.014 OA 
HETATM   16  H   UNL     1      -5.065   2.333  69.514  1.00  0.00     0.000 HD 
HETATM   17  C   UNL     1      -7.579   7.866  68.237  1.00  0.00    -0.116 C  
HETATM   18  C   UNL     1      -8.727   1.501  68.360  1.00  0.00    -0.103 A  
HETATM   19  O   UNL     1      -6.280   8.164  68.650  1.00  0.00    -0.042 OA 
HETATM   20  C   UNL     1      -8.346   9.103  67.754  1.00  0.00    -0.117 C  
HETATM   21  C   UNL     1      -9.425   2.558  67.764  1.00  0.00    -0.158 A  
HETATM   22  H   UNL     1      -5.999   9.057  68.815  1.00  0.00     0.000 HD 
HETATM   23  C   UNL     1      -8.848  10.192  68.816  1.00  0.00    -0.146 C  
HETATM   24  O   UNL     1      -7.375   9.716  66.884  1.00  0.00    -0.090 OA 
HETATM   25  H   UNL     1      -6.587   9.909  67.377  1.00  0.00     0.000 HD 
HETATM   26  O   UNL     1      -8.387  10.333  69.945  1.00  0.00    -0.143 OA 
HETATM   27  C   UNL     1      -9.918  11.182  68.306  1.00  0.00    -0.196 C  
HETATM   28  H   UNL     1      -8.590  12.208  65.576  1.00  0.00     0.000 HD 
HETATM   29  C   UNL     1      -9.757  11.323  66.974  1.00  0.00    -0.186 C  
HETATM   30  C   UNL     1     -10.109  10.052  66.131  1.00  0.00    -0.247 C  
HETATM   31  O   UNL     1      -8.704  12.109  66.513  1.00  0.00    -0.189 OA 
ENDROOT
BRANCH  27  32
HETATM   32  C   UNL     1     -11.353  10.949  68.665  1.00  0.00    -0.295 C  
HETATM   33  N   UNL     1     -11.579  10.038  69.673  1.00  0.00    -0.431 N  
HETATM   34  H1  UNL     1     -12.556   9.880  69.917  1.00  0.00     0.000 HD 
HETATM   35  H2  UNL     1     -10.816   9.552  70.146  1.00  0.00     0.000 HD 
HETATM   36  O   UNL     1     -12.270  11.570  68.160  1.00  0.00    -0.576 OA 
ENDBRANCH  27  32
BRANCH  30  37
HETATM   37  N   UNL     1      -9.909  10.080  64.668  1.00  0.00    -0.288 NA 
HETATM   38  C   UNL     1      -8.538  10.245  64.182  1.00  0.00    -0.192 C  
HETATM   39  C   UNL     1     -10.737  11.132  64.057  1.00  0.00    -0.339 C  
ENDBRANCH  30  37
TORSDOF 2
ENDMDL
MODEL       64
REMARK 921   NORMALIZED FREE ENERGY PREDICTED BY IDOCK:   -5.04 KCAL/MOL
REMARK 922        TOTAL FREE ENERGY PREDICTED BY IDOCK:   -5.20 KCAL/MOL
REMARK 923 INTER-LIGAND FREE ENERGY PREDICTED BY IDOCK:   -5.31 KCAL/MOL
REMARK 924 INTRA-LIGAND FREE ENERGY PREDICTED BY IDOCK:    0.11 KCAL/MOL
REMARK 927      BINDING AFFINITY PREDICTED BY RF-SCORE:    0.00 PKD
ROOT
HETATM    1  C   UNL     1     -10.375   5.959  70.494  1.00  0.00    -0.297 C  
HETATM    2  C   UNL     1     -10.666   5.919  68.996  1.00  0.00    -0.309 C  
HETATM    3  C   UNL     1      -9.501   5.176  68.246  1.00  0.00    -0.164 C  
HETATM    4  O   UNL     1     -10.838   7.220  68.442  1.00  0.00    -0.377 OA 
HETATM    5  C   UNL     1      -9.750   4.948  66.761  1.00  0.00    -0.195 C  
HETATM    6  H   UNL     1     -11.019   7.195  67.510  1.00  0.00     0.000 HD 
HETATM    7  C   UNL     1      -8.577   4.582  65.951  1.00  0.00    -0.115 A  
HETATM    8  C   UNL     1     -10.893   5.217  66.107  1.00  0.00    -0.163 C  
HETATM    9  C   UNL     1      -7.378   5.264  66.166  1.00  0.00    -0.081 A  
HETATM   10  C   UNL     1      -6.354   5.164  65.210  1.00  0.00    -0.035 A  
HETATM   11  C   UNL     1      -7.222   6.100  67.394  1.00  0.00    -0.076 C  
HETATM   12  O   UNL     1      -5.219   5.928  65.241  1.00  0.00    -0.012 OA 
HETATM   13  C   UNL     1      -6.474   4.288  64.126  1.00  0.00    -0.041 A  
HETATM   14  C   UNL     1      -8.192   5.892  68.528  1.00  0.00    -0.109 C  
HETATM   15  O   UNL     1      -6.302   6.909  67.462  1.00  0.00    -0.041 OA 
HETATM   16  H   UNL     1      -4.526   5.860  64.594  1.00  0.00     0.000 HD 
HETATM   17  C   UNL     1      -7.955   6.462  69.736  1.00  0.00    -0.119 C  
HETATM   18  C   UNL     1      -7.616   3.510  63.989  1.00  0.00    -0.075 A  
HETATM   19  O   UNL     1      -6.856   7.295  69.954  1.00  0.00    -0.053 OA 
HETATM   20  C   UNL     1      -9.000   6.557  70.853  1.00  0.00    -0.147 C  
HETATM   21  C   UNL     1      -8.675   3.665  64.892  1.00  0.00    -0.114 A  
HETATM   22  H   UNL     1      -6.689   7.693  70.800  1.00  0.00     0.000 HD 
HETATM   23  C   UNL     1      -8.695   5.910  72.286  1.00  0.00    -0.128 C  
HETATM   24  O   UNL     1      -9.125   7.984  71.004  1.00  0.00    -0.143 OA 
HETATM   25  H   UNL     1      -8.278   8.352  71.225  1.00  0.00     0.000 HD 
HETATM   26  O   UNL     1      -7.572   5.649  72.711  1.00  0.00    -0.095 OA 
HETATM   27  C   UNL     1      -9.917   5.715  73.209  1.00  0.00    -0.191 C  
HETATM   28  H   UNL     1     -11.273   8.617  73.099  1.00  0.00     0.000 HD 
HETATM   29  C   UNL     1     -10.836   6.651  72.891  1.00  0.00    -0.262 C  
HETATM   30  C   UNL     1     -11.498   6.470  71.485  1.00  0.00    -0.302 C  
HETATM   31  O   UNL     1     -10.626   7.958  73.323  1.00  0.00    -0.341 OA 
ENDROOT
BRANCH  27  32
HETATM   32  C   UNL     1     -10.533   4.354  73.319  1.00  0.00    -0.187 C  
HETATM   33  N   UNL     1      -9.866   3.339  72.672  1.00  0.00    -0.135 N  
HETATM   34  H1  UNL     1     -10.285   2.413  72.746  1.00  0.00     0.000 HD 
HETATM   35  H2  UNL     1      -9.005   3.503  72.149  1.00  0.00     0.000 HD 
HETATM   36  O   UNL     1     -11.521   4.128  73.994  1.00  0.00    -0.093 OA 
ENDBRANCH  27  32
BRANCH  30  37
HETATM   37  N   UNL     1     -12.472   7.475  71.013  1.00  0.00    -0.259 NA 
HETATM   38  C   UNL     1     -12.134   8.885  71.218  1.00  0.00    -0.306 C  
HETATM   39  C   UNL     1     -13.792   7.233  71.617  1.00  0.00    -0.349 C  
ENDBRANCH  30  37
TORSDOF 2
ENDMDL
MODEL       65
REMARK 921   NORMALIZED FREE ENERGY PREDICTED BY IDOCK:   -5.01 KCAL/MOL
REMARK 922        TOTAL FREE ENERGY PREDICTED BY IDOCK:   -5.17 KCAL/MOL
REMARK 923 INTER-LIGAND FREE ENERGY PREDICTED BY IDOCK:   -5.33 KCAL/MOL
REMARK 924 INTRA-LIGAND FREE ENERGY PREDICTED BY IDOCK:    0.16 KCAL/MOL
REMARK 927      BINDING AFFINITY PREDICTED BY RF-SCORE:    0.00 PKD
ROOT
HETATM    1  C   UNL     1      -8.687   6.760  68.199  1.00  0.00    -0.122 C  
HETATM    2  C   UNL     1      -9.059   7.507  69.477  1.00  0.00    -0.143 C  
HETATM    3  C   UNL     1     -10.046   8.684  69.139  1.00  0.00    -0.203 C  
HETATM    4  O   UNL     1      -7.917   8.020  70.157  1.00  0.00    -0.101 OA 
HETATM    5  C   UNL     1     -10.600   9.412  70.356  1.00  0.00    -0.316 C  
HETATM    6  H   UNL     1      -8.149   8.485  70.953  1.00  0.00     0.000 HD 
HETATM    7  C   UNL     1     -11.236  10.716  70.103  1.00  0.00    -0.378 A  
HETATM    8  C   UNL     1     -10.408   9.057  71.638  1.00  0.00    -0.420 C  
HETATM    9  C   UNL     1     -10.616  11.601  69.220  1.00  0.00    -0.088 A  
HETATM   10  C   UNL     1     -11.017  12.947  69.207  1.00  0.00    -0.063 A  
HETATM   11  C   UNL     1      -9.527  11.102  68.328  1.00  0.00    -0.182 C  
HETATM   12  O   UNL     1     -10.357  13.922  68.511  1.00  0.00    -0.236 OA 
HETATM   13  C   UNL     1     -12.114  13.370  69.965  1.00  0.00    -0.404 A  
HETATM   14  C   UNL     1      -9.384   9.614  68.137  1.00  0.00    -0.140 C  
HETATM   15  O   UNL     1      -8.797  11.906  67.756  1.00  0.00    -0.153 OA 
HETATM   16  H   UNL     1     -10.629  14.833  68.502  1.00  0.00     0.000 HD 
HETATM   17  C   UNL     1      -8.564   9.129  67.171  1.00  0.00    -0.120 C  
HETATM   18  C   UNL     1     -12.812  12.455  70.741  1.00  0.00    -0.097 A  
HETATM   19  O   UNL     1      -7.790   9.972  66.372  1.00  0.00    -0.109 OA 
HETATM   20  C   UNL     1      -8.128   7.662  67.081  1.00  0.00    -0.118 C  
HETATM   21  C   UNL     1     -12.368  11.130  70.823  1.00  0.00    -0.504 A  
HETATM   22  H   UNL     1      -7.216   9.633  65.695  1.00  0.00     0.000 HD 
HETATM   23  C   UNL     1      -8.437   6.820  65.755  1.00  0.00    -0.147 C  
HETATM   24  O   UNL     1      -6.700   7.782  67.234  1.00  0.00    -0.064 OA 
HETATM   25  H   UNL     1      -6.355   8.338  66.546  1.00  0.00     0.000 HD 
HETATM   26  O   UNL     1      -8.674   7.309  64.654  1.00  0.00     0.180 OA 
HETATM   27  C   UNL     1      -8.314   5.286  65.890  1.00  0.00    -0.120 C  
HETATM   28  H   UNL     1      -5.426   4.993  67.249  1.00  0.00     0.000 HD 
HETATM   29  C   UNL     1      -7.413   5.022  66.860  1.00  0.00    -0.087 C  
HETATM   30  C   UNL     1      -7.871   5.408  68.306  1.00  0.00    -0.088 C  
HETATM   31  O   UNL     1      -6.061   5.179  66.567  1.00  0.00    -0.028 OA 
ENDROOT
BRANCH  27  32
HETATM   32  C   UNL     1      -9.558   4.471  66.059  1.00  0.00    -0.189 C  
HETATM   33  N   UNL     1     -10.746   5.157  65.941  1.00  0.00    -0.641 N  
HETATM   34  H1  UNL     1     -11.594   4.601  66.056  1.00  0.00     0.000 HD 
HETATM   35  H2  UNL     1     -10.777   6.159  65.750  1.00  0.00     0.000 HD 
HETATM   36  O   UNL     1      -9.542   3.264  66.217  1.00  0.00    -0.123 OA 
ENDBRANCH  27  32
BRANCH  30  37
HETATM   37  N   UNL     1      -6.936   5.218  69.432  1.00  0.00    -0.054 NA 
HETATM   38  C   UNL     1      -5.668   4.544  69.145  1.00  0.00    -0.017 C  
HETATM   39  C   UNL     1      -7.596   4.494  70.530  1.00  0.00    -0.053 C  
ENDBRANCH  30  37
TORSDOF 2
ENDMDL
MODEL       66
REMARK 921   NORMALIZED FREE ENERGY PREDICTED BY IDOCK:   -4.91 KCAL/MOL
REMARK 922        TOTAL FREE ENERGY PREDICTED BY IDOCK:   -5.06 KCAL/MOL
REMARK 923 INTER-LIGAND FREE ENERGY PREDICTED BY IDOCK:   -5.18 KCAL/MOL
REMARK 924 INTRA-LIGAND FREE ENERGY PREDICTED BY IDOCK:    0.12 KCAL/MOL
REMARK 927      BINDING AFFINITY PREDICTED BY RF-SCORE:    0.00 PKD
ROOT
HETATM    1  C   UNL     1      -8.191   7.936  67.772  1.00  0.00    -0.129 C  
HETATM    2  C   UNL     1      -7.416   9.153  67.273  1.00  0.00    -0.088 C  
HETATM    3  C   UNL     1      -7.800  10.416  68.127  1.00  0.00    -0.108 C  
HETATM    4  O   UNL     1      -7.653   9.418  65.894  1.00  0.00    -0.097 OA 
HETATM    5  C   UNL     1      -6.983  11.662  67.814  1.00  0.00    -0.084 C  
HETATM    6  H   UNL     1      -7.170  10.175  65.583  1.00  0.00     0.000 HD 
HETATM    7  C   UNL     1      -7.518  12.937  68.318  1.00  0.00    -0.125 A  
HETATM    8  C   UNL     1      -5.926  11.719  66.985  1.00  0.00    -0.153 C  
HETATM    9  C   UNL     1      -8.886  13.183  68.192  1.00  0.00    -0.194 A  
HETATM   10  C   UNL     1      -9.364  14.492  68.364  1.00  0.00    -0.208 A  
HETATM   11  C   UNL     1      -9.804  12.054  67.857  1.00  0.00    -0.196 C  
HETATM   12  O   UNL     1     -10.652  14.865  68.090  1.00  0.00    -0.238 OA 
HETATM   13  C   UNL     1      -8.508  15.513  68.790  1.00  0.00    -0.190 A  
HETATM   14  C   UNL     1      -9.298  10.646  68.029  1.00  0.00    -0.151 C  
HETATM   15  O   UNL     1     -10.947  12.295  67.478  1.00  0.00    -0.234 OA 
HETATM   16  H   UNL     1     -10.975  15.751  68.207  1.00  0.00     0.000 HD 
HETATM   17  C   UNL     1     -10.160   9.600  67.954  1.00  0.00    -0.181 C  
HETATM   18  C   UNL     1      -7.172  15.234  69.043  1.00  0.00    -0.151 A  
HETATM   19  O   UNL     1     -11.513   9.782  67.660  1.00  0.00    -0.475 OA 
HETATM   20  C   UNL     1      -9.717   8.138  67.825  1.00  0.00    -0.157 C  
HETATM   21  C   UNL     1      -6.670  13.950  68.795  1.00  0.00    -0.102 A  
HETATM   22  H   UNL     1     -12.116   9.051  67.607  1.00  0.00     0.000 HD 
HETATM   23  C   UNL     1     -10.181   7.067  68.922  1.00  0.00    -0.180 C  
HETATM   24  O   UNL     1     -10.291   7.779  66.553  1.00  0.00    -0.470 OA 
HETATM   25  H   UNL     1     -11.232   7.904  66.586  1.00  0.00     0.000 HD 
HETATM   26  O   UNL     1     -11.145   7.204  69.670  1.00  0.00    -0.239 OA 
HETATM   27  C   UNL     1      -9.397   5.737  68.934  1.00  0.00    -0.141 C  
HETATM   28  H   UNL     1      -9.505   4.903  65.841  1.00  0.00     0.000 HD 
HETATM   29  C   UNL     1      -8.935   5.512  67.686  1.00  0.00    -0.108 C  
HETATM   30  C   UNL     1      -7.822   6.503  67.209  1.00  0.00    -0.105 C  
HETATM   31  O   UNL     1      -9.830   5.061  66.720  1.00  0.00    -0.155 OA 
ENDROOT
BRANCH  27  32
HETATM   32  C   UNL     1      -8.327   5.534  69.962  1.00  0.00    -0.116 C  
HETATM   33  N   UNL     1      -8.303   6.448  70.991  1.00  0.00    -0.122 N  
HETATM   34  H1  UNL     1      -7.574   6.310  71.691  1.00  0.00     0.000 HD 
HETATM   35  H2  UNL     1      -8.972   7.216  71.050  1.00  0.00     0.000 HD 
HETATM   36  O   UNL     1      -7.565   4.585  69.944  1.00  0.00    -0.053 OA 
ENDBRANCH  27  32
BRANCH  30  37
HETATM   37  N   UNL     1      -7.291   6.383  65.836  1.00  0.00    -0.078 NA 
HETATM   38  C   UNL     1      -8.231   5.987  64.786  1.00  0.00    -0.123 C  
HETATM   39  C   UNL     1      -6.156   5.448  65.805  1.00  0.00    -0.033 C  
ENDBRANCH  30  37
TORSDOF 2
ENDMDL
MODEL       67
REMARK 921   NORMALIZED FREE ENERGY PREDICTED BY IDOCK:   -4.90 KCAL/MOL
REMARK 922        TOTAL FREE ENERGY PREDICTED BY IDOCK:   -5.04 KCAL/MOL
REMARK 923 INTER-LIGAND FREE ENERGY PREDICTED BY IDOCK:   -5.25 KCAL/MOL
REMARK 924 INTRA-LIGAND FREE ENERGY PREDICTED BY IDOCK:    0.21 KCAL/MOL
REMARK 927      BINDING AFFINITY PREDICTED BY RF-SCORE:    0.00 PKD
ROOT
HETATM    1  C   UNL     1      -9.773   9.624  70.171  1.00  0.00    -0.301 C  
HETATM    2  C   UNL     1      -9.664   9.055  71.584  1.00  0.00    -0.276 C  
HETATM    3  C   UNL     1      -8.618   7.880  71.606  1.00  0.00    -0.147 C  
HETATM    4  O   UNL     1     -10.917   8.590  72.078  1.00  0.00    -0.292 OA 
HETATM    5  C   UNL     1      -8.320   7.328  72.993  1.00  0.00    -0.134 C  
HETATM    6  H   UNL     1     -10.849   8.235  72.957  1.00  0.00     0.000 HD 
HETATM    7  C   UNL     1      -7.633   6.027  73.044  1.00  0.00    -0.098 A  
HETATM    8  C   UNL     1      -8.774   7.833  74.153  1.00  0.00    -0.293 C  
HETATM    9  C   UNL     1      -8.051   5.018  72.175  1.00  0.00    -0.112 A  
HETATM   10  C   UNL     1      -7.643   3.696  72.416  1.00  0.00    -0.062 A  
HETATM   11  C   UNL     1      -8.938   5.364  71.024  1.00  0.00    -0.139 C  
HETATM   12  O   UNL     1      -8.137   2.619  71.732  1.00  0.00    -0.055 OA 
HETATM   13  C   UNL     1      -6.722   3.408  73.429  1.00  0.00    -0.034 A  
HETATM   14  C   UNL     1      -9.051   6.810  70.619  1.00  0.00    -0.155 C  
HETATM   15  O   UNL     1      -9.528   4.470  70.424  1.00  0.00    -0.147 OA 
HETATM   16  H   UNL     1      -7.861   1.724  71.895  1.00  0.00     0.000 HD 
HETATM   17  C   UNL     1      -9.660   7.143  69.453  1.00  0.00    -0.153 C  
HETATM   18  C   UNL     1      -6.205   4.436  74.205  1.00  0.00    -0.042 A  
HETATM   19  O   UNL     1     -10.247   6.181  68.628  1.00  0.00    -0.152 OA 
HETATM   20  C   UNL     1     -10.083   8.571  69.089  1.00  0.00    -0.203 C  
HETATM   21  C   UNL     1      -6.669   5.745  74.026  1.00  0.00    -0.080 A  
HETATM   22  H   UNL     1     -10.672   6.413  67.812  1.00  0.00     0.000 HD 
HETATM   23  C   UNL     1      -9.515   9.253  67.756  1.00  0.00    -0.140 C  
HETATM   24  O   UNL     1     -11.510   8.421  68.963  1.00  0.00    -0.127 OA 
HETATM   25  H   UNL     1     -11.701   7.772  68.297  1.00  0.00     0.000 HD 
HETATM   26  O   UNL     1      -9.052   8.640  66.798  1.00  0.00    -0.136 OA 
HETATM   27  C   UNL     1      -9.677  10.786  67.665  1.00  0.00    -0.185 C  
HETATM   28  H   UNL     1     -12.785  11.144  68.362  1.00  0.00     0.000 HD 
HETATM   29  C   UNL     1     -10.760  11.136  68.390  1.00  0.00    -0.198 C  
HETATM   30  C   UNL     1     -10.605  10.949  69.936  1.00  0.00     0.014 C  
HETATM   31  O   UNL     1     -12.022  10.897  67.852  1.00  0.00    -0.585 OA 
ENDROOT
BRANCH  27  32
HETATM   32  C   UNL     1      -8.501  11.660  67.976  1.00  0.00    -0.151 C  
HETATM   33  N   UNL     1      -7.305  11.008  68.172  1.00  0.00    -0.083 N  
HETATM   34  H1  UNL     1      -6.504  11.603  68.384  1.00  0.00     0.000 HD 
HETATM   35  H2  UNL     1      -7.224   9.992  68.110  1.00  0.00     0.000 HD 
HETATM   36  O   UNL     1      -8.565  12.875  67.985  1.00  0.00    -0.169 OA 
ENDBRANCH  27  32
BRANCH  30  37
HETATM   37  N   UNL     1     -11.754  11.245  70.815  1.00  0.00    -0.185 NA 
HETATM   38  C   UNL     1     -12.976  10.466  70.608  1.00  0.00    -0.283 C  
HETATM   39  C   UNL     1     -12.106  12.671  70.737  1.00  0.00    -0.146 C  
ENDBRANCH  30  37
TORSDOF 2
ENDMDL
MODEL       68
REMARK 921   NORMALIZED FREE ENERGY PREDICTED BY IDOCK:   -4.82 KCAL/MOL
REMARK 922        TOTAL FREE ENERGY PREDICTED BY IDOCK:   -4.95 KCAL/MOL
REMARK 923 INTER-LIGAND FREE ENERGY PREDICTED BY IDOCK:   -5.58 KCAL/MOL
REMARK 924 INTRA-LIGAND FREE ENERGY PREDICTED BY IDOCK:    0.63 KCAL/MOL
REMARK 927      BINDING AFFINITY PREDICTED BY RF-SCORE:    0.00 PKD
ROOT
HETATM    1  C   UNL     1     -10.448  12.863  68.334  1.00  0.00    -0.260 C  
HETATM    2  C   UNL     1     -10.473  11.336  68.332  1.00  0.00    -0.197 C  
HETATM    3  C   UNL     1      -9.431  10.787  67.289  1.00  0.00    -0.177 C  
HETATM    4  O   UNL     1     -11.765  10.815  68.035  1.00  0.00    -0.641 OA 
HETATM    5  C   UNL     1      -9.264   9.274  67.300  1.00  0.00    -0.149 C  
HETATM    6  H   UNL     1     -11.781   9.865  68.034  1.00  0.00     0.000 HD 
HETATM    7  C   UNL     1      -8.582   8.684  66.136  1.00  0.00    -0.158 A  
HETATM    8  C   UNL     1      -9.828   8.429  68.180  1.00  0.00    -0.196 C  
HETATM    9  C   UNL     1      -8.913   9.149  64.863  1.00  0.00    -0.201 A  
HETATM   10  C   UNL     1      -8.527   8.399  63.739  1.00  0.00     0.027 A  
HETATM   11  C   UNL     1      -9.688  10.419  64.726  1.00  0.00    -0.320 C  
HETATM   12  O   UNL     1      -8.952   8.675  62.469  1.00  0.00    -0.436 OA 
HETATM   13  C   UNL     1      -7.705   7.276  63.881  1.00  0.00    -0.120 A  
HETATM   14  C   UNL     1      -9.766  11.340  65.914  1.00  0.00    -0.258 C  
HETATM   15  O   UNL     1     -10.216  10.693  63.651  1.00  0.00    -0.310 OA 
HETATM   16  H   UNL     1      -8.690   8.168  61.709  1.00  0.00     0.000 HD 
HETATM   17  C   UNL     1     -10.262  12.595  65.769  1.00  0.00    -0.272 C  
HETATM   18  C   UNL     1      -7.268   6.895  65.142  1.00  0.00    -0.074 A  
HETATM   19  O   UNL     1     -10.765  13.051  64.549  1.00  0.00    -0.340 OA 
HETATM   20  C   UNL     1     -10.651  13.499  66.945  1.00  0.00    -0.270 C  
HETATM   21  C   UNL     1      -7.716   7.588  66.274  1.00  0.00    -0.089 A  
HETATM   22  H   UNL     1     -11.112  13.929  64.447  1.00  0.00     0.000 HD 
HETATM   23  C   UNL     1      -9.961  14.935  67.107  1.00  0.00    -0.231 C  
HETATM   24  O   UNL     1     -12.059  13.684  66.705  1.00  0.00    -0.401 OA 
HETATM   25  H   UNL     1     -12.185  14.076  65.850  1.00  0.00     0.000 HD 
HETATM   26  O   UNL     1      -9.408  15.552  66.200  1.00  0.00    -0.295 OA 
HETATM   27  C   UNL     1     -10.117  15.603  68.490  1.00  0.00    -0.211 C  
HETATM   28  H   UNL     1     -13.278  15.362  68.963  1.00  0.00     0.000 HD 
HETATM   29  C   UNL     1     -11.265  15.157  69.043  1.00  0.00    -0.273 C  
HETATM   30  C   UNL     1     -11.257  13.645  69.446  1.00  0.00    -0.196 C  
HETATM   31  O   UNL     1     -12.470  15.676  68.575  1.00  0.00     0.173 OA 
ENDROOT
BRANCH  27  32
HETATM   32  C   UNL     1      -8.978  15.537  69.461  1.00  0.00    -0.244 C  
HETATM   33  N   UNL     1      -7.721  15.456  68.905  1.00  0.00    -0.150 N  
HETATM   34  H1  UNL     1      -6.946  15.412  69.566  1.00  0.00     0.000 HD 
HETATM   35  H2  UNL     1      -7.574  15.442  67.896  1.00  0.00     0.000 HD 
HETATM   36  O   UNL     1      -9.130  15.622  70.665  1.00  0.00     1.007 OA 
ENDBRANCH  27  32
BRANCH  30  37
HETATM   37  N   UNL     1     -12.485  13.042  70.002  1.00  0.00    -0.118 NA 
HETATM   38  C   UNL     1     -13.362  13.910  70.790  1.00  0.00     0.023 C  
HETATM   39  C   UNL     1     -12.152  11.867  70.824  1.00  0.00    -0.226 C  
ENDBRANCH  30  37
TORSDOF 2
ENDMDL
MODEL       69
REMARK 921   NORMALIZED FREE ENERGY PREDICTED BY IDOCK:   -4.81 KCAL/MOL
REMARK 922        TOTAL FREE ENERGY PREDICTED BY IDOCK:   -4.94 KCAL/MOL
REMARK 923 INTER-LIGAND FREE ENERGY PREDICTED BY IDOCK:   -5.06 KCAL/MOL
REMARK 924 INTRA-LIGAND FREE ENERGY PREDICTED BY IDOCK:    0.11 KCAL/MOL
REMARK 927      BINDING AFFINITY PREDICTED BY RF-SCORE:    0.00 PKD
ROOT
HETATM    1  C   UNL     1      -8.159   5.885  66.067  1.00  0.00    -0.115 C  
HETATM    2  C   UNL     1      -7.805   7.233  65.443  1.00  0.00    -0.118 C  
HETATM    3  C   UNL     1      -7.938   8.370  66.520  1.00  0.00    -0.096 C  
HETATM    4  O   UNL     1      -8.623   7.541  64.318  1.00  0.00    -0.362 OA 
HETATM    5  C   UNL     1      -7.472   9.742  66.051  1.00  0.00    -0.102 C  
HETATM    6  H   UNL     1      -8.403   8.379  63.930  1.00  0.00     0.000 HD 
HETATM    7  C   UNL     1      -7.889  10.890  66.873  1.00  0.00    -0.135 A  
HETATM    8  C   UNL     1      -6.870  10.007  64.878  1.00  0.00    -0.133 C  
HETATM    9  C   UNL     1      -9.204  10.933  67.340  1.00  0.00    -0.155 A  
HETATM   10  C   UNL     1      -9.711  12.143  67.842  1.00  0.00    -0.200 A  
HETATM   11  C   UNL     1     -10.044   9.700  67.276  1.00  0.00    -0.211 C  
HETATM   12  O   UNL     1     -11.029  12.332  68.158  1.00  0.00    -0.208 OA 
HETATM   13  C   UNL     1      -8.876  13.254  68.001  1.00  0.00    -0.190 A  
HETATM   14  C   UNL     1      -9.357   8.377  67.063  1.00  0.00    -0.202 C  
HETATM   15  O   UNL     1     -11.260   9.788  67.422  1.00  0.00    -0.120 OA 
HETATM   16  H   UNL     1     -11.372  13.151  68.497  1.00  0.00     0.000 HD 
HETATM   17  C   UNL     1     -10.048   7.220  67.222  1.00  0.00    -0.225 C  
HETATM   18  C   UNL     1      -7.534  13.165  67.658  1.00  0.00    -0.164 A  
HETATM   19  O   UNL     1     -11.411   7.212  67.523  1.00  0.00    -0.551 OA 
HETATM   20  C   UNL     1      -9.537   5.851  66.756  1.00  0.00    -0.148 C  
HETATM   21  C   UNL     1      -7.040  11.989  67.081  1.00  0.00    -0.130 A  
HETATM   22  H   UNL     1     -11.895   6.402  67.635  1.00  0.00     0.000 HD 
HETATM   23  C   UNL     1      -9.377   4.659  67.814  1.00  0.00    -0.141 C  
HETATM   24  O   UNL     1     -10.544   5.486  65.792  1.00  0.00    -0.450 OA 
HETATM   25  H   UNL     1     -11.393   5.466  66.217  1.00  0.00     0.000 HD 
HETATM   26  O   UNL     1      -9.950   4.605  68.898  1.00  0.00    -0.164 OA 
HETATM   27  C   UNL     1      -8.515   3.464  67.353  1.00  0.00    -0.106 C  
HETATM   28  H   UNL     1      -9.806   2.808  64.494  1.00  0.00     0.000 HD 
HETATM   29  C   UNL     1      -8.593   3.386  66.008  1.00  0.00    -0.118 C  
HETATM   30  C   UNL     1      -7.899   4.560  65.240  1.00  0.00    -0.090 C  
HETATM   31  O   UNL     1      -9.752   2.863  65.440  1.00  0.00    -0.024 OA 
ENDROOT
BRANCH  27  32
HETATM   32  C   UNL     1      -7.099   3.364  67.829  1.00  0.00    -0.051 C  
HETATM   33  N   UNL     1      -6.718   4.288  68.776  1.00  0.00    -0.045 N  
HETATM   34  H1  UNL     1      -5.754   4.220  69.101  1.00  0.00     0.000 HD 
HETATM   35  H2  UNL     1      -7.361   4.996  69.132  1.00  0.00     0.000 HD 
HETATM   36  O   UNL     1      -6.340   2.484  67.468  1.00  0.00    -0.030 OA 
ENDBRANCH  27  32
BRANCH  30  37
HETATM   37  N   UNL     1      -7.979   4.604  63.767  1.00  0.00    -0.090 NA 
HETATM   38  C   UNL     1      -9.261   4.252  63.153  1.00  0.00    -0.140 C  
HETATM   39  C   UNL     1      -6.941   3.746  63.171  1.00  0.00    -0.044 C  
ENDBRANCH  30  37
TORSDOF 2
ENDMDL
MODEL       70
REMARK 921   NORMALIZED FREE ENERGY PREDICTED BY IDOCK:   -4.71 KCAL/MOL
REMARK 922        TOTAL FREE ENERGY PREDICTED BY IDOCK:   -4.83 KCAL/MOL
REMARK 923 INTER-LIGAND FREE ENERGY PREDICTED BY IDOCK:   -4.92 KCAL/MOL
REMARK 924 INTRA-LIGAND FREE ENERGY PREDICTED BY IDOCK:    0.09 KCAL/MOL
REMARK 927      BINDING AFFINITY PREDICTED BY RF-SCORE:    0.00 PKD
ROOT
HETATM    1  C   UNL     1      -8.153   6.454  68.686  1.00  0.00    -0.113 C  
HETATM    2  C   UNL     1      -7.246   7.490  68.025  1.00  0.00    -0.090 C  
HETATM    3  C   UNL     1      -7.814   8.935  68.280  1.00  0.00    -0.101 C  
HETATM    4  O   UNL     1      -7.104   7.272  66.625  1.00  0.00    -0.074 OA 
HETATM    5  C   UNL     1      -6.916  10.061  67.789  1.00  0.00    -0.085 C  
HETATM    6  H   UNL     1      -6.540   7.917  66.214  1.00  0.00     0.000 HD 
HETATM    7  C   UNL     1      -7.536  11.392  67.683  1.00  0.00    -0.108 A  
HETATM    8  C   UNL     1      -5.676   9.915  67.289  1.00  0.00    -0.046 C  
HETATM    9  C   UNL     1      -8.816  11.489  67.136  1.00  0.00    -0.168 A  
HETATM   10  C   UNL     1      -9.293  12.747  66.732  1.00  0.00    -0.241 A  
HETATM   11  C   UNL     1      -9.638  10.253  66.973  1.00  0.00    -0.171 C  
HETATM   12  O   UNL     1     -10.454  12.921  66.029  1.00  0.00    -0.267 OA 
HETATM   13  C   UNL     1      -8.557  13.907  66.996  1.00  0.00    -0.190 A  
HETATM   14  C   UNL     1      -9.228   9.017  67.729  1.00  0.00    -0.152 C  
HETATM   15  O   UNL     1     -10.634  10.279  66.256  1.00  0.00    -0.176 OA 
HETATM   16  H   UNL     1     -10.777  13.773  65.755  1.00  0.00     0.000 HD 
HETATM   17  C   UNL     1     -10.062   7.949  67.789  1.00  0.00    -0.192 C  
HETATM   18  C   UNL     1      -7.342  13.817  67.662  1.00  0.00    -0.182 A  
HETATM   19  O   UNL     1     -11.285   7.932  67.115  1.00  0.00    -0.373 OA 
HETATM   20  C   UNL     1      -9.635   6.559  68.275  1.00  0.00    -0.131 C  
HETATM   21  C   UNL     1      -6.822  12.560  67.994  1.00  0.00    -0.094 A  
HETATM   22  H   UNL     1     -11.870   7.184  67.157  1.00  0.00     0.000 HD 
HETATM   23  C   UNL     1     -10.396   5.878  69.508  1.00  0.00    -0.248 C  
HETATM   24  O   UNL     1      -9.860   5.765  67.094  1.00  0.00    -0.126 OA 
HETATM   25  H   UNL     1     -10.773   5.830  66.840  1.00  0.00     0.000 HD 
HETATM   26  O   UNL     1     -11.520   6.187  69.894  1.00  0.00    -0.421 OA 
HETATM   27  C   UNL     1      -9.673   4.681  70.164  1.00  0.00    -0.285 C  
HETATM   28  H   UNL     1      -8.978   2.874  67.610  1.00  0.00     0.000 HD 
HETATM   29  C   UNL     1      -8.903   4.092  69.226  1.00  0.00    -0.094 C  
HETATM   30  C   UNL     1      -7.681   4.945  68.748  1.00  0.00    -0.077 C  
HETATM   31  O   UNL     1      -9.521   3.289  68.271  1.00  0.00    -0.188 OA 
ENDROOT
BRANCH  27  32
HETATM   32  C   UNL     1      -8.918   4.900  71.439  1.00  0.00    -0.134 C  
HETATM   33  N   UNL     1      -9.157   6.094  72.081  1.00  0.00    -0.142 N  
HETATM   34  H1  UNL     1      -8.642   6.243  72.948  1.00  0.00     0.000 HD 
HETATM   35  H2  UNL     1      -9.808   6.787  71.711  1.00  0.00     0.000 HD 
HETATM   36  O   UNL     1      -8.191   4.056  71.929  1.00  0.00    -0.087 OA 
ENDBRANCH  27  32
BRANCH  30  37
HETATM   37  N   UNL     1      -6.809   4.418  67.679  1.00  0.00    -0.054 NA 
HETATM   38  C   UNL     1      -7.463   3.874  66.487  1.00  0.00    -0.083 C  
HETATM   39  C   UNL     1      -5.910   3.383  68.214  1.00  0.00    -0.023 C  
ENDBRANCH  30  37
TORSDOF 2
ENDMDL
MODEL       71
REMARK 921   NORMALIZED FREE ENERGY PREDICTED BY IDOCK:   -4.52 KCAL/MOL
REMARK 922        TOTAL FREE ENERGY PREDICTED BY IDOCK:   -4.62 KCAL/MOL
REMARK 923 INTER-LIGAND FREE ENERGY PREDICTED BY IDOCK:   -4.84 KCAL/MOL
REMARK 924 INTRA-LIGAND FREE ENERGY PREDICTED BY IDOCK:    0.22 KCAL/MOL
REMARK 927      BINDING AFFINITY PREDICTED BY RF-SCORE:    0.00 PKD
ROOT
HETATM    1  C   UNL     1     -10.215   8.769  67.865  1.00  0.00    -0.272 C  
HETATM    2  C   UNL     1     -10.094   7.649  66.835  1.00  0.00    -0.278 C  
HETATM    3  C   UNL     1      -9.711   6.303  67.553  1.00  0.00    -0.129 C  
HETATM    4  O   UNL     1      -9.133   7.942  65.825  1.00  0.00    -0.329 OA 
HETATM    5  C   UNL     1      -9.702   5.083  66.644  1.00  0.00    -0.191 C  
HETATM    6  H   UNL     1      -9.058   7.245  65.184  1.00  0.00     0.000 HD 
HETATM    7  C   UNL     1      -9.026   3.884  67.166  1.00  0.00    -0.152 A  
HETATM    8  C   UNL     1     -10.099   5.058  65.360  1.00  0.00     0.052 C  
HETATM    9  C   UNL     1      -7.802   4.040  67.819  1.00  0.00    -0.086 A  
HETATM   10  C   UNL     1      -6.995   2.911  68.037  1.00  0.00    -0.049 A  
HETATM   11  C   UNL     1      -7.370   5.403  68.249  1.00  0.00    -0.072 C  
HETATM   12  O   UNL     1      -5.712   2.982  68.505  1.00  0.00    -0.021 OA 
HETATM   13  C   UNL     1      -7.466   1.629  67.731  1.00  0.00    -0.054 A  
HETATM   14  C   UNL     1      -8.405   6.496  68.306  1.00  0.00    -0.117 C  
HETATM   15  O   UNL     1      -6.200   5.595  68.569  1.00  0.00    -0.030 OA 
HETATM   16  H   UNL     1      -5.166   2.218  68.653  1.00  0.00     0.000 HD 
HETATM   17  C   UNL     1      -8.111   7.680  68.899  1.00  0.00    -0.127 C  
HETATM   18  C   UNL     1      -8.740   1.468  67.205  1.00  0.00    -0.123 A  
HETATM   19  O   UNL     1      -6.842   7.948  69.418  1.00  0.00    -0.046 OA 
HETATM   20  C   UNL     1      -8.971   8.941  68.759  1.00  0.00    -0.134 C  
HETATM   21  C   UNL     1      -9.518   2.594  66.908  1.00  0.00     0.030 A  
HETATM   22  H   UNL     1      -6.636   8.776  69.834  1.00  0.00     0.000 HD 
HETATM   23  C   UNL     1      -9.568   9.646  70.068  1.00  0.00    -0.243 C  
HETATM   24  O   UNL     1      -8.047   9.845  68.124  1.00  0.00    -0.103 OA 
HETATM   25  H   UNL     1      -7.281   9.951  68.674  1.00  0.00     0.000 HD 
HETATM   26  O   UNL     1      -9.127   9.500  71.204  1.00  0.00    -0.239 OA 
HETATM   27  C   UNL     1     -10.710  10.657  69.824  1.00  0.00    -0.283 C  
HETATM   28  H   UNL     1      -9.450  12.505  67.529  1.00  0.00     0.000 HD 
HETATM   29  C   UNL     1     -10.552  11.178  68.589  1.00  0.00    -0.193 C  
HETATM   30  C   UNL     1     -10.794  10.172  67.415  1.00  0.00    -0.261 C  
HETATM   31  O   UNL     1      -9.562  12.139  68.398  1.00  0.00    -0.209 OA 
ENDROOT
BRANCH  27  32
HETATM   32  C   UNL     1     -12.124  10.224  70.061  1.00  0.00    -0.156 C  
HETATM   33  N   UNL     1     -12.282   9.025  70.718  1.00  0.00    -0.483 N  
HETATM   34  H1  UNL     1     -13.245   8.730  70.879  1.00  0.00     0.000 HD 
HETATM   35  H2  UNL     1     -11.486   8.465  71.024  1.00  0.00     0.000 HD 
HETATM   36  O   UNL     1     -13.084  10.911  69.764  1.00  0.00    -0.057 OA 
ENDBRANCH  27  32
BRANCH  30  37
HETATM   37  N   UNL     1     -10.587  10.624  66.025  1.00  0.00    -0.173 NA 
HETATM   38  C   UNL     1      -9.238  11.060  65.655  1.00  0.00    -0.210 C  
HETATM   39  C   UNL     1     -11.521  11.712  65.694  1.00  0.00    -0.105 C  
ENDBRANCH  30  37
TORSDOF 2
ENDMDL
MODEL       72
REMARK 921   NORMALIZED FREE ENERGY PREDICTED BY IDOCK:   -4.13 KCAL/MOL
REMARK 922        TOTAL FREE ENERGY PREDICTED BY IDOCK:   -4.18 KCAL/MOL
REMARK 923 INTER-LIGAND FREE ENERGY PREDICTED BY IDOCK:   -4.75 KCAL/MOL
REMARK 924 INTRA-LIGAND FREE ENERGY PREDICTED BY IDOCK:    0.57 KCAL/MOL
REMARK 927      BINDING AFFINITY PREDICTED BY RF-SCORE:    0.00 PKD
ROOT
HETATM    1  C   UNL     1     -10.790  12.701  69.144  1.00  0.00    -0.127 C  
HETATM    2  C   UNL     1     -11.032  11.448  69.982  1.00  0.00     0.152 C  
HETATM    3  C   UNL     1     -10.051  10.306  69.528  1.00  0.00    -0.260 C  
HETATM    4  O   UNL     1     -12.377  10.987  69.891  1.00  0.00    -0.322 OA 
HETATM    5  C   UNL     1     -10.102   9.051  70.389  1.00  0.00    -0.248 C  
HETATM    6  H   UNL     1     -12.528  10.207  70.413  1.00  0.00     0.000 HD 
HETATM    7  C   UNL     1      -9.479   7.844  69.822  1.00  0.00    -0.163 A  
HETATM    8  C   UNL     1     -10.804   8.908  71.527  1.00  0.00    -0.396 C  
HETATM    9  C   UNL     1      -9.705   7.547  68.477  1.00  0.00    -0.159 A  
HETATM   10  C   UNL     1      -9.399   6.261  68.001  1.00  0.00    -0.114 A  
HETATM   11  C   UNL     1     -10.287   8.592  67.584  1.00  0.00    -0.254 C  
HETATM   12  O   UNL     1      -9.745   5.819  66.753  1.00  0.00    -0.138 OA 
HETATM   13  C   UNL     1      -8.750   5.333  68.822  1.00  0.00    -0.093 A  
HETATM   14  C   UNL     1     -10.265  10.024  68.051  1.00  0.00    -0.216 C  
HETATM   15  O   UNL     1     -10.740   8.269  66.489  1.00  0.00    -0.090 OA 
HETATM   16  H   UNL     1      -9.537   4.949  66.431  1.00  0.00     0.000 HD 
HETATM   17  C   UNL     1     -10.574  11.025  67.188  1.00  0.00    -0.250 C  
HETATM   18  C   UNL     1      -8.406   5.682  70.121  1.00  0.00    -0.118 A  
HETATM   19  O   UNL     1     -10.973  10.767  65.875  1.00  0.00    -0.087 OA 
HETATM   20  C   UNL     1     -10.862  12.466  67.622  1.00  0.00    -0.225 C  
HETATM   21  C   UNL     1      -8.781   6.931  70.629  1.00  0.00    -0.149 A  
HETATM   22  H   UNL     1     -11.188  11.467  65.270  1.00  0.00     0.000 HD 
HETATM   23  C   UNL     1      -9.979  13.666  67.034  1.00  0.00    -0.248 C  
HETATM   24  O   UNL     1     -12.223  12.629  67.178  1.00  0.00    -0.445 OA 
HETATM   25  H   UNL     1     -12.267  12.484  66.240  1.00  0.00     0.000 HD 
HETATM   26  O   UNL     1      -9.319  13.608  66.001  1.00  0.00    -0.152 OA 
HETATM   27  C   UNL     1     -10.077  15.007  67.795  1.00  0.00    -0.234 C  
HETATM   28  H   UNL     1     -13.252  15.399  67.995  1.00  0.00     0.000 HD 
HETATM   29  C   UNL     1     -11.292  15.068  68.380  1.00  0.00    -0.309 C  
HETATM   30  C   UNL     1     -11.510  14.051  69.550  1.00  0.00    -0.275 C  
HETATM   31  O   UNL     1     -12.397  15.356  67.584  1.00  0.00     0.350 OA 
ENDROOT
BRANCH  27  32
HETATM   32  C   UNL     1      -8.986  15.380  68.751  1.00  0.00    -0.196 C  
HETATM   33  N   UNL     1      -8.125  14.365  69.104  1.00  0.00    -0.334 N  
HETATM   34  H1  UNL     1      -7.382  14.619  69.755  1.00  0.00     0.000 HD 
HETATM   35  H2  UNL     1      -8.224  13.418  68.737  1.00  0.00     0.000 HD 
HETATM   36  O   UNL     1      -8.812  16.518  69.144  1.00  0.00    -0.239 OA 
ENDBRANCH  27  32
BRANCH  30  37
HETATM   37  N   UNL     1     -12.826  13.993  70.217  1.00  0.00    -0.210 NA 
HETATM   38  C   UNL     1     -13.741  15.115  69.996  1.00  0.00     1.079 C  
HETATM   39  C   UNL     1     -12.658  13.825  71.669  1.00  0.00    -0.279 C  
ENDBRANCH  30  37
TORSDOF 2
ENDMDL
MODEL       73
REMARK 921   NORMALIZED FREE ENERGY PREDICTED BY IDOCK:   -3.95 KCAL/MOL
REMARK 922        TOTAL FREE ENERGY PREDICTED BY IDOCK:   -3.99 KCAL/MOL
REMARK 923 INTER-LIGAND FREE ENERGY PREDICTED BY IDOCK:   -4.18 KCAL/MOL
REMARK 924 INTRA-LIGAND FREE ENERGY PREDICTED BY IDOCK:    0.20 KCAL/MOL
REMARK 927      BINDING AFFINITY PREDICTED BY RF-SCORE:    0.00 PKD
ROOT
HETATM    1  C   UNL     1      -8.484   8.343  67.344  1.00  0.00    -0.124 C  
HETATM    2  C   UNL     1      -8.517   6.987  68.045  1.00  0.00    -0.125 C  
HETATM    3  C   UNL     1      -9.003   7.166  69.530  1.00  0.00    -0.140 C  
HETATM    4  O   UNL     1      -7.248   6.339  68.032  1.00  0.00    -0.082 OA 
HETATM    5  C   UNL     1      -9.213   5.863  70.287  1.00  0.00    -0.170 C  
HETATM    6  H   UNL     1      -7.269   5.495  68.468  1.00  0.00     0.000 HD 
HETATM    7  C   UNL     1      -9.325   5.969  71.751  1.00  0.00    -0.158 A  
HETATM    8  C   UNL     1      -9.133   4.628  69.761  1.00  0.00    -0.162 C  
HETATM    9  C   UNL     1      -8.443   6.812  72.428  1.00  0.00    -0.121 A  
HETATM   10  C   UNL     1      -8.315   6.691  73.822  1.00  0.00    -0.114 A  
HETATM   11  C   UNL     1      -7.642   7.807  71.654  1.00  0.00    -0.086 C  
HETATM   12  O   UNL     1      -7.357   7.344  74.549  1.00  0.00    -0.114 OA 
HETATM   13  C   UNL     1      -9.154   5.835  74.542  1.00  0.00    -0.132 A  
HETATM   14  C   UNL     1      -8.069   8.128  70.246  1.00  0.00    -0.109 C  
HETATM   15  O   UNL     1      -6.681   8.355  72.185  1.00  0.00    -0.075 OA 
HETATM   16  H   UNL     1      -7.271   7.261  75.492  1.00  0.00     0.000 HD 
HETATM   17  C   UNL     1      -7.515   9.179  69.590  1.00  0.00    -0.078 C  
HETATM   18  C   UNL     1     -10.122   5.095  73.877  1.00  0.00    -0.228 A  
HETATM   19  O   UNL     1      -6.504   9.952  70.163  1.00  0.00    -0.067 OA 
HETATM   20  C   UNL     1      -7.659   9.415  68.082  1.00  0.00    -0.083 C  
HETATM   21  C   UNL     1     -10.201   5.149  72.480  1.00  0.00    -0.242 A  
HETATM   22  H   UNL     1      -6.116  10.688  69.705  1.00  0.00     0.000 HD 
HETATM   23  C   UNL     1      -8.295  10.784  67.549  1.00  0.00    -0.115 C  
HETATM   24  O   UNL     1      -6.286   9.341  67.652  1.00  0.00    -0.056 OA 
HETATM   25  H   UNL     1      -5.777  10.001  68.107  1.00  0.00     0.000 HD 
HETATM   26  O   UNL     1      -8.361  11.825  68.197  1.00  0.00    -0.141 OA 
HETATM   27  C   UNL     1      -8.748  10.783  66.072  1.00  0.00    -0.190 C  
HETATM   28  H   UNL     1      -6.142   9.632  64.603  1.00  0.00     0.000 HD 
HETATM   29  C   UNL     1      -7.985   9.896  65.401  1.00  0.00    -0.134 C  
HETATM   30  C   UNL     1      -8.228   8.398  65.783  1.00  0.00    -0.131 C  
HETATM   31  O   UNL     1      -6.680  10.257  65.076  1.00  0.00    -0.125 OA 
ENDROOT
BRANCH  27  32
HETATM   32  C   UNL     1     -10.202  10.606  65.760  1.00  0.00    -0.252 C  
HETATM   33  N   UNL     1     -11.041  10.508  66.847  1.00  0.00    -0.139 N  
HETATM   34  H1  UNL     1     -12.031  10.387  66.634  1.00  0.00     0.000 HD 
HETATM   35  H2  UNL     1     -10.695  10.553  67.805  1.00  0.00     0.000 HD 
HETATM   36  O   UNL     1     -10.640  10.620  64.625  1.00  0.00    -0.296 OA 
ENDBRANCH  27  32
BRANCH  30  37
HETATM   37  N   UNL     1      -7.401   7.350  65.151  1.00  0.00    -0.073 NA 
HETATM   38  C   UNL     1      -6.421   7.780  64.152  1.00  0.00    -0.057 C  
HETATM   39  C   UNL     1      -8.257   6.324  64.534  1.00  0.00    -0.062 C  
ENDBRANCH  30  37
TORSDOF 2
ENDMDL
MODEL       74
REMARK 921   NORMALIZED FREE ENERGY PREDICTED BY IDOCK:   -3.83 KCAL/MOL
REMARK 922        TOTAL FREE ENERGY PREDICTED BY IDOCK:   -3.84 KCAL/MOL
REMARK 923 INTER-LIGAND FREE ENERGY PREDICTED BY IDOCK:   -4.74 KCAL/MOL
REMARK 924 INTRA-LIGAND FREE ENERGY PREDICTED BY IDOCK:    0.90 KCAL/MOL
REMARK 927      BINDING AFFINITY PREDICTED BY RF-SCORE:    0.00 PKD
ROOT
HETATM    1  C   UNL     1      -8.992   7.894  69.123  1.00  0.00    -0.145 C  
HETATM    2  C   UNL     1      -8.433   6.513  69.459  1.00  0.00    -0.131 C  
HETATM    3  C   UNL     1      -7.868   5.836  68.156  1.00  0.00    -0.104 C  
HETATM    4  O   UNL     1      -9.408   5.663  70.055  1.00  0.00    -0.143 OA 
HETATM    5  C   UNL     1      -7.155   4.512  68.391  1.00  0.00    -0.056 C  
HETATM    6  H   UNL     1      -9.060   4.804  70.263  1.00  0.00     0.000 HD 
HETATM    7  C   UNL     1      -6.919   3.677  67.202  1.00  0.00    -0.058 A  
HETATM    8  C   UNL     1      -6.881   3.971  69.591  1.00  0.00    -0.041 C  
HETATM    9  C   UNL     1      -7.948   3.540  66.269  1.00  0.00    -0.089 A  
HETATM   10  C   UNL     1      -7.870   2.515  65.311  1.00  0.00    -0.078 A  
HETATM   11  C   UNL     1      -9.114   4.471  66.324  1.00  0.00    -0.123 C  
HETATM   12  O   UNL     1      -8.900   2.190  64.472  1.00  0.00    -0.099 OA 
HETATM   13  C   UNL     1      -6.718   1.728  65.202  1.00  0.00    -0.027 A  
HETATM   14  C   UNL     1      -8.980   5.739  67.125  1.00  0.00    -0.113 C  
HETATM   15  O   UNL     1     -10.136   4.197  65.701  1.00  0.00    -0.211 OA 
HETATM   16  H   UNL     1      -8.847   1.496  63.824  1.00  0.00     0.000 HD 
HETATM   17  C   UNL     1      -9.921   6.711  67.021  1.00  0.00    -0.169 C  
HETATM   18  C   UNL     1      -5.642   1.957  66.048  1.00  0.00    -0.013 A  
HETATM   19  O   UNL     1     -11.060   6.551  66.229  1.00  0.00    -0.423 OA 
HETATM   20  C   UNL     1     -10.036   7.894  67.990  1.00  0.00    -0.177 C  
HETATM   21  C   UNL     1      -5.744   2.921  67.059  1.00  0.00    -0.022 A  
HETATM   22  H   UNL     1     -11.719   7.231  66.156  1.00  0.00     0.000 HD 
HETATM   23  C   UNL     1      -9.953   9.391  67.430  1.00  0.00    -0.199 C  
HETATM   24  O   UNL     1     -11.346   7.677  68.547  1.00  0.00    -0.251 OA 
HETATM   25  H   UNL     1     -11.990   7.676  67.849  1.00  0.00     0.000 HD 
HETATM   26  O   UNL     1     -10.161   9.715  66.263  1.00  0.00    -0.258 OA 
HETATM   27  C   UNL     1      -9.695  10.489  68.485  1.00  0.00    -0.170 C  
HETATM   28  H   UNL     1     -11.922   9.799  70.684  1.00  0.00     0.000 HD 
HETATM   29  C   UNL     1     -10.193  10.062  69.664  1.00  0.00    -0.239 C  
HETATM   30  C   UNL     1      -9.426   8.856  70.303  1.00  0.00    -0.187 C  
HETATM   31  O   UNL     1     -11.572  10.100  69.854  1.00  0.00    -0.253 OA 
ENDROOT
BRANCH  27  32
HETATM   32  C   UNL     1      -8.310  11.037  68.638  1.00  0.00    -0.153 C  
HETATM   33  N   UNL     1      -7.287  10.193  68.270  1.00  0.00    -0.080 N  
HETATM   34  H1  UNL     1      -6.343  10.565  68.375  1.00  0.00     0.000 HD 
HETATM   35  H2  UNL     1      -7.461   9.252  67.915  1.00  0.00     0.000 HD 
HETATM   36  O   UNL     1      -8.086  12.179  68.994  1.00  0.00     0.061 OA 
ENDBRANCH  27  32
BRANCH  30  37
HETATM   37  N   UNL     1      -9.926   8.271  71.563  1.00  0.00    -0.185 NA 
HETATM   38  C   UNL     1     -11.219   8.749  72.058  1.00  0.00    -0.373 C  
HETATM   39  C   UNL     1      -8.936   8.446  72.637  1.00  0.00    -0.234 C  
ENDBRANCH  30  37
TORSDOF 2
ENDMDL
MODEL       75
REMARK 921   NORMALIZED FREE ENERGY PREDICTED BY IDOCK:   -3.70 KCAL/MOL
REMARK 922        TOTAL FREE ENERGY PREDICTED BY IDOCK:   -3.70 KCAL/MOL
REMARK 923 INTER-LIGAND FREE ENERGY PREDICTED BY IDOCK:   -3.98 KCAL/MOL
REMARK 924 INTRA-LIGAND FREE ENERGY PREDICTED BY IDOCK:    0.28 KCAL/MOL
REMARK 927      BINDING AFFINITY PREDICTED BY RF-SCORE:    0.00 PKD
ROOT
HETATM    1  C   UNL     1      -9.675   5.084  70.723  1.00  0.00    -0.263 C  
HETATM    2  C   UNL     1      -9.897   5.277  69.225  1.00  0.00    -0.186 C  
HETATM    3  C   UNL     1      -9.456   3.981  68.450  1.00  0.00    -0.211 C  
HETATM    4  O   UNL     1      -9.192   6.404  68.713  1.00  0.00    -0.128 OA 
HETATM    5  C   UNL     1      -9.764   4.002  66.959  1.00  0.00    -0.214 C  
HETATM    6  H   UNL     1      -9.330   6.523  67.780  1.00  0.00     0.000 HD 
HETATM    7  C   UNL     1      -9.075   2.994  66.136  1.00  0.00    -0.146 A  
HETATM    8  C   UNL     1     -10.463   4.953  66.315  1.00  0.00    -0.349 C  
HETATM    9  C   UNL     1      -7.721   2.753  66.371  1.00  0.00    -0.076 A  
HETATM   10  C   UNL     1      -6.975   2.049  65.411  1.00  0.00    -0.043 A  
HETATM   11  C   UNL     1      -7.093   3.267  67.625  1.00  0.00    -0.050 C  
HETATM   12  O   UNL     1      -5.615   1.916  65.465  1.00  0.00    -0.014 OA 
HETATM   13  C   UNL     1      -7.604   1.477  64.300  1.00  0.00    -0.059 A  
HETATM   14  C   UNL     1      -7.995   3.695  68.753  1.00  0.00    -0.062 C  
HETATM   15  O   UNL     1      -5.869   3.305  67.717  1.00  0.00    -0.021 OA 
HETATM   16  H   UNL     1      -5.110   1.439  64.815  1.00  0.00     0.000 HD 
HETATM   17  C   UNL     1      -7.474   3.953  69.979  1.00  0.00    -0.045 C  
HETATM   18  C   UNL     1      -8.977   1.606  64.141  1.00  0.00    -0.103 A  
HETATM   19  O   UNL     1      -6.100   3.891  70.222  1.00  0.00    -0.018 OA 
HETATM   20  C   UNL     1      -8.242   4.662  71.100  1.00  0.00    -0.092 C  
HETATM   21  C   UNL     1      -9.714   2.376  65.049  1.00  0.00     0.140 A  
HETATM   22  H   UNL     1      -5.735   4.071  71.080  1.00  0.00     0.000 HD 
HETATM   23  C   UNL     1      -8.444   3.933  72.511  1.00  0.00    -0.098 C  
HETATM   24  O   UNL     1      -7.434   5.839  71.296  1.00  0.00    -0.089 OA 
HETATM   25  H   UNL     1      -6.550   5.579  71.528  1.00  0.00     0.000 HD 
HETATM   26  O   UNL     1      -7.752   3.007  72.926  1.00  0.00    -0.050 OA 
HETATM   27  C   UNL     1      -9.530   4.536  73.429  1.00  0.00    -0.131 C  
HETATM   28  H   UNL     1      -8.730   7.640  73.412  1.00  0.00     0.000 HD 
HETATM   29  C   UNL     1      -9.638   5.850  73.141  1.00  0.00    -0.146 C  
HETATM   30  C   UNL     1     -10.237   6.168  71.731  1.00  0.00    -0.202 C  
HETATM   31  O   UNL     1      -8.654   6.715  73.614  1.00  0.00    -0.120 OA 
ENDROOT
BRANCH  27  32
HETATM   32  C   UNL     1     -10.872   3.876  73.496  1.00  0.00    -0.241 C  
HETATM   33  N   UNL     1     -10.878   2.510  73.322  1.00  0.00    -0.171 N  
HETATM   34  H1  UNL     1     -11.792   2.060  73.368  1.00  0.00     0.000 HD 
HETATM   35  H2  UNL     1     -10.022   1.981  73.157  1.00  0.00     0.000 HD 
HETATM   36  O   UNL     1     -11.894   4.481  73.760  1.00  0.00    -0.052 OA 
ENDBRANCH  27  32
BRANCH  30  37
HETATM   37  N   UNL     1     -10.341   7.574  71.293  1.00  0.00    -0.193 NA 
HETATM   38  C   UNL     1      -9.952   8.607  72.255  1.00  0.00    -0.291 C  
HETATM   39  C   UNL     1     -11.709   7.870  70.837  1.00  0.00    -0.257 C  
ENDBRANCH  30  37
TORSDOF 2
ENDMDL
MODEL       76
REMARK 921   NORMALIZED FREE ENERGY PREDICTED BY IDOCK:   -3.53 KCAL/MOL
REMARK 922        TOTAL FREE ENERGY PREDICTED BY IDOCK:   -3.51 KCAL/MOL
REMARK 923 INTER-LIGAND FREE ENERGY PREDICTED BY IDOCK:   -6.16 KCAL/MOL
REMARK 924 INTRA-LIGAND FREE ENERGY PREDICTED BY IDOCK:    2.65 KCAL/MOL
REMARK 927      BINDING AFFINITY PREDICTED BY RF-SCORE:    0.00 PKD
ROOT
HETATM    1  C   UNL     1      -9.548  14.979  67.405  1.00  0.00    -0.205 C  
HETATM    2  C   UNL     1     -10.025  13.555  67.130  1.00  0.00    -0.246 C  
HETATM    3  C   UNL     1      -9.680  12.632  68.356  1.00  0.00    -0.187 C  
HETATM    4  O   UNL     1      -9.451  13.011  65.945  1.00  0.00    -0.441 OA 
HETATM    5  C   UNL     1     -10.235  11.218  68.257  1.00  0.00    -0.198 C  
HETATM    6  H   UNL     1      -9.748  12.125  65.774  1.00  0.00     0.000 HD 
HETATM    7  C   UNL     1      -9.663  10.226  69.182  1.00  0.00    -0.229 A  
HETATM    8  C   UNL     1     -11.062  10.765  67.298  1.00  0.00    -0.339 C  
HETATM    9  C   UNL     1      -8.282  10.216  69.380  1.00  0.00    -0.171 A  
HETATM   10  C   UNL     1      -7.687   9.100  69.992  1.00  0.00    -0.088 A  
HETATM   11  C   UNL     1      -7.468  11.380  68.918  1.00  0.00    -0.113 C  
HETATM   12  O   UNL     1      -6.333   8.918  70.070  1.00  0.00    -0.036 OA 
HETATM   13  C   UNL     1      -8.476   8.072  70.520  1.00  0.00    -0.125 A  
HETATM   14  C   UNL     1      -8.180  12.668  68.599  1.00  0.00     0.008 C  
HETATM   15  O   UNL     1      -6.248  11.270  68.835  1.00  0.00    -0.048 OA 
HETATM   16  H   UNL     1      -5.931   8.163  70.485  1.00  0.00     0.000 HD 
HETATM   17  C   UNL     1      -7.469  13.805  68.395  1.00  0.00    -0.119 C  
HETATM   18  C   UNL     1      -9.859   8.152  70.439  1.00  0.00    -0.188 A  
HETATM   19  O   UNL     1      -6.073  13.812  68.414  1.00  0.00    -0.085 OA 
HETATM   20  C   UNL     1      -8.059  15.084  67.789  1.00  0.00    -0.149 C  
HETATM   21  C   UNL     1     -10.456   9.220  69.758  1.00  0.00    -0.235 A  
HETATM   22  H   UNL     1      -5.574  14.608  68.272  1.00  0.00     0.000 HD 
HETATM   23  C   UNL     1      -7.998  16.456  68.612  1.00  0.00    -0.220 C  
HETATM   24  O   UNL     1      -7.267  15.222  66.594  1.00  0.00    -0.255 OA 
HETATM   25  H   UNL     1      -6.349  15.286  66.830  1.00  0.00     0.000 HD 
HETATM   26  O   UNL     1      -7.218  16.687  69.531  1.00  0.00    -0.196 OA 
HETATM   27  C   UNL     1      -8.932  17.580  68.113  1.00  0.00    -0.266 C  
HETATM   28  H   UNL     1      -8.243  17.641  64.983  1.00  0.00     0.000 HD 
HETATM   29  C   UNL     1      -9.128  17.404  66.789  1.00  0.00    -0.260 C  
HETATM   30  C   UNL     1      -9.966  16.137  66.411  1.00  0.00    -0.299 C  
HETATM   31  O   UNL     1      -8.106  17.765  65.915  1.00  0.00    -0.527 OA 
ENDROOT
BRANCH  27  32
HETATM   32  C   UNL     1     -10.223  17.824  68.832  1.00  0.00    -0.345 C  
HETATM   33  N   UNL     1     -11.041  18.788  68.287  1.00  0.00    -0.044 N  
HETATM   34  H1  UNL     1     -11.920  18.954  68.776  1.00  0.00     0.000 HD 
HETATM   35  H2  UNL     1     -10.784  19.304  67.445  1.00  0.00     0.000 HD 
HETATM   36  O   UNL     1     -10.576  17.170  69.796  1.00  0.00    -0.200 OA 
ENDBRANCH  27  32
BRANCH  30  37
HETATM   37  N   UNL     1     -10.185  15.819  64.986  1.00  0.00    -0.464 NA 
HETATM   38  C   UNL     1     -11.114  16.672  64.242  1.00  0.00     0.540 C  
HETATM   39  C   UNL     1     -10.631  14.424  64.835  1.00  0.00    -0.434 C  
ENDBRANCH  30  37
TORSDOF 2
ENDMDL
MODEL       77
REMARK 921   NORMALIZED FREE ENERGY PREDICTED BY IDOCK:   -3.34 KCAL/MOL
REMARK 922        TOTAL FREE ENERGY PREDICTED BY IDOCK:   -3.31 KCAL/MOL
REMARK 923 INTER-LIGAND FREE ENERGY PREDICTED BY IDOCK:   -5.53 KCAL/MOL
REMARK 924 INTRA-LIGAND FREE ENERGY PREDICTED BY IDOCK:    2.22 KCAL/MOL
REMARK 927      BINDING AFFINITY PREDICTED BY RF-SCORE:    0.00 PKD
ROOT
HETATM    1  C   UNL     1      -8.342   6.628  67.646  1.00  0.00    -0.122 C  
HETATM    2  C   UNL     1      -8.883   6.358  69.048  1.00  0.00    -0.129 C  
HETATM    3  C   UNL     1     -10.299   7.023  69.211  1.00  0.00    -0.210 C  
HETATM    4  O   UNL     1      -8.010   6.837  70.067  1.00  0.00    -0.112 OA 
HETATM    5  C   UNL     1     -11.001   6.700  70.522  1.00  0.00    -0.337 C  
HETATM    6  H   UNL     1      -8.347   6.669  70.940  1.00  0.00     0.000 HD 
HETATM    7  C   UNL     1     -12.147   7.554  70.877  1.00  0.00    -0.254 A  
HETATM    8  C   UNL     1     -10.568   5.830  71.451  1.00  0.00    -0.313 C  
HETATM    9  C   UNL     1     -12.036   8.932  70.686  1.00  0.00    -0.105 A  
HETATM   10  C   UNL     1     -12.967   9.785  71.302  1.00  0.00    -0.380 A  
HETATM   11  C   UNL     1     -10.919   9.468  69.852  1.00  0.00    -0.238 C  
HETATM   12  O   UNL     1     -12.841  11.147  71.322  1.00  0.00    -0.394 OA 
HETATM   13  C   UNL     1     -14.070   9.261  71.984  1.00  0.00    -0.323 A  
HETATM   14  C   UNL     1     -10.180   8.515  68.949  1.00  0.00    -0.221 C  
HETATM   15  O   UNL     1     -10.648  10.664  69.899  1.00  0.00    -0.238 OA 
HETATM   16  H   UNL     1     -13.471  11.724  71.739  1.00  0.00     0.000 HD 
HETATM   17  C   UNL     1      -9.318   8.993  68.017  1.00  0.00    -0.141 C  
HETATM   18  C   UNL     1     -14.248   7.886  72.056  1.00  0.00    -0.441 A  
HETATM   19  O   UNL     1      -9.043  10.356  67.900  1.00  0.00    -0.131 OA 
HETATM   20  C   UNL     1      -8.313   8.119  67.257  1.00  0.00    -0.121 C  
HETATM   21  C   UNL     1     -13.282   7.029  71.516  1.00  0.00    -0.382 A  
HETATM   22  H   UNL     1      -8.440  10.691  67.247  1.00  0.00     0.000 HD 
HETATM   23  C   UNL     1      -8.352   8.070  65.657  1.00  0.00    -0.141 C  
HETATM   24  O   UNL     1      -7.062   8.697  67.675  1.00  0.00    -0.077 OA 
HETATM   25  H   UNL     1      -7.044   9.616  67.436  1.00  0.00     0.000 HD 
HETATM   26  O   UNL     1      -8.867   8.926  64.943  1.00  0.00    -0.186 OA 
HETATM   27  C   UNL     1      -7.583   6.902  65.002  1.00  0.00    -0.104 C  
HETATM   28  H   UNL     1      -4.736   7.114  66.459  1.00  0.00     0.000 HD 
HETATM   29  C   UNL     1      -6.575   6.549  65.828  1.00  0.00    -0.044 C  
HETATM   30  C   UNL     1      -7.027   5.886  67.172  1.00  0.00    -0.069 C  
HETATM   31  O   UNL     1      -5.445   7.361  65.878  1.00  0.00    -0.027 OA 
ENDROOT
BRANCH  27  32
HETATM   32  C   UNL     1      -8.348   5.705  64.527  1.00  0.00    -0.108 C  
HETATM   33  N   UNL     1      -7.759   4.979  63.516  1.00  0.00    -0.070 N  
HETATM   34  H1  UNL     1      -8.280   4.165  63.193  1.00  0.00     0.000 HD 
HETATM   35  H2  UNL     1      -6.857   5.239  63.116  1.00  0.00     0.000 HD 
HETATM   36  O   UNL     1      -9.390   5.341  65.039  1.00  0.00    -0.046 OA 
ENDBRANCH  27  32
BRANCH  30  37
HETATM   37  N   UNL     1      -6.005   5.519  68.173  1.00  0.00    -0.017 NA 
HETATM   38  C   UNL     1      -6.284   4.359  69.022  1.00  0.00    -0.031 C  
HETATM   39  C   UNL     1      -5.714   6.664  69.051  1.00  0.00    -0.017 C  
ENDBRANCH  30  37
TORSDOF 2
ENDMDL
MODEL       78
REMARK 921   NORMALIZED FREE ENERGY PREDICTED BY IDOCK:   -3.26 KCAL/MOL
REMARK 922        TOTAL FREE ENERGY PREDICTED BY IDOCK:   -3.21 KCAL/MOL
REMARK 923 INTER-LIGAND FREE ENERGY PREDICTED BY IDOCK:   -5.38 KCAL/MOL
REMARK 924 INTRA-LIGAND FREE ENERGY PREDICTED BY IDOCK:    2.17 KCAL/MOL
REMARK 927      BINDING AFFINITY PREDICTED BY RF-SCORE:    0.00 PKD
ROOT
HETATM    1  C   UNL     1      -9.125  11.528  66.386  1.00  0.00    -0.206 C  
HETATM    2  C   UNL     1      -9.536  12.925  65.929  1.00  0.00    -0.124 C  
HETATM    3  C   UNL     1      -9.246  13.967  67.071  1.00  0.00    -0.257 C  
HETATM    4  O   UNL     1     -10.910  12.992  65.559  1.00  0.00    -0.273 OA 
HETATM    5  C   UNL     1      -9.483  15.418  66.677  1.00  0.00    -0.281 C  
HETATM    6  H   UNL     1     -11.166  13.862  65.274  1.00  0.00     0.000 HD 
HETATM    7  C   UNL     1      -9.566  16.389  67.780  1.00  0.00    -0.231 A  
HETATM    8  C   UNL     1      -9.790  15.856  65.443  1.00  0.00    -0.163 C  
HETATM    9  C   UNL     1     -10.299  16.045  68.917  1.00  0.00    -0.235 A  
HETATM   10  C   UNL     1     -10.658  17.052  69.828  1.00  0.00    -0.000 A  
HETATM   11  C   UNL     1     -10.702  14.623  69.126  1.00  0.00    -0.255 C  
HETATM   12  O   UNL     1     -11.519  16.849  70.873  1.00  0.00    -0.419 OA 
HETATM   13  C   UNL     1     -10.176  18.356  69.676  1.00  0.00     0.501 A  
HETATM   14  C   UNL     1     -10.005  13.557  68.322  1.00  0.00    -0.237 C  
HETATM   15  O   UNL     1     -11.563  14.354  69.958  1.00  0.00    -0.265 OA 
HETATM   16  H   UNL     1     -11.762  17.531  71.489  1.00  0.00     0.000 HD 
HETATM   17  C   UNL     1     -10.175  12.248  68.636  1.00  0.00    -0.165 C  
HETATM   18  C   UNL     1      -9.336  18.663  68.614  1.00  0.00    -0.375 A  
HETATM   19  O   UNL     1     -11.034  11.843  69.660  1.00  0.00    -0.455 OA 
HETATM   20  C   UNL     1      -9.756  11.090  67.723  1.00  0.00    -0.170 C  
HETATM   21  C   UNL     1      -9.040  17.685  67.656  1.00  0.00    -0.241 A  
HETATM   22  H   UNL     1     -11.154  10.927  69.880  1.00  0.00     0.000 HD 
HETATM   23  C   UNL     1      -8.726   9.988  68.259  1.00  0.00    -0.119 C  
HETATM   24  O   UNL     1     -11.024  10.457  67.468  1.00  0.00    -0.291 OA 
HETATM   25  H   UNL     1     -11.413  10.188  68.291  1.00  0.00     0.000 HD 
HETATM   26  O   UNL     1      -8.497   9.760  69.444  1.00  0.00    -0.131 OA 
HETATM   27  C   UNL     1      -8.074   9.097  67.179  1.00  0.00    -0.109 C  
HETATM   28  H   UNL     1     -10.638   8.119  65.523  1.00  0.00     0.000 HD 
HETATM   29  C   UNL     1      -8.927   9.011  66.136  1.00  0.00    -0.177 C  
HETATM   30  C   UNL     1      -9.125  10.342  65.338  1.00  0.00    -0.189 C  
HETATM   31  O   UNL     1     -10.037   8.179  66.256  1.00  0.00    -0.197 OA 
ENDROOT
BRANCH  27  32
HETATM   32  C   UNL     1      -6.681   9.408  66.725  1.00  0.00    -0.072 C  
HETATM   33  N   UNL     1      -6.186   8.612  65.717  1.00  0.00    -0.055 N  
HETATM   34  H1  UNL     1      -5.237   8.824  65.409  1.00  0.00     0.000 HD 
HETATM   35  H2  UNL     1      -6.734   7.856  65.305  1.00  0.00     0.000 HD 
HETATM   36  O   UNL     1      -6.040  10.348  67.158  1.00  0.00    -0.053 OA 
ENDBRANCH  27  32
BRANCH  30  37
HETATM   37  N   UNL     1     -10.085  10.372  64.216  1.00  0.00    -0.307 NA 
HETATM   38  C   UNL     1      -9.683  11.095  63.008  1.00  0.00    -0.359 C  
HETATM   39  C   UNL     1     -11.377  10.918  64.662  1.00  0.00     0.529 C  
ENDBRANCH  30  37
TORSDOF 2
ENDMDL
MODEL       79
REMARK 921   NORMALIZED FREE ENERGY PREDICTED BY IDOCK:   -3.09 KCAL/MOL
REMARK 922        TOTAL FREE ENERGY PREDICTED BY IDOCK:   -3.02 KCAL/MOL
REMARK 923 INTER-LIGAND FREE ENERGY PREDICTED BY IDOCK:   -3.42 KCAL/MOL
REMARK 924 INTRA-LIGAND FREE ENERGY PREDICTED BY IDOCK:    0.40 KCAL/MOL
REMARK 927      BINDING AFFINITY PREDICTED BY RF-SCORE:    0.00 PKD
ROOT
HETATM    1  C   UNL     1      -7.906   7.593  69.223  1.00  0.00    -0.121 C  
HETATM    2  C   UNL     1      -6.789   8.452  69.810  1.00  0.00    -0.043 C  
HETATM    3  C   UNL     1      -7.183   9.972  69.721  1.00  0.00    -0.127 C  
HETATM    4  O   UNL     1      -5.542   8.242  69.155  1.00  0.00    -0.030 OA 
HETATM    5  C   UNL     1      -6.207  10.919  70.406  1.00  0.00    -0.118 C  
HETATM    6  H   UNL     1      -4.847   8.777  69.520  1.00  0.00     0.000 HD 
HETATM    7  C   UNL     1      -6.331  12.345  70.063  1.00  0.00    -0.005 A  
HETATM    8  C   UNL     1      -5.150  10.551  71.151  1.00  0.00    -0.088 C  
HETATM    9  C   UNL     1      -6.523  12.695  68.726  1.00  0.00    -0.085 A  
HETATM   10  C   UNL     1      -6.325  14.030  68.334  1.00  0.00    -0.105 A  
HETATM   11  C   UNL     1      -6.913  11.642  67.742  1.00  0.00    -0.084 C  
HETATM   12  O   UNL     1      -6.316  14.436  67.028  1.00  0.00    -0.271 OA 
HETATM   13  C   UNL     1      -6.073  15.022  69.287  1.00  0.00    -0.107 A  
HETATM   14  C   UNL     1      -7.443  10.333  68.268  1.00  0.00    -0.086 C  
HETATM   15  O   UNL     1      -6.818  11.871  66.540  1.00  0.00     0.004 OA 
HETATM   16  H   UNL     1      -6.182  15.339  66.763  1.00  0.00     0.000 HD 
HETATM   17  C   UNL     1      -8.014   9.442  67.420  1.00  0.00    -0.106 C  
HETATM   18  C   UNL     1      -6.016  14.689  70.633  1.00  0.00    -0.164 A  
HETATM   19  O   UNL     1      -8.078   9.672  66.044  1.00  0.00    -0.110 OA 
HETATM   20  C   UNL     1      -8.318   7.986  67.791  1.00  0.00    -0.129 C  
HETATM   21  C   UNL     1      -6.130  13.349  71.024  1.00  0.00     0.188 A  
HETATM   22  H   UNL     1      -8.478   9.049  65.450  1.00  0.00     0.000 HD 
HETATM   23  C   UNL     1      -9.818   7.435  67.688  1.00  0.00    -0.154 C  
HETATM   24  O   UNL     1      -7.495   7.275  66.846  1.00  0.00    -0.092 OA 
HETATM   25  H   UNL     1      -7.749   7.518  65.963  1.00  0.00     0.000 HD 
HETATM   26  O   UNL     1     -10.705   7.943  67.008  1.00  0.00    -0.339 OA 
HETATM   27  C   UNL     1     -10.098   6.108  68.428  1.00  0.00    -0.186 C  
HETATM   28  H   UNL     1      -7.712   4.259  67.352  1.00  0.00     0.000 HD 
HETATM   29  C   UNL     1      -8.948   5.404  68.474  1.00  0.00    -0.107 C  
HETATM   30  C   UNL     1      -7.836   6.020  69.388  1.00  0.00    -0.099 C  
HETATM   31  O   UNL     1      -8.521   4.755  67.319  1.00  0.00    -0.106 OA 
ENDROOT
BRANCH  27  32
HETATM   32  C   UNL     1     -10.771   6.151  69.764  1.00  0.00    -0.310 C  
HETATM   33  N   UNL     1     -10.742   4.981  70.489  1.00  0.00    -0.079 N  
HETATM   34  H1  UNL     1     -11.200   5.011  71.400  1.00  0.00     0.000 HD 
HETATM   35  H2  UNL     1     -10.289   4.137  70.138  1.00  0.00     0.000 HD 
HETATM   36  O   UNL     1     -11.255   7.167  70.229  1.00  0.00    -0.269 OA 
ENDBRANCH  27  32
BRANCH  30  37
HETATM   37  N   UNL     1      -6.517   5.361  69.461  1.00  0.00    -0.036 NA 
HETATM   38  C   UNL     1      -6.307   4.184  68.616  1.00  0.00    -0.036 C  
HETATM   39  C   UNL     1      -6.209   4.984  70.850  1.00  0.00    -0.019 C  
ENDBRANCH  30  37
TORSDOF 2
ENDMDL
MODEL       80
REMARK 921   NORMALIZED FREE ENERGY PREDICTED BY IDOCK:   -2.82 KCAL/MOL
REMARK 922        TOTAL FREE ENERGY PREDICTED BY IDOCK:   -2.71 KCAL/MOL
REMARK 923 INTER-LIGAND FREE ENERGY PREDICTED BY IDOCK:   -3.55 KCAL/MOL
REMARK 924 INTRA-LIGAND FREE ENERGY PREDICTED BY IDOCK:    0.83 KCAL/MOL
REMARK 927      BINDING AFFINITY PREDICTED BY RF-SCORE:    0.00 PKD
ROOT
HETATM    1  C   UNL     1     -10.934  15.138  68.699  1.00  0.00    -0.256 C  
HETATM    2  C   UNL     1     -11.025  16.662  68.647  1.00  0.00    -0.328 C  
HETATM    3  C   UNL     1      -9.814  17.240  67.828  1.00  0.00    -0.281 C  
HETATM    4  O   UNL     1     -11.048  17.248  69.945  1.00  0.00    -0.234 OA 
HETATM    5  C   UNL     1      -9.876  18.742  67.586  1.00  0.00    -0.365 C  
HETATM    6  H   UNL     1     -11.105  18.196  69.912  1.00  0.00     0.000 HD 
HETATM    7  C   UNL     1      -8.628  19.384  67.142  1.00  0.00    -0.325 A  
HETATM    8  C   UNL     1     -10.905  19.546  67.904  1.00  0.00    -0.304 C  
HETATM    9  C   UNL     1      -7.432  19.018  67.761  1.00  0.00    -0.271 A  
HETATM   10  C   UNL     1      -6.297  19.827  67.588  1.00  0.00    -0.201 A  
HETATM   11  C   UNL     1      -7.394  17.790  68.610  1.00  0.00    -0.269 C  
HETATM   12  O   UNL     1      -5.135  19.653  68.290  1.00  0.00    -0.184 OA 
HETATM   13  C   UNL     1      -6.321  20.907  66.700  1.00  0.00    -0.344 A  
HETATM   14  C   UNL     1      -8.516  16.794  68.477  1.00  0.00    -0.244 C  
HETATM   15  O   UNL     1      -6.447  17.608  69.370  1.00  0.00    -0.248 OA 
HETATM   16  H   UNL     1      -4.367  20.200  68.172  1.00  0.00     0.000 HD 
HETATM   17  C   UNL     1      -8.411  15.571  69.056  1.00  0.00    -0.227 C  
HETATM   18  C   UNL     1      -7.476  21.186  65.983  1.00  0.00     0.598 A  
HETATM   19  O   UNL     1      -7.305  15.217  69.831  1.00  0.00    -0.188 OA 
HETATM   20  C   UNL     1      -9.589  14.605  69.228  1.00  0.00    -0.010 C  
HETATM   21  C   UNL     1      -8.636  20.436  66.211  1.00  0.00    -0.086 A  
HETATM   22  H   UNL     1      -7.231  14.361  70.236  1.00  0.00     0.000 HD 
HETATM   23  C   UNL     1      -9.513  13.137  68.593  1.00  0.00    -0.007 C  
HETATM   24  O   UNL     1      -9.651  14.488  70.663  1.00  0.00     0.721 OA 
HETATM   25  H   UNL     1      -8.822  14.160  70.989  1.00  0.00     0.000 HD 
HETATM   26  O   UNL     1      -8.474  12.562  68.279  1.00  0.00    -0.169 OA 
HETATM   27  C   UNL     1     -10.857  12.384  68.482  1.00  0.00    -0.270 C  
HETATM   28  H   UNL     1     -12.020  12.708  71.450  1.00  0.00     0.000 HD 
HETATM   29  C   UNL     1     -11.671  12.833  69.460  1.00  0.00    -0.318 C  
HETATM   30  C   UNL     1     -12.149  14.313  69.289  1.00  0.00    -0.313 C  
HETATM   31  O   UNL     1     -11.447  12.392  70.762  1.00  0.00     0.465 OA 
ENDROOT
BRANCH  27  32
HETATM   32  C   UNL     1     -11.558  12.342  67.159  1.00  0.00    -0.365 C  
HETATM   33  N   UNL     1     -10.856  12.856  66.091  1.00  0.00    -0.276 N  
HETATM   34  H1  UNL     1     -11.334  12.827  65.191  1.00  0.00     0.000 HD 
HETATM   35  H2  UNL     1      -9.917  13.241  66.195  1.00  0.00     0.000 HD 
HETATM   36  O   UNL     1     -12.649  11.824  67.005  1.00  0.00     0.654 OA 
ENDBRANCH  27  32
BRANCH  30  37
HETATM   37  N   UNL     1     -12.993  14.922  70.336  1.00  0.00    -0.278 NA 
HETATM   38  C   UNL     1     -12.321  15.403  71.545  1.00  0.00    -0.377 C  
HETATM   39  C   UNL     1     -14.054  13.989  70.748  1.00  0.00     0.752 C  
ENDBRANCH  30  37
TORSDOF 2
ENDMDL
MODEL       81
REMARK 921   NORMALIZED FREE ENERGY PREDICTED BY IDOCK:   -2.51 KCAL/MOL
REMARK 922        TOTAL FREE ENERGY PREDICTED BY IDOCK:   -2.38 KCAL/MOL
REMARK 923 INTER-LIGAND FREE ENERGY PREDICTED BY IDOCK:   -2.87 KCAL/MOL
REMARK 924 INTRA-LIGAND FREE ENERGY PREDICTED BY IDOCK:    0.50 KCAL/MOL
REMARK 927      BINDING AFFINITY PREDICTED BY RF-SCORE:    0.00 PKD
ROOT
HETATM    1  C   UNL     1     -10.997   8.551  69.667  1.00  0.00    -0.093 C  
HETATM    2  C   UNL     1     -10.278   7.900  68.488  1.00  0.00    -0.205 C  
HETATM    3  C   UNL     1      -9.897   6.418  68.849  1.00  0.00    -0.152 C  
HETATM    4  O   UNL     1      -9.107   8.615  68.105  1.00  0.00    -0.140 OA 
HETATM    5  C   UNL     1      -9.301   5.621  67.697  1.00  0.00    -0.111 C  
HETATM    6  H   UNL     1      -8.659   8.210  67.372  1.00  0.00     0.000 HD 
HETATM    7  C   UNL     1      -8.615   4.368  68.055  1.00  0.00    -0.111 A  
HETATM    8  C   UNL     1      -9.198   6.040  66.423  1.00  0.00    -0.163 C  
HETATM    9  C   UNL     1      -7.770   4.365  69.165  1.00  0.00    -0.055 A  
HETATM   10  C   UNL     1      -6.872   3.298  69.337  1.00  0.00    -0.041 A  
HETATM   11  C   UNL     1      -7.824   5.503  70.130  1.00  0.00    -0.089 C  
HETATM   12  O   UNL     1      -5.888   3.289  70.287  1.00  0.00    -0.017 OA 
HETATM   13  C   UNL     1      -6.914   2.187  68.488  1.00  0.00    -0.040 A  
HETATM   14  C   UNL     1      -9.020   6.418  70.090  1.00  0.00    -0.154 C  
HETATM   15  O   UNL     1      -6.917   5.651  70.943  1.00  0.00    -0.057 OA 
HETATM   16  H   UNL     1      -5.280   2.567  70.403  1.00  0.00     0.000 HD 
HETATM   17  C   UNL     1      -9.220   7.320  71.084  1.00  0.00    -0.156 C  
HETATM   18  C   UNL     1      -7.850   2.136  67.463  1.00  0.00    -0.060 A  
HETATM   19  O   UNL     1      -8.310   7.472  72.132  1.00  0.00    -0.105 OA 
HETATM   20  C   UNL     1     -10.223   8.476  70.998  1.00  0.00    -0.203 C  
HETATM   21  C   UNL     1      -8.693   3.231  67.235  1.00  0.00    -0.135 A  
HETATM   22  H   UNL     1      -8.449   8.103  72.828  1.00  0.00     0.000 HD 
HETATM   23  C   UNL     1     -11.384   8.604  72.093  1.00  0.00    -0.364 C  
HETATM   24  O   UNL     1      -9.350   9.616  71.109  1.00  0.00    -0.322 OA 
HETATM   25  H   UNL     1      -8.873   9.570  71.928  1.00  0.00     0.000 HD 
HETATM   26  O   UNL     1     -11.358   8.084  73.205  1.00  0.00    -0.317 OA 
HETATM   27  C   UNL     1     -12.553   9.544  71.725  1.00  0.00    -0.490 C  
HETATM   28  H   UNL     1     -10.986  12.196  70.839  1.00  0.00     0.000 HD 
HETATM   29  C   UNL     1     -12.080  10.493  70.890  1.00  0.00    -0.383 C  
HETATM   30  C   UNL     1     -11.664   9.973  69.473  1.00  0.00     0.006 C  
HETATM   31  O   UNL     1     -11.319  11.528  71.426  1.00  0.00     1.393 OA 
ENDROOT
BRANCH  27  32
HETATM   32  C   UNL     1     -13.829   8.950  71.216  1.00  0.00    -0.171 C  
HETATM   33  N   UNL     1     -14.375   7.948  71.987  1.00  0.00    -0.573 N  
HETATM   34  H1  UNL     1     -15.244   7.544  71.640  1.00  0.00     0.000 HD 
HETATM   35  H2  UNL     1     -13.936   7.630  72.852  1.00  0.00     0.000 HD 
HETATM   36  O   UNL     1     -14.402   9.364  70.224  1.00  0.00     0.676 OA 
ENDBRANCH  27  32
BRANCH  30  37
HETATM   37  N   UNL     1     -11.076  10.919  68.503  1.00  0.00    -0.235 NA 
HETATM   38  C   UNL     1      -9.922  11.704  68.947  1.00  0.00    -0.066 C  
HETATM   39  C   UNL     1     -12.101  11.855  68.014  1.00  0.00     0.060 C  
ENDBRANCH  30  37
TORSDOF 2
ENDMDL
MODEL       82
REMARK 921   NORMALIZED FREE ENERGY PREDICTED BY IDOCK:   -2.47 KCAL/MOL
REMARK 922        TOTAL FREE ENERGY PREDICTED BY IDOCK:   -2.32 KCAL/MOL
REMARK 923 INTER-LIGAND FREE ENERGY PREDICTED BY IDOCK:   -4.06 KCAL/MOL
REMARK 924 INTRA-LIGAND FREE ENERGY PREDICTED BY IDOCK:    1.73 KCAL/MOL
REMARK 927      BINDING AFFINITY PREDICTED BY RF-SCORE:    0.00 PKD
ROOT
HETATM    1  C   UNL     1      -9.513  13.842  67.988  1.00  0.00    -0.207 C  
HETATM    2  C   UNL     1     -10.233  12.587  68.476  1.00  0.00    -0.203 C  
HETATM    3  C   UNL     1      -9.200  11.602  69.135  1.00  0.00     0.303 C  
HETATM    4  O   UNL     1     -10.928  11.919  67.426  1.00  0.00    -0.235 OA 
HETATM    5  C   UNL     1      -9.824  10.376  69.787  1.00  0.00    -0.134 C  
HETATM    6  H   UNL     1     -11.376  11.138  67.730  1.00  0.00     0.000 HD 
HETATM    7  C   UNL     1      -8.909   9.268  70.105  1.00  0.00    -0.235 A  
HETATM    8  C   UNL     1     -11.141  10.152  69.937  1.00  0.00    -0.346 C  
HETATM    9  C   UNL     1      -7.946   8.906  69.162  1.00  0.00    -0.105 A  
HETATM   10  C   UNL     1      -7.287   7.673  69.297  1.00  0.00    -0.088 A  
HETATM   11  C   UNL     1      -7.657   9.826  68.021  1.00  0.00    -0.082 C  
HETATM   12  O   UNL     1      -6.462   7.152  68.337  1.00  0.00    -0.038 OA 
HETATM   13  C   UNL     1      -7.487   6.878  70.430  1.00  0.00    -0.086 A  
HETATM   14  C   UNL     1      -8.125  11.254  68.119  1.00  0.00    -0.134 C  
HETATM   15  O   UNL     1      -7.029   9.410  67.052  1.00  0.00    -0.083 OA 
HETATM   16  H   UNL     1      -6.016   6.318  68.428  1.00  0.00     0.000 HD 
HETATM   17  C   UNL     1      -7.694  12.173  67.219  1.00  0.00    -0.168 C  
HETATM   18  C   UNL     1      -8.346   7.307  71.432  1.00  0.00    -0.110 A  
HETATM   19  O   UNL     1      -6.863  11.825  66.152  1.00  0.00    -0.341 OA 
HETATM   20  C   UNL     1      -8.322  13.562  67.051  1.00  0.00    -0.080 C  
HETATM   21  C   UNL     1      -9.070   8.495  71.267  1.00  0.00    -0.250 A  
HETATM   22  H   UNL     1      -6.561  12.468  65.522  1.00  0.00     0.000 HD 
HETATM   23  C   UNL     1      -7.416  14.871  67.226  1.00  0.00    -0.161 C  
HETATM   24  O   UNL     1      -8.790  13.499  65.690  1.00  0.00     0.100 OA 
HETATM   25  H   UNL     1      -8.056  13.326  65.112  1.00  0.00     0.000 HD 
HETATM   26  O   UNL     1      -6.191  14.892  67.133  1.00  0.00    -0.249 OA 
HETATM   27  C   UNL     1      -8.183  16.197  67.419  1.00  0.00    -0.185 C  
HETATM   28  H   UNL     1     -10.264  16.092  64.984  1.00  0.00     0.000 HD 
HETATM   29  C   UNL     1      -9.379  16.082  66.805  1.00  0.00    -0.238 C  
HETATM   30  C   UNL     1     -10.368  15.072  67.477  1.00  0.00    -0.241 C  
HETATM   31  O   UNL     1      -9.422  16.173  65.416  1.00  0.00    -0.394 OA 
ENDROOT
BRANCH  27  32
HETATM   32  C   UNL     1      -8.324  16.759  68.799  1.00  0.00    -0.248 C  
HETATM   33  N   UNL     1      -7.577  16.143  69.778  1.00  0.00     0.103 N  
HETATM   34  H1  UNL     1      -7.674  16.526  70.718  1.00  0.00     0.000 HD 
HETATM   35  H2  UNL     1      -6.964  15.353  69.575  1.00  0.00     0.000 HD 
HETATM   36  O   UNL     1      -8.996  17.744  69.047  1.00  0.00    -0.160 OA 
ENDBRANCH  27  32
BRANCH  30  37
HETATM   37  N   UNL     1     -11.681  14.825  66.849  1.00  0.00    -0.343 NA 
HETATM   38  C   UNL     1     -12.770  14.381  67.722  1.00  0.00     0.920 C  
HETATM   39  C   UNL     1     -11.551  13.849  65.755  1.00  0.00    -0.338 C  
ENDBRANCH  30  37
TORSDOF 2
ENDMDL
MODEL       83
REMARK 921   NORMALIZED FREE ENERGY PREDICTED BY IDOCK:   -2.44 KCAL/MOL
REMARK 922        TOTAL FREE ENERGY PREDICTED BY IDOCK:   -2.29 KCAL/MOL
REMARK 923 INTER-LIGAND FREE ENERGY PREDICTED BY IDOCK:   -3.58 KCAL/MOL
REMARK 924 INTRA-LIGAND FREE ENERGY PREDICTED BY IDOCK:    1.29 KCAL/MOL
REMARK 927      BINDING AFFINITY PREDICTED BY RF-SCORE:    0.00 PKD
ROOT
HETATM    1  C   UNL     1      -8.491   7.944  68.354  1.00  0.00    -0.128 C  
HETATM    2  C   UNL     1      -8.823   8.143  66.878  1.00  0.00    -0.131 C  
HETATM    3  C   UNL     1      -9.123   9.662  66.599  1.00  0.00    -0.176 C  
HETATM    4  O   UNL     1      -9.931   7.352  66.459  1.00  0.00    -0.365 OA 
HETATM    5  C   UNL     1      -9.327  10.006  65.131  1.00  0.00    -0.302 C  
HETATM    6  H   UNL     1     -10.138   7.477  65.540  1.00  0.00     0.000 HD 
HETATM    7  C   UNL     1      -9.944  11.312  64.846  1.00  0.00    -0.323 A  
HETATM    8  C   UNL     1      -9.155   9.165  64.096  1.00  0.00     0.057 C  
HETATM    9  C   UNL     1     -11.033  11.718  65.619  1.00  0.00    -0.348 A  
HETATM   10  C   UNL     1     -11.828  12.786  65.171  1.00  0.00    -0.391 A  
HETATM   11  C   UNL     1     -11.339  10.994  66.889  1.00  0.00    -0.032 C  
HETATM   12  O   UNL     1     -13.010  13.142  65.761  1.00  0.00    -0.335 OA 
HETATM   13  C   UNL     1     -11.460  13.524  64.042  1.00  0.00    -0.357 A  
HETATM   14  C   UNL     1     -10.274  10.111  67.483  1.00  0.00    -0.257 C  
HETATM   15  O   UNL     1     -12.431  11.154  67.428  1.00  0.00     0.683 OA 
HETATM   16  H   UNL     1     -13.548  13.865  65.459  1.00  0.00     0.000 HD 
HETATM   17  C   UNL     1     -10.423   9.617  68.738  1.00  0.00    -0.215 C  
HETATM   18  C   UNL     1     -10.300  13.199  63.352  1.00  0.00     1.008 A  
HETATM   19  O   UNL     1     -11.575   9.856  69.490  1.00  0.00    -0.435 OA 
HETATM   20  C   UNL     1      -9.557   8.494  69.321  1.00  0.00    -0.170 C  
HETATM   21  C   UNL     1      -9.547  12.085  63.742  1.00  0.00    -0.095 A  
HETATM   22  H   UNL     1     -11.680   9.510  70.369  1.00  0.00     0.000 HD 
HETATM   23  C   UNL     1      -8.723   8.749  70.664  1.00  0.00    -0.180 C  
HETATM   24  O   UNL     1     -10.545   7.477  69.572  1.00  0.00    -0.233 OA 
HETATM   25  H   UNL     1     -11.203   7.816  70.167  1.00  0.00     0.000 HD 
HETATM   26  O   UNL     1      -8.969   9.629  71.484  1.00  0.00    -0.010 OA 
HETATM   27  C   UNL     1      -7.606   7.726  70.964  1.00  0.00    -0.082 C  
HETATM   28  H   UNL     1      -9.175   4.950  70.640  1.00  0.00     0.000 HD 
HETATM   29  C   UNL     1      -7.955   6.548  70.405  1.00  0.00    -0.115 C  
HETATM   30  C   UNL     1      -7.950   6.537  68.839  1.00  0.00    -0.111 C  
HETATM   31  O   UNL     1      -8.930   5.779  71.034  1.00  0.00    -0.139 OA 
ENDROOT
BRANCH  27  32
HETATM   32  C   UNL     1      -6.188   8.087  70.647  1.00  0.00    -0.036 C  
HETATM   33  N   UNL     1      -5.275   7.877  71.656  1.00  0.00    -0.034 N  
HETATM   34  H1  UNL     1      -4.309   8.123  71.440  1.00  0.00     0.000 HD 
HETATM   35  H2  UNL     1      -5.548   7.499  72.564  1.00  0.00     0.000 HD 
HETATM   36  O   UNL     1      -5.834   8.473  69.548  1.00  0.00    -0.030 OA 
ENDBRANCH  27  32
BRANCH  30  37
HETATM   37  N   UNL     1      -8.376   5.317  68.127  1.00  0.00    -0.098 NA 
HETATM   38  C   UNL     1      -9.794   4.959  68.196  1.00  0.00    -0.138 C  
HETATM   39  C   UNL     1      -7.593   4.157  68.583  1.00  0.00    -0.059 C  
ENDBRANCH  30  37
TORSDOF 2
ENDMDL
MODEL       84
REMARK 921   NORMALIZED FREE ENERGY PREDICTED BY IDOCK:   -1.99 KCAL/MOL
REMARK 922        TOTAL FREE ENERGY PREDICTED BY IDOCK:   -1.79 KCAL/MOL
REMARK 923 INTER-LIGAND FREE ENERGY PREDICTED BY IDOCK:   -2.22 KCAL/MOL
REMARK 924 INTRA-LIGAND FREE ENERGY PREDICTED BY IDOCK:    0.43 KCAL/MOL
REMARK 927      BINDING AFFINITY PREDICTED BY RF-SCORE:    0.00 PKD
ROOT
HETATM    1  C   UNL     1      -8.766   7.553  68.582  1.00  0.00    -0.128 C  
HETATM    2  C   UNL     1      -9.540   7.012  67.382  1.00  0.00    -0.135 C  
HETATM    3  C   UNL     1      -9.087   5.538  67.075  1.00  0.00    -0.112 C  
HETATM    4  O   UNL     1      -9.369   7.818  66.219  1.00  0.00    -0.226 OA 
HETATM    5  C   UNL     1      -9.893   4.844  65.986  1.00  0.00    -0.219 C  
HETATM    6  H   UNL     1      -9.851   7.481  65.473  1.00  0.00     0.000 HD 
HETATM    7  C   UNL     1      -9.306   3.618  65.421  1.00  0.00    -0.159 A  
HETATM    8  C   UNL     1     -10.990   5.338  65.386  1.00  0.00     0.628 C  
HETATM    9  C   UNL     1      -7.942   3.605  65.129  1.00  0.00    -0.090 A  
HETATM   10  C   UNL     1      -7.428   2.587  64.307  1.00  0.00    -0.063 A  
HETATM   11  C   UNL     1      -7.065   4.683  65.676  1.00  0.00    -0.067 C  
HETATM   12  O   UNL     1      -6.149   2.586  63.822  1.00  0.00    -0.013 OA 
HETATM   13  C   UNL     1      -8.240   1.524  63.898  1.00  0.00    -0.065 A  
HETATM   14  C   UNL     1      -7.591   5.524  66.810  1.00  0.00    -0.088 C  
HETATM   15  O   UNL     1      -5.939   4.841  65.214  1.00  0.00    -0.021 OA 
HETATM   16  H   UNL     1      -5.802   1.897  63.266  1.00  0.00     0.000 HD 
HETATM   17  C   UNL     1      -6.756   6.356  67.482  1.00  0.00    -0.070 C  
HETATM   18  C   UNL     1      -9.567   1.472  64.304  1.00  0.00    -0.122 A  
HETATM   19  O   UNL     1      -5.416   6.506  67.118  1.00  0.00    -0.011 OA 
HETATM   20  C   UNL     1      -7.234   7.451  68.442  1.00  0.00    -0.093 C  
HETATM   21  C   UNL     1     -10.107   2.524  65.054  1.00  0.00     0.491 A  
HETATM   22  H   UNL     1      -4.831   7.088  67.588  1.00  0.00     0.000 HD 
HETATM   23  C   UNL     1      -6.737   7.448  69.964  1.00  0.00    -0.047 C  
HETATM   24  O   UNL     1      -6.734   8.635  67.792  1.00  0.00    -0.064 OA 
HETATM   25  H   UNL     1      -5.791   8.573  67.705  1.00  0.00     0.000 HD 
HETATM   26  O   UNL     1      -5.733   6.870  70.372  1.00  0.00    -0.023 OA 
HETATM   27  C   UNL     1      -7.546   8.334  70.937  1.00  0.00    -0.076 C  
HETATM   28  H   UNL     1      -7.615  11.121  69.355  1.00  0.00     0.000 HD 
HETATM   29  C   UNL     1      -8.077   9.354  70.230  1.00  0.00    -0.164 C  
HETATM   30  C   UNL     1      -9.192   8.940  69.214  1.00  0.00    -0.145 C  
HETATM   31  O   UNL     1      -7.242  10.403  69.853  1.00  0.00    -0.142 OA 
ENDROOT
BRANCH  27  32
HETATM   32  C   UNL     1      -8.566   7.692  71.826  1.00  0.00    -0.113 C  
HETATM   33  N   UNL     1      -9.070   8.486  72.831  1.00  0.00    -0.190 N  
HETATM   34  H1  UNL     1      -9.764   8.048  73.437  1.00  0.00     0.000 HD 
HETATM   35  H2  UNL     1      -8.768   9.451  72.963  1.00  0.00     0.000 HD 
HETATM   36  O   UNL     1      -8.988   6.565  71.641  1.00  0.00    -0.142 OA 
ENDBRANCH  27  32
BRANCH  30  37
HETATM   37  N   UNL     1      -9.795   9.972  68.346  1.00  0.00    -0.151 NA 
HETATM   38  C   UNL     1      -9.053  11.222  68.175  1.00  0.00    -0.166 C  
HETATM   39  C   UNL     1     -11.149  10.309  68.815  1.00  0.00    -0.228 C  
ENDBRANCH  30  37
TORSDOF 2
ENDMDL
MODEL       85
REMARK 921   NORMALIZED FREE ENERGY PREDICTED BY IDOCK:   -1.89 KCAL/MOL
REMARK 922        TOTAL FREE ENERGY PREDICTED BY IDOCK:   -1.68 KCAL/MOL
REMARK 923 INTER-LIGAND FREE ENERGY PREDICTED BY IDOCK:   -5.58 KCAL/MOL
REMARK 924 INTRA-LIGAND FREE ENERGY PREDICTED BY IDOCK:    3.89 KCAL/MOL
REMARK 927      BINDING AFFINITY PREDICTED BY RF-SCORE:    0.00 PKD
ROOT
HETATM    1  C   UNL     1     -10.192  14.451  67.119  1.00  0.00    -0.257 C  
HETATM    2  C   UNL     1     -10.285  13.498  65.929  1.00  0.00    -0.301 C  
HETATM    3  C   UNL     1      -9.562  12.144  66.274  1.00  0.00    -0.246 C  
HETATM    4  O   UNL     1      -9.721  14.053  64.745  1.00  0.00    -0.527 OA 
HETATM    5  C   UNL     1      -9.712  11.061  65.215  1.00  0.00    -0.286 C  
HETATM    6  H   UNL     1      -9.779  13.460  64.005  1.00  0.00     0.000 HD 
HETATM    7  C   UNL     1      -8.789   9.919  65.313  1.00  0.00    -0.210 A  
HETATM    8  C   UNL     1     -10.485  11.139  64.117  1.00  0.00    -0.442 C  
HETATM    9  C   UNL     1      -7.445  10.171  65.595  1.00  0.00    -0.144 A  
HETATM   10  C   UNL     1      -6.500   9.154  65.379  1.00  0.00    -0.068 A  
HETATM   11  C   UNL     1      -7.042  11.518  66.096  1.00  0.00     0.249 C  
HETATM   12  O   UNL     1      -5.149   9.354  65.456  1.00  0.00    -0.035 OA 
HETATM   13  C   UNL     1      -6.909   7.866  65.020  1.00  0.00    -0.051 A  
HETATM   14  C   UNL     1      -8.114  12.432  66.632  1.00  0.00     0.096 C  
HETATM   15  O   UNL     1      -5.857  11.838  66.086  1.00  0.00    -0.143 OA 
HETATM   16  H   UNL     1      -4.509   8.666  65.311  1.00  0.00     0.000 HD 
HETATM   17  C   UNL     1      -7.771  13.563  67.298  1.00  0.00    -0.077 C  
HETATM   18  C   UNL     1      -8.260   7.586  64.871  1.00  0.00    -0.086 A  
HETATM   19  O   UNL     1      -6.439  13.947  67.459  1.00  0.00    -0.244 OA 
HETATM   20  C   UNL     1      -8.756  14.691  67.625  1.00  0.00    -0.177 C  
HETATM   21  C   UNL     1      -9.203   8.614  65.003  1.00  0.00     0.131 A  
HETATM   22  H   UNL     1      -6.199  14.739  67.926  1.00  0.00     0.000 HD 
HETATM   23  C   UNL     1      -8.984  15.132  69.147  1.00  0.00    -0.219 C  
HETATM   24  O   UNL     1      -8.173  15.793  66.903  1.00  0.00    -0.207 OA 
HETATM   25  H   UNL     1      -7.288  15.941  67.214  1.00  0.00     0.000 HD 
HETATM   26  O   UNL     1      -8.199  14.912  70.065  1.00  0.00     0.112 OA 
HETATM   27  C   UNL     1     -10.243  15.986  69.417  1.00  0.00    -0.270 C  
HETATM   28  H   UNL     1      -9.956  18.272  67.189  1.00  0.00     0.000 HD 
HETATM   29  C   UNL     1     -10.531  16.675  68.293  1.00  0.00    -0.321 C  
HETATM   30  C   UNL     1     -11.023  15.798  67.093  1.00  0.00    -0.244 C  
HETATM   31  O   UNL     1      -9.753  17.787  67.980  1.00  0.00    -0.282 OA 
ENDROOT
BRANCH  27  32
HETATM   32  C   UNL     1     -11.460  15.324  69.984  1.00  0.00    -0.292 C  
HETATM   33  N   UNL     1     -11.483  13.949  69.915  1.00  0.00    -0.431 N  
HETATM   34  H1  UNL     1     -12.312  13.499  70.301  1.00  0.00     0.000 HD 
HETATM   35  H2  UNL     1     -10.718  13.414  69.504  1.00  0.00     0.000 HD 
HETATM   36  O   UNL     1     -12.350  15.942  70.540  1.00  0.00    -0.381 OA 
ENDBRANCH  27  32
BRANCH  30  37
HETATM   37  N   UNL     1     -11.306  16.446  65.797  1.00  0.00     0.285 NA 
HETATM   38  C   UNL     1     -11.046  15.666  64.585  1.00  0.00    -0.373 C  
HETATM   39  C   UNL     1     -10.569  17.715  65.686  1.00  0.00    -0.135 C  
ENDBRANCH  30  37
TORSDOF 2
ENDMDL
MODEL       86
REMARK 921   NORMALIZED FREE ENERGY PREDICTED BY IDOCK:   -1.80 KCAL/MOL
REMARK 922        TOTAL FREE ENERGY PREDICTED BY IDOCK:   -1.58 KCAL/MOL
REMARK 923 INTER-LIGAND FREE ENERGY PREDICTED BY IDOCK:   -3.75 KCAL/MOL
REMARK 924 INTRA-LIGAND FREE ENERGY PREDICTED BY IDOCK:    2.17 KCAL/MOL
REMARK 927      BINDING AFFINITY PREDICTED BY RF-SCORE:    0.00 PKD
ROOT
HETATM    1  C   UNL     1      -9.576  14.210  67.702  1.00  0.00    -0.216 C  
HETATM    2  C   UNL     1      -8.994  13.040  68.492  1.00  0.00    -0.048 C  
HETATM    3  C   UNL     1      -8.353  11.997  67.505  1.00  0.00    -0.166 C  
HETATM    4  O   UNL     1      -9.972  12.393  69.302  1.00  0.00    -0.330 OA 
HETATM    5  C   UNL     1      -7.614  10.854  68.187  1.00  0.00    -0.094 C  
HETATM    6  H   UNL     1      -9.610  11.665  69.793  1.00  0.00     0.000 HD 
HETATM    7  C   UNL     1      -7.301   9.686  67.348  1.00  0.00    -0.087 A  
HETATM    8  C   UNL     1      -7.379  10.748  69.507  1.00  0.00    -0.125 C  
HETATM    9  C   UNL     1      -8.282   9.208  66.478  1.00  0.00    -0.111 A  
HETATM   10  C   UNL     1      -8.132   7.930  65.915  1.00  0.00    -0.119 A  
HETATM   11  C   UNL     1      -9.476  10.056  66.184  1.00  0.00    -0.190 C  
HETATM   12  O   UNL     1      -9.114   7.305  65.196  1.00  0.00    -0.320 OA 
HETATM   13  C   UNL     1      -6.955   7.199  66.110  1.00  0.00    -0.065 A  
HETATM   14  C   UNL     1      -9.413  11.521  66.527  1.00  0.00    -0.220 C  
HETATM   15  O   UNL     1     -10.460   9.551  65.652  1.00  0.00     0.003 OA 
HETATM   16  H   UNL     1      -9.012   6.440  64.814  1.00  0.00     0.000 HD 
HETATM   17  C   UNL     1     -10.376  12.365  66.077  1.00  0.00    -0.251 C  
HETATM   18  C   UNL     1      -5.925   7.737  66.869  1.00  0.00    -0.047 A  
HETATM   19  O   UNL     1     -11.472  11.907  65.344  1.00  0.00    -0.320 OA 
HETATM   20  C   UNL     1     -10.567  13.795  66.598  1.00  0.00    -0.274 C  
HETATM   21  C   UNL     1      -6.100   8.975  67.501  1.00  0.00    -0.051 A  
HETATM   22  H   UNL     1     -12.146  12.498  65.029  1.00  0.00     0.000 HD 
HETATM   23  C   UNL     1     -10.501  15.028  65.578  1.00  0.00    -0.365 C  
HETATM   24  O   UNL     1     -11.895  13.719  67.151  1.00  0.00    -0.363 OA 
HETATM   25  H   UNL     1     -12.506  13.463  66.470  1.00  0.00     0.000 HD 
HETATM   26  O   UNL     1     -10.665  14.942  64.364  1.00  0.00    -0.185 OA 
HETATM   27  C   UNL     1     -10.323  16.421  66.221  1.00  0.00    -0.337 C  
HETATM   28  H   UNL     1     -12.627  16.399  68.448  1.00  0.00     0.000 HD 
HETATM   29  C   UNL     1     -10.861  16.384  67.458  1.00  0.00    -0.249 C  
HETATM   30  C   UNL     1     -10.091  15.487  68.483  1.00  0.00    -0.211 C  
HETATM   31  O   UNL     1     -12.248  16.425  67.578  1.00  0.00     0.957 OA 
ENDROOT
BRANCH  27  32
HETATM   32  C   UNL     1      -8.962  17.045  66.232  1.00  0.00    -0.247 C  
HETATM   33  N   UNL     1      -8.929  18.411  66.408  1.00  0.00    -0.278 N  
HETATM   34  H1  UNL     1      -8.002  18.836  66.416  1.00  0.00     0.000 HD 
HETATM   35  H2  UNL     1      -9.779  18.963  66.524  1.00  0.00     0.000 HD 
HETATM   36  O   UNL     1      -7.935  16.395  66.165  1.00  0.00    -0.293 OA 
ENDBRANCH  27  32
BRANCH  30  37
HETATM   37  N   UNL     1     -10.631  15.328  69.848  1.00  0.00    -0.277 NA 
HETATM   38  C   UNL     1      -9.665  15.169  70.938  1.00  0.00     1.394 C  
HETATM   39  C   UNL     1     -11.565  14.192  69.901  1.00  0.00    -0.264 C  
ENDBRANCH  30  37
TORSDOF 2
ENDMDL
MODEL       87
REMARK 921   NORMALIZED FREE ENERGY PREDICTED BY IDOCK:    2.39 KCAL/MOL
REMARK 922        TOTAL FREE ENERGY PREDICTED BY IDOCK:    3.10 KCAL/MOL
REMARK 923 INTER-LIGAND FREE ENERGY PREDICTED BY IDOCK:    1.98 KCAL/MOL
REMARK 924 INTRA-LIGAND FREE ENERGY PREDICTED BY IDOCK:    1.12 KCAL/MOL
REMARK 927      BINDING AFFINITY PREDICTED BY RF-SCORE:    0.00 PKD
ROOT
HETATM    1  C   UNL     1      -8.621   5.892  67.843  1.00  0.00    -0.105 C  
HETATM    2  C   UNL     1      -8.350   6.996  68.862  1.00  0.00    -0.125 C  
HETATM    3  C   UNL     1      -8.424   8.401  68.159  1.00  0.00    -0.132 C  
HETATM    4  O   UNL     1      -7.085   6.847  69.500  1.00  0.00    -0.070 OA 
HETATM    5  C   UNL     1      -8.311   9.588  69.106  1.00  0.00    -0.125 C  
HETATM    6  H   UNL     1      -6.916   7.534  70.134  1.00  0.00     0.000 HD 
HETATM    7  C   UNL     1      -8.026  10.892  68.486  1.00  0.00    -0.134 A  
HETATM    8  C   UNL     1      -8.278   9.520  70.448  1.00  0.00    -0.220 C  
HETATM    9  C   UNL     1      -7.065  10.955  67.477  1.00  0.00    -0.090 A  
HETATM   10  C   UNL     1      -6.550  12.207  67.100  1.00  0.00    -0.127 A  
HETATM   11  C   UNL     1      -6.591   9.692  66.837  1.00  0.00    -0.067 C  
HETATM   12  O   UNL     1      -5.487  12.360  66.253  1.00  0.00    -0.201 OA 
HETATM   13  C   UNL     1      -7.087  13.386  67.628  1.00  0.00    -0.168 A  
HETATM   14  C   UNL     1      -7.412   8.443  67.027  1.00  0.00    -0.088 C  
HETATM   15  O   UNL     1      -5.568   9.704  66.158  1.00  0.00    -0.049 OA 
HETATM   16  H   UNL     1      -5.139  13.207  65.998  1.00  0.00     0.000 HD 
HETATM   17  C   UNL     1      -7.145   7.337  66.288  1.00  0.00    -0.077 C  
HETATM   18  C   UNL     1      -8.137  13.322  68.534  1.00  0.00    -0.094 A  
HETATM   19  O   UNL     1      -6.083   7.295  65.383  1.00  0.00    -0.036 OA 
HETATM   20  C   UNL     1      -7.715   5.948  66.597  1.00  0.00    -0.100 C  
HETATM   21  C   UNL     1      -8.600  12.077  68.977  1.00  0.00     0.326 A  
HETATM   22  H   UNL     1      -5.896   6.520  64.866  1.00  0.00     0.000 HD 
HETATM   23  C   UNL     1      -8.583   5.179  65.492  1.00  0.00    -0.143 C  
HETATM   24  O   UNL     1      -6.511   5.197  66.848  1.00  0.00    -0.039 OA 
HETATM   25  H   UNL     1      -5.953   5.232  66.080  1.00  0.00     0.000 HD 
HETATM   26  O   UNL     1      -8.554   5.420  64.288  1.00  0.00    -0.125 OA 
HETATM   27  C   UNL     1      -9.421   3.989  66.005  1.00  0.00    -0.186 C  
HETATM   28  H   UNL     1      -7.232   2.329  67.657  1.00  0.00     0.000 HD 
HETATM   29  C   UNL     1      -8.801   3.477  67.089  1.00  0.00    -0.131 C  
HETATM   30  C   UNL     1      -8.807   4.404  68.349  1.00  0.00    -0.105 C  
HETATM   31  O   UNL     1      -7.669   2.690  66.894  1.00  0.00    -0.070 OA 
ENDROOT
BRANCH  27  32
HETATM   32  C   UNL     1     -10.885   4.185  66.250  1.00  0.00     1.172 C  
HETATM   33  N   UNL     1     -11.711   3.946  65.175  1.00  0.00     0.887 N  
HETATM   34  H1  UNL     1     -12.708   4.079  65.342  1.00  0.00     0.000 HD 
HETATM   35  H2  UNL     1     -11.348   3.653  64.267  1.00  0.00     0.000 HD 
HETATM   36  O   UNL     1     -11.341   4.466  67.344  1.00  0.00     2.582 OA 
ENDBRANCH  27  32
BRANCH  30  37
HETATM   37  N   UNL     1      -8.103   3.965  69.570  1.00  0.00    -0.054 NA 
HETATM   38  C   UNL     1      -6.696   3.583  69.432  1.00  0.00    -0.037 C  
HETATM   39  C   UNL     1      -8.817   2.843  70.199  1.00  0.00    -0.086 C  
ENDBRANCH  30  37
TORSDOF 2
ENDMDL
MODEL       88
REMARK 921   NORMALIZED FREE ENERGY PREDICTED BY IDOCK:    3.45 KCAL/MOL
REMARK 922        TOTAL FREE ENERGY PREDICTED BY IDOCK:    4.29 KCAL/MOL
REMARK 923 INTER-LIGAND FREE ENERGY PREDICTED BY IDOCK:    0.93 KCAL/MOL
REMARK 924 INTRA-LIGAND FREE ENERGY PREDICTED BY IDOCK:    3.36 KCAL/MOL
REMARK 927      BINDING AFFINITY PREDICTED BY RF-SCORE:    0.00 PKD
ROOT
HETATM    1  C   UNL     1     -10.824  14.636  70.091  1.00  0.00    -0.046 C  
HETATM    2  C   UNL     1      -9.450  15.053  69.572  1.00  0.00    -0.073 C  
HETATM    3  C   UNL     1      -9.346  16.622  69.541  1.00  0.00     0.149 C  
HETATM    4  O   UNL     1      -9.179  14.530  68.275  1.00  0.00    -0.188 OA 
HETATM    5  C   UNL     1      -7.968  17.155  69.176  1.00  0.00    -0.041 C  
HETATM    6  H   UNL     1      -8.325  14.790  67.952  1.00  0.00     0.000 HD 
HETATM    7  C   UNL     1      -7.898  18.576  68.795  1.00  0.00    -0.301 A  
HETATM    8  C   UNL     1      -6.859  16.414  69.006  1.00  0.00    -0.198 C  
HETATM    9  C   UNL     1      -8.882  19.089  67.949  1.00  0.00    -0.335 A  
HETATM   10  C   UNL     1      -8.666  20.328  67.323  1.00  0.00    -0.352 A  
HETATM   11  C   UNL     1     -10.128  18.300  67.713  1.00  0.00    -0.356 C  
HETATM   12  O   UNL     1      -9.484  20.829  66.347  1.00  0.00    -0.623 OA 
HETATM   13  C   UNL     1      -7.548  21.103  67.644  1.00  0.00     0.005 A  
HETATM   14  C   UNL     1     -10.453  17.176  68.662  1.00  0.00    -0.366 C  
HETATM   15  O   UNL     1     -10.865  18.599  66.778  1.00  0.00    -0.330 OA 
HETATM   16  H   UNL     1      -9.338  21.668  65.923  1.00  0.00     0.000 HD 
HETATM   17  C   UNL     1     -11.673  16.585  68.621  1.00  0.00     0.106 C  
HETATM   18  C   UNL     1      -6.638  20.647  68.588  1.00  0.00    -0.193 A  
HETATM   19  O   UNL     1     -12.636  16.948  67.677  1.00  0.00     1.983 OA 
HETATM   20  C   UNL     1     -12.005  15.265  69.327  1.00  0.00    -0.299 C  
HETATM   21  C   UNL     1      -6.802  19.377  69.156  1.00  0.00    -0.374 A  
HETATM   22  H   UNL     1     -13.491  16.535  67.649  1.00  0.00     0.000 HD 
HETATM   23  C   UNL     1     -13.192  15.214  70.401  1.00  0.00    -0.133 C  
HETATM   24  O   UNL     1     -12.352  14.426  68.209  1.00  0.00    -0.604 OA 
HETATM   25  H   UNL     1     -13.080  14.814  67.738  1.00  0.00     0.000 HD 
HETATM   26  O   UNL     1     -14.107  16.030  70.473  1.00  0.00     0.569 OA 
HETATM   27  C   UNL     1     -13.209  13.976  71.324  1.00  0.00    -0.373 C  
HETATM   28  H   UNL     1     -12.964  11.589  69.199  1.00  0.00     0.000 HD 
HETATM   29  C   UNL     1     -12.634  12.951  70.660  1.00  0.00    -0.177 C  
HETATM   30  C   UNL     1     -11.097  13.109  70.411  1.00  0.00     1.034 C  
HETATM   31  O   UNL     1     -13.368  12.310  69.666  1.00  0.00     1.597 OA 
ENDROOT
BRANCH  27  32
HETATM   32  C   UNL     1     -12.670  14.101  72.716  1.00  0.00    -0.268 C  
HETATM   33  N   UNL     1     -11.298  14.111  72.830  1.00  0.00     1.219 N  
HETATM   34  H1  UNL     1     -10.931  14.197  73.777  1.00  0.00     0.000 HD 
HETATM   35  H2  UNL     1     -10.686  14.037  72.016  1.00  0.00     0.000 HD 
HETATM   36  O   UNL     1     -13.384  14.260  73.689  1.00  0.00    -0.164 OA 
ENDBRANCH  27  32
BRANCH  30  37
HETATM   37  N   UNL     1     -10.382  12.073  69.639  1.00  0.00     0.528 NA 
HETATM   38  C   UNL     1     -10.226  12.295  68.200  1.00  0.00    -0.212 C  
HETATM   39  C   UNL     1     -11.021  10.761  69.829  1.00  0.00    -0.252 C  
ENDBRANCH  30  37
TORSDOF 2
ENDMDL
MODEL       89
REMARK 921   NORMALIZED FREE ENERGY PREDICTED BY IDOCK:    3.99 KCAL/MOL
REMARK 922        TOTAL FREE ENERGY PREDICTED BY IDOCK:    4.89 KCAL/MOL
REMARK 923 INTER-LIGAND FREE ENERGY PREDICTED BY IDOCK:    4.65 KCAL/MOL
REMARK 924 INTRA-LIGAND FREE ENERGY PREDICTED BY IDOCK:    0.24 KCAL/MOL
REMARK 927      BINDING AFFINITY PREDICTED BY RF-SCORE:    0.00 PKD
ROOT
HETATM    1  C   UNL     1      -9.667  13.896  66.446  1.00  0.00    -0.309 C  
HETATM    2  C   UNL     1      -8.456  13.652  67.343  1.00  0.00    -0.201 C  
HETATM    3  C   UNL     1      -8.235  14.889  68.288  1.00  0.00    -0.145 C  
HETATM    4  O   UNL     1      -7.270  13.402  66.595  1.00  0.00    -0.067 OA 
HETATM    5  C   UNL     1      -7.140  14.701  69.328  1.00  0.00    -0.150 C  
HETATM    6  H   UNL     1      -6.516  13.250  67.154  1.00  0.00     0.000 HD 
HETATM    7  C   UNL     1      -6.656  15.920  69.996  1.00  0.00    -0.010 A  
HETATM    8  C   UNL     1      -6.467  13.560  69.562  1.00  0.00    -0.089 C  
HETATM    9  C   UNL     1      -6.431  17.059  69.221  1.00  0.00    -0.231 A  
HETATM   10  C   UNL     1      -5.679  18.116  69.763  1.00  0.00    -0.239 A  
HETATM   11  C   UNL     1      -6.973  17.119  67.831  1.00  0.00    -0.165 C  
HETATM   12  O   UNL     1      -5.256  19.191  69.030  1.00  0.00    -0.191 OA 
HETATM   13  C   UNL     1      -5.278  18.091  71.103  1.00  0.00    -0.214 A  
HETATM   14  C   UNL     1      -8.043  16.134  67.439  1.00  0.00    -0.183 C  
HETATM   15  O   UNL     1      -6.558  17.976  67.056  1.00  0.00    -0.171 OA 
HETATM   16  H   UNL     1      -4.748  19.905  69.396  1.00  0.00     0.000 HD 
HETATM   17  C   UNL     1      -8.718  16.294  66.273  1.00  0.00    -0.335 C  
HETATM   18  C   UNL     1      -5.622  17.013  71.907  1.00  0.00     1.008 A  
HETATM   19  O   UNL     1      -8.412  17.323  65.380  1.00  0.00     0.070 OA 
HETATM   20  C   UNL     1      -9.606  15.212  65.646  1.00  0.00    -0.260 C  
HETATM   21  C   UNL     1      -6.299  15.919  71.354  1.00  0.00     1.608 A  
HETATM   22  H   UNL     1      -8.884  17.435  64.564  1.00  0.00     0.000 HD 
HETATM   23  C   UNL     1     -11.149  15.522  65.351  1.00  0.00    -0.298 C  
HETATM   24  O   UNL     1      -8.929  14.980  64.396  1.00  0.00     2.251 OA 
HETATM   25  H   UNL     1      -8.891  15.791  63.903  1.00  0.00     0.000 HD 
HETATM   26  O   UNL     1     -11.628  16.647  65.241  1.00  0.00     0.343 OA 
HETATM   27  C   UNL     1     -12.042  14.290  65.086  1.00  0.00    -0.410 C  
HETATM   28  H   UNL     1     -10.341  12.732  62.861  1.00  0.00     0.000 HD 
HETATM   29  C   UNL     1     -11.267  13.316  64.564  1.00  0.00    -0.362 C  
HETATM   30  C   UNL     1     -10.218  12.709  65.554  1.00  0.00    -0.281 C  
HETATM   31  O   UNL     1     -10.886  13.418  63.229  1.00  0.00     0.379 OA 
ENDROOT
BRANCH  27  32
HETATM   32  C   UNL     1     -12.908  13.771  66.192  1.00  0.00    -0.135 C  
HETATM   33  N   UNL     1     -13.298  14.697  67.134  1.00  0.00     2.381 N  
HETATM   34  H1  UNL     1     -13.888  14.343  67.887  1.00  0.00     0.000 HD 
HETATM   35  H2  UNL     1     -13.014  15.676  67.081  1.00  0.00     0.000 HD 
HETATM   36  O   UNL     1     -13.312  12.624  66.232  1.00  0.00     1.503 OA 
ENDBRANCH  27  32
BRANCH  30  37
HETATM   37  N   UNL     1      -9.279  11.680  65.065  1.00  0.00    -0.039 NA 
HETATM   38  C   UNL     1      -9.531  11.117  63.737  1.00  0.00    -0.235 C  
HETATM   39  C   UNL     1      -9.198  10.565  66.022  1.00  0.00    -0.176 C  
ENDBRANCH  30  37
TORSDOF 2
ENDMDL
MODEL       90
REMARK 921   NORMALIZED FREE ENERGY PREDICTED BY IDOCK:    5.44 KCAL/MOL
REMARK 922        TOTAL FREE ENERGY PREDICTED BY IDOCK:    6.50 KCAL/MOL
REMARK 923 INTER-LIGAND FREE ENERGY PREDICTED BY IDOCK:    4.93 KCAL/MOL
REMARK 924 INTRA-LIGAND FREE ENERGY PREDICTED BY IDOCK:    1.57 KCAL/MOL
REMARK 927      BINDING AFFINITY PREDICTED BY RF-SCORE:    0.00 PKD
ROOT
HETATM    1  C   UNL     1      -9.978   7.788  69.918  1.00  0.00    -0.191 C  
HETATM    2  C   UNL     1      -9.051   8.388  68.864  1.00  0.00    -0.147 C  
HETATM    3  C   UNL     1      -8.401   9.710  69.415  1.00  0.00    -0.145 C  
HETATM    4  O   UNL     1      -9.727   8.661  67.640  1.00  0.00    -0.148 OA 
HETATM    5  C   UNL     1      -7.346  10.322  68.504  1.00  0.00    -0.082 C  
HETATM    6  H   UNL     1      -9.150   9.035  66.984  1.00  0.00     0.000 HD 
HETATM    7  C   UNL     1      -6.964  11.715  68.792  1.00  0.00    -0.098 A  
HETATM    8  C   UNL     1      -6.869   9.771  67.375  1.00  0.00    -0.083 C  
HETATM    9  C   UNL     1      -7.970  12.634  69.093  1.00  0.00     0.441 A  
HETATM   10  C   UNL     1      -7.675  14.007  69.054  1.00  0.00    -0.006 A  
HETATM   11  C   UNL     1      -9.339  12.138  69.427  1.00  0.00     1.057 C  
HETATM   12  O   UNL     1      -8.627  14.984  69.159  1.00  0.00    -0.196 OA 
HETATM   13  C   UNL     1      -6.364  14.448  68.852  1.00  0.00    -0.091 A  
HETATM   14  C   UNL     1      -9.504  10.686  69.791  1.00  0.00     0.188 C  
HETATM   15  O   UNL     1     -10.284  12.921  69.423  1.00  0.00     0.299 OA 
HETATM   16  H   UNL     1      -8.428  15.913  69.133  1.00  0.00     0.000 HD 
HETATM   17  C   UNL     1     -10.675  10.246  70.314  1.00  0.00    -0.250 C  
HETATM   18  C   UNL     1      -5.341  13.524  68.686  1.00  0.00    -0.077 A  
HETATM   19  O   UNL     1     -11.773  11.093  70.478  1.00  0.00    -0.340 OA 
HETATM   20  C   UNL     1     -11.047   8.764  70.447  1.00  0.00    -0.236 C  
HETATM   21  C   UNL     1      -5.640  12.156  68.641  1.00  0.00    -0.053 A  
HETATM   22  H   UNL     1     -12.593  10.786  70.845  1.00  0.00     0.000 HD 
HETATM   23  C   UNL     1     -11.402   8.158  71.886  1.00  0.00    -0.296 C  
HETATM   24  O   UNL     1     -12.217   8.690  69.610  1.00  0.00     0.420 OA 
HETATM   25  H   UNL     1     -12.876   9.292  69.935  1.00  0.00     0.000 HD 
HETATM   26  O   UNL     1     -11.755   8.822  72.857  1.00  0.00    -0.011 OA 
HETATM   27  C   UNL     1     -11.388   6.617  71.988  1.00  0.00    -0.317 C  
HETATM   28  H   UNL     1     -13.218   5.794  69.489  1.00  0.00     0.000 HD 
HETATM   29  C   UNL     1     -11.684   6.115  70.771  1.00  0.00    -0.098 C  
HETATM   30  C   UNL     1     -10.586   6.347  69.679  1.00  0.00    -0.254 C  
HETATM   31  O   UNL     1     -13.009   6.148  70.345  1.00  0.00     1.389 OA 
ENDROOT
BRANCH  27  32
HETATM   32  C   UNL     1     -10.193   5.941  72.587  1.00  0.00    -0.183 C  
HETATM   33  N   UNL     1      -9.538   5.046  71.771  1.00  0.00    -0.149 N  
HETATM   34  H1  UNL     1      -8.725   4.586  72.178  1.00  0.00     0.000 HD 
HETATM   35  H2  UNL     1      -9.847   4.856  70.817  1.00  0.00     0.000 HD 
HETATM   36  O   UNL     1      -9.770   6.207  73.697  1.00  0.00    -0.152 OA 
ENDBRANCH  27  32
BRANCH  30  37
HETATM   37  N   UNL     1     -10.838   5.891  68.298  1.00  0.00    -0.267 NA 
HETATM   38  C   UNL     1     -11.830   6.631  67.516  1.00  0.00     1.558 C  
HETATM   39  C   UNL     1     -11.221   4.470  68.288  1.00  0.00     3.450 C  
ENDBRANCH  30  37
TORSDOF 2
ENDMDL
MODEL       91
REMARK 921   NORMALIZED FREE ENERGY PREDICTED BY IDOCK:    5.59 KCAL/MOL
REMARK 922        TOTAL FREE ENERGY PREDICTED BY IDOCK:    6.67 KCAL/MOL
REMARK 923 INTER-LIGAND FREE ENERGY PREDICTED BY IDOCK:    4.52 KCAL/MOL
REMARK 924 INTRA-LIGAND FREE ENERGY PREDICTED BY IDOCK:    2.15 KCAL/MOL
REMARK 927      BINDING AFFINITY PREDICTED BY RF-SCORE:    0.00 PKD
ROOT
HETATM    1  C   UNL     1      -9.504   5.901  68.857  1.00  0.00    -0.146 C  
HETATM    2  C   UNL     1     -10.458   5.839  67.666  1.00  0.00    -0.235 C  
HETATM    3  C   UNL     1     -10.181   4.537  66.829  1.00  0.00    -0.174 C  
HETATM    4  O   UNL     1     -10.346   6.983  66.823  1.00  0.00    -0.332 OA 
HETATM    5  C   UNL     1     -11.168   4.295  65.695  1.00  0.00     0.965 C  
HETATM    6  H   UNL     1     -10.939   6.944  66.082  1.00  0.00     0.000 HD 
HETATM    7  C   UNL     1     -10.766   3.307  64.681  1.00  0.00     0.322 A  
HETATM    8  C   UNL     1     -12.275   5.017  65.451  1.00  0.00     3.511 C  
HETATM    9  C   UNL     1      -9.451   3.326  64.214  1.00  0.00    -0.142 A  
HETATM   10  C   UNL     1      -9.132   2.625  63.040  1.00  0.00    -0.091 A  
HETATM   11  C   UNL     1      -8.421   4.109  64.960  1.00  0.00    -0.115 C  
HETATM   12  O   UNL     1      -7.922   2.725  62.408  1.00  0.00    -0.064 OA 
HETATM   13  C   UNL     1     -10.081   1.806  62.419  1.00  0.00    -0.087 A  
HETATM   14  C   UNL     1      -8.733   4.540  66.370  1.00  0.00    -0.112 C  
HETATM   15  O   UNL     1      -7.346   4.360  64.424  1.00  0.00    -0.067 OA 
HETATM   16  H   UNL     1      -7.706   2.250  61.614  1.00  0.00     0.000 HD 
HETATM   17  C   UNL     1      -7.753   5.051  67.156  1.00  0.00    -0.092 C  
HETATM   18  C   UNL     1     -11.351   1.684  62.965  1.00  0.00    -0.253 A  
HETATM   19  O   UNL     1      -6.456   5.250  66.680  1.00  0.00    -0.038 OA 
HETATM   20  C   UNL     1      -8.015   5.777  68.481  1.00  0.00    -0.101 C  
HETATM   21  C   UNL     1     -11.702   2.444  64.087  1.00  0.00     2.544 A  
HETATM   22  H   UNL     1      -5.770   5.608  67.230  1.00  0.00     0.000 HD 
HETATM   23  C   UNL     1      -7.350   5.232  69.832  1.00  0.00    -0.064 C  
HETATM   24  O   UNL     1      -7.484   7.086  68.196  1.00  0.00    -0.094 OA 
HETATM   25  H   UNL     1      -6.567   7.010  67.963  1.00  0.00     0.000 HD 
HETATM   26  O   UNL     1      -6.365   4.501  69.882  1.00  0.00    -0.026 OA 
HETATM   27  C   UNL     1      -7.957   5.774  71.145  1.00  0.00    -0.112 C  
HETATM   28  H   UNL     1      -7.946   8.932  70.600  1.00  0.00     0.000 HD 
HETATM   29  C   UNL     1      -8.467   6.998  70.896  1.00  0.00    -0.134 C  
HETATM   30  C   UNL     1      -9.725   7.010  69.965  1.00  0.00    -0.170 C  
HETATM   31  O   UNL     1      -7.587   8.070  70.775  1.00  0.00    -0.073 OA 
ENDROOT
BRANCH  27  32
HETATM   32  C   UNL     1      -8.924   4.919  71.904  1.00  0.00    -0.135 C  
HETATM   33  N   UNL     1      -9.057   3.623  71.458  1.00  0.00    -0.107 N  
HETATM   34  H1  UNL     1      -9.716   3.041  71.975  1.00  0.00     0.000 HD 
HETATM   35  H2  UNL     1      -8.531   3.268  70.660  1.00  0.00     0.000 HD 
HETATM   36  O   UNL     1      -9.508   5.306  72.899  1.00  0.00    -0.143 OA 
ENDBRANCH  27  32
BRANCH  30  37
HETATM   37  N   UNL     1     -10.324   8.303  69.580  1.00  0.00    -0.214 NA 
HETATM   38  C   UNL     1     -11.780   8.424  69.678  1.00  0.00     0.682 C  
HETATM   39  C   UNL     1      -9.931   8.663  68.208  1.00  0.00    -0.180 C  
ENDBRANCH  30  37
TORSDOF 2
ENDMDL
MODEL       92
REMARK 921   NORMALIZED FREE ENERGY PREDICTED BY IDOCK:    6.82 KCAL/MOL
REMARK 922        TOTAL FREE ENERGY PREDICTED BY IDOCK:    8.05 KCAL/MOL
REMARK 923 INTER-LIGAND FREE ENERGY PREDICTED BY IDOCK:    5.17 KCAL/MOL
REMARK 924 INTRA-LIGAND FREE ENERGY PREDICTED BY IDOCK:    2.88 KCAL/MOL
REMARK 927      BINDING AFFINITY PREDICTED BY RF-SCORE:    0.00 PKD
ROOT
HETATM    1  C   UNL     1     -10.246  13.393  68.729  1.00  0.00    -0.128 C  
HETATM    2  C   UNL     1      -9.162  12.465  68.187  1.00  0.00    -0.205 C  
HETATM    3  C   UNL     1      -9.812  11.125  67.680  1.00  0.00    -0.191 C  
HETATM    4  O   UNL     1      -8.162  12.173  69.159  1.00  0.00    -0.336 OA 
HETATM    5  C   UNL     1      -8.844  10.178  66.985  1.00  0.00    -0.144 C  
HETATM    6  H   UNL     1      -7.488  11.596  68.821  1.00  0.00     0.000 HD 
HETATM    7  C   UNL     1      -9.303   8.791  66.806  1.00  0.00    -0.229 A  
HETATM    8  C   UNL     1      -7.562  10.448  66.682  1.00  0.00    -0.114 C  
HETATM    9  C   UNL     1      -9.956   8.162  67.868  1.00  0.00    -0.225 A  
HETATM   10  C   UNL     1     -10.114   6.766  67.842  1.00  0.00    -0.159 A  
HETATM   11  C   UNL     1     -10.449   8.983  69.013  1.00  0.00    -0.218 C  
HETATM   12  O   UNL     1     -10.577   6.042  68.906  1.00  0.00    -0.227 OA 
HETATM   13  C   UNL     1      -9.749   6.028  66.711  1.00  0.00    -0.182 A  
HETATM   14  C   UNL     1     -10.565  10.473  68.827  1.00  0.00    -0.233 C  
HETATM   15  O   UNL     1     -10.770   8.429  70.061  1.00  0.00    -0.233 OA 
HETATM   16  H   UNL     1     -10.684   5.098  68.889  1.00  0.00     0.000 HD 
HETATM   17  C   UNL     1     -11.214  11.224  69.752  1.00  0.00    -0.220 C  
HETATM   18  C   UNL     1      -9.223   6.678  65.603  1.00  0.00     0.151 A  
HETATM   19  O   UNL     1     -11.737  10.665  70.919  1.00  0.00    -0.328 OA 
HETATM   20  C   UNL     1     -11.140  12.755  69.810  1.00  0.00     0.196 C  
HETATM   21  C   UNL     1      -8.985   8.057  65.652  1.00  0.00    -0.102 A  
HETATM   22  H   UNL     1     -12.192  11.190  71.566  1.00  0.00     0.000 HD 
HETATM   23  C   UNL     1     -12.485  13.620  69.717  1.00  0.00    -0.137 C  
HETATM   24  O   UNL     1     -10.544  12.960  71.106  1.00  0.00     3.601 OA 
HETATM   25  H   UNL     1     -11.095  12.567  71.772  1.00  0.00     0.000 HD 
HETATM   26  O   UNL     1     -13.610  13.192  69.957  1.00  0.00     1.413 OA 
HETATM   27  C   UNL     1     -12.297  15.120  69.402  1.00  0.00    -0.165 C  
HETATM   28  H   UNL     1     -10.088  15.956  71.568  1.00  0.00     0.000 HD 
HETATM   29  C   UNL     1     -11.088  15.497  69.869  1.00  0.00    -0.310 C  
HETATM   30  C   UNL     1      -9.868  14.883  69.105  1.00  0.00    -0.199 C  
HETATM   31  O   UNL     1     -10.938  15.691  71.239  1.00  0.00    -0.306 OA 
ENDROOT
BRANCH  27  32
HETATM   32  C   UNL     1     -12.521  15.601  68.002  1.00  0.00     1.055 C  
HETATM   33  N   UNL     1     -12.721  16.956  67.857  1.00  0.00     2.227 N  
HETATM   34  H1  UNL     1     -12.873  17.283  66.904  1.00  0.00     0.000 HD 
HETATM   35  H2  UNL     1     -12.717  17.592  68.655  1.00  0.00     0.000 HD 
HETATM   36  O   UNL     1     -12.461  14.867  67.033  1.00  0.00     0.115 OA 
ENDBRANCH  27  32
BRANCH  30  37
HETATM   37  N   UNL     1      -8.500  15.183  69.574  1.00  0.00    -0.197 NA 
HETATM   38  C   UNL     1      -7.571  15.767  68.605  1.00  0.00    -0.150 C  
HETATM   39  C   UNL     1      -7.873  13.974  70.132  1.00  0.00     1.354 C  
ENDBRANCH  30  37
TORSDOF 2
ENDMDL
MODEL       93
REMARK 921   NORMALIZED FREE ENERGY PREDICTED BY IDOCK:    7.61 KCAL/MOL
REMARK 922        TOTAL FREE ENERGY PREDICTED BY IDOCK:    8.93 KCAL/MOL
REMARK 923 INTER-LIGAND FREE ENERGY PREDICTED BY IDOCK:    8.11 KCAL/MOL
REMARK 924 INTRA-LIGAND FREE ENERGY PREDICTED BY IDOCK:    0.81 KCAL/MOL
REMARK 927      BINDING AFFINITY PREDICTED BY RF-SCORE:    0.00 PKD
ROOT
HETATM    1  C   UNL     1      -9.879  13.253  68.938  1.00  0.00     0.096 C  
HETATM    2  C   UNL     1     -11.323  12.821  69.185  1.00  0.00    -0.281 C  
HETATM    3  C   UNL     1     -11.396  11.913  70.467  1.00  0.00     0.564 C  
HETATM    4  O   UNL     1     -11.879  12.125  68.074  1.00  0.00    -0.390 OA 
HETATM    5  C   UNL     1     -12.807  11.539  70.896  1.00  0.00    -0.293 C  
HETATM    6  H   UNL     1     -12.777  11.856  68.228  1.00  0.00     0.000 HD 
HETATM    7  C   UNL     1     -12.925  10.430  71.857  1.00  0.00    -0.555 A  
HETATM    8  C   UNL     1     -13.943  12.009  70.353  1.00  0.00     3.831 C  
HETATM    9  C   UNL     1     -12.135   9.295  71.666  1.00  0.00    -0.451 A  
HETATM   10  C   UNL     1     -12.452   8.117  72.362  1.00  0.00    -0.262 A  
HETATM   11  C   UNL     1     -10.987   9.355  70.712  1.00  0.00    -0.304 C  
HETATM   12  O   UNL     1     -11.852   6.912  72.114  1.00  0.00    -0.288 OA 
HETATM   13  C   UNL     1     -13.457   8.112  73.335  1.00  0.00     1.825 A  
HETATM   14  C   UNL     1     -10.492  10.708  70.274  1.00  0.00     0.152 C  
HETATM   15  O   UNL     1     -10.463   8.312  70.332  1.00  0.00    -0.206 OA 
HETATM   16  H   UNL     1     -12.067   6.115  72.585  1.00  0.00     0.000 HD 
HETATM   17  C   UNL     1      -9.322  10.815  69.594  1.00  0.00     0.251 C  
HETATM   18  C   UNL     1     -14.152   9.281  73.616  1.00  0.00     2.433 A  
HETATM   19  O   UNL     1      -8.578   9.692  69.230  1.00  0.00    -0.132 OA 
HETATM   20  C   UNL     1      -8.877  12.085  68.860  1.00  0.00     0.213 C  
HETATM   21  C   UNL     1     -13.899  10.438  72.869  1.00  0.00     1.320 A  
HETATM   22  H   UNL     1      -7.759   9.767  68.754  1.00  0.00     0.000 HD 
HETATM   23  C   UNL     1      -7.488  12.782  69.247  1.00  0.00     0.313 C  
HETATM   24  O   UNL     1      -8.798  11.613  67.501  1.00  0.00    -0.151 OA 
HETATM   25  H   UNL     1      -8.180  10.893  67.453  1.00  0.00     0.000 HD 
HETATM   26  O   UNL     1      -6.561  12.221  69.825  1.00  0.00    -0.083 OA 
HETATM   27  C   UNL     1      -7.301  14.230  68.745  1.00  0.00    -0.131 C  
HETATM   28  H   UNL     1      -8.053  13.935  65.644  1.00  0.00     0.000 HD 
HETATM   29  C   UNL     1      -8.029  14.380  67.619  1.00  0.00    -0.179 C  
HETATM   30  C   UNL     1      -9.579  14.340  67.828  1.00  0.00    -0.221 C  
HETATM   31  O   UNL     1      -7.540  13.830  66.437  1.00  0.00     0.963 OA 
ENDROOT
BRANCH  27  32
HETATM   32  C   UNL     1      -7.524  15.363  69.699  1.00  0.00    -0.170 C  
HETATM   33  N   UNL     1      -8.327  15.086  70.782  1.00  0.00     1.028 N  
HETATM   34  H1  UNL     1      -8.479  15.857  71.432  1.00  0.00     0.000 HD 
HETATM   35  H2  UNL     1      -8.745  14.166  70.926  1.00  0.00     0.000 HD 
HETATM   36  O   UNL     1      -6.979  16.445  69.580  1.00  0.00    -0.211 OA 
ENDBRANCH  27  32
BRANCH  30  37
HETATM   37  N   UNL     1     -10.467  14.433  66.651  1.00  0.00    -0.271 NA 
HETATM   38  C   UNL     1      -9.875  14.160  65.340  1.00  0.00    -0.200 C  
HETATM   39  C   UNL     1     -11.105  15.758  66.594  1.00  0.00    -0.099 C  
ENDBRANCH  30  37
TORSDOF 2
ENDMDL
MODEL       94
REMARK 921   NORMALIZED FREE ENERGY PREDICTED BY IDOCK:   13.97 KCAL/MOL
REMARK 922        TOTAL FREE ENERGY PREDICTED BY IDOCK:   16.03 KCAL/MOL
REMARK 923 INTER-LIGAND FREE ENERGY PREDICTED BY IDOCK:   11.94 KCAL/MOL
REMARK 924 INTRA-LIGAND FREE ENERGY PREDICTED BY IDOCK:    4.09 KCAL/MOL
REMARK 927      BINDING AFFINITY PREDICTED BY RF-SCORE:    0.00 PKD
ROOT
HETATM    1  C   UNL     1      -8.178  11.517  69.956  1.00  0.00     1.972 C  
HETATM    2  C   UNL     1      -8.681  12.836  69.373  1.00  0.00     1.278 C  
HETATM    3  C   UNL     1      -9.679  12.550  68.192  1.00  0.00    -0.222 C  
HETATM    4  O   UNL     1      -7.618  13.665  68.911  1.00  0.00    -0.219 OA 
HETATM    5  C   UNL     1     -10.357  13.790  67.625  1.00  0.00    -0.239 C  
HETATM    6  H   UNL     1      -7.932  14.485  68.549  1.00  0.00     0.000 HD 
HETATM    7  C   UNL     1     -11.018  13.633  66.319  1.00  0.00    -0.300 A  
HETATM    8  C   UNL     1     -10.258  15.035  68.122  1.00  0.00    -0.221 C  
HETATM    9  C   UNL     1     -10.360  12.912  65.321  1.00  0.00    -0.315 A  
HETATM   10  C   UNL     1     -10.809  13.018  63.994  1.00  0.00    -0.377 A  
HETATM   11  C   UNL     1      -9.185  12.066  65.683  1.00  0.00    -0.003 C  
HETATM   12  O   UNL     1     -10.130  12.496  62.927  1.00  0.00    -0.331 OA 
HETATM   13  C   UNL     1     -11.979  13.722  63.691  1.00  0.00    -0.298 A  
HETATM   14  C   UNL     1      -8.973  11.720  67.134  1.00  0.00    -0.177 C  
HETATM   15  O   UNL     1      -8.440  11.654  64.798  1.00  0.00     0.524 OA 
HETATM   16  H   UNL     1     -10.434  12.567  62.029  1.00  0.00     0.000 HD 
HETATM   17  C   UNL     1      -8.059  10.780  67.481  1.00  0.00    -0.111 C  
HETATM   18  C   UNL     1     -12.705  14.326  64.708  1.00  0.00    -0.191 A  
HETATM   19  O   UNL     1      -7.252  10.151  66.530  1.00  0.00    -0.097 OA 
HETATM   20  C   UNL     1      -7.562  10.562  68.915  1.00  0.00    -0.108 C  
HETATM   21  C   UNL     1     -12.220  14.296  66.022  1.00  0.00    -0.422 A  
HETATM   22  H   UNL     1      -6.613   9.492  66.773  1.00  0.00     0.000 HD 
HETATM   23  C   UNL     1      -7.731   9.127  69.606  1.00  0.00    -0.082 C  
HETATM   24  O   UNL     1      -6.158  10.849  68.775  1.00  0.00    -0.040 OA 
HETATM   25  H   UNL     1      -5.778  10.260  68.134  1.00  0.00     0.000 HD 
HETATM   26  O   UNL     1      -7.895   8.073  68.998  1.00  0.00    -0.105 OA 
HETATM   27  C   UNL     1      -7.563   9.097  71.141  1.00  0.00    -0.093 C  
HETATM   28  H   UNL     1      -4.788  10.657  71.512  1.00  0.00     0.000 HD 
HETATM   29  C   UNL     1      -6.735  10.104  71.491  1.00  0.00     0.908 C  
HETATM   30  C   UNL     1      -7.325  11.539  71.289  1.00  0.00     5.331 C  
HETATM   31  O   UNL     1      -5.370   9.948  71.265  1.00  0.00    -0.064 OA 
ENDROOT
BRANCH  27  32
HETATM   32  C   UNL     1      -8.786   9.064  72.004  1.00  0.00     0.177 C  
HETATM   33  N   UNL     1      -9.436   7.853  72.079  1.00  0.00    -0.162 N  
HETATM   34  H1  UNL     1     -10.269   7.831  72.667  1.00  0.00     0.000 HD 
HETATM   35  H2  UNL     1      -9.105   7.028  71.578  1.00  0.00     0.000 HD 
HETATM   36  O   UNL     1      -9.156  10.019  72.663  1.00  0.00     3.824 OA 
ENDBRANCH  27  32
BRANCH  30  37
HETATM   37  N   UNL     1      -6.479  12.713  71.583  1.00  0.00     1.936 NA 
HETATM   38  C   UNL     1      -6.288  13.690  70.509  1.00  0.00     0.069 C  
HETATM   39  C   UNL     1      -5.150  12.284  72.047  1.00  0.00     0.094 C  
ENDBRANCH  30  37
TORSDOF 2
ENDMDL
MODEL       95
REMARK 921   NORMALIZED FREE ENERGY PREDICTED BY IDOCK:   14.59 KCAL/MOL
REMARK 922        TOTAL FREE ENERGY PREDICTED BY IDOCK:   16.72 KCAL/MOL
REMARK 923 INTER-LIGAND FREE ENERGY PREDICTED BY IDOCK:   16.59 KCAL/MOL
REMARK 924 INTRA-LIGAND FREE ENERGY PREDICTED BY IDOCK:    0.13 KCAL/MOL
REMARK 927      BINDING AFFINITY PREDICTED BY RF-SCORE:    0.00 PKD
ROOT
HETATM    1  C   UNL     1      -9.146  12.857  67.391  1.00  0.00    -0.197 C  
HETATM    2  C   UNL     1      -9.446  12.079  68.670  1.00  0.00    -0.062 C  
HETATM    3  C   UNL     1     -10.857  12.494  69.227  1.00  0.00    -0.054 C  
HETATM    4  O   UNL     1      -8.457  12.284  69.674  1.00  0.00     0.595 OA 
HETATM    5  C   UNL     1     -11.328  11.679  70.424  1.00  0.00     0.189 C  
HETATM    6  H   UNL     1      -8.644  11.800  70.470  1.00  0.00     0.000 HD 
HETATM    7  C   UNL     1     -12.454  12.237  71.191  1.00  0.00    -0.328 A  
HETATM    8  C   UNL     1     -10.705  10.602  70.934  1.00  0.00     0.817 C  
HETATM    9  C   UNL     1     -12.456  13.603  71.475  1.00  0.00    -0.330 A  
HETATM   10  C   UNL     1     -13.330  14.095  72.458  1.00  0.00    -0.518 A  
HETATM   11  C   UNL     1     -11.516  14.504  70.744  1.00  0.00    -0.136 C  
HETATM   12  O   UNL     1     -13.285  15.379  72.931  1.00  0.00    -0.426 OA 
HETATM   13  C   UNL     1     -14.282  13.258  73.050  1.00  0.00     1.245 A  
HETATM   14  C   UNL     1     -10.870  13.991  69.483  1.00  0.00    -0.076 C  
HETATM   15  O   UNL     1     -11.313  15.638  71.167  1.00  0.00    -0.340 OA 
HETATM   16  H   UNL     1     -13.876  15.712  73.596  1.00  0.00     0.000 HD 
HETATM   17  C   UNL     1     -10.192  14.843  68.673  1.00  0.00    -0.236 C  
HETATM   18  C   UNL     1     -14.364  11.927  72.665  1.00  0.00     1.345 A  
HETATM   19  O   UNL     1     -10.020  16.189  69.000  1.00  0.00    -0.218 OA 
HETATM   20  C   UNL     1      -9.266  14.386  67.539  1.00  0.00    -0.200 C  
HETATM   21  C   UNL     1     -13.443  11.409  71.746  1.00  0.00    -0.218 A  
HETATM   22  H   UNL     1      -9.546  16.786  68.433  1.00  0.00     0.000 HD 
HETATM   23  C   UNL     1      -9.548  14.868  66.039  1.00  0.00    -0.313 C  
HETATM   24  O   UNL     1      -8.002  14.925  67.972  1.00  0.00    -0.117 OA 
HETATM   25  H   UNL     1      -8.077  15.868  68.064  1.00  0.00     0.000 HD 
HETATM   26  O   UNL     1     -10.218  15.851  65.734  1.00  0.00    -0.318 OA 
HETATM   27  C   UNL     1      -8.821  14.075  64.931  1.00  0.00     3.235 C  
HETATM   28  H   UNL     1      -5.801  14.100  66.004  1.00  0.00     0.000 HD 
HETATM   29  C   UNL     1      -7.679  13.580  65.452  1.00  0.00     6.106 C  
HETATM   30  C   UNL     1      -7.877  12.463  66.530  1.00  0.00     0.341 C  
HETATM   31  O   UNL     1      -6.606  14.448  65.637  1.00  0.00     6.647 OA 
ENDROOT
BRANCH  27  32
HETATM   32  C   UNL     1      -9.578  13.029  64.172  1.00  0.00     0.714 C  
HETATM   33  N   UNL     1     -10.948  13.163  64.169  1.00  0.00    -0.439 N  
HETATM   34  H1  UNL     1     -11.463  12.451  63.652  1.00  0.00     0.000 HD 
HETATM   35  H2  UNL     1     -11.419  13.928  64.654  1.00  0.00     0.000 HD 
HETATM   36  O   UNL     1      -9.030  12.151  63.531  1.00  0.00     0.275 OA 
ENDBRANCH  27  32
BRANCH  30  37
HETATM   37  N   UNL     1      -6.693  11.898  67.207  1.00  0.00    -0.125 NA 
HETATM   38  C   UNL     1      -5.668  12.839  67.663  1.00  0.00    -0.134 C  
HETATM   39  C   UNL     1      -6.041  10.896  66.349  1.00  0.00    -0.131 C  
ENDBRANCH  30  37
TORSDOF 2
ENDMDL
MODEL       96
REMARK 921   NORMALIZED FREE ENERGY PREDICTED BY IDOCK:   15.87 KCAL/MOL
REMARK 922        TOTAL FREE ENERGY PREDICTED BY IDOCK:   18.16 KCAL/MOL
REMARK 923 INTER-LIGAND FREE ENERGY PREDICTED BY IDOCK:   15.97 KCAL/MOL
REMARK 924 INTRA-LIGAND FREE ENERGY PREDICTED BY IDOCK:    2.19 KCAL/MOL
REMARK 927      BINDING AFFINITY PREDICTED BY RF-SCORE:    0.00 PKD
ROOT
HETATM    1  C   UNL     1     -10.703  13.998  67.139  1.00  0.00    -0.283 C  
HETATM    2  C   UNL     1     -11.343  15.303  67.606  1.00  0.00    -0.312 C  
HETATM    3  C   UNL     1     -10.795  15.685  69.030  1.00  0.00    -0.254 C  
HETATM    4  O   UNL     1     -12.765  15.226  67.646  1.00  0.00     0.359 OA 
HETATM    5  C   UNL     1     -11.254  17.044  69.539  1.00  0.00     0.384 C  
HETATM    6  H   UNL     1     -13.163  16.038  67.937  1.00  0.00     0.000 HD 
HETATM    7  C   UNL     1     -11.066  17.300  70.977  1.00  0.00     1.285 A  
HETATM    8  C   UNL     1     -11.961  17.947  68.838  1.00  0.00     3.820 C  
HETATM    9  C   UNL     1     -11.382  16.286  71.882  1.00  0.00    -0.105 A  
HETATM   10  C   UNL     1     -11.518  16.603  73.244  1.00  0.00     0.625 A  
HETATM   11  C   UNL     1     -11.588  14.895  71.379  1.00  0.00    -0.307 C  
HETATM   12  O   UNL     1     -11.994  15.723  74.177  1.00  0.00    -0.405 OA 
HETATM   13  C   UNL     1     -11.209  17.885  73.711  1.00  0.00     1.517 A  
HETATM   14  C   UNL     1     -11.094  14.553  69.998  1.00  0.00    -0.170 C  
HETATM   15  O   UNL     1     -12.126  14.063  72.105  1.00  0.00    -0.036 OA 
HETATM   16  H   UNL     1     -12.086  15.938  75.098  1.00  0.00     0.000 HD 
HETATM   17  C   UNL     1     -11.058  13.259  69.591  1.00  0.00     0.063 C  
HETATM   18  C   UNL     1     -10.766  18.855  72.823  1.00  0.00     3.339 A  
HETATM   19  O   UNL     1     -11.523  12.220  70.399  1.00  0.00    -0.491 OA 
HETATM   20  C   UNL     1     -10.853  12.830  68.133  1.00  0.00    -0.228 C  
HETATM   21  C   UNL     1     -10.707  18.571  71.453  1.00  0.00     3.103 A  
HETATM   22  H   UNL     1     -11.497  11.314  70.114  1.00  0.00     0.000 HD 
HETATM   23  C   UNL     1      -9.625  11.876  67.750  1.00  0.00    -0.190 C  
HETATM   24  O   UNL     1     -12.085  12.132  67.869  1.00  0.00    -0.502 OA 
HETATM   25  H   UNL     1     -12.178  11.412  68.481  1.00  0.00     0.000 HD 
HETATM   26  O   UNL     1      -9.025  11.156  68.542  1.00  0.00    -0.158 OA 
HETATM   27  C   UNL     1      -9.273  11.806  66.248  1.00  0.00    -0.227 C  
HETATM   28  H   UNL     1     -12.140  11.208  64.945  1.00  0.00     0.000 HD 
HETATM   29  C   UNL     1     -10.398  12.049  65.543  1.00  0.00    -0.263 C  
HETATM   30  C   UNL     1     -10.936  13.515  65.650  1.00  0.00    -0.289 C  
HETATM   31  O   UNL     1     -11.348  11.037  65.442  1.00  0.00     0.070 OA 
ENDROOT
BRANCH  27  32
HETATM   32  C   UNL     1      -8.118  12.609  65.736  1.00  0.00     1.788 C  
HETATM   33  N   UNL     1      -8.280  13.976  65.759  1.00  0.00     1.554 N  
HETATM   34  H1  UNL     1      -7.493  14.523  65.411  1.00  0.00     0.000 HD 
HETATM   35  H2  UNL     1      -9.134  14.415  66.104  1.00  0.00     0.000 HD 
HETATM   36  O   UNL     1      -7.066  12.106  65.386  1.00  0.00     1.980 OA 
ENDBRANCH  27  32
BRANCH  30  37
HETATM   37  N   UNL     1     -12.196  13.871  64.966  1.00  0.00    -0.403 NA 
HETATM   38  C   UNL     1     -13.439  13.342  65.530  1.00  0.00     1.065 C  
HETATM   39  C   UNL     1     -12.138  13.478  63.549  1.00  0.00    -0.364 C  
ENDBRANCH  30  37
TORSDOF 2
ENDMDL
MODEL       97
REMARK 921   NORMALIZED FREE ENERGY PREDICTED BY IDOCK:   16.71 KCAL/MOL
REMARK 922        TOTAL FREE ENERGY PREDICTED BY IDOCK:   19.09 KCAL/MOL
REMARK 923 INTER-LIGAND FREE ENERGY PREDICTED BY IDOCK:   16.39 KCAL/MOL
REMARK 924 INTRA-LIGAND FREE ENERGY PREDICTED BY IDOCK:    2.70 KCAL/MOL
REMARK 927      BINDING AFFINITY PREDICTED BY RF-SCORE:    0.00 PKD
ROOT
HETATM    1  C   UNL     1     -10.308  12.492  69.725  1.00  0.00     1.149 C  
HETATM    2  C   UNL     1     -10.013  11.140  69.079  1.00  0.00    -0.137 C  
HETATM    3  C   UNL     1      -9.036  11.333  67.862  1.00  0.00    -0.150 C  
HETATM    4  O   UNL     1     -11.197  10.479  68.642  1.00  0.00    -0.252 OA 
HETATM    5  C   UNL     1      -8.557  10.036  67.225  1.00  0.00    -0.125 C  
HETATM    6  H   UNL     1     -11.013   9.638  68.239  1.00  0.00     0.000 HD 
HETATM    7  C   UNL     1      -7.937  10.152  65.895  1.00  0.00    -0.134 A  
HETATM    8  C   UNL     1      -8.803   8.798  67.687  1.00  0.00    -0.138 C  
HETATM    9  C   UNL     1      -8.532  10.991  64.952  1.00  0.00     0.112 A  
HETATM   10  C   UNL     1      -8.159  10.876  63.603  1.00  0.00     0.251 A  
HETATM   11  C   UNL     1      -9.566  11.972  65.395  1.00  0.00    -0.132 C  
HETATM   12  O   UNL     1      -8.805  11.523  62.585  1.00  0.00    -0.554 OA 
HETATM   13  C   UNL     1      -7.109  10.032  63.223  1.00  0.00    -0.132 A  
HETATM   14  C   UNL     1      -9.668  12.289  66.864  1.00  0.00    -0.217 C  
HETATM   15  O   UNL     1     -10.285  12.514  64.559  1.00  0.00    -0.317 OA 
HETATM   16  H   UNL     1      -8.552  11.445  61.672  1.00  0.00     0.000 HD 
HETATM   17  C   UNL     1     -10.430  13.330  67.283  1.00  0.00    -0.247 C  
HETATM   18  C   UNL     1      -6.429   9.299  64.186  1.00  0.00    -0.090 A  
HETATM   19  O   UNL     1     -11.183  14.097  66.391  1.00  0.00    -0.315 OA 
HETATM   20  C   UNL     1     -10.832  13.559  68.745  1.00  0.00    -0.253 C  
HETATM   21  C   UNL     1      -6.849   9.345  65.522  1.00  0.00    -0.078 A  
HETATM   22  H   UNL     1     -11.717  14.826  66.684  1.00  0.00     0.000 HD 
HETATM   23  C   UNL     1     -10.441  14.932  69.472  1.00  0.00    -0.201 C  
HETATM   24  O   UNL     1     -12.267  13.468  68.662  1.00  0.00    -0.323 OA 
HETATM   25  H   UNL     1     -12.590  14.126  68.058  1.00  0.00     0.000 HD 
HETATM   26  O   UNL     1     -10.162  15.977  68.890  1.00  0.00    -0.210 OA 
HETATM   27  C   UNL     1     -10.539  14.927  71.013  1.00  0.00     0.378 C  
HETATM   28  H   UNL     1     -13.481  13.740  71.465  1.00  0.00     0.000 HD 
HETATM   29  C   UNL     1     -11.479  14.028  71.370  1.00  0.00     0.850 C  
HETATM   30  C   UNL     1     -11.099  12.534  71.096  1.00  0.00     3.457 C  
HETATM   31  O   UNL     1     -12.819  14.373  71.213  1.00  0.00    -0.306 OA 
ENDROOT
BRANCH  27  32
HETATM   32  C   UNL     1      -9.287  14.763  71.818  1.00  0.00     4.736 C  
HETATM   33  N   UNL     1      -8.142  14.499  71.101  1.00  0.00     2.301 N  
HETATM   34  H1  UNL     1      -7.289  14.387  71.649  1.00  0.00     0.000 HD 
HETATM   35  H2  UNL     1      -8.146  14.420  70.083  1.00  0.00     0.000 HD 
HETATM   36  O   UNL     1      -9.251  14.922  73.025  1.00  0.00     5.819 OA 
ENDBRANCH  27  32
BRANCH  30  37
HETATM   37  N   UNL     1     -12.083  11.475  71.393  1.00  0.00     0.035 NA 
HETATM   38  C   UNL     1     -11.661  10.399  72.292  1.00  0.00     1.847 C  
HETATM   39  C   UNL     1     -12.566  10.860  70.146  1.00  0.00    -0.234 C  
ENDBRANCH  30  37
TORSDOF 2
ENDMDL
MODEL       98
REMARK 921   NORMALIZED FREE ENERGY PREDICTED BY IDOCK:   19.56 KCAL/MOL
REMARK 922        TOTAL FREE ENERGY PREDICTED BY IDOCK:   22.28 KCAL/MOL
REMARK 923 INTER-LIGAND FREE ENERGY PREDICTED BY IDOCK:   19.29 KCAL/MOL
REMARK 924 INTRA-LIGAND FREE ENERGY PREDICTED BY IDOCK:    2.99 KCAL/MOL
REMARK 927      BINDING AFFINITY PREDICTED BY RF-SCORE:    0.00 PKD
ROOT
HETATM    1  C   UNL     1     -11.305  14.906  70.287  1.00  0.00    -0.296 C  
HETATM    2  C   UNL     1     -11.072  16.366  69.909  1.00  0.00    -0.310 C  
HETATM    3  C   UNL     1     -10.117  16.448  68.662  1.00  0.00    -0.244 C  
HETATM    4  O   UNL     1     -10.522  17.124  70.983  1.00  0.00     1.143 OA 
HETATM    5  C   UNL     1      -9.926  17.851  68.104  1.00  0.00    -0.350 C  
HETATM    6  H   UNL     1     -10.377  18.032  70.747  1.00  0.00     0.000 HD 
HETATM    7  C   UNL     1      -8.796  18.038  67.179  1.00  0.00    -0.249 A  
HETATM    8  C   UNL     1     -10.582  18.953  68.509  1.00  0.00    -0.035 C  
HETATM    9  C   UNL     1      -7.572  17.446  67.494  1.00  0.00    -0.201 A  
HETATM   10  C   UNL     1      -6.416  17.864  66.814  1.00  0.00    -0.184 A  
HETATM   11  C   UNL     1      -7.517  16.400  68.558  1.00  0.00    -0.181 C  
HETATM   12  O   UNL     1      -5.153  17.476  67.170  1.00  0.00    -0.112 OA 
HETATM   13  C   UNL     1      -6.503  18.761  65.744  1.00  0.00    -0.287 A  
HETATM   14  C   UNL     1      -8.807  15.754  68.993  1.00  0.00    -0.236 C  
HETATM   15  O   UNL     1      -6.432  16.074  69.031  1.00  0.00    -0.130 OA 
HETATM   16  H   UNL     1      -4.371  17.759  66.710  1.00  0.00     0.000 HD 
HETATM   17  C   UNL     1      -8.782  14.653  69.785  1.00  0.00     0.463 C  
HETATM   18  C   UNL     1      -7.743  19.245  65.348  1.00  0.00     0.392 A  
HETATM   19  O   UNL     1      -7.584  14.121  70.268  1.00  0.00     0.029 OA 
HETATM   20  C   UNL     1     -10.012  14.098  70.513  1.00  0.00     2.165 C  
HETATM   21  C   UNL     1      -8.890  18.897  66.072  1.00  0.00    -0.019 A  
HETATM   22  H   UNL     1      -7.566  13.350  70.822  1.00  0.00     0.000 HD 
HETATM   23  C   UNL     1     -10.481  12.591  70.245  1.00  0.00     2.444 C  
HETATM   24  O   UNL     1      -9.606  14.222  71.890  1.00  0.00     4.194 OA 
HETATM   25  H   UNL     1      -8.809  13.725  72.029  1.00  0.00     0.000 HD 
HETATM   26  O   UNL     1      -9.765  11.705  69.788  1.00  0.00     0.830 OA 
HETATM   27  C   UNL     1     -11.913  12.242  70.708  1.00  0.00    -0.101 C  
HETATM   28  H   UNL     1     -11.893  13.325  73.724  1.00  0.00     0.000 HD 
HETATM   29  C   UNL     1     -12.225  13.045  71.747  1.00  0.00     0.572 C  
HETATM   30  C   UNL     1     -12.396  14.557  71.380  1.00  0.00    -0.356 C  
HETATM   31  O   UNL     1     -11.674  12.760  72.993  1.00  0.00     3.944 OA 
ENDROOT
BRANCH  27  32
HETATM   32  C   UNL     1     -13.014  12.202  69.693  1.00  0.00     1.133 C  
HETATM   33  N   UNL     1     -12.670  12.593  68.419  1.00  0.00     1.073 N  
HETATM   34  H1  UNL     1     -13.419  12.566  67.728  1.00  0.00     0.000 HD 
HETATM   35  H2  UNL     1     -11.723  12.892  68.180  1.00  0.00     0.000 HD 
HETATM   36  O   UNL     1     -14.129  11.784  69.944  1.00  0.00     4.075 OA 
ENDBRANCH  27  32
BRANCH  30  37
HETATM   37  N   UNL     1     -12.677  15.531  72.454  1.00  0.00    -0.364 NA 
HETATM   38  C   UNL     1     -13.958  16.238  72.401  1.00  0.00     0.576 C  
HETATM   39  C   UNL     1     -11.606  16.538  72.526  1.00  0.00    -0.089 C  
ENDBRANCH  30  37
TORSDOF 2
ENDMDL
MODEL       99
REMARK 921   NORMALIZED FREE ENERGY PREDICTED BY IDOCK:   21.51 KCAL/MOL
REMARK 922        TOTAL FREE ENERGY PREDICTED BY IDOCK:   24.46 KCAL/MOL
REMARK 923 INTER-LIGAND FREE ENERGY PREDICTED BY IDOCK:   21.86 KCAL/MOL
REMARK 924 INTRA-LIGAND FREE ENERGY PREDICTED BY IDOCK:    2.60 KCAL/MOL
REMARK 927      BINDING AFFINITY PREDICTED BY RF-SCORE:    0.00 PKD
ROOT
HETATM    1  C   UNL     1      -8.688  16.663  66.258  1.00  0.00    -0.359 C  
HETATM    2  C   UNL     1      -8.810  15.195  66.660  1.00  0.00    -0.286 C  
HETATM    3  C   UNL     1      -9.599  14.404  65.554  1.00  0.00    -0.097 C  
HETATM    4  O   UNL     1      -9.455  15.029  67.919  1.00  0.00    -0.193 OA 
HETATM    5  C   UNL     1      -9.660  12.899  65.776  1.00  0.00    -0.086 C  
HETATM    6  H   UNL     1      -9.531  14.115  68.168  1.00  0.00     0.000 HD 
HETATM    7  C   UNL     1     -10.659  12.162  64.984  1.00  0.00    -0.330 A  
HETATM    8  C   UNL     1      -9.012  12.221  66.739  1.00  0.00    -0.209 C  
HETATM    9  C   UNL     1     -11.936  12.706  64.849  1.00  0.00    -0.459 A  
HETATM   10  C   UNL     1     -12.981  11.891  64.383  1.00  0.00     0.296 A  
HETATM   11  C   UNL     1     -12.166  14.134  65.221  1.00  0.00    -0.434 C  
HETATM   12  O   UNL     1     -14.293  12.277  64.383  1.00  0.00     1.448 OA 
HETATM   13  C   UNL     1     -12.724  10.592  63.931  1.00  0.00     4.318 A  
HETATM   14  C   UNL     1     -10.969  15.035  65.373  1.00  0.00    -0.380 C  
HETATM   15  O   UNL     1     -13.314  14.543  65.368  1.00  0.00    -0.458 OA 
HETATM   16  H   UNL     1     -15.000  11.725  64.067  1.00  0.00     0.000 HD 
HETATM   17  C   UNL     1     -11.139  16.376  65.488  1.00  0.00     0.007 C  
HETATM   18  C   UNL     1     -11.426  10.101  63.944  1.00  0.00     4.294 A  
HETATM   19  O   UNL     1     -12.408  16.957  65.528  1.00  0.00     2.652 OA 
HETATM   20  C   UNL     1     -10.033  17.341  65.931  1.00  0.00    -0.173 C  
HETATM   21  C   UNL     1     -10.392  10.877  64.483  1.00  0.00    -0.417 A  
HETATM   22  H   UNL     1     -12.528  17.895  65.608  1.00  0.00     0.000 HD 
HETATM   23  C   UNL     1      -9.599  18.548  64.973  1.00  0.00     2.765 C  
HETATM   24  O   UNL     1     -10.600  17.886  67.138  1.00  0.00    -0.360 OA 
HETATM   25  H   UNL     1     -11.428  18.303  66.937  1.00  0.00     0.000 HD 
HETATM   26  O   UNL     1     -10.291  19.008  64.069  1.00  0.00     4.820 OA 
HETATM   27  C   UNL     1      -8.252  19.223  65.311  1.00  0.00     1.142 C  
HETATM   28  H   UNL     1      -8.596  19.805  68.444  1.00  0.00     0.000 HD 
HETATM   29  C   UNL     1      -8.036  19.086  66.636  1.00  0.00    -0.271 C  
HETATM   30  C   UNL     1      -7.756  17.620  67.108  1.00  0.00    -0.207 C  
HETATM   31  O   UNL     1      -8.748  19.902  67.511  1.00  0.00    -0.318 OA 
ENDROOT
BRANCH  27  32
HETATM   32  C   UNL     1      -7.037  18.857  64.515  1.00  0.00     1.848 C  
HETATM   33  N   UNL     1      -5.934  18.475  65.245  1.00  0.00    -0.240 N  
HETATM   34  H1  UNL     1      -5.107  18.226  64.703  1.00  0.00     0.000 HD 
HETATM   35  H2  UNL     1      -5.943  18.443  66.265  1.00  0.00     0.000 HD 
HETATM   36  O   UNL     1      -7.030  18.824  63.298  1.00  0.00     3.904 OA 
ENDBRANCH  27  32
BRANCH  30  37
HETATM   37  N   UNL     1      -7.568  17.350  68.547  1.00  0.00    -0.244 NA 
HETATM   38  C   UNL     1      -8.742  16.917  69.308  1.00  0.00     0.069 C  
HETATM   39  C   UNL     1      -7.002  18.530  69.220  1.00  0.00    -0.185 C  
ENDBRANCH  30  37
TORSDOF 2
ENDMDL
MODEL      100
REMARK 921   NORMALIZED FREE ENERGY PREDICTED BY IDOCK:   23.42 KCAL/MOL
REMARK 922        TOTAL FREE ENERGY PREDICTED BY IDOCK:   26.59 KCAL/MOL
REMARK 923 INTER-LIGAND FREE ENERGY PREDICTED BY IDOCK:   26.39 KCAL/MOL
REMARK 924 INTRA-LIGAND FREE ENERGY PREDICTED BY IDOCK:    0.20 KCAL/MOL
REMARK 927      BINDING AFFINITY PREDICTED BY RF-SCORE:    0.00 PKD
ROOT
HETATM    1  C   UNL     1      -9.508  15.210  69.241  1.00  0.00    -0.212 C  
HETATM    2  C   UNL     1      -9.952  16.448  68.465  1.00  0.00    -0.239 C  
HETATM    3  C   UNL     1      -8.732  17.049  67.677  1.00  0.00    -0.216 C  
HETATM    4  O   UNL     1     -10.514  17.446  69.312  1.00  0.00    -0.343 OA 
HETATM    5  C   UNL     1      -9.086  18.205  66.751  1.00  0.00    -0.287 C  
HETATM    6  H   UNL     1     -10.790  18.216  68.828  1.00  0.00     0.000 HD 
HETATM    7  C   UNL     1      -7.961  19.020  66.264  1.00  0.00    -0.302 A  
HETATM    8  C   UNL     1     -10.329  18.642  66.482  1.00  0.00    -0.462 C  
HETATM    9  C   UNL     1      -6.960  19.381  67.167  1.00  0.00    -0.215 A  
HETATM   10  C   UNL     1      -6.063  20.405  66.818  1.00  0.00    -0.183 A  
HETATM   11  C   UNL     1      -6.880  18.688  68.487  1.00  0.00    -0.264 C  
HETATM   12  O   UNL     1      -5.165  20.949  67.696  1.00  0.00    -0.195 OA 
HETATM   13  C   UNL     1      -6.081  20.962  65.536  1.00  0.00    -0.277 A  
HETATM   14  C   UNL     1      -7.625  17.391  68.660  1.00  0.00    -0.265 C  
HETATM   15  O   UNL     1      -6.195  19.172  69.384  1.00  0.00    -0.255 OA 
HETATM   16  H   UNL     1      -4.558  21.641  67.460  1.00  0.00     0.000 HD 
HETATM   17  C   UNL     1      -7.402  16.620  69.753  1.00  0.00     0.414 C  
HETATM   18  C   UNL     1      -6.995  20.504  64.596  1.00  0.00     0.004 A  
HETATM   19  O   UNL     1      -6.534  17.020  70.771  1.00  0.00     0.929 OA 
HETATM   20  C   UNL     1      -8.299  15.448  70.168  1.00  0.00     0.598 C  
HETATM   21  C   UNL     1      -7.946  19.543  64.961  1.00  0.00     1.333 A  
HETATM   22  H   UNL     1      -6.377  16.480  71.537  1.00  0.00     0.000 HD 
HETATM   23  C   UNL     1      -7.673  13.981  70.319  1.00  0.00     1.433 C  
HETATM   24  O   UNL     1      -8.765  15.890  71.457  1.00  0.00     4.191 OA 
HETATM   25  H   UNL     1      -8.021  16.036  72.028  1.00  0.00     0.000 HD 
HETATM   26  O   UNL     1      -6.480  13.743  70.485  1.00  0.00    -0.033 OA 
HETATM   27  C   UNL     1      -8.689  12.819  70.361  1.00  0.00     5.692 C  
HETATM   28  H   UNL     1     -10.744  13.844  72.597  1.00  0.00     0.000 HD 
HETATM   29  C   UNL     1      -9.847  13.293  70.867  1.00  0.00     6.740 C  
HETATM   30  C   UNL     1     -10.601  14.308  69.946  1.00  0.00     0.247 C  
HETATM   31  O   UNL     1      -9.929  13.510  72.240  1.00  0.00     8.571 OA 
ENDROOT
BRANCH  27  32
HETATM   32  C   UNL     1      -8.921  12.013  69.120  1.00  0.00     0.546 C  
HETATM   33  N   UNL     1      -7.974  12.151  68.129  1.00  0.00    -0.142 N  
HETATM   34  H1  UNL     1      -8.132  11.602  67.284  1.00  0.00     0.000 HD 
HETATM   35  H2  UNL     1      -7.165  12.764  68.234  1.00  0.00     0.000 HD 
HETATM   36  O   UNL     1      -9.842  11.226  69.005  1.00  0.00    -0.178 OA 
ENDBRANCH  27  32
BRANCH  30  37
HETATM   37  N   UNL     1     -11.847  14.934  70.432  1.00  0.00    -0.280 NA 
HETATM   38  C   UNL     1     -12.493  14.326  71.597  1.00  0.00    -0.339 C  
HETATM   39  C   UNL     1     -12.841  15.006  69.349  1.00  0.00     0.379 C  
ENDBRANCH  30  37
TORSDOF 2
ENDMDL
MODEL      101
REMARK 921   NORMALIZED FREE ENERGY PREDICTED BY IDOCK:   23.49 KCAL/MOL
REMARK 922        TOTAL FREE ENERGY PREDICTED BY IDOCK:   26.67 KCAL/MOL
REMARK 923 INTER-LIGAND FREE ENERGY PREDICTED BY IDOCK:   25.29 KCAL/MOL
REMARK 924 INTRA-LIGAND FREE ENERGY PREDICTED BY IDOCK:    1.38 KCAL/MOL
REMARK 927      BINDING AFFINITY PREDICTED BY RF-SCORE:    0.00 PKD
ROOT
HETATM    1  C   UNL     1      -7.914  14.697  67.844  1.00  0.00    -0.149 C  
HETATM    2  C   UNL     1      -7.218  14.067  69.047  1.00  0.00    -0.092 C  
HETATM    3  C   UNL     1      -7.074  12.516  68.829  1.00  0.00    -0.092 C  
HETATM    4  O   UNL     1      -7.912  14.316  70.266  1.00  0.00     0.255 OA 
HETATM    5  C   UNL     1      -6.266  11.800  69.901  1.00  0.00    -0.141 C  
HETATM    6  H   UNL     1      -7.478  13.923  71.015  1.00  0.00     0.000 HD 
HETATM    7  C   UNL     1      -6.390  10.333  69.942  1.00  0.00    -0.082 A  
HETATM    8  C   UNL     1      -5.597  12.392  70.906  1.00  0.00    -0.109 C  
HETATM    9  C   UNL     1      -7.657   9.767  69.797  1.00  0.00    -0.137 A  
HETATM   10  C   UNL     1      -7.847   8.420  70.147  1.00  0.00    -0.102 A  
HETATM   11  C   UNL     1      -8.783  10.610  69.297  1.00  0.00    -0.077 C  
HETATM   12  O   UNL     1      -9.078   7.825  70.209  1.00  0.00    -0.151 OA 
HETATM   13  C   UNL     1      -6.759   7.616  70.504  1.00  0.00    -0.042 A  
HETATM   14  C   UNL     1      -8.453  11.914  68.619  1.00  0.00    -0.045 C  
HETATM   15  O   UNL     1      -9.938  10.215  69.423  1.00  0.00    -0.204 OA 
HETATM   16  H   UNL     1      -9.206   6.914  70.446  1.00  0.00     0.000 HD 
HETATM   17  C   UNL     1      -9.418  12.598  67.955  1.00  0.00    -0.209 C  
HETATM   18  C   UNL     1      -5.479   8.152  70.517  1.00  0.00    -0.022 A  
HETATM   19  O   UNL     1     -10.743  12.158  67.925  1.00  0.00    -0.196 OA 
HETATM   20  C   UNL     1      -9.266  14.050  67.487  1.00  0.00    -0.197 C  
HETATM   21  C   UNL     1      -5.292   9.514  70.250  1.00  0.00    -0.028 A  
HETATM   22  H   UNL     1     -11.419  12.637  67.460  1.00  0.00     0.000 HD 
HETATM   23  C   UNL     1      -9.433  14.407  65.935  1.00  0.00    -0.154 C  
HETATM   24  O   UNL     1     -10.317  14.699  68.229  1.00  0.00    -0.222 OA 
HETATM   25  H   UNL     1     -11.150  14.300  68.009  1.00  0.00     0.000 HD 
HETATM   26  O   UNL     1     -10.019  13.706  65.114  1.00  0.00    -0.279 OA 
HETATM   27  C   UNL     1      -8.897  15.789  65.502  1.00  0.00     0.689 C  
HETATM   28  H   UNL     1     -10.266  17.713  67.670  1.00  0.00     0.000 HD 
HETATM   29  C   UNL     1      -8.970  16.618  66.565  1.00  0.00    -0.277 C  
HETATM   30  C   UNL     1      -7.987  16.275  67.734  1.00  0.00    -0.142 C  
HETATM   31  O   UNL     1     -10.215  17.130  66.922  1.00  0.00    -0.300 OA 
ENDROOT
BRANCH  27  32
HETATM   32  C   UNL     1      -7.561  15.872  64.831  1.00  0.00     8.147 C  
HETATM   33  N   UNL     1      -6.560  15.112  65.392  1.00  0.00     8.308 N  
HETATM   34  H1  UNL     1      -5.650  15.168  64.935  1.00  0.00     0.000 HD 
HETATM   35  H2  UNL     1      -6.718  14.529  66.214  1.00  0.00     0.000 HD 
HETATM   36  O   UNL     1      -7.373  16.507  63.810  1.00  0.00    11.636 OA 
ENDBRANCH  27  32
BRANCH  30  37
HETATM   37  N   UNL     1      -8.029  17.082  68.970  1.00  0.00    -0.203 NA 
HETATM   38  C   UNL     1      -9.294  17.742  69.298  1.00  0.00     0.171 C  
HETATM   39  C   UNL     1      -6.974  18.107  68.949  1.00  0.00    -0.267 C  
ENDBRANCH  30  37
TORSDOF 2
ENDMDL
MODEL      102
REMARK 921   NORMALIZED FREE ENERGY PREDICTED BY IDOCK:   26.95 KCAL/MOL
REMARK 922        TOTAL FREE ENERGY PREDICTED BY IDOCK:   30.53 KCAL/MOL
REMARK 923 INTER-LIGAND FREE ENERGY PREDICTED BY IDOCK:   27.76 KCAL/MOL
REMARK 924 INTRA-LIGAND FREE ENERGY PREDICTED BY IDOCK:    2.78 KCAL/MOL
REMARK 927      BINDING AFFINITY PREDICTED BY RF-SCORE:    0.00 PKD
ROOT
HETATM    1  C   UNL     1      -8.685  12.046  65.888  1.00  0.00     0.200 C  
HETATM    2  C   UNL     1      -7.961  13.361  66.166  1.00  0.00     1.811 C  
HETATM    3  C   UNL     1      -7.570  13.442  67.687  1.00  0.00    -0.177 C  
HETATM    4  O   UNL     1      -8.745  14.496  65.813  1.00  0.00    -0.073 OA 
HETATM    5  C   UNL     1      -6.716  14.648  68.056  1.00  0.00    -0.152 C  
HETATM    6  H   UNL     1      -8.295  15.315  65.986  1.00  0.00     0.000 HD 
HETATM    7  C   UNL     1      -6.615  14.962  69.490  1.00  0.00    -0.154 A  
HETATM    8  C   UNL     1      -6.197  15.536  67.190  1.00  0.00     0.202 C  
HETATM    9  C   UNL     1      -7.771  14.902  70.270  1.00  0.00     0.585 A  
HETATM   10  C   UNL     1      -7.769  15.497  71.542  1.00  0.00     4.227 A  
HETATM   11  C   UNL     1      -8.987  14.228  69.724  1.00  0.00     0.937 C  
HETATM   12  O   UNL     1      -8.895  15.645  72.305  1.00  0.00     5.922 OA 
HETATM   13  C   UNL     1      -6.590  16.021  72.082  1.00  0.00     3.912 A  
HETATM   14  C   UNL     1      -8.828  13.322  68.531  1.00  0.00    -0.055 C  
HETATM   15  O   UNL     1     -10.073  14.404  70.270  1.00  0.00     0.576 OA 
HETATM   16  H   UNL     1      -8.894  16.047  73.166  1.00  0.00     0.000 HD 
HETATM   17  C   UNL     1      -9.853  12.522  68.145  1.00  0.00    -0.221 C  
HETATM   18  C   UNL     1      -5.410  15.958  71.354  1.00  0.00     0.086 A  
HETATM   19  O   UNL     1     -11.091  12.549  68.789  1.00  0.00    -0.245 OA 
HETATM   20  C   UNL     1      -9.902  11.790  66.798  1.00  0.00    -0.198 C  
HETATM   21  C   UNL     1      -5.421  15.442  70.052  1.00  0.00    -0.123 A  
HETATM   22  H   UNL     1     -11.808  11.988  68.519  1.00  0.00     0.000 HD 
HETATM   23  C   UNL     1     -10.044  10.195  66.764  1.00  0.00    -0.219 C  
HETATM   24  O   UNL     1     -11.076  12.375  66.202  1.00  0.00    -0.277 OA 
HETATM   25  H   UNL     1     -11.826  12.218  66.762  1.00  0.00     0.000 HD 
HETATM   26  O   UNL     1     -10.473   9.511  67.689  1.00  0.00    -0.232 OA 
HETATM   27  C   UNL     1      -9.706   9.520  65.417  1.00  0.00    -0.314 C  
HETATM   28  H   UNL     1     -11.461  11.257  63.373  1.00  0.00     0.000 HD 
HETATM   29  C   UNL     1      -9.958  10.406  64.430  1.00  0.00    -0.318 C  
HETATM   30  C   UNL     1      -8.994  11.638  64.390  1.00  0.00     0.405 C  
HETATM   31  O   UNL     1     -11.283  10.633  64.067  1.00  0.00     0.456 OA 
ENDROOT
BRANCH  27  32
HETATM   32  C   UNL     1      -8.367   8.873  65.246  1.00  0.00    -0.160 C  
HETATM   33  N   UNL     1      -8.264   7.971  64.210  1.00  0.00    -0.315 N  
HETATM   34  H1  UNL     1      -7.352   7.531  64.094  1.00  0.00     0.000 HD 
HETATM   35  H2  UNL     1      -9.051   7.758  63.597  1.00  0.00     0.000 HD 
HETATM   36  O   UNL     1      -7.399   9.167  65.923  1.00  0.00    -0.091 OA 
ENDBRANCH  27  32
BRANCH  30  37
HETATM   37  N   UNL     1      -9.221  12.698  63.387  1.00  0.00     0.797 NA 
HETATM   38  C   UNL     1      -8.092  13.065  62.531  1.00  0.00     8.583 C  
HETATM   39  C   UNL     1      -9.714  13.922  64.038  1.00  0.00     2.382 C  
ENDBRANCH  30  37
TORSDOF 2
ENDMDL
MODEL      103
REMARK 921   NORMALIZED FREE ENERGY PREDICTED BY IDOCK:   28.02 KCAL/MOL
REMARK 922        TOTAL FREE ENERGY PREDICTED BY IDOCK:   31.73 KCAL/MOL
REMARK 923 INTER-LIGAND FREE ENERGY PREDICTED BY IDOCK:   29.97 KCAL/MOL
REMARK 924 INTRA-LIGAND FREE ENERGY PREDICTED BY IDOCK:    1.76 KCAL/MOL
REMARK 927      BINDING AFFINITY PREDICTED BY RF-SCORE:    0.00 PKD
ROOT
HETATM    1  C   UNL     1      -9.054  14.949  66.751  1.00  0.00    -0.295 C  
HETATM    2  C   UNL     1      -9.690  13.578  66.969  1.00  0.00    -0.251 C  
HETATM    3  C   UNL     1      -8.726  12.453  66.442  1.00  0.00     0.013 C  
HETATM    4  O   UNL     1     -10.957  13.461  66.328  1.00  0.00    -0.286 OA 
HETATM    5  C   UNL     1      -9.192  11.034  66.735  1.00  0.00    -0.174 C  
HETATM    6  H   UNL     1     -11.353  12.608  66.463  1.00  0.00     0.000 HD 
HETATM    7  C   UNL     1      -8.528   9.960  65.979  1.00  0.00    -0.135 A  
HETATM    8  C   UNL     1     -10.256  10.697  67.485  1.00  0.00    -0.236 C  
HETATM    9  C   UNL     1      -8.300  10.147  64.615  1.00  0.00    -0.167 A  
HETATM   10  C   UNL     1      -7.971   9.038  63.818  1.00  0.00    -0.147 A  
HETATM   11  C   UNL     1      -8.433  11.515  64.032  1.00  0.00     0.818 C  
HETATM   12  O   UNL     1      -7.902   9.086  62.453  1.00  0.00    -0.116 OA 
HETATM   13  C   UNL     1      -7.739   7.787  64.400  1.00  0.00    -0.123 A  
HETATM   14  C   UNL     1      -8.439  12.694  64.969  1.00  0.00     2.430 C  
HETATM   15  O   UNL     1      -8.506  11.650  62.814  1.00  0.00    -0.043 OA 
HETATM   16  H   UNL     1      -7.679   8.336  61.914  1.00  0.00     0.000 HD 
HETATM   17  C   UNL     1      -8.332  13.954  64.477  1.00  0.00     7.834 C  
HETATM   18  C   UNL     1      -7.837   7.636  65.776  1.00  0.00    -0.106 A  
HETATM   19  O   UNL     1      -8.272  14.205  63.105  1.00  0.00    11.367 OA 
HETATM   20  C   UNL     1      -8.615  15.217  65.298  1.00  0.00     2.662 C  
HETATM   21  C   UNL     1      -8.245   8.717  66.568  1.00  0.00    -0.107 A  
HETATM   22  H   UNL     1      -8.196  15.087  62.760  1.00  0.00     0.000 HD 
HETATM   23  C   UNL     1      -7.473  16.327  65.471  1.00  0.00     2.818 C  
HETATM   24  O   UNL     1      -9.714  15.791  64.565  1.00  0.00     0.178 OA 
HETATM   25  H   UNL     1      -9.444  15.956  63.670  1.00  0.00     0.000 HD 
HETATM   26  O   UNL     1      -6.504  16.455  64.728  1.00  0.00     5.312 OA 
HETATM   27  C   UNL     1      -7.701  17.355  66.600  1.00  0.00    -0.293 C  
HETATM   28  H   UNL     1     -10.695  18.323  65.989  1.00  0.00     0.000 HD 
HETATM   29  C   UNL     1      -9.032  17.486  66.784  1.00  0.00    -0.256 C  
HETATM   30  C   UNL     1      -9.739  16.226  67.388  1.00  0.00    -0.234 C  
HETATM   31  O   UNL     1      -9.758  18.231  65.859  1.00  0.00    -0.516 OA 
ENDROOT
BRANCH  27  32
HETATM   32  C   UNL     1      -6.981  17.176  67.900  1.00  0.00    -0.165 C  
HETATM   33  N   UNL     1      -6.070  16.145  67.945  1.00  0.00    -0.119 N  
HETATM   34  H1  UNL     1      -5.579  16.023  68.830  1.00  0.00     0.000 HD 
HETATM   35  H2  UNL     1      -5.897  15.539  67.142  1.00  0.00     0.000 HD 
HETATM   36  O   UNL     1      -7.124  17.931  68.845  1.00  0.00    -0.261 OA 
ENDBRANCH  27  32
BRANCH  30  37
HETATM   37  N   UNL     1     -11.204  16.242  67.572  1.00  0.00    -0.136 NA 
HETATM   38  C   UNL     1     -11.768  15.304  68.543  1.00  0.00    -0.332 C  
HETATM   39  C   UNL     1     -11.885  16.028  66.285  1.00  0.00     1.035 C  
ENDBRANCH  30  37
TORSDOF 2
ENDMDL
MODEL      104
REMARK 921   NORMALIZED FREE ENERGY PREDICTED BY IDOCK:   30.72 KCAL/MOL
REMARK 922        TOTAL FREE ENERGY PREDICTED BY IDOCK:   34.74 KCAL/MOL
REMARK 923 INTER-LIGAND FREE ENERGY PREDICTED BY IDOCK:   34.05 KCAL/MOL
REMARK 924 INTRA-LIGAND FREE ENERGY PREDICTED BY IDOCK:    0.69 KCAL/MOL
REMARK 927      BINDING AFFINITY PREDICTED BY RF-SCORE:    0.00 PKD
ROOT
HETATM    1  C   UNL     1     -10.566  13.814  70.061  1.00  0.00     0.738 C  
HETATM    2  C   UNL     1      -9.317  13.496  69.242  1.00  0.00     0.698 C  
HETATM    3  C   UNL     1      -9.432  12.050  68.635  1.00  0.00    -0.069 C  
HETATM    4  O   UNL     1      -8.123  13.599  70.012  1.00  0.00     0.776 OA 
HETATM    5  C   UNL     1      -8.307  11.676  67.680  1.00  0.00    -0.142 C  
HETATM    6  H   UNL     1      -7.346  13.401  69.502  1.00  0.00     0.000 HD 
HETATM    7  C   UNL     1      -8.170  10.245  67.361  1.00  0.00    -0.114 A  
HETATM    8  C   UNL     1      -7.338  12.501  67.247  1.00  0.00    -0.113 C  
HETATM    9  C   UNL     1      -8.287   9.317  68.396  1.00  0.00    -0.119 A  
HETATM   10  C   UNL     1      -7.850   7.998  68.185  1.00  0.00    -0.126 A  
HETATM   11  C   UNL     1      -8.852   9.751  69.709  1.00  0.00    -0.224 C  
HETATM   12  O   UNL     1      -7.758   7.067  69.183  1.00  0.00    -0.101 OA 
HETATM   13  C   UNL     1      -7.431   7.582  66.917  1.00  0.00    -0.098 A  
HETATM   14  C   UNL     1      -9.612  11.050  69.765  1.00  0.00     0.586 C  
HETATM   15  O   UNL     1      -8.708   9.036  70.696  1.00  0.00    -0.173 OA 
HETATM   16  H   UNL     1      -7.463   6.175  69.039  1.00  0.00     0.000 HD 
HETATM   17  C   UNL     1     -10.327  11.371  70.872  1.00  0.00     3.739 C  
HETATM   18  C   UNL     1      -7.444   8.477  65.856  1.00  0.00    -0.077 A  
HETATM   19  O   UNL     1     -10.339  10.553  72.003  1.00  0.00     2.549 OA 
HETATM   20  C   UNL     1     -10.890  12.770  71.148  1.00  0.00     4.491 C  
HETATM   21  C   UNL     1      -7.800   9.813  66.077  1.00  0.00    -0.107 A  
HETATM   22  H   UNL     1     -10.840  10.777  72.779  1.00  0.00     0.000 HD 
HETATM   23  C   UNL     1     -12.464  12.965  71.371  1.00  0.00    -0.132 C  
HETATM   24  O   UNL     1     -10.201  13.118  72.364  1.00  0.00     9.323 OA 
HETATM   25  H   UNL     1     -10.400  12.474  73.034  1.00  0.00     0.000 HD 
HETATM   26  O   UNL     1     -13.240  12.072  71.698  1.00  0.00    -0.410 OA 
HETATM   27  C   UNL     1     -12.983  14.416  71.261  1.00  0.00    -0.414 C  
HETATM   28  H   UNL     1     -10.959  15.968  73.201  1.00  0.00     0.000 HD 
HETATM   29  C   UNL     1     -11.978  15.247  71.607  1.00  0.00    -0.372 C  
HETATM   30  C   UNL     1     -10.781  15.287  70.599  1.00  0.00    -0.176 C  
HETATM   31  O   UNL     1     -11.666  15.383  72.957  1.00  0.00    -0.446 OA 
ENDROOT
BRANCH  27  32
HETATM   32  C   UNL     1     -13.647  14.854  69.993  1.00  0.00     0.947 C  
HETATM   33  N   UNL     1     -14.402  16.003  70.077  1.00  0.00     1.774 N  
HETATM   34  H1  UNL     1     -14.854  16.301  69.213  1.00  0.00     0.000 HD 
HETATM   35  H2  UNL     1     -14.502  16.523  70.949  1.00  0.00     0.000 HD 
HETATM   36  O   UNL     1     -13.483  14.285  68.929  1.00  0.00     2.408 OA 
ENDBRANCH  27  32
BRANCH  30  37
HETATM   37  N   UNL     1      -9.602  16.118  70.915  1.00  0.00     2.022 NA 
HETATM   38  C   UNL     1      -9.803  17.256  71.813  1.00  0.00     6.920 C  
HETATM   39  C   UNL     1      -8.983  16.621  69.678  1.00  0.00     0.499 C  
ENDBRANCH  30  37
TORSDOF 2
ENDMDL
MODEL      105
REMARK 921   NORMALIZED FREE ENERGY PREDICTED BY IDOCK:   35.70 KCAL/MOL
REMARK 922        TOTAL FREE ENERGY PREDICTED BY IDOCK:   40.31 KCAL/MOL
REMARK 923 INTER-LIGAND FREE ENERGY PREDICTED BY IDOCK:   37.28 KCAL/MOL
REMARK 924 INTRA-LIGAND FREE ENERGY PREDICTED BY IDOCK:    3.03 KCAL/MOL
REMARK 927      BINDING AFFINITY PREDICTED BY RF-SCORE:    0.00 PKD
ROOT
HETATM    1  C   UNL     1     -10.919  15.017  68.848  1.00  0.00    -0.256 C  
HETATM    2  C   UNL     1     -10.954  13.622  68.230  1.00  0.00    -0.254 C  
HETATM    3  C   UNL     1      -9.506  13.009  68.215  1.00  0.00    -0.208 C  
HETATM    4  O   UNL     1     -11.483  13.629  66.907  1.00  0.00    -0.317 OA 
HETATM    5  C   UNL     1      -9.438  11.560  67.751  1.00  0.00    -0.168 C  
HETATM    6  H   UNL     1     -11.505  12.760  66.522  1.00  0.00     0.000 HD 
HETATM    7  C   UNL     1      -8.105  11.052  67.388  1.00  0.00    -0.122 A  
HETATM    8  C   UNL     1     -10.494  10.772  67.483  1.00  0.00    -0.260 C  
HETATM    9  C   UNL     1      -7.264  11.868  66.631  1.00  0.00     0.074 A  
HETATM   10  C   UNL     1      -6.140  11.300  66.009  1.00  0.00     0.027 A  
HETATM   11  C   UNL     1      -7.591  13.318  66.481  1.00  0.00     1.211 C  
HETATM   12  O   UNL     1      -5.359  11.972  65.108  1.00  0.00     0.813 OA 
HETATM   13  C   UNL     1      -5.787   9.969  66.253  1.00  0.00    -0.061 A  
HETATM   14  C   UNL     1      -8.584  13.929  67.434  1.00  0.00    -0.206 C  
HETATM   15  O   UNL     1      -7.030  13.978  65.611  1.00  0.00     5.680 OA 
HETATM   16  H   UNL     1      -4.598  11.587  64.688  1.00  0.00     0.000 HD 
HETATM   17  C   UNL     1      -8.741  15.276  67.480  1.00  0.00    -0.178 C  
HETATM   18  C   UNL     1      -6.554   9.198  67.116  1.00  0.00    -0.061 A  
HETATM   19  O   UNL     1      -8.044  16.127  66.620  1.00  0.00    -0.237 OA 
HETATM   20  C   UNL     1      -9.907  15.975  68.189  1.00  0.00    -0.222 C  
HETATM   21  C   UNL     1      -7.722   9.732  67.675  1.00  0.00    -0.094 A  
HETATM   22  H   UNL     1      -8.153  17.070  66.652  1.00  0.00     0.000 HD 
HETATM   23  C   UNL     1      -9.610  17.035  69.351  1.00  0.00     0.066 C  
HETATM   24  O   UNL     1     -10.540  16.655  67.088  1.00  0.00    -0.316 OA 
HETATM   25  H   UNL     1      -9.916  17.245  66.682  1.00  0.00     0.000 HD 
HETATM   26  O   UNL     1      -8.543  17.623  69.508  1.00  0.00     0.355 OA 
HETATM   27  C   UNL     1     -10.811  17.396  70.254  1.00  0.00     0.942 C  
HETATM   28  H   UNL     1     -13.058  18.098  68.079  1.00  0.00     0.000 HD 
HETATM   29  C   UNL     1     -11.939  17.237  69.531  1.00  0.00     2.814 C  
HETATM   30  C   UNL     1     -12.283  15.755  69.164  1.00  0.00    -0.072 C  
HETATM   31  O   UNL     1     -12.263  18.209  68.587  1.00  0.00     3.170 OA 
ENDROOT
BRANCH  27  32
HETATM   32  C   UNL     1     -10.925  16.751  71.600  1.00  0.00     1.104 C  
HETATM   33  N   UNL     1      -9.831  16.886  72.425  1.00  0.00     7.608 N  
HETATM   34  H1  UNL     1      -9.908  16.447  73.342  1.00  0.00     0.000 HD 
HETATM   35  H2  UNL     1      -8.993  17.392  72.136  1.00  0.00     0.000 HD 
HETATM   36  O   UNL     1     -11.941  16.203  71.987  1.00  0.00    -0.479 OA 
ENDBRANCH  27  32
BRANCH  30  37
HETATM   37  N   UNL     1     -13.464  15.477  68.323  1.00  0.00     3.825 NA 
HETATM   38  C   UNL     1     -13.645  14.102  67.854  1.00  0.00     6.154 C  
HETATM   39  C   UNL     1     -13.476  16.362  67.147  1.00  0.00     6.948 C  
ENDBRANCH  30  37
TORSDOF 2
ENDMDL
MODEL      106
REMARK 921   NORMALIZED FREE ENERGY PREDICTED BY IDOCK:   35.82 KCAL/MOL
REMARK 922        TOTAL FREE ENERGY PREDICTED BY IDOCK:   40.44 KCAL/MOL
REMARK 923 INTER-LIGAND FREE ENERGY PREDICTED BY IDOCK:   39.25 KCAL/MOL
REMARK 924 INTRA-LIGAND FREE ENERGY PREDICTED BY IDOCK:    1.19 KCAL/MOL
REMARK 927      BINDING AFFINITY PREDICTED BY RF-SCORE:    0.00 PKD
ROOT
HETATM    1  C   UNL     1      -9.490  15.000  69.060  1.00  0.00    -0.210 C  
HETATM    2  C   UNL     1      -8.567  14.244  68.108  1.00  0.00    -0.172 C  
HETATM    3  C   UNL     1      -8.898  12.707  68.153  1.00  0.00    -0.194 C  
HETATM    4  O   UNL     1      -7.190  14.446  68.414  1.00  0.00    -0.099 OA 
HETATM    5  C   UNL     1      -8.136  11.867  67.138  1.00  0.00    -0.172 C  
HETATM    6  H   UNL     1      -6.616  13.975  67.822  1.00  0.00     0.000 HD 
HETATM    7  C   UNL     1      -8.139  10.412  67.360  1.00  0.00    -0.107 A  
HETATM    8  C   UNL     1      -7.332  12.343  66.171  1.00  0.00     1.393 C  
HETATM    9  C   UNL     1      -7.948   9.935  68.658  1.00  0.00    -0.087 A  
HETATM   10  C   UNL     1      -7.630   8.581  68.848  1.00  0.00    -0.096 A  
HETATM   11  C   UNL     1      -8.066  10.880  69.809  1.00  0.00     0.391 C  
HETATM   12  O   UNL     1      -7.254   8.059  70.056  1.00  0.00    -0.059 OA 
HETATM   13  C   UNL     1      -7.637   7.689  67.771  1.00  0.00    -0.117 A  
HETATM   14  C   UNL     1      -8.740  12.207  69.579  1.00  0.00     1.417 C  
HETATM   15  O   UNL     1      -7.639  10.547  70.911  1.00  0.00     0.440 OA 
HETATM   16  H   UNL     1      -7.038   7.142  70.185  1.00  0.00     0.000 HD 
HETATM   17  C   UNL     1      -9.068  12.994  70.634  1.00  0.00     7.344 C  
HETATM   18  C   UNL     1      -7.959   8.144  66.500  1.00  0.00    -0.101 A  
HETATM   19  O   UNL     1      -8.745  12.639  71.945  1.00  0.00    15.281 OA 
HETATM   20  C   UNL     1      -9.484  14.464  70.505  1.00  0.00     2.171 C  
HETATM   21  C   UNL     1      -8.197   9.507  66.288  1.00  0.00    -0.115 A  
HETATM   22  H   UNL     1      -8.974  13.189  72.684  1.00  0.00     0.000 HD 
HETATM   23  C   UNL     1     -10.905  14.941  71.068  1.00  0.00     0.119 C  
HETATM   24  O   UNL     1      -8.442  15.120  71.253  1.00  0.00     1.826 OA 
HETATM   25  H   UNL     1      -8.438  14.789  72.143  1.00  0.00     0.000 HD 
HETATM   26  O   UNL     1     -11.561  14.338  71.913  1.00  0.00     0.137 OA 
HETATM   27  C   UNL     1     -11.398  16.316  70.567  1.00  0.00    -0.318 C  
HETATM   28  H   UNL     1      -8.835  18.158  71.123  1.00  0.00     0.000 HD 
HETATM   29  C   UNL     1     -10.316  17.068  70.276  1.00  0.00     0.664 C  
HETATM   30  C   UNL     1      -9.492  16.583  69.037  1.00  0.00    -0.249 C  
HETATM   31  O   UNL     1      -9.596  17.628  71.328  1.00  0.00     4.996 OA 
ENDROOT
BRANCH  27  32
HETATM   32  C   UNL     1     -12.414  16.366  69.468  1.00  0.00     1.159 C  
HETATM   33  N   UNL     1     -12.541  15.220  68.716  1.00  0.00    -0.308 N  
HETATM   34  H1  UNL     1     -13.233  15.253  67.968  1.00  0.00     0.000 HD 
HETATM   35  H2  UNL     1     -11.977  14.388  68.895  1.00  0.00     0.000 HD 
HETATM   36  O   UNL     1     -13.143  17.323  69.284  1.00  0.00     4.905 OA 
ENDBRANCH  27  32
BRANCH  30  37
HETATM   37  N   UNL     1      -8.255  17.300  68.669  1.00  0.00    -0.266 NA 
HETATM   38  C   UNL     1      -7.067  17.052  69.490  1.00  0.00     0.009 C  
HETATM   39  C   UNL     1      -8.492  18.752  68.641  1.00  0.00    -0.329 C  
ENDBRANCH  30  37
TORSDOF 2
ENDMDL
MODEL      107
REMARK 921   NORMALIZED FREE ENERGY PREDICTED BY IDOCK:   40.43 KCAL/MOL
REMARK 922        TOTAL FREE ENERGY PREDICTED BY IDOCK:   45.59 KCAL/MOL
REMARK 923 INTER-LIGAND FREE ENERGY PREDICTED BY IDOCK:   45.39 KCAL/MOL
REMARK 924 INTRA-LIGAND FREE ENERGY PREDICTED BY IDOCK:    0.20 KCAL/MOL
REMARK 927      BINDING AFFINITY PREDICTED BY RF-SCORE:    0.00 PKD
ROOT
HETATM    1  C   UNL     1      -9.862  14.434  69.541  1.00  0.00     0.246 C  
HETATM    2  C   UNL     1      -9.306  13.068  69.146  1.00  0.00     0.656 C  
HETATM    3  C   UNL     1      -9.009  12.219  70.436  1.00  0.00     5.646 C  
HETATM    4  O   UNL     1      -8.123  13.171  68.359  1.00  0.00    -0.145 OA 
HETATM    5  C   UNL     1      -8.585  10.783  70.164  1.00  0.00     1.122 C  
HETATM    6  H   UNL     1      -7.777  12.321  68.113  1.00  0.00     0.000 HD 
HETATM    7  C   UNL     1      -7.967  10.060  71.288  1.00  0.00     1.610 A  
HETATM    8  C   UNL     1      -8.566  10.186  68.959  1.00  0.00    -0.156 C  
HETATM    9  C   UNL     1      -7.027  10.727  72.074  1.00  0.00     4.121 A  
HETATM   10  C   UNL     1      -6.202   9.981  72.932  1.00  0.00     1.253 A  
HETATM   11  C   UNL     1      -6.905  12.212  71.968  1.00  0.00     6.439 C  
HETATM   12  O   UNL     1      -5.139  10.517  73.607  1.00  0.00    -0.334 OA 
HETATM   13  C   UNL     1      -6.407   8.608  73.103  1.00  0.00    -0.072 A  
HETATM   14  C   UNL     1      -8.026  12.976  71.313  1.00  0.00     8.978 C  
HETATM   15  O   UNL     1      -5.918  12.773  72.435  1.00  0.00     0.585 OA 
HETATM   16  H   UNL     1      -4.581  10.013  74.188  1.00  0.00     0.000 HD 
HETATM   17  C   UNL     1      -8.064  14.330  71.395  1.00  0.00     4.927 C  
HETATM   18  C   UNL     1      -7.433   7.973  72.417  1.00  0.00    -0.132 A  
HETATM   19  O   UNL     1      -7.053  15.057  72.027  1.00  0.00     1.590 OA 
HETATM   20  C   UNL     1      -8.979  15.211  70.537  1.00  0.00     1.339 C  
HETATM   21  C   UNL     1      -8.207   8.692  71.498  1.00  0.00    -0.209 A  
HETATM   22  H   UNL     1      -7.079  16.004  72.085  1.00  0.00     0.000 HD 
HETATM   23  C   UNL     1     -10.022  16.199  71.243  1.00  0.00     2.533 C  
HETATM   24  O   UNL     1      -8.014  15.995  69.808  1.00  0.00    -0.013 OA 
HETATM   25  H   UNL     1      -7.469  16.473  70.421  1.00  0.00     0.000 HD 
HETATM   26  O   UNL     1      -9.935  16.598  72.401  1.00  0.00     5.559 OA 
HETATM   27  C   UNL     1     -11.143  16.752  70.335  1.00  0.00     0.151 C  
HETATM   28  H   UNL     1      -9.464  17.835  67.830  1.00  0.00     0.000 HD 
HETATM   29  C   UNL     1     -10.676  16.790  69.070  1.00  0.00    -0.331 C  
HETATM   30  C   UNL     1     -10.433  15.389  68.416  1.00  0.00    -0.239 C  
HETATM   31  O   UNL     1      -9.792  17.807  68.721  1.00  0.00    -0.332 OA 
ENDROOT
BRANCH  27  32
HETATM   32  C   UNL     1     -12.503  16.128  70.402  1.00  0.00     0.299 C  
HETATM   33  N   UNL     1     -12.714  15.258  71.448  1.00  0.00    -0.357 N  
HETATM   34  H1  UNL     1     -13.640  14.833  71.493  1.00  0.00     0.000 HD 
HETATM   35  H2  UNL     1     -11.989  15.051  72.135  1.00  0.00     0.000 HD 
HETATM   36  O   UNL     1     -13.400  16.415  69.631  1.00  0.00     1.487 OA 
ENDBRANCH  27  32
BRANCH  30  37
HETATM   37  N   UNL     1      -9.865  15.319  67.055  1.00  0.00    -0.227 NA 
HETATM   38  C   UNL     1      -9.885  16.545  66.255  1.00  0.00    -0.316 C  
HETATM   39  C   UNL     1     -10.526  14.259  66.277  1.00  0.00    -0.291 C  
ENDBRANCH  30  37
TORSDOF 2
ENDMDL
MODEL      108
REMARK 921   NORMALIZED FREE ENERGY PREDICTED BY IDOCK:   42.17 KCAL/MOL
REMARK 922        TOTAL FREE ENERGY PREDICTED BY IDOCK:   47.54 KCAL/MOL
REMARK 923 INTER-LIGAND FREE ENERGY PREDICTED BY IDOCK:   45.11 KCAL/MOL
REMARK 924 INTRA-LIGAND FREE ENERGY PREDICTED BY IDOCK:    2.42 KCAL/MOL
REMARK 927      BINDING AFFINITY PREDICTED BY RF-SCORE:    0.00 PKD
ROOT
HETATM    1  C   UNL     1     -10.496   7.740  67.595  1.00  0.00    -0.308 C  
HETATM    2  C   UNL     1     -10.172   9.231  67.526  1.00  0.00    -0.242 C  
HETATM    3  C   UNL     1      -9.714   9.610  66.070  1.00  0.00    -0.331 C  
HETATM    4  O   UNL     1      -9.163   9.611  68.458  1.00  0.00    -0.136 OA 
HETATM    5  C   UNL     1      -9.501  11.100  65.843  1.00  0.00    -0.241 C  
HETATM    6  H   UNL     1      -8.962  10.538  68.414  1.00  0.00     0.000 HD 
HETATM    7  C   UNL     1      -8.752  11.475  64.633  1.00  0.00     0.487 A  
HETATM    8  C   UNL     1      -9.783  12.076  66.723  1.00  0.00    -0.218 C  
HETATM    9  C   UNL     1      -7.611  10.743  64.300  1.00  0.00     0.324 A  
HETATM   10  C   UNL     1      -6.713  11.268  63.356  1.00  0.00     1.280 A  
HETATM   11  C   UNL     1      -7.361   9.433  64.972  1.00  0.00    -0.105 C  
HETATM   12  O   UNL     1      -5.489  10.716  63.095  1.00  0.00    -0.153 OA 
HETATM   13  C   UNL     1      -7.021  12.438  62.654  1.00  0.00     4.564 A  
HETATM   14  C   UNL     1      -8.505   8.771  65.695  1.00  0.00    -0.174 C  
HETATM   15  O   UNL     1      -6.249   8.918  64.899  1.00  0.00    -0.064 OA 
HETATM   16  H   UNL     1      -4.882  11.071  62.455  1.00  0.00     0.000 HD 
HETATM   17  C   UNL     1      -8.386   7.488  66.122  1.00  0.00    -0.138 C  
HETATM   18  C   UNL     1      -8.222  13.092  62.893  1.00  0.00     8.046 A  
HETATM   19  O   UNL     1      -7.201   6.767  65.965  1.00  0.00    -0.064 OA 
HETATM   20  C   UNL     1      -9.358   6.824  67.105  1.00  0.00    -0.136 C  
HETATM   21  C   UNL     1      -9.084  12.621  63.892  1.00  0.00     1.616 A  
HETATM   22  H   UNL     1      -7.118   5.869  66.263  1.00  0.00     0.000 HD 
HETATM   23  C   UNL     1     -10.134   5.490  66.677  1.00  0.00    -0.209 C  
HETATM   24  O   UNL     1      -8.481   6.520  68.207  1.00  0.00    -0.116 OA 
HETATM   25  H   UNL     1      -7.780   5.955  67.905  1.00  0.00     0.000 HD 
HETATM   26  O   UNL     1      -9.779   4.732  65.779  1.00  0.00    -0.167 OA 
HETATM   27  C   UNL     1     -11.349   5.112  67.551  1.00  0.00     1.901 C  
HETATM   28  H   UNL     1     -10.096   5.275  70.496  1.00  0.00     0.000 HD 
HETATM   29  C   UNL     1     -11.141   5.599  68.792  1.00  0.00     0.132 C  
HETATM   30  C   UNL     1     -11.177   7.160  68.901  1.00  0.00     0.110 C  
HETATM   31  O   UNL     1     -10.244   4.932  69.623  1.00  0.00    -0.243 OA 
ENDROOT
BRANCH  27  32
HETATM   32  C   UNL     1     -12.726   5.434  67.058  1.00  0.00    10.461 C  
HETATM   33  N   UNL     1     -13.493   6.219  67.890  1.00  0.00    13.099 N  
HETATM   34  H1  UNL     1     -14.430   6.438  67.554  1.00  0.00     0.000 HD 
HETATM   35  H2  UNL     1     -13.146   6.558  68.787  1.00  0.00     0.000 HD 
HETATM   36  O   UNL     1     -13.131   5.096  65.961  1.00  0.00     6.828 OA 
ENDBRANCH  27  32
BRANCH  30  37
HETATM   37  N   UNL     1     -10.899   7.797  70.203  1.00  0.00    -0.245 NA 
HETATM   38  C   UNL     1      -9.506   8.138  70.500  1.00  0.00    -0.163 C  
HETATM   39  C   UNL     1     -11.406   6.961  71.302  1.00  0.00    -0.279 C  
ENDBRANCH  30  37
TORSDOF 2
ENDMDL
MODEL      109
REMARK 921   NORMALIZED FREE ENERGY PREDICTED BY IDOCK:   42.74 KCAL/MOL
REMARK 922        TOTAL FREE ENERGY PREDICTED BY IDOCK:   48.17 KCAL/MOL
REMARK 923 INTER-LIGAND FREE ENERGY PREDICTED BY IDOCK:   47.41 KCAL/MOL
REMARK 924 INTRA-LIGAND FREE ENERGY PREDICTED BY IDOCK:    0.76 KCAL/MOL
REMARK 927      BINDING AFFINITY PREDICTED BY RF-SCORE:    0.00 PKD
ROOT
HETATM    1  C   UNL     1     -11.195  12.712  66.353  1.00  0.00    -0.350 C  
HETATM    2  C   UNL     1     -12.324  12.711  67.381  1.00  0.00     0.414 C  
HETATM    3  C   UNL     1     -12.028  13.778  68.498  1.00  0.00    -0.402 C  
HETATM    4  O   UNL     1     -12.512  11.432  67.979  1.00  0.00    -0.159 OA 
HETATM    5  C   UNL     1     -13.156  13.969  69.503  1.00  0.00     1.091 C  
HETATM    6  H   UNL     1     -13.214  11.432  68.619  1.00  0.00     0.000 HD 
HETATM    7  C   UNL     1     -12.810  14.678  70.746  1.00  0.00    -0.418 A  
HETATM    8  C   UNL     1     -14.374  13.404  69.432  1.00  0.00     8.923 C  
HETATM    9  C   UNL     1     -11.610  14.360  71.383  1.00  0.00     0.004 A  
HETATM   10  C   UNL     1     -11.410  14.777  72.710  1.00  0.00     0.486 A  
HETATM   11  C   UNL     1     -10.579  13.568  70.650  1.00  0.00     2.568 C  
HETATM   12  O   UNL     1     -10.352  14.368  73.475  1.00  0.00     3.135 OA 
HETATM   13  C   UNL     1     -12.336  15.614  73.341  1.00  0.00    -0.633 A  
HETATM   14  C   UNL     1     -10.695  13.457  69.152  1.00  0.00    -0.097 C  
HETATM   15  O   UNL     1      -9.655  13.053  71.273  1.00  0.00     8.869 OA 
HETATM   16  H   UNL     1     -10.217  14.650  74.373  1.00  0.00     0.000 HD 
HETATM   17  C   UNL     1      -9.669  12.943  68.428  1.00  0.00    -0.186 C  
HETATM   18  C   UNL     1     -13.466  16.037  72.654  1.00  0.00    -0.414 A  
HETATM   19  O   UNL     1      -8.512  12.453  69.036  1.00  0.00    -0.337 OA 
HETATM   20  C   UNL     1      -9.790  12.521  66.959  1.00  0.00    -0.217 C  
HETATM   21  C   UNL     1     -13.713  15.560  71.361  1.00  0.00    -0.532 A  
HETATM   22  H   UNL     1      -7.794  12.093  68.529  1.00  0.00     0.000 HD 
HETATM   23  C   UNL     1      -8.835  13.185  65.859  1.00  0.00     0.666 C  
HETATM   24  O   UNL     1      -9.494  11.114  67.043  1.00  0.00    -0.174 OA 
HETATM   25  H   UNL     1      -8.629  10.996  67.417  1.00  0.00     0.000 HD 
HETATM   26  O   UNL     1      -7.769  13.743  66.103  1.00  0.00     1.490 OA 
HETATM   27  C   UNL     1      -9.271  12.996  64.389  1.00  0.00     1.410 C  
HETATM   28  H   UNL     1      -9.770   9.832  64.272  1.00  0.00     0.000 HD 
HETATM   29  C   UNL     1      -9.973  11.847  64.305  1.00  0.00    -0.246 C  
HETATM   30  C   UNL     1     -11.364  11.872  65.022  1.00  0.00    -0.273 C  
HETATM   31  O   UNL     1      -9.276  10.642  64.331  1.00  0.00    -0.205 OA 
ENDROOT
BRANCH  27  32
HETATM   32  C   UNL     1      -9.970  14.120  63.689  1.00  0.00     3.825 C  
HETATM   33  N   UNL     1     -10.995  13.757  62.845  1.00  0.00     2.110 N  
HETATM   34  H1  UNL     1     -11.471  14.522  62.369  1.00  0.00     0.000 HD 
HETATM   35  H2  UNL     1     -11.262  12.782  62.705  1.00  0.00     0.000 HD 
HETATM   36  O   UNL     1      -9.711  15.291  63.897  1.00  0.00     2.549 OA 
ENDBRANCH  27  32
BRANCH  30  37
HETATM   37  N   UNL     1     -12.185  10.646  65.043  1.00  0.00     2.669 NA 
HETATM   38  C   UNL     1     -11.478   9.363  65.022  1.00  0.00     6.621 C  
HETATM   39  C   UNL     1     -13.146  10.653  63.929  1.00  0.00     5.220 C  
ENDBRANCH  30  37
TORSDOF 2
ENDMDL
MODEL      110
REMARK 921   NORMALIZED FREE ENERGY PREDICTED BY IDOCK:   47.01 KCAL/MOL
REMARK 922        TOTAL FREE ENERGY PREDICTED BY IDOCK:   52.94 KCAL/MOL
REMARK 923 INTER-LIGAND FREE ENERGY PREDICTED BY IDOCK:   49.88 KCAL/MOL
REMARK 924 INTRA-LIGAND FREE ENERGY PREDICTED BY IDOCK:    3.05 KCAL/MOL
REMARK 927      BINDING AFFINITY PREDICTED BY RF-SCORE:    0.00 PKD
ROOT
HETATM    1  C   UNL     1     -11.404  14.775  70.897  1.00  0.00    -0.206 C  
HETATM    2  C   UNL     1     -10.611  14.392  69.649  1.00  0.00     0.005 C  
HETATM    3  C   UNL     1     -11.422  13.343  68.804  1.00  0.00    -0.344 C  
HETATM    4  O   UNL     1      -9.326  13.863  69.965  1.00  0.00     0.848 OA 
HETATM    5  C   UNL     1     -10.794  12.993  67.462  1.00  0.00    -0.264 C  
HETATM    6  H   UNL     1      -8.833  13.624  69.188  1.00  0.00     0.000 HD 
HETATM    7  C   UNL     1     -11.307  11.784  66.796  1.00  0.00    -0.385 A  
HETATM    8  C   UNL     1      -9.712  13.582  66.924  1.00  0.00    -0.261 C  
HETATM    9  C   UNL     1     -11.529  10.642  67.566  1.00  0.00    -0.097 A  
HETATM   10  C   UNL     1     -11.706   9.407  66.921  1.00  0.00     3.183 A  
HETATM   11  C   UNL     1     -11.551  10.756  69.055  1.00  0.00    -0.299 C  
HETATM   12  O   UNL     1     -11.753   8.211  67.585  1.00  0.00     0.931 OA 
HETATM   13  C   UNL     1     -11.797   9.338  65.527  1.00  0.00     7.812 A  
HETATM   14  C   UNL     1     -11.706  12.124  69.665  1.00  0.00    -0.396 C  
HETATM   15  O   UNL     1     -11.470   9.741  69.741  1.00  0.00    -0.201 OA 
HETATM   16  H   UNL     1     -11.873   7.376  67.148  1.00  0.00     0.000 HD 
HETATM   17  C   UNL     1     -11.955  12.252  70.993  1.00  0.00     0.298 C  
HETATM   18  C   UNL     1     -11.709  10.498  64.771  1.00  0.00     2.488 A  
HETATM   19  O   UNL     1     -12.018  11.143  71.839  1.00  0.00     0.444 OA 
HETATM   20  C   UNL     1     -11.843  13.575  71.758  1.00  0.00     1.138 C  
HETATM   21  C   UNL     1     -11.450  11.722  65.400  1.00  0.00    -0.239 A  
HETATM   22  H   UNL     1     -12.193  11.232  72.769  1.00  0.00     0.000 HD 
HETATM   23  C   UNL     1     -13.114  14.149  72.546  1.00  0.00    -0.463 C  
HETATM   24  O   UNL     1     -10.807  13.265  72.709  1.00  0.00     6.115 OA 
HETATM   25  H   UNL     1     -11.077  12.526  73.240  1.00  0.00     0.000 HD 
HETATM   26  O   UNL     1     -14.077  13.477  72.905  1.00  0.00    -0.585 OA 
HETATM   27  C   UNL     1     -13.034  15.636  72.957  1.00  0.00    -0.617 C  
HETATM   28  H   UNL     1     -10.168  15.752  74.386  1.00  0.00     0.000 HD 
HETATM   29  C   UNL     1     -11.733  15.956  73.118  1.00  0.00    -0.270 C  
HETATM   30  C   UNL     1     -10.891  15.971  71.799  1.00  0.00     0.748 C  
HETATM   31  O   UNL     1     -11.083  15.526  74.272  1.00  0.00     1.583 OA 
ENDROOT
BRANCH  27  32
HETATM   32  C   UNL     1     -13.753  16.656  72.130  1.00  0.00     2.773 C  
HETATM   33  N   UNL     1     -14.361  16.184  70.989  1.00  0.00     0.613 N  
HETATM   34  H1  UNL     1     -14.851  16.879  70.426  1.00  0.00     0.000 HD 
HETATM   35  H2  UNL     1     -14.324  15.200  70.722  1.00  0.00     0.000 HD 
HETATM   36  O   UNL     1     -13.867  17.820  72.468  1.00  0.00     7.588 OA 
ENDBRANCH  27  32
BRANCH  30  37
HETATM   37  N   UNL     1      -9.443  16.249  71.872  1.00  0.00     6.055 NA 
HETATM   38  C   UNL     1      -8.963  17.482  71.244  1.00  0.00     8.332 C  
HETATM   39  C   UNL     1      -8.676  15.126  71.309  1.00  0.00     3.557 C  
ENDBRANCH  30  37
TORSDOF 2
ENDMDL
MODEL      111
REMARK 921   NORMALIZED FREE ENERGY PREDICTED BY IDOCK:   68.81 KCAL/MOL
REMARK 922        TOTAL FREE ENERGY PREDICTED BY IDOCK:   77.28 KCAL/MOL
REMARK 923 INTER-LIGAND FREE ENERGY PREDICTED BY IDOCK:   73.99 KCAL/MOL
REMARK 924 INTRA-LIGAND FREE ENERGY PREDICTED BY IDOCK:    3.29 KCAL/MOL
REMARK 927      BINDING AFFINITY PREDICTED BY RF-SCORE:    0.00 PKD
ROOT
HETATM    1  C   UNL     1     -10.097  14.561  70.070  1.00  0.00     0.457 C  
HETATM    2  C   UNL     1     -10.158  14.806  68.564  1.00  0.00    -0.230 C  
HETATM    3  C   UNL     1      -9.870  16.321  68.259  1.00  0.00    -0.227 C  
HETATM    4  O   UNL     1     -11.415  14.436  68.005  1.00  0.00    -0.279 OA 
HETATM    5  C   UNL     1      -9.763  16.657  66.778  1.00  0.00    -0.271 C  
HETATM    6  H   UNL     1     -11.453  14.588  67.068  1.00  0.00     0.000 HD 
HETATM    7  C   UNL     1      -9.843  18.084  66.425  1.00  0.00    -0.340 A  
HETATM    8  C   UNL     1      -9.775  15.769  65.769  1.00  0.00    -0.372 C  
HETATM    9  C   UNL     1     -10.804  18.874  67.056  1.00  0.00    -0.392 A  
HETATM   10  C   UNL     1     -11.114  20.135  66.518  1.00  0.00     0.464 A  
HETATM   11  C   UNL     1     -11.495  18.354  68.273  1.00  0.00     1.424 C  
HETATM   12  O   UNL     1     -12.157  20.904  66.956  1.00  0.00     4.151 OA 
HETATM   13  C   UNL     1     -10.377  20.653  65.448  1.00  0.00     0.624 A  
HETATM   14  C   UNL     1     -10.887  17.178  68.992  1.00  0.00    -0.129 C  
HETATM   15  O   UNL     1     -12.517  18.905  68.672  1.00  0.00     4.957 OA 
HETATM   16  H   UNL     1     -12.366  21.757  66.592  1.00  0.00     0.000 HD 
HETATM   17  C   UNL     1     -11.350  16.817  70.216  1.00  0.00     0.307 C  
HETATM   18  C   UNL     1      -9.332  19.916  64.908  1.00  0.00     2.211 A  
HETATM   19  O   UNL     1     -12.426  17.472  70.818  1.00  0.00     4.455 OA 
HETATM   20  C   UNL     1     -11.010  15.487  70.897  1.00  0.00    -0.292 C  
HETATM   21  C   UNL     1      -9.070  18.626  65.385  1.00  0.00     1.442 A  
HETATM   22  H   UNL     1     -12.750  17.220  71.675  1.00  0.00     0.000 HD 
HETATM   23  C   UNL     1     -10.308  15.486  72.337  1.00  0.00     2.639 C  
HETATM   24  O   UNL     1     -12.315  14.888  71.016  1.00  0.00    -0.281 OA 
HETATM   25  H   UNL     1     -12.878  15.459  71.526  1.00  0.00     0.000 HD 
HETATM   26  O   UNL     1     -10.325  16.428  73.124  1.00  0.00     4.600 OA 
HETATM   27  C   UNL     1      -9.666  14.150  72.770  1.00  0.00     8.702 C  
HETATM   28  H   UNL     1     -12.059  12.087  72.235  1.00  0.00     0.000 HD 
HETATM   29  C   UNL     1     -10.336  13.148  72.164  1.00  0.00    11.091 C  
HETATM   30  C   UNL     1     -10.147  13.074  70.612  1.00  0.00     5.005 C  
HETATM   31  O   UNL     1     -11.587  12.792  72.661  1.00  0.00     3.788 OA 
ENDROOT
BRANCH  27  32
HETATM   32  C   UNL     1      -8.184  13.981  72.636  1.00  0.00     9.518 C  
HETATM   33  N   UNL     1      -7.532  14.950  71.907  1.00  0.00     2.400 N  
HETATM   34  H1  UNL     1      -6.523  14.835  71.816  1.00  0.00     0.000 HD 
HETATM   35  H2  UNL     1      -8.028  15.736  71.484  1.00  0.00     0.000 HD 
HETATM   36  O   UNL     1      -7.567  13.090  73.191  1.00  0.00     8.502 OA 
ENDBRANCH  27  32
BRANCH  30  37
HETATM   37  N   UNL     1     -10.886  12.052  69.844  1.00  0.00     0.329 NA 
HETATM   38  C   UNL     1     -11.843  12.526  68.843  1.00  0.00    -0.301 C  
HETATM   39  C   UNL     1     -11.596  11.140  70.756  1.00  0.00     0.038 C  
ENDBRANCH  30  37
TORSDOF 2
ENDMDL
MODEL      112
REMARK 921   NORMALIZED FREE ENERGY PREDICTED BY IDOCK:   75.72 KCAL/MOL
REMARK 922        TOTAL FREE ENERGY PREDICTED BY IDOCK:   85.00 KCAL/MOL
REMARK 923 INTER-LIGAND FREE ENERGY PREDICTED BY IDOCK:   83.96 KCAL/MOL
REMARK 924 INTRA-LIGAND FREE ENERGY PREDICTED BY IDOCK:    1.04 KCAL/MOL
REMARK 927      BINDING AFFINITY PREDICTED BY RF-SCORE:    0.00 PKD
ROOT
HETATM    1  C   UNL     1     -10.075  16.494  67.166  1.00  0.00    -0.274 C  
HETATM    2  C   UNL     1      -9.054  16.105  68.232  1.00  0.00    -0.190 C  
HETATM    3  C   UNL     1      -9.220  17.030  69.493  1.00  0.00     0.376 C  
HETATM    4  O   UNL     1      -7.714  16.183  67.754  1.00  0.00    -0.133 OA 
HETATM    5  C   UNL     1      -8.349  16.642  70.680  1.00  0.00     3.900 C  
HETATM    6  H   UNL     1      -7.079  15.940  68.418  1.00  0.00     0.000 HD 
HETATM    7  C   UNL     1      -8.201  17.654  71.739  1.00  0.00    12.080 A  
HETATM    8  C   UNL     1      -7.578  15.544  70.762  1.00  0.00     1.765 C  
HETATM    9  C   UNL     1      -7.991  18.983  71.368  1.00  0.00     5.153 A  
HETATM   10  C   UNL     1      -7.534  19.897  72.332  1.00  0.00     2.344 A  
HETATM   11  C   UNL     1      -8.235  19.395  69.954  1.00  0.00     0.781 C  
HETATM   12  O   UNL     1      -7.132  21.169  72.030  1.00  0.00     0.967 OA 
HETATM   13  C   UNL     1      -7.421  19.520  73.674  1.00  0.00     6.634 A  
HETATM   14  C   UNL     1      -9.043  18.479  69.072  1.00  0.00    -0.099 C  
HETATM   15  O   UNL     1      -7.801  20.471  69.554  1.00  0.00     0.625 OA 
HETATM   16  H   UNL     1      -6.823  21.788  72.682  1.00  0.00     0.000 HD 
HETATM   17  C   UNL     1      -9.476  18.911  67.861  1.00  0.00    -0.305 C  
HETATM   18  C   UNL     1      -7.760  18.231  74.061  1.00  0.00    10.055 A  
HETATM   19  O   UNL     1      -9.148  20.176  67.370  1.00  0.00    -0.337 OA 
HETATM   20  C   UNL     1     -10.044  17.986  66.778  1.00  0.00    -0.356 C  
HETATM   21  C   UNL     1      -8.138  17.291  73.094  1.00  0.00    17.199 A  
HETATM   22  H   UNL     1      -9.451  20.479  66.523  1.00  0.00     0.000 HD 
HETATM   23  C   UNL     1     -11.521  18.237  66.211  1.00  0.00     1.603 C  
HETATM   24  O   UNL     1      -9.096  18.183  65.712  1.00  0.00    -0.466 OA 
HETATM   25  H   UNL     1      -9.077  19.102  65.473  1.00  0.00     0.000 HD 
HETATM   26  O   UNL     1     -12.128  19.301  66.288  1.00  0.00     2.287 OA 
HETATM   27  C   UNL     1     -12.147  17.063  65.426  1.00  0.00     3.167 C  
HETATM   28  H   UNL     1      -9.809  16.363  63.349  1.00  0.00     0.000 HD 
HETATM   29  C   UNL     1     -11.145  16.350  64.870  1.00  0.00    -0.239 C  
HETATM   30  C   UNL     1     -10.246  15.574  65.889  1.00  0.00    -0.345 C  
HETATM   31  O   UNL     1     -10.514  16.865  63.741  1.00  0.00     2.229 OA 
ENDROOT
BRANCH  27  32
HETATM   32  C   UNL     1     -13.137  16.176  66.115  1.00  0.00     4.704 C  
HETATM   33  N   UNL     1     -13.739  15.223  65.326  1.00  0.00     1.134 N  
HETATM   34  H1  UNL     1     -14.414  14.618  65.795  1.00  0.00     0.000 HD 
HETATM   35  H2  UNL     1     -13.525  15.126  64.333  1.00  0.00     0.000 HD 
HETATM   36  O   UNL     1     -13.354  16.231  67.312  1.00  0.00     4.421 OA 
ENDBRANCH  27  32
BRANCH  30  37
HETATM   37  N   UNL     1      -9.084  14.813  65.390  1.00  0.00     0.604 NA 
HETATM   38  C   UNL     1      -9.258  14.064  64.143  1.00  0.00     4.307 C  
HETATM   39  C   UNL     1      -8.604  13.876  66.418  1.00  0.00     0.367 C  
ENDBRANCH  30  37
TORSDOF 2
ENDMDL
