MODEL        1
REMARK 921   NORMALIZED FREE ENERGY PREDICTED BY IDOCK:   -6.45 KCAL/MOL
REMARK 922        TOTAL FREE ENERGY PREDICTED BY IDOCK:   -7.81 KCAL/MOL
REMARK 923 INTER-LIGAND FREE ENERGY PREDICTED BY IDOCK:   -7.58 KCAL/MOL
REMARK 924 INTRA-LIGAND FREE ENERGY PREDICTED BY IDOCK:   -0.23 KCAL/MOL
REMARK 927      BINDING AFFINITY PREDICTED BY RF-SCORE:    0.00 PKD
ROOT
HETATM    1  C   UNL     1     -13.679  14.717  72.407  1.00  0.00    -0.576 C  
HETATM    2  C   UNL     1     -13.103  13.584  71.612  1.00  0.00    -0.459 A  
HETATM    3  C   UNL     1     -12.387  13.812  70.426  1.00  0.00    -0.423 A  
HETATM    4  C   UNL     1     -11.826  12.748  69.713  1.00  0.00    -0.310 A  
HETATM    5  C   UNL     1     -13.270  12.270  72.065  1.00  0.00    -0.508 A  
HETATM    6  C   UNL     1     -12.021  11.442  70.169  1.00  0.00    -0.460 A  
HETATM    7  C   UNL     1     -12.942   9.791  71.844  1.00  0.00    -0.535 C  
HETATM    8  C   UNL     1     -12.741  11.193  71.346  1.00  0.00    -0.524 A  
ENDROOT
BRANCH   4   9
HETATM    9  O   UNL     1     -11.139  13.091  68.574  1.00  0.00    -0.240 OA 
BRANCH   9  10
HETATM   10  C   UNL     1     -11.536  14.323  67.964  1.00  0.00    -0.332 C  
BRANCH  10  11
HETATM   11  C   UNL     1     -11.379  14.240  66.452  1.00  0.00    -0.343 C  
HETATM   12  C   UNL     1     -12.603  13.763  65.700  1.00  0.00    -0.509 C  
HETATM   13  N   UNL     1     -12.447  14.453  64.461  1.00  0.00    -0.660 NA 
HETATM   14  C   UNL     1     -11.697  15.582  64.655  1.00  0.00    -0.226 C  
HETATM   15  O   UNL     1     -11.579  16.493  63.858  1.00  0.00    -1.175 OA 
HETATM   16  O   UNL     1     -11.129  15.547  65.896  1.00  0.00    -0.301 OA 
ENDBRANCH  10  11
ENDBRANCH   9  10
ENDBRANCH   4   9
TORSDOF 3
ENDMDL
MODEL        2
REMARK 921   NORMALIZED FREE ENERGY PREDICTED BY IDOCK:   -6.36 KCAL/MOL
REMARK 922        TOTAL FREE ENERGY PREDICTED BY IDOCK:   -7.71 KCAL/MOL
REMARK 923 INTER-LIGAND FREE ENERGY PREDICTED BY IDOCK:   -7.45 KCAL/MOL
REMARK 924 INTRA-LIGAND FREE ENERGY PREDICTED BY IDOCK:   -0.26 KCAL/MOL
REMARK 927      BINDING AFFINITY PREDICTED BY RF-SCORE:    0.00 PKD
ROOT
HETATM    1  C   UNL     1     -13.753  15.699  72.732  1.00  0.00    -0.662 C  
HETATM    2  C   UNL     1     -13.188  14.633  71.840  1.00  0.00    -0.436 A  
HETATM    3  C   UNL     1     -12.476  14.956  70.675  1.00  0.00    -0.411 A  
HETATM    4  C   UNL     1     -11.926  13.951  69.871  1.00  0.00    -0.341 A  
HETATM    5  C   UNL     1     -13.364  13.286  72.180  1.00  0.00    -0.618 A  
HETATM    6  C   UNL     1     -12.131  12.613  70.215  1.00  0.00    -0.372 A  
HETATM    7  C   UNL     1     -13.057  10.833  71.748  1.00  0.00    -0.573 C  
HETATM    8  C   UNL     1     -12.847  12.271  71.370  1.00  0.00    -0.373 A  
ENDROOT
BRANCH   4   9
HETATM    9  O   UNL     1     -11.241  14.385  68.761  1.00  0.00    -0.236 OA 
BRANCH   9  10
HETATM   10  C   UNL     1     -11.098  13.424  67.712  1.00  0.00    -0.268 C  
BRANCH  10  11
HETATM   11  C   UNL     1     -12.106  13.695  66.604  1.00  0.00    -0.411 C  
HETATM   12  C   UNL     1     -11.637  14.642  65.521  1.00  0.00    -0.335 C  
HETATM   13  N   UNL     1     -12.358  14.145  64.395  1.00  0.00    -0.636 NA 
HETATM   14  C   UNL     1     -12.659  12.824  64.588  1.00  0.00    -0.419 C  
HETATM   15  O   UNL     1     -13.059  12.060  63.729  1.00  0.00    -0.730 OA 
HETATM   16  O   UNL     1     -12.407  12.481  65.885  1.00  0.00    -0.626 OA 
ENDBRANCH  10  11
ENDBRANCH   9  10
ENDBRANCH   4   9
TORSDOF 3
ENDMDL
MODEL        3
REMARK 921   NORMALIZED FREE ENERGY PREDICTED BY IDOCK:   -6.35 KCAL/MOL
REMARK 922        TOTAL FREE ENERGY PREDICTED BY IDOCK:   -7.70 KCAL/MOL
REMARK 923 INTER-LIGAND FREE ENERGY PREDICTED BY IDOCK:   -7.42 KCAL/MOL
REMARK 924 INTRA-LIGAND FREE ENERGY PREDICTED BY IDOCK:   -0.28 KCAL/MOL
REMARK 927      BINDING AFFINITY PREDICTED BY RF-SCORE:    0.00 PKD
ROOT
HETATM    1  C   UNL     1     -12.966  10.620  71.793  1.00  0.00    -0.577 C  
HETATM    2  C   UNL     1     -12.807  12.053  71.378  1.00  0.00    -0.391 A  
HETATM    3  C   UNL     1     -12.054  12.407  70.248  1.00  0.00    -0.377 A  
HETATM    4  C   UNL     1     -11.943  13.745  69.853  1.00  0.00    -0.347 A  
HETATM    5  C   UNL     1     -13.431  13.059  72.125  1.00  0.00    -0.638 A  
HETATM    6  C   UNL     1     -12.555  14.737  70.623  1.00  0.00    -0.414 A  
HETATM    7  C   UNL     1     -13.971  15.467  72.583  1.00  0.00    -0.617 C  
HETATM    8  C   UNL     1     -13.303  14.403  71.761  1.00  0.00    -0.446 A  
ENDROOT
BRANCH   4   9
HETATM    9  O   UNL     1     -11.191  13.972  68.726  1.00  0.00    -0.244 OA 
BRANCH   9  10
HETATM   10  C   UNL     1     -11.258  12.953  67.726  1.00  0.00    -0.280 C  
BRANCH  10  11
HETATM   11  C   UNL     1     -12.251  13.343  66.638  1.00  0.00    -0.334 C  
HETATM   12  C   UNL     1     -11.834  14.511  65.771  1.00  0.00    -0.327 C  
HETATM   13  N   UNL     1     -12.472  14.176  64.540  1.00  0.00    -0.655 NA 
HETATM   14  C   UNL     1     -12.660  12.821  64.473  1.00  0.00    -0.389 C  
HETATM   15  O   UNL     1     -12.962  12.202  63.471  1.00  0.00    -0.794 OA 
HETATM   16  O   UNL     1     -12.419  12.264  65.696  1.00  0.00    -0.591 OA 
ENDBRANCH  10  11
ENDBRANCH   9  10
ENDBRANCH   4   9
TORSDOF 3
ENDMDL
MODEL        4
REMARK 921   NORMALIZED FREE ENERGY PREDICTED BY IDOCK:   -6.31 KCAL/MOL
REMARK 922        TOTAL FREE ENERGY PREDICTED BY IDOCK:   -7.65 KCAL/MOL
REMARK 923 INTER-LIGAND FREE ENERGY PREDICTED BY IDOCK:   -7.41 KCAL/MOL
REMARK 924 INTRA-LIGAND FREE ENERGY PREDICTED BY IDOCK:   -0.24 KCAL/MOL
REMARK 927      BINDING AFFINITY PREDICTED BY RF-SCORE:    0.00 PKD
ROOT
HETATM    1  C   UNL     1     -12.992   9.916  71.925  1.00  0.00    -0.545 C  
HETATM    2  C   UNL     1     -12.774  11.274  71.326  1.00  0.00    -0.510 A  
HETATM    3  C   UNL     1     -12.145  11.431  70.081  1.00  0.00    -0.439 A  
HETATM    4  C   UNL     1     -11.980  12.701  69.518  1.00  0.00    -0.270 A  
HETATM    5  C   UNL     1     -13.217  12.409  72.014  1.00  0.00    -0.514 A  
HETATM    6  C   UNL     1     -12.408  13.824  70.230  1.00  0.00    -0.407 A  
HETATM    7  C   UNL     1     -13.502  14.893  72.240  1.00  0.00    -0.510 C  
HETATM    8  C   UNL     1     -13.031  13.688  71.479  1.00  0.00    -0.443 A  
ENDROOT
BRANCH   4   9
HETATM    9  O   UNL     1     -11.360  12.732  68.292  1.00  0.00    -0.255 OA 
BRANCH   9  10
HETATM   10  C   UNL     1     -11.056  14.037  67.790  1.00  0.00    -0.267 C  
BRANCH  10  11
HETATM   11  C   UNL     1     -11.137  14.051  66.269  1.00  0.00    -0.307 C  
HETATM   12  C   UNL     1     -12.483  13.674  65.690  1.00  0.00    -0.496 C  
HETATM   13  N   UNL     1     -12.484  14.440  64.486  1.00  0.00    -0.660 NA 
HETATM   14  C   UNL     1     -11.659  15.523  64.629  1.00  0.00    -0.281 C  
HETATM   15  O   UNL     1     -11.619  16.481  63.881  1.00  0.00    -1.175 OA 
HETATM   16  O   UNL     1     -10.910  15.382  65.763  1.00  0.00    -0.329 OA 
ENDBRANCH  10  11
ENDBRANCH   9  10
ENDBRANCH   4   9
TORSDOF 3
ENDMDL
MODEL        5
REMARK 921   NORMALIZED FREE ENERGY PREDICTED BY IDOCK:   -6.30 KCAL/MOL
REMARK 922        TOTAL FREE ENERGY PREDICTED BY IDOCK:   -7.63 KCAL/MOL
REMARK 923 INTER-LIGAND FREE ENERGY PREDICTED BY IDOCK:   -7.28 KCAL/MOL
REMARK 924 INTRA-LIGAND FREE ENERGY PREDICTED BY IDOCK:   -0.36 KCAL/MOL
REMARK 927      BINDING AFFINITY PREDICTED BY RF-SCORE:    0.00 PKD
ROOT
HETATM    1  C   UNL     1     -12.434  10.959  71.042  1.00  0.00    -0.514 C  
HETATM    2  C   UNL     1     -12.502  12.438  70.799  1.00  0.00    -0.356 A  
HETATM    3  C   UNL     1     -11.933  13.018  69.655  1.00  0.00    -0.367 A  
HETATM    4  C   UNL     1     -12.034  14.395  69.426  1.00  0.00    -0.328 A  
HETATM    5  C   UNL     1     -13.156  13.258  71.726  1.00  0.00    -0.472 A  
HETATM    6  C   UNL     1     -12.671  15.200  70.372  1.00  0.00    -0.378 A  
HETATM    7  C   UNL     1     -13.934  15.502  72.538  1.00  0.00    -0.646 C  
HETATM    8  C   UNL     1     -13.238  14.640  71.526  1.00  0.00    -0.428 A  
ENDROOT
BRANCH   4   9
HETATM    9  O   UNL     1     -11.448  14.849  68.269  1.00  0.00    -0.297 OA 
BRANCH   9  10
HETATM   10  C   UNL     1     -10.687  13.880  67.543  1.00  0.00    -0.267 C  
BRANCH  10  11
HETATM   11  C   UNL     1     -10.985  13.980  66.053  1.00  0.00    -0.298 C  
HETATM   12  C   UNL     1     -12.423  13.716  65.662  1.00  0.00    -0.496 C  
HETATM   13  N   UNL     1     -12.547  14.544  64.507  1.00  0.00    -0.650 NA 
HETATM   14  C   UNL     1     -11.639  15.566  64.574  1.00  0.00    -0.283 C  
HETATM   15  O   UNL     1     -11.644  16.560  63.872  1.00  0.00    -1.175 OA 
HETATM   16  O   UNL     1     -10.746  15.321  65.578  1.00  0.00    -0.324 OA 
ENDBRANCH  10  11
ENDBRANCH   9  10
ENDBRANCH   4   9
TORSDOF 3
ENDMDL
MODEL        6
REMARK 921   NORMALIZED FREE ENERGY PREDICTED BY IDOCK:   -6.15 KCAL/MOL
REMARK 922        TOTAL FREE ENERGY PREDICTED BY IDOCK:   -7.46 KCAL/MOL
REMARK 923 INTER-LIGAND FREE ENERGY PREDICTED BY IDOCK:   -7.13 KCAL/MOL
REMARK 924 INTRA-LIGAND FREE ENERGY PREDICTED BY IDOCK:   -0.33 KCAL/MOL
REMARK 927      BINDING AFFINITY PREDICTED BY RF-SCORE:    0.00 PKD
ROOT
HETATM    1  C   UNL     1     -13.842  15.935  72.819  1.00  0.00    -0.532 C  
HETATM    2  C   UNL     1     -13.299  14.951  71.825  1.00  0.00    -0.453 A  
HETATM    3  C   UNL     1     -12.766  15.371  70.597  1.00  0.00    -0.490 A  
HETATM    4  C   UNL     1     -12.231  14.445  69.695  1.00  0.00    -0.307 A  
HETATM    5  C   UNL     1     -13.311  13.585  72.132  1.00  0.00    -0.593 A  
HETATM    6  C   UNL     1     -12.272  13.085  70.008  1.00  0.00    -0.306 A  
HETATM    7  C   UNL     1     -12.842  11.184  71.571  1.00  0.00    -0.542 C  
HETATM    8  C   UNL     1     -12.809  12.645  71.227  1.00  0.00    -0.344 A  
ENDROOT
BRANCH   4   9
HETATM    9  O   UNL     1     -11.729  14.972  68.529  1.00  0.00    -0.320 OA 
BRANCH   9  10
HETATM   10  C   UNL     1     -10.724  14.186  67.883  1.00  0.00    -0.240 C  
BRANCH  10  11
HETATM   11  C   UNL     1     -10.988  14.117  66.385  1.00  0.00    -0.311 C  
HETATM   12  C   UNL     1     -12.394  13.717  65.994  1.00  0.00    -0.457 C  
HETATM   13  N   UNL     1     -12.542  14.416  64.759  1.00  0.00    -0.631 NA 
HETATM   14  C   UNL     1     -11.706  15.500  64.741  1.00  0.00    -0.187 C  
HETATM   15  O   UNL     1     -11.758  16.416  63.942  1.00  0.00    -1.085 OA 
HETATM   16  O   UNL     1     -10.825  15.417  65.782  1.00  0.00    -0.329 OA 
ENDBRANCH  10  11
ENDBRANCH   9  10
ENDBRANCH   4   9
TORSDOF 3
ENDMDL
MODEL        7
REMARK 921   NORMALIZED FREE ENERGY PREDICTED BY IDOCK:   -5.92 KCAL/MOL
REMARK 922        TOTAL FREE ENERGY PREDICTED BY IDOCK:   -7.19 KCAL/MOL
REMARK 923 INTER-LIGAND FREE ENERGY PREDICTED BY IDOCK:   -6.91 KCAL/MOL
REMARK 924 INTRA-LIGAND FREE ENERGY PREDICTED BY IDOCK:   -0.28 KCAL/MOL
REMARK 927      BINDING AFFINITY PREDICTED BY RF-SCORE:    0.00 PKD
ROOT
HETATM    1  C   UNL     1     -12.114  13.463  64.033  1.00  0.00    -0.506 C  
HETATM    2  C   UNL     1     -11.923  13.257  65.507  1.00  0.00    -0.445 A  
HETATM    3  C   UNL     1     -12.038  14.321  66.414  1.00  0.00    -0.442 A  
HETATM    4  C   UNL     1     -11.892  14.107  67.789  1.00  0.00    -0.379 A  
HETATM    5  C   UNL     1     -11.635  11.975  65.991  1.00  0.00    -0.371 A  
HETATM    6  C   UNL     1     -11.583  12.826  68.252  1.00  0.00    -0.375 A  
HETATM    7  C   UNL     1     -11.135  10.373  67.857  1.00  0.00    -0.363 C  
HETATM    8  C   UNL     1     -11.455  11.752  67.360  1.00  0.00    -0.375 A  
ENDROOT
BRANCH   4   9
HETATM    9  O   UNL     1     -12.036  15.220  68.583  1.00  0.00    -0.320 OA 
BRANCH   9  10
HETATM   10  C   UNL     1     -11.604  15.069  69.938  1.00  0.00    -0.293 C  
BRANCH  10  11
HETATM   11  C   UNL     1     -12.774  15.272  70.892  1.00  0.00    -0.435 C  
HETATM   12  C   UNL     1     -13.302  14.013  71.544  1.00  0.00    -0.350 C  
HETATM   13  N   UNL     1     -13.771  14.528  72.789  1.00  0.00    -0.571 NA 
HETATM   14  C   UNL     1     -13.090  15.674  73.099  1.00  0.00    -0.558 C  
HETATM   15  O   UNL     1     -13.089  16.222  74.185  1.00  0.00    -0.661 OA 
HETATM   16  O   UNL     1     -12.377  16.092  72.011  1.00  0.00    -0.469 OA 
ENDBRANCH  10  11
ENDBRANCH   9  10
ENDBRANCH   4   9
TORSDOF 3
ENDMDL
MODEL        8
REMARK 921   NORMALIZED FREE ENERGY PREDICTED BY IDOCK:   -5.87 KCAL/MOL
REMARK 922        TOTAL FREE ENERGY PREDICTED BY IDOCK:   -7.13 KCAL/MOL
REMARK 923 INTER-LIGAND FREE ENERGY PREDICTED BY IDOCK:   -6.87 KCAL/MOL
REMARK 924 INTRA-LIGAND FREE ENERGY PREDICTED BY IDOCK:   -0.27 KCAL/MOL
REMARK 927      BINDING AFFINITY PREDICTED BY RF-SCORE:    0.00 PKD
ROOT
HETATM    1  C   UNL     1     -13.332  11.955  71.886  1.00  0.00    -0.405 C  
HETATM    2  C   UNL     1     -12.906  13.390  71.793  1.00  0.00    -0.385 A  
HETATM    3  C   UNL     1     -12.511  13.958  70.572  1.00  0.00    -0.422 A  
HETATM    4  C   UNL     1     -12.151  15.307  70.493  1.00  0.00    -0.354 A  
HETATM    5  C   UNL     1     -12.914  14.187  72.945  1.00  0.00    -0.498 A  
HETATM    6  C   UNL     1     -12.143  16.081  71.656  1.00  0.00    -0.537 A  
HETATM    7  C   UNL     1     -12.530  16.362  74.136  1.00  0.00    -0.573 C  
HETATM    8  C   UNL     1     -12.526  15.529  72.887  1.00  0.00    -0.530 A  
ENDROOT
BRANCH   4   9
HETATM    9  O   UNL     1     -11.792  15.756  69.245  1.00  0.00    -0.365 OA 
BRANCH   9  10
HETATM   10  C   UNL     1     -11.347  14.747  68.334  1.00  0.00    -0.299 C  
BRANCH  10  11
HETATM   11  C   UNL     1     -10.524  15.370  67.214  1.00  0.00    -0.282 C  
HETATM   12  C   UNL     1     -11.003  15.062  65.812  1.00  0.00    -0.350 C  
HETATM   13  N   UNL     1     -10.600  16.244  65.122  1.00  0.00    -0.638 NA 
HETATM   14  C   UNL     1     -10.513  17.286  66.005  1.00  0.00    -0.282 C  
HETATM   15  O   UNL     1     -10.421  18.460  65.702  1.00  0.00    -0.624 OA 
HETATM   16  O   UNL     1     -10.584  16.810  67.284  1.00  0.00    -0.320 OA 
ENDBRANCH  10  11
ENDBRANCH   9  10
ENDBRANCH   4   9
TORSDOF 3
ENDMDL
MODEL        9
REMARK 921   NORMALIZED FREE ENERGY PREDICTED BY IDOCK:   -5.82 KCAL/MOL
REMARK 922        TOTAL FREE ENERGY PREDICTED BY IDOCK:   -7.07 KCAL/MOL
REMARK 923 INTER-LIGAND FREE ENERGY PREDICTED BY IDOCK:   -6.84 KCAL/MOL
REMARK 924 INTRA-LIGAND FREE ENERGY PREDICTED BY IDOCK:   -0.23 KCAL/MOL
REMARK 927      BINDING AFFINITY PREDICTED BY RF-SCORE:    0.00 PKD
ROOT
HETATM    1  C   UNL     1     -10.236  17.064  65.975  1.00  0.00    -0.337 C  
HETATM    2  C   UNL     1     -10.889  15.715  66.040  1.00  0.00    -0.276 A  
HETATM    3  C   UNL     1     -11.210  15.117  67.269  1.00  0.00    -0.324 A  
HETATM    4  C   UNL     1     -11.851  13.874  67.313  1.00  0.00    -0.407 A  
HETATM    5  C   UNL     1     -11.198  15.041  64.852  1.00  0.00    -0.423 A  
HETATM    6  C   UNL     1     -12.131  13.207  66.119  1.00  0.00    -0.479 A  
HETATM    7  C   UNL     1     -12.121  13.073  63.597  1.00  0.00    -0.604 C  
HETATM    8  C   UNL     1     -11.810  13.784  64.882  1.00  0.00    -0.394 A  
ENDROOT
BRANCH   4   9
HETATM    9  O   UNL     1     -12.125  13.391  68.570  1.00  0.00    -0.352 OA 
BRANCH   9  10
HETATM   10  C   UNL     1     -11.822  14.279  69.650  1.00  0.00    -0.318 C  
BRANCH  10  11
HETATM   11  C   UNL     1     -13.009  14.382  70.599  1.00  0.00    -0.289 C  
HETATM   12  C   UNL     1     -13.049  13.342  71.698  1.00  0.00    -0.375 C  
HETATM   13  N   UNL     1     -13.709  14.068  72.734  1.00  0.00    -0.691 NA 
HETATM   14  C   UNL     1     -13.509  15.410  72.554  1.00  0.00    -0.504 C  
HETATM   15  O   UNL     1     -13.741  16.273  73.380  1.00  0.00    -0.597 OA 
HETATM   16  O   UNL     1     -12.975  15.633  71.317  1.00  0.00    -0.474 OA 
ENDBRANCH  10  11
ENDBRANCH   9  10
ENDBRANCH   4   9
TORSDOF 3
ENDMDL
MODEL       10
REMARK 921   NORMALIZED FREE ENERGY PREDICTED BY IDOCK:   -5.75 KCAL/MOL
REMARK 922        TOTAL FREE ENERGY PREDICTED BY IDOCK:   -6.99 KCAL/MOL
REMARK 923 INTER-LIGAND FREE ENERGY PREDICTED BY IDOCK:   -6.77 KCAL/MOL
REMARK 924 INTRA-LIGAND FREE ENERGY PREDICTED BY IDOCK:   -0.21 KCAL/MOL
REMARK 927      BINDING AFFINITY PREDICTED BY RF-SCORE:    0.00 PKD
ROOT
HETATM    1  C   UNL     1     -12.941  10.230  71.907  1.00  0.00    -0.554 C  
HETATM    2  C   UNL     1     -12.016  10.335  70.731  1.00  0.00    -0.456 A  
HETATM    3  C   UNL     1     -12.401  10.997  69.554  1.00  0.00    -0.266 A  
HETATM    4  C   UNL     1     -11.514  11.117  68.479  1.00  0.00    -0.302 A  
HETATM    5  C   UNL     1     -10.736   9.773  70.809  1.00  0.00    -0.393 A  
HETATM    6  C   UNL     1     -10.249  10.531  68.567  1.00  0.00    -0.190 A  
HETATM    7  C   UNL     1      -8.487   9.238  69.832  1.00  0.00    -0.170 C  
HETATM    8  C   UNL     1      -9.850   9.858  69.731  1.00  0.00    -0.268 A  
ENDROOT
BRANCH   4   9
HETATM    9  O   UNL     1     -11.996  11.794  67.384  1.00  0.00    -0.617 OA 
BRANCH   9  10
HETATM   10  C   UNL     1     -11.630  13.174  67.304  1.00  0.00    -0.355 C  
BRANCH  10  11
HETATM   11  C   UNL     1     -11.397  13.577  65.854  1.00  0.00    -0.308 C  
HETATM   12  C   UNL     1     -12.534  13.266  64.906  1.00  0.00    -0.409 C  
HETATM   13  N   UNL     1     -12.387  14.316  63.951  1.00  0.00    -0.757 NA 
HETATM   14  C   UNL     1     -11.757  15.382  64.535  1.00  0.00    -0.277 C  
HETATM   15  O   UNL     1     -11.689  16.503  64.065  1.00  0.00    -1.111 OA 
HETATM   16  O   UNL     1     -11.246  15.007  65.744  1.00  0.00    -0.340 OA 
ENDBRANCH  10  11
ENDBRANCH   9  10
ENDBRANCH   4   9
TORSDOF 3
ENDMDL
MODEL       11
REMARK 921   NORMALIZED FREE ENERGY PREDICTED BY IDOCK:   -5.70 KCAL/MOL
REMARK 922        TOTAL FREE ENERGY PREDICTED BY IDOCK:   -6.93 KCAL/MOL
REMARK 923 INTER-LIGAND FREE ENERGY PREDICTED BY IDOCK:   -6.70 KCAL/MOL
REMARK 924 INTRA-LIGAND FREE ENERGY PREDICTED BY IDOCK:   -0.23 KCAL/MOL
REMARK 927      BINDING AFFINITY PREDICTED BY RF-SCORE:    0.00 PKD
ROOT
HETATM    1  C   UNL     1     -10.725  10.264  67.798  1.00  0.00    -0.324 C  
HETATM    2  C   UNL     1     -11.139  11.622  67.314  1.00  0.00    -0.346 A  
HETATM    3  C   UNL     1     -11.379  12.676  68.210  1.00  0.00    -0.337 A  
HETATM    4  C   UNL     1     -11.731  13.946  67.741  1.00  0.00    -0.366 A  
HETATM    5  C   UNL     1     -11.280  11.850  65.940  1.00  0.00    -0.373 A  
HETATM    6  C   UNL     1     -11.888  14.149  66.368  1.00  0.00    -0.440 A  
HETATM    7  C   UNL     1     -11.818  13.326  63.982  1.00  0.00    -0.512 C  
HETATM    8  C   UNL     1     -11.662  13.106  65.459  1.00  0.00    -0.393 A  
ENDROOT
BRANCH   4   9
HETATM    9  O   UNL     1     -11.931  14.902  68.708  1.00  0.00    -0.303 OA 
BRANCH   9  10
HETATM   10  C   UNL     1     -11.878  14.432  70.058  1.00  0.00    -0.315 C  
BRANCH  10  11
HETATM   11  C   UNL     1     -12.626  15.386  70.981  1.00  0.00    -0.431 C  
HETATM   12  C   UNL     1     -13.999  14.922  71.414  1.00  0.00    -0.463 C  
HETATM   13  N   UNL     1     -14.098  15.530  72.701  1.00  0.00    -0.526 NA 
HETATM   14  C   UNL     1     -12.844  15.742  73.207  1.00  0.00    -0.542 C  
HETATM   15  O   UNL     1     -12.590  16.027  74.362  1.00  0.00    -0.665 OA 
HETATM   16  O   UNL     1     -11.914  15.547  72.225  1.00  0.00    -0.366 OA 
ENDBRANCH  10  11
ENDBRANCH   9  10
ENDBRANCH   4   9
TORSDOF 3
ENDMDL
MODEL       12
REMARK 921   NORMALIZED FREE ENERGY PREDICTED BY IDOCK:   -5.67 KCAL/MOL
REMARK 922        TOTAL FREE ENERGY PREDICTED BY IDOCK:   -6.90 KCAL/MOL
REMARK 923 INTER-LIGAND FREE ENERGY PREDICTED BY IDOCK:   -6.62 KCAL/MOL
REMARK 924 INTRA-LIGAND FREE ENERGY PREDICTED BY IDOCK:   -0.29 KCAL/MOL
REMARK 927      BINDING AFFINITY PREDICTED BY RF-SCORE:    0.00 PKD
ROOT
HETATM    1  C   UNL     1     -11.039  15.767  69.802  1.00  0.00    -0.322 C  
HETATM    2  C   UNL     1     -11.385  14.337  69.510  1.00  0.00    -0.315 A  
HETATM    3  C   UNL     1     -11.179  13.779  68.239  1.00  0.00    -0.301 A  
HETATM    4  C   UNL     1     -11.475  12.434  67.992  1.00  0.00    -0.322 A  
HETATM    5  C   UNL     1     -11.914  13.535  70.530  1.00  0.00    -0.344 A  
HETATM    6  C   UNL     1     -12.022  11.656  69.014  1.00  0.00    -0.368 A  
HETATM    7  C   UNL     1     -12.820  11.359  71.392  1.00  0.00    -0.502 C  
HETATM    8  C   UNL     1     -12.243  12.198  70.289  1.00  0.00    -0.344 A  
ENDROOT
BRANCH   4   9
HETATM    9  O   UNL     1     -11.223  11.995  66.714  1.00  0.00    -0.287 OA 
BRANCH   9  10
HETATM   10  C   UNL     1     -10.179  12.684  66.022  1.00  0.00    -0.272 C  
BRANCH  10  11
HETATM   11  C   UNL     1     -10.726  13.352  64.768  1.00  0.00    -0.390 C  
HETATM   12  C   UNL     1     -12.211  13.177  64.537  1.00  0.00    -0.406 C  
HETATM   13  N   UNL     1     -12.524  14.388  63.851  1.00  0.00    -0.808 NA 
HETATM   14  C   UNL     1     -11.611  15.353  64.182  1.00  0.00    -0.071 C  
HETATM   15  O   UNL     1     -11.728  16.542  63.951  1.00  0.00    -1.148 OA 
HETATM   16  O   UNL     1     -10.561  14.783  64.844  1.00  0.00    -0.414 OA 
ENDBRANCH  10  11
ENDBRANCH   9  10
ENDBRANCH   4   9
TORSDOF 3
ENDMDL
MODEL       13
REMARK 921   NORMALIZED FREE ENERGY PREDICTED BY IDOCK:   -5.65 KCAL/MOL
REMARK 922        TOTAL FREE ENERGY PREDICTED BY IDOCK:   -6.87 KCAL/MOL
REMARK 923 INTER-LIGAND FREE ENERGY PREDICTED BY IDOCK:   -6.63 KCAL/MOL
REMARK 924 INTRA-LIGAND FREE ENERGY PREDICTED BY IDOCK:   -0.25 KCAL/MOL
REMARK 927      BINDING AFFINITY PREDICTED BY RF-SCORE:    0.00 PKD
ROOT
HETATM    1  C   UNL     1     -10.625  15.833  65.039  1.00  0.00    -0.397 C  
HETATM    2  C   UNL     1     -10.474  16.710  66.247  1.00  0.00    -0.272 A  
HETATM    3  C   UNL     1     -10.773  16.238  67.534  1.00  0.00    -0.300 A  
HETATM    4  C   UNL     1     -10.594  17.056  68.655  1.00  0.00    -0.362 A  
HETATM    5  C   UNL     1     -10.012  18.023  66.092  1.00  0.00    -0.288 A  
HETATM    6  C   UNL     1     -10.154  18.370  68.479  1.00  0.00    -0.413 A  
HETATM    7  C   UNL     1      -9.373  20.270  67.010  1.00  0.00    -0.526 C  
HETATM    8  C   UNL     1      -9.858  18.862  67.200  1.00  0.00    -0.368 A  
ENDROOT
BRANCH   4   9
HETATM    9  O   UNL     1     -10.910  16.485  69.865  1.00  0.00    -0.344 OA 
BRANCH   9  10
HETATM   10  C   UNL     1     -11.923  15.476  69.823  1.00  0.00    -0.364 C  
BRANCH  10  11
HETATM   11  C   UNL     1     -12.812  15.567  71.055  1.00  0.00    -0.482 C  
HETATM   12  C   UNL     1     -13.532  14.290  71.428  1.00  0.00    -0.330 C  
HETATM   13  N   UNL     1     -13.625  14.433  72.845  1.00  0.00    -0.618 NA 
HETATM   14  C   UNL     1     -12.622  15.252  73.290  1.00  0.00    -0.499 C  
HETATM   15  O   UNL     1     -12.288  15.387  74.452  1.00  0.00    -0.641 OA 
HETATM   16  O   UNL     1     -12.025  15.867  72.226  1.00  0.00    -0.426 OA 
ENDBRANCH  10  11
ENDBRANCH   9  10
ENDBRANCH   4   9
TORSDOF 3
ENDMDL
MODEL       14
REMARK 921   NORMALIZED FREE ENERGY PREDICTED BY IDOCK:   -5.64 KCAL/MOL
REMARK 922        TOTAL FREE ENERGY PREDICTED BY IDOCK:   -6.87 KCAL/MOL
REMARK 923 INTER-LIGAND FREE ENERGY PREDICTED BY IDOCK:   -6.64 KCAL/MOL
REMARK 924 INTRA-LIGAND FREE ENERGY PREDICTED BY IDOCK:   -0.23 KCAL/MOL
REMARK 927      BINDING AFFINITY PREDICTED BY RF-SCORE:    0.00 PKD
ROOT
HETATM    1  C   UNL     1     -12.089  13.036  63.610  1.00  0.00    -0.604 C  
HETATM    2  C   UNL     1     -11.774  13.744  64.895  1.00  0.00    -0.378 A  
HETATM    3  C   UNL     1     -12.146  13.205  66.136  1.00  0.00    -0.479 A  
HETATM    4  C   UNL     1     -11.815  13.860  67.328  1.00  0.00    -0.407 A  
HETATM    5  C   UNL     1     -11.086  14.963  64.859  1.00  0.00    -0.424 A  
HETATM    6  C   UNL     1     -11.147  15.085  67.271  1.00  0.00    -0.334 A  
HETATM    7  C   UNL     1     -10.047  16.955  65.978  1.00  0.00    -0.336 C  
HETATM    8  C   UNL     1     -10.776  15.644  66.040  1.00  0.00    -0.322 A  
ENDROOT
BRANCH   4   9
HETATM    9  O   UNL     1     -12.220  13.234  68.482  1.00  0.00    -0.272 OA 
BRANCH   9  10
HETATM   10  C   UNL     1     -11.818  13.869  69.699  1.00  0.00    -0.327 C  
BRANCH  10  11
HETATM   11  C   UNL     1     -13.024  14.100  70.600  1.00  0.00    -0.228 C  
HETATM   12  C   UNL     1     -13.160  13.134  71.758  1.00  0.00    -0.383 C  
HETATM   13  N   UNL     1     -13.805  13.960  72.726  1.00  0.00    -0.688 NA 
HETATM   14  C   UNL     1     -13.521  15.275  72.472  1.00  0.00    -0.485 C  
HETATM   15  O   UNL     1     -13.725  16.199  73.235  1.00  0.00    -0.568 OA 
HETATM   16  O   UNL     1     -12.936  15.388  71.242  1.00  0.00    -0.405 OA 
ENDBRANCH  10  11
ENDBRANCH   9  10
ENDBRANCH   4   9
TORSDOF 3
ENDMDL
MODEL       15
REMARK 921   NORMALIZED FREE ENERGY PREDICTED BY IDOCK:   -5.62 KCAL/MOL
REMARK 922        TOTAL FREE ENERGY PREDICTED BY IDOCK:   -6.84 KCAL/MOL
REMARK 923 INTER-LIGAND FREE ENERGY PREDICTED BY IDOCK:   -6.59 KCAL/MOL
REMARK 924 INTRA-LIGAND FREE ENERGY PREDICTED BY IDOCK:   -0.25 KCAL/MOL
REMARK 927      BINDING AFFINITY PREDICTED BY RF-SCORE:    0.00 PKD
ROOT
HETATM    1  C   UNL     1     -12.439  14.497  72.322  1.00  0.00    -0.353 C  
HETATM    2  C   UNL     1     -11.950  14.778  70.932  1.00  0.00    -0.384 A  
HETATM    3  C   UNL     1     -12.058  13.821  69.911  1.00  0.00    -0.412 A  
HETATM    4  C   UNL     1     -11.630  14.110  68.611  1.00  0.00    -0.317 A  
HETATM    5  C   UNL     1     -11.383  16.025  70.640  1.00  0.00    -0.424 A  
HETATM    6  C   UNL     1     -11.047  15.351  68.344  1.00  0.00    -0.301 A  
HETATM    7  C   UNL     1     -10.306  17.655  69.064  1.00  0.00    -0.272 C  
HETATM    8  C   UNL     1     -10.921  16.316  69.353  1.00  0.00    -0.337 A  
ENDROOT
BRANCH   4   9
HETATM    9  O   UNL     1     -11.795  13.101  67.693  1.00  0.00    -0.354 OA 
BRANCH   9  10
HETATM   10  C   UNL     1     -10.721  12.934  66.763  1.00  0.00    -0.261 C  
BRANCH  10  11
HETATM   11  C   UNL     1     -11.145  13.396  65.375  1.00  0.00    -0.287 C  
HETATM   12  C   UNL     1     -12.638  13.428  65.133  1.00  0.00    -0.440 C  
HETATM   13  N   UNL     1     -12.738  14.496  64.192  1.00  0.00    -0.707 NA 
HETATM   14  C   UNL     1     -11.672  15.341  64.341  1.00  0.00    -0.285 C  
HETATM   15  O   UNL     1     -11.582  16.454  63.858  1.00  0.00    -1.100 OA 
HETATM   16  O   UNL     1     -10.736  14.761  65.149  1.00  0.00    -0.358 OA 
ENDBRANCH  10  11
ENDBRANCH   9  10
ENDBRANCH   4   9
TORSDOF 3
ENDMDL
MODEL       16
REMARK 921   NORMALIZED FREE ENERGY PREDICTED BY IDOCK:   -5.62 KCAL/MOL
REMARK 922        TOTAL FREE ENERGY PREDICTED BY IDOCK:   -6.84 KCAL/MOL
REMARK 923 INTER-LIGAND FREE ENERGY PREDICTED BY IDOCK:   -6.64 KCAL/MOL
REMARK 924 INTRA-LIGAND FREE ENERGY PREDICTED BY IDOCK:   -0.19 KCAL/MOL
REMARK 927      BINDING AFFINITY PREDICTED BY RF-SCORE:    0.00 PKD
ROOT
HETATM    1  C   UNL     1     -13.287   9.043  72.534  1.00  0.00    -0.480 C  
HETATM    2  C   UNL     1     -12.290   9.504  71.512  1.00  0.00    -0.465 A  
HETATM    3  C   UNL     1     -12.657  10.369  70.471  1.00  0.00    -0.384 A  
HETATM    4  C   UNL     1     -11.707  10.818  69.546  1.00  0.00    -0.312 A  
HETATM    5  C   UNL     1     -10.961   9.072  71.604  1.00  0.00    -0.435 A  
HETATM    6  C   UNL     1     -10.392  10.359  69.640  1.00  0.00    -0.261 A  
HETATM    7  C   UNL     1      -8.591   9.003  70.779  1.00  0.00    -0.259 C  
HETATM    8  C   UNL     1     -10.008   9.487  70.669  1.00  0.00    -0.342 A  
ENDROOT
BRANCH   4   9
HETATM    9  O   UNL     1     -12.178  11.670  68.576  1.00  0.00    -0.485 OA 
BRANCH   9  10
HETATM   10  C   UNL     1     -11.357  11.791  67.412  1.00  0.00    -0.311 C  
BRANCH  10  11
HETATM   11  C   UNL     1     -11.720  13.050  66.635  1.00  0.00    -0.381 C  
HETATM   12  C   UNL     1     -10.546  13.852  66.117  1.00  0.00    -0.291 C  
HETATM   13  N   UNL     1     -11.108  14.424  64.938  1.00  0.00    -0.378 NA 
HETATM   14  C   UNL     1     -12.133  13.636  64.487  1.00  0.00    -0.419 C  
HETATM   15  O   UNL     1     -12.657  13.722  63.393  1.00  0.00    -0.842 OA 
HETATM   16  O   UNL     1     -12.454  12.712  65.440  1.00  0.00    -0.601 OA 
ENDBRANCH  10  11
ENDBRANCH   9  10
ENDBRANCH   4   9
TORSDOF 3
ENDMDL
MODEL       17
REMARK 921   NORMALIZED FREE ENERGY PREDICTED BY IDOCK:   -5.61 KCAL/MOL
REMARK 922        TOTAL FREE ENERGY PREDICTED BY IDOCK:   -6.82 KCAL/MOL
REMARK 923 INTER-LIGAND FREE ENERGY PREDICTED BY IDOCK:   -6.60 KCAL/MOL
REMARK 924 INTRA-LIGAND FREE ENERGY PREDICTED BY IDOCK:   -0.22 KCAL/MOL
REMARK 927      BINDING AFFINITY PREDICTED BY RF-SCORE:    0.00 PKD
ROOT
HETATM    1  C   UNL     1     -14.132  15.326  72.641  1.00  0.00    -0.476 C  
HETATM    2  C   UNL     1     -13.379  14.407  71.725  1.00  0.00    -0.446 A  
HETATM    3  C   UNL     1     -12.668  14.899  70.620  1.00  0.00    -0.422 A  
HETATM    4  C   UNL     1     -11.942  14.033  69.794  1.00  0.00    -0.334 A  
HETATM    5  C   UNL     1     -13.376  13.030  71.981  1.00  0.00    -0.588 A  
HETATM    6  C   UNL     1     -11.968  12.661  70.052  1.00  0.00    -0.377 A  
HETATM    7  C   UNL     1     -12.700  10.676  71.432  1.00  0.00    -0.545 C  
HETATM    8  C   UNL     1     -12.681  12.150  71.146  1.00  0.00    -0.351 A  
ENDROOT
BRANCH   4   9
HETATM    9  O   UNL     1     -11.276  14.627  68.749  1.00  0.00    -0.243 OA 
BRANCH   9  10
HETATM   10  C   UNL     1     -11.443  16.043  68.639  1.00  0.00    -0.377 C  
BRANCH  10  11
HETATM   11  C   UNL     1     -10.468  16.614  67.617  1.00  0.00    -0.320 C  
HETATM   12  C   UNL     1     -10.642  16.104  66.203  1.00  0.00    -0.283 C  
HETATM   13  N   UNL     1     -10.203  17.234  65.451  1.00  0.00    -0.588 NA 
HETATM   14  C   UNL     1     -10.367  18.372  66.193  1.00  0.00    -0.407 C  
HETATM   15  O   UNL     1     -10.306  19.508  65.763  1.00  0.00    -0.448 OA 
HETATM   16  O   UNL     1     -10.647  18.039  67.488  1.00  0.00    -0.395 OA 
ENDBRANCH  10  11
ENDBRANCH   9  10
ENDBRANCH   4   9
TORSDOF 3
ENDMDL
MODEL       18
REMARK 921   NORMALIZED FREE ENERGY PREDICTED BY IDOCK:   -5.57 KCAL/MOL
REMARK 922        TOTAL FREE ENERGY PREDICTED BY IDOCK:   -6.78 KCAL/MOL
REMARK 923 INTER-LIGAND FREE ENERGY PREDICTED BY IDOCK:   -6.58 KCAL/MOL
REMARK 924 INTRA-LIGAND FREE ENERGY PREDICTED BY IDOCK:   -0.20 KCAL/MOL
REMARK 927      BINDING AFFINITY PREDICTED BY RF-SCORE:    0.00 PKD
ROOT
HETATM    1  C   UNL     1     -12.588  16.182  73.948  1.00  0.00    -0.703 C  
HETATM    2  C   UNL     1     -12.590  15.339  72.707  1.00  0.00    -0.489 A  
HETATM    3  C   UNL     1     -12.933  13.979  72.747  1.00  0.00    -0.473 A  
HETATM    4  C   UNL     1     -12.963  13.215  71.576  1.00  0.00    -0.321 A  
HETATM    5  C   UNL     1     -12.252  15.922  71.479  1.00  0.00    -0.525 A  
HETATM    6  C   UNL     1     -12.603  13.807  70.363  1.00  0.00    -0.325 A  
HETATM    7  C   UNL     1     -11.871  15.804  69.001  1.00  0.00    -0.367 C  
HETATM    8  C   UNL     1     -12.247  15.163  70.305  1.00  0.00    -0.395 A  
ENDROOT
BRANCH   4   9
HETATM    9  O   UNL     1     -13.324  11.898  71.734  1.00  0.00    -0.403 OA 
BRANCH   9  10
HETATM   10  C   UNL     1     -12.566  10.957  70.969  1.00  0.00    -0.417 C  
BRANCH  10  11
HETATM   11  C   UNL     1     -12.553   9.600  71.661  1.00  0.00    -0.402 C  
HETATM   12  C   UNL     1     -13.889   8.894  71.725  1.00  0.00    -0.417 C  
HETATM   13  N   UNL     1     -13.476   7.528  71.701  1.00  0.00    -0.373 NA 
HETATM   14  C   UNL     1     -12.254   7.428  71.093  1.00  0.00    -0.324 C  
HETATM   15  O   UNL     1     -11.739   6.394  70.713  1.00  0.00    -0.366 OA 
HETATM   16  O   UNL     1     -11.713   8.674  70.942  1.00  0.00    -0.282 OA 
ENDBRANCH  10  11
ENDBRANCH   9  10
ENDBRANCH   4   9
TORSDOF 3
ENDMDL
MODEL       19
REMARK 921   NORMALIZED FREE ENERGY PREDICTED BY IDOCK:   -5.55 KCAL/MOL
REMARK 922        TOTAL FREE ENERGY PREDICTED BY IDOCK:   -6.75 KCAL/MOL
REMARK 923 INTER-LIGAND FREE ENERGY PREDICTED BY IDOCK:   -6.48 KCAL/MOL
REMARK 924 INTRA-LIGAND FREE ENERGY PREDICTED BY IDOCK:   -0.28 KCAL/MOL
REMARK 927      BINDING AFFINITY PREDICTED BY RF-SCORE:    0.00 PKD
ROOT
HETATM    1  C   UNL     1     -10.044  19.836  67.908  1.00  0.00    -0.558 C  
HETATM    2  C   UNL     1      -9.841  18.367  68.134  1.00  0.00    -0.365 A  
HETATM    3  C   UNL     1     -10.892  17.451  67.970  1.00  0.00    -0.281 A  
HETATM    4  C   UNL     1     -10.680  16.080  68.150  1.00  0.00    -0.311 A  
HETATM    5  C   UNL     1      -8.576  17.895  68.504  1.00  0.00    -0.298 A  
HETATM    6  C   UNL     1      -9.417  15.630  68.541  1.00  0.00    -0.200 A  
HETATM    7  C   UNL     1      -6.996  16.047  69.127  1.00  0.00    -0.189 C  
HETATM    8  C   UNL     1      -8.357  16.531  68.719  1.00  0.00    -0.248 A  
ENDROOT
BRANCH   4   9
HETATM    9  O   UNL     1     -11.778  15.277  67.953  1.00  0.00    -0.328 OA 
BRANCH   9  10
HETATM   10  C   UNL     1     -11.538  14.079  67.210  1.00  0.00    -0.369 C  
BRANCH  10  11
HETATM   11  C   UNL     1     -12.419  14.041  65.968  1.00  0.00    -0.455 C  
HETATM   12  C   UNL     1     -11.905  14.836  64.787  1.00  0.00    -0.423 C  
HETATM   13  N   UNL     1     -12.430  14.076  63.699  1.00  0.00    -0.809 NA 
HETATM   14  C   UNL     1     -12.630  12.782  64.097  1.00  0.00    -0.305 C  
HETATM   15  O   UNL     1     -12.847  11.843  63.355  1.00  0.00    -0.715 OA 
HETATM   16  O   UNL     1     -12.514  12.696  65.455  1.00  0.00    -0.622 OA 
ENDBRANCH  10  11
ENDBRANCH   9  10
ENDBRANCH   4   9
TORSDOF 3
ENDMDL
MODEL       20
REMARK 921   NORMALIZED FREE ENERGY PREDICTED BY IDOCK:   -5.52 KCAL/MOL
REMARK 922        TOTAL FREE ENERGY PREDICTED BY IDOCK:   -6.72 KCAL/MOL
REMARK 923 INTER-LIGAND FREE ENERGY PREDICTED BY IDOCK:   -6.41 KCAL/MOL
REMARK 924 INTRA-LIGAND FREE ENERGY PREDICTED BY IDOCK:   -0.31 KCAL/MOL
REMARK 927      BINDING AFFINITY PREDICTED BY RF-SCORE:    0.00 PKD
ROOT
HETATM    1  C   UNL     1      -6.678  16.806  68.982  1.00  0.00    -0.209 C  
HETATM    2  C   UNL     1      -8.068  17.263  68.650  1.00  0.00    -0.261 A  
HETATM    3  C   UNL     1      -9.175  16.417  68.816  1.00  0.00    -0.239 A  
HETATM    4  C   UNL     1     -10.469  16.869  68.536  1.00  0.00    -0.361 A  
HETATM    5  C   UNL     1      -8.269  18.565  68.176  1.00  0.00    -0.315 A  
HETATM    6  C   UNL     1     -10.648  18.163  68.042  1.00  0.00    -0.359 A  
HETATM    7  C   UNL     1      -9.746  20.416  67.343  1.00  0.00    -0.597 C  
HETATM    8  C   UNL     1      -9.554  19.020  67.861  1.00  0.00    -0.373 A  
ENDROOT
BRANCH   4   9
HETATM    9  O   UNL     1     -11.475  15.957  68.745  1.00  0.00    -0.357 OA 
BRANCH   9  10
HETATM   10  C   UNL     1     -11.455  15.299  70.014  1.00  0.00    -0.292 C  
BRANCH  10  11
HETATM   11  C   UNL     1     -12.372  16.017  70.997  1.00  0.00    -0.228 C  
HETATM   12  C   UNL     1     -13.613  15.251  71.400  1.00  0.00    -0.514 C  
HETATM   13  N   UNL     1     -13.818  15.743  72.723  1.00  0.00    -0.583 NA 
HETATM   14  C   UNL     1     -12.628  16.178  73.242  1.00  0.00    -0.519 C  
HETATM   15  O   UNL     1     -12.423  16.436  74.412  1.00  0.00    -0.707 OA 
HETATM   16  O   UNL     1     -11.692  16.243  72.249  1.00  0.00    -0.498 OA 
ENDBRANCH  10  11
ENDBRANCH   9  10
ENDBRANCH   4   9
TORSDOF 3
ENDMDL
MODEL       21
REMARK 921   NORMALIZED FREE ENERGY PREDICTED BY IDOCK:   -5.51 KCAL/MOL
REMARK 922        TOTAL FREE ENERGY PREDICTED BY IDOCK:   -6.70 KCAL/MOL
REMARK 923 INTER-LIGAND FREE ENERGY PREDICTED BY IDOCK:   -6.49 KCAL/MOL
REMARK 924 INTRA-LIGAND FREE ENERGY PREDICTED BY IDOCK:   -0.22 KCAL/MOL
REMARK 927      BINDING AFFINITY PREDICTED BY RF-SCORE:    0.00 PKD
ROOT
HETATM    1  C   UNL     1     -10.824  16.454  69.899  1.00  0.00    -0.333 C  
HETATM    2  C   UNL     1     -10.498  17.139  68.605  1.00  0.00    -0.366 A  
HETATM    3  C   UNL     1     -10.356  16.416  67.411  1.00  0.00    -0.295 A  
HETATM    4  C   UNL     1     -10.085  17.072  66.205  1.00  0.00    -0.320 A  
HETATM    5  C   UNL     1     -10.341  18.530  68.583  1.00  0.00    -0.271 A  
HETATM    6  C   UNL     1      -9.911  18.458  66.206  1.00  0.00    -0.378 A  
HETATM    7  C   UNL     1      -9.865  20.687  67.391  1.00  0.00    -0.527 C  
HETATM    8  C   UNL     1     -10.040  19.196  67.391  1.00  0.00    -0.465 A  
ENDROOT
BRANCH   4   9
HETATM    9  O   UNL     1      -9.978  16.264  65.099  1.00  0.00    -0.471 OA 
BRANCH   9  10
HETATM   10  C   UNL     1     -11.214  15.770  64.576  1.00  0.00    -0.322 C  
BRANCH  10  11
HETATM   11  C   UNL     1     -11.260  14.251  64.670  1.00  0.00    -0.366 C  
HETATM   12  C   UNL     1     -12.105  13.698  65.797  1.00  0.00    -0.428 C  
HETATM   13  N   UNL     1     -12.541  12.464  65.229  1.00  0.00    -0.588 NA 
HETATM   14  C   UNL     1     -12.528  12.556  63.863  1.00  0.00    -0.445 C  
HETATM   15  O   UNL     1     -13.056  11.770  63.100  1.00  0.00    -0.568 OA 
HETATM   16  O   UNL     1     -11.864  13.689  63.487  1.00  0.00    -0.346 OA 
ENDBRANCH  10  11
ENDBRANCH   9  10
ENDBRANCH   4   9
TORSDOF 3
ENDMDL
MODEL       22
REMARK 921   NORMALIZED FREE ENERGY PREDICTED BY IDOCK:   -5.50 KCAL/MOL
REMARK 922        TOTAL FREE ENERGY PREDICTED BY IDOCK:   -6.70 KCAL/MOL
REMARK 923 INTER-LIGAND FREE ENERGY PREDICTED BY IDOCK:   -6.43 KCAL/MOL
REMARK 924 INTRA-LIGAND FREE ENERGY PREDICTED BY IDOCK:   -0.26 KCAL/MOL
REMARK 927      BINDING AFFINITY PREDICTED BY RF-SCORE:    0.00 PKD
ROOT
HETATM    1  C   UNL     1     -12.661   9.812  71.880  1.00  0.00    -0.501 C  
HETATM    2  C   UNL     1     -12.200  10.584  70.680  1.00  0.00    -0.446 A  
HETATM    3  C   UNL     1     -12.422  11.966  70.570  1.00  0.00    -0.301 A  
HETATM    4  C   UNL     1     -11.956  12.679  69.460  1.00  0.00    -0.270 A  
HETATM    5  C   UNL     1     -11.524   9.918  69.650  1.00  0.00    -0.160 A  
HETATM    6  C   UNL     1     -11.303  11.994  68.433  1.00  0.00    -0.332 A  
HETATM    7  C   UNL     1     -10.368   9.877  67.423  1.00  0.00    -0.301 C  
HETATM    8  C   UNL     1     -11.080  10.612  68.521  1.00  0.00    -0.318 A  
ENDROOT
BRANCH   4   9
HETATM    9  O   UNL     1     -12.221  14.027  69.465  1.00  0.00    -0.330 OA 
BRANCH   9  10
HETATM   10  C   UNL     1     -11.411  14.810  70.346  1.00  0.00    -0.252 C  
BRANCH  10  11
HETATM   11  C   UNL     1     -12.281  15.754  71.166  1.00  0.00    -0.423 C  
HETATM   12  C   UNL     1     -13.661  15.233  71.504  1.00  0.00    -0.504 C  
HETATM   13  N   UNL     1     -13.898  15.880  72.753  1.00  0.00    -0.552 NA 
HETATM   14  C   UNL     1     -12.703  16.177  73.351  1.00  0.00    -0.527 C  
HETATM   15  O   UNL     1     -12.561  16.516  74.511  1.00  0.00    -0.750 OA 
HETATM   16  O   UNL     1     -11.686  15.998  72.457  1.00  0.00    -0.463 OA 
ENDBRANCH  10  11
ENDBRANCH   9  10
ENDBRANCH   4   9
TORSDOF 3
ENDMDL
MODEL       23
REMARK 921   NORMALIZED FREE ENERGY PREDICTED BY IDOCK:   -5.49 KCAL/MOL
REMARK 922        TOTAL FREE ENERGY PREDICTED BY IDOCK:   -6.69 KCAL/MOL
REMARK 923 INTER-LIGAND FREE ENERGY PREDICTED BY IDOCK:   -6.45 KCAL/MOL
REMARK 924 INTRA-LIGAND FREE ENERGY PREDICTED BY IDOCK:   -0.24 KCAL/MOL
REMARK 927      BINDING AFFINITY PREDICTED BY RF-SCORE:    0.00 PKD
ROOT
HETATM    1  C   UNL     1      -9.664  19.303  66.479  1.00  0.00    -0.432 C  
HETATM    2  C   UNL     1     -10.112  17.912  66.820  1.00  0.00    -0.349 A  
HETATM    3  C   UNL     1     -10.631  17.601  68.085  1.00  0.00    -0.359 A  
HETATM    4  C   UNL     1     -11.077  16.307  68.378  1.00  0.00    -0.362 A  
HETATM    5  C   UNL     1     -10.022  16.903  65.853  1.00  0.00    -0.274 A  
HETATM    6  C   UNL     1     -10.959  15.309  67.408  1.00  0.00    -0.321 A  
HETATM    7  C   UNL     1     -10.319  14.529  65.093  1.00  0.00    -0.438 C  
HETATM    8  C   UNL     1     -10.435  15.599  66.140  1.00  0.00    -0.327 A  
ENDROOT
BRANCH   4   9
HETATM    9  O   UNL     1     -11.575  16.122  69.645  1.00  0.00    -0.312 OA 
BRANCH   9  10
HETATM   10  C   UNL     1     -12.448  15.000  69.805  1.00  0.00    -0.181 C  
BRANCH  10  11
HETATM   11  C   UNL     1     -13.261  15.140  71.085  1.00  0.00    -0.469 C  
HETATM   12  C   UNL     1     -13.298  13.909  71.965  1.00  0.00    -0.435 C  
HETATM   13  N   UNL     1     -13.429  14.503  73.256  1.00  0.00    -0.493 NA 
HETATM   14  C   UNL     1     -12.917  15.772  73.232  1.00  0.00    -0.565 C  
HETATM   15  O   UNL     1     -12.670  16.450  74.212  1.00  0.00    -0.718 OA 
HETATM   16  O   UNL     1     -12.689  16.151  71.940  1.00  0.00    -0.412 OA 
ENDBRANCH  10  11
ENDBRANCH   9  10
ENDBRANCH   4   9
TORSDOF 3
ENDMDL
MODEL       24
REMARK 921   NORMALIZED FREE ENERGY PREDICTED BY IDOCK:   -5.49 KCAL/MOL
REMARK 922        TOTAL FREE ENERGY PREDICTED BY IDOCK:   -6.69 KCAL/MOL
REMARK 923 INTER-LIGAND FREE ENERGY PREDICTED BY IDOCK:   -6.37 KCAL/MOL
REMARK 924 INTRA-LIGAND FREE ENERGY PREDICTED BY IDOCK:   -0.31 KCAL/MOL
REMARK 927      BINDING AFFINITY PREDICTED BY RF-SCORE:    0.00 PKD
ROOT
HETATM    1  C   UNL     1      -8.779   9.227  70.502  1.00  0.00    -0.276 C  
HETATM    2  C   UNL     1     -10.185   9.741  70.397  1.00  0.00    -0.343 A  
HETATM    3  C   UNL     1     -10.583  10.568  69.336  1.00  0.00    -0.269 A  
HETATM    4  C   UNL     1     -11.906  11.012  69.233  1.00  0.00    -0.340 A  
HETATM    5  C   UNL     1     -11.124   9.380  71.370  1.00  0.00    -0.450 A  
HETATM    6  C   UNL     1     -12.824  10.660  70.225  1.00  0.00    -0.211 A  
HETATM    7  C   UNL     1     -13.431   9.452  72.358  1.00  0.00    -0.506 C  
HETATM    8  C   UNL     1     -12.442   9.841  71.297  1.00  0.00    -0.461 A  
ENDROOT
BRANCH   4   9
HETATM    9  O   UNL     1     -12.183  11.808  68.148  1.00  0.00    -0.507 OA 
BRANCH   9  10
HETATM   10  C   UNL     1     -11.197  12.798  67.844  1.00  0.00    -0.274 C  
BRANCH  10  11
HETATM   11  C   UNL     1     -11.289  13.205  66.379  1.00  0.00    -0.315 C  
HETATM   12  C   UNL     1     -10.239  12.599  65.472  1.00  0.00    -0.281 C  
HETATM   13  N   UNL     1     -10.954  12.526  64.240  1.00  0.00    -0.333 NA 
HETATM   14  C   UNL     1     -12.299  12.465  64.491  1.00  0.00    -0.438 C  
HETATM   15  O   UNL     1     -13.154  12.167  63.679  1.00  0.00    -0.787 OA 
HETATM   16  O   UNL     1     -12.533  12.754  65.805  1.00  0.00    -0.579 OA 
ENDBRANCH  10  11
ENDBRANCH   9  10
ENDBRANCH   4   9
TORSDOF 3
ENDMDL
MODEL       25
REMARK 921   NORMALIZED FREE ENERGY PREDICTED BY IDOCK:   -5.46 KCAL/MOL
REMARK 922        TOTAL FREE ENERGY PREDICTED BY IDOCK:   -6.65 KCAL/MOL
REMARK 923 INTER-LIGAND FREE ENERGY PREDICTED BY IDOCK:   -6.44 KCAL/MOL
REMARK 924 INTRA-LIGAND FREE ENERGY PREDICTED BY IDOCK:   -0.21 KCAL/MOL
REMARK 927      BINDING AFFINITY PREDICTED BY RF-SCORE:    0.00 PKD
ROOT
HETATM    1  C   UNL     1     -10.201   8.118  69.435  1.00  0.00    -0.211 C  
HETATM    2  C   UNL     1     -10.765   9.501  69.571  1.00  0.00    -0.246 A  
HETATM    3  C   UNL     1     -10.386  10.534  68.700  1.00  0.00    -0.201 A  
HETATM    4  C   UNL     1     -10.947  11.810  68.818  1.00  0.00    -0.234 A  
HETATM    5  C   UNL     1     -11.699   9.767  70.579  1.00  0.00    -0.343 A  
HETATM    6  C   UNL     1     -11.860  12.063  69.843  1.00  0.00    -0.405 A  
HETATM    7  C   UNL     1     -13.236  11.313  71.824  1.00  0.00    -0.480 C  
HETATM    8  C   UNL     1     -12.245  11.046  70.728  1.00  0.00    -0.480 A  
ENDROOT
BRANCH   4   9
HETATM    9  O   UNL     1     -10.508  12.739  67.905  1.00  0.00    -0.211 OA 
BRANCH   9  10
HETATM   10  C   UNL     1     -11.477  13.710  67.501  1.00  0.00    -0.329 C  
BRANCH  10  11
HETATM   11  C   UNL     1     -11.452  13.887  65.988  1.00  0.00    -0.340 C  
HETATM   12  C   UNL     1     -12.780  13.687  65.292  1.00  0.00    -0.430 C  
HETATM   13  N   UNL     1     -12.639  14.570  64.180  1.00  0.00    -0.768 NA 
HETATM   14  C   UNL     1     -11.743  15.558  64.488  1.00  0.00    -0.253 C  
HETATM   15  O   UNL     1     -11.578  16.581  63.852  1.00  0.00    -1.175 OA 
HETATM   16  O   UNL     1     -11.088  15.239  65.643  1.00  0.00    -0.334 OA 
ENDBRANCH  10  11
ENDBRANCH   9  10
ENDBRANCH   4   9
TORSDOF 3
ENDMDL
MODEL       26
REMARK 921   NORMALIZED FREE ENERGY PREDICTED BY IDOCK:   -5.41 KCAL/MOL
REMARK 922        TOTAL FREE ENERGY PREDICTED BY IDOCK:   -6.59 KCAL/MOL
REMARK 923 INTER-LIGAND FREE ENERGY PREDICTED BY IDOCK:   -6.32 KCAL/MOL
REMARK 924 INTRA-LIGAND FREE ENERGY PREDICTED BY IDOCK:   -0.27 KCAL/MOL
REMARK 927      BINDING AFFINITY PREDICTED BY RF-SCORE:    0.00 PKD
ROOT
HETATM    1  C   UNL     1      -9.612  19.944  66.462  1.00  0.00    -0.534 C  
HETATM    2  C   UNL     1      -9.518  18.751  67.366  1.00  0.00    -0.324 A  
HETATM    3  C   UNL     1     -10.660  18.028  67.743  1.00  0.00    -0.409 A  
HETATM    4  C   UNL     1     -10.552  16.896  68.558  1.00  0.00    -0.367 A  
HETATM    5  C   UNL     1      -8.264  18.340  67.835  1.00  0.00    -0.261 A  
HETATM    6  C   UNL     1      -9.296  16.513  69.035  1.00  0.00    -0.239 A  
HETATM    7  C   UNL     1      -6.793  16.812  69.177  1.00  0.00    -0.227 C  
HETATM    8  C   UNL     1      -8.145  17.229  68.676  1.00  0.00    -0.261 A  
ENDROOT
BRANCH   4   9
HETATM    9  O   UNL     1     -11.735  16.262  68.855  1.00  0.00    -0.313 OA 
BRANCH   9  10
HETATM   10  C   UNL     1     -11.655  15.248  69.860  1.00  0.00    -0.311 C  
BRANCH  10  11
HETATM   11  C   UNL     1     -12.722  15.472  70.924  1.00  0.00    -0.468 C  
HETATM   12  C   UNL     1     -13.249  14.216  71.584  1.00  0.00    -0.353 C  
HETATM   13  N   UNL     1     -13.578  14.709  72.882  1.00  0.00    -0.562 NA 
HETATM   14  C   UNL     1     -12.816  15.812  73.161  1.00  0.00    -0.522 C  
HETATM   15  O   UNL     1     -12.691  16.322  74.259  1.00  0.00    -0.705 OA 
HETATM   16  O   UNL     1     -12.186  16.234  72.025  1.00  0.00    -0.468 OA 
ENDBRANCH  10  11
ENDBRANCH   9  10
ENDBRANCH   4   9
TORSDOF 3
ENDMDL
MODEL       27
REMARK 921   NORMALIZED FREE ENERGY PREDICTED BY IDOCK:   -5.40 KCAL/MOL
REMARK 922        TOTAL FREE ENERGY PREDICTED BY IDOCK:   -6.58 KCAL/MOL
REMARK 923 INTER-LIGAND FREE ENERGY PREDICTED BY IDOCK:   -6.28 KCAL/MOL
REMARK 924 INTRA-LIGAND FREE ENERGY PREDICTED BY IDOCK:   -0.30 KCAL/MOL
REMARK 927      BINDING AFFINITY PREDICTED BY RF-SCORE:    0.00 PKD
ROOT
HETATM    1  C   UNL     1      -7.561  16.387  68.915  1.00  0.00    -0.220 C  
HETATM    2  C   UNL     1      -8.543  17.007  67.966  1.00  0.00    -0.217 A  
HETATM    3  C   UNL     1      -9.249  16.231  67.034  1.00  0.00    -0.230 A  
HETATM    4  C   UNL     1     -10.188  16.819  66.179  1.00  0.00    -0.351 A  
HETATM    5  C   UNL     1      -8.772  18.388  68.017  1.00  0.00    -0.302 A  
HETATM    6  C   UNL     1     -10.387  18.200  66.229  1.00  0.00    -0.407 A  
HETATM    7  C   UNL     1      -9.907  20.477  67.211  1.00  0.00    -0.581 C  
HETATM    8  C   UNL     1      -9.685  18.993  67.148  1.00  0.00    -0.372 A  
ENDROOT
BRANCH   4   9
HETATM    9  O   UNL     1     -10.825  15.961  65.315  1.00  0.00    -0.388 OA 
BRANCH   9  10
HETATM   10  C   UNL     1     -10.091  14.783  64.966  1.00  0.00    -0.273 C  
BRANCH  10  11
HETATM   11  C   UNL     1     -10.972  13.549  65.110  1.00  0.00    -0.320 C  
HETATM   12  C   UNL     1     -12.343  13.798  65.700  1.00  0.00    -0.482 C  
HETATM   13  N   UNL     1     -13.104  12.775  65.060  1.00  0.00    -0.770 NA 
HETATM   14  C   UNL     1     -12.507  12.429  63.878  1.00  0.00    -0.476 C  
HETATM   15  O   UNL     1     -13.020  11.762  62.999  1.00  0.00    -0.487 OA 
HETATM   16  O   UNL     1     -11.258  12.978  63.817  1.00  0.00    -0.406 OA 
ENDBRANCH  10  11
ENDBRANCH   9  10
ENDBRANCH   4   9
TORSDOF 3
ENDMDL
MODEL       28
REMARK 921   NORMALIZED FREE ENERGY PREDICTED BY IDOCK:   -5.36 KCAL/MOL
REMARK 922        TOTAL FREE ENERGY PREDICTED BY IDOCK:   -6.53 KCAL/MOL
REMARK 923 INTER-LIGAND FREE ENERGY PREDICTED BY IDOCK:   -6.19 KCAL/MOL
REMARK 924 INTRA-LIGAND FREE ENERGY PREDICTED BY IDOCK:   -0.34 KCAL/MOL
REMARK 927      BINDING AFFINITY PREDICTED BY RF-SCORE:    0.00 PKD
ROOT
HETATM    1  C   UNL     1     -10.331  20.117  67.353  1.00  0.00    -0.488 C  
HETATM    2  C   UNL     1      -9.637  18.827  67.029  1.00  0.00    -0.329 A  
HETATM    3  C   UNL     1     -10.309  17.597  67.104  1.00  0.00    -0.343 A  
HETATM    4  C   UNL     1      -9.659  16.405  66.765  1.00  0.00    -0.248 A  
HETATM    5  C   UNL     1      -8.294  18.848  66.633  1.00  0.00    -0.304 A  
HETATM    6  C   UNL     1      -8.314  16.443  66.393  1.00  0.00    -0.363 A  
HETATM    7  C   UNL     1      -6.180  17.705  65.910  1.00  0.00    -0.203 C  
HETATM    8  C   UNL     1      -7.623  17.661  66.322  1.00  0.00    -0.334 A  
ENDROOT
BRANCH   4   9
HETATM    9  O   UNL     1     -10.419  15.265  66.866  1.00  0.00    -0.277 OA 
BRANCH   9  10
HETATM   10  C   UNL     1      -9.733  14.042  66.582  1.00  0.00    -0.289 C  
BRANCH  10  11
HETATM   11  C   UNL     1     -10.581  13.157  65.677  1.00  0.00    -0.277 C  
HETATM   12  C   UNL     1     -11.946  12.797  66.222  1.00  0.00    -0.395 C  
HETATM   13  N   UNL     1     -12.694  12.667  65.014  1.00  0.00    -0.771 NA 
HETATM   14  C   UNL     1     -12.112  13.419  64.030  1.00  0.00    -0.449 C  
HETATM   15  O   UNL     1     -12.626  13.703  62.964  1.00  0.00    -0.729 OA 
HETATM   16  O   UNL     1     -10.878  13.836  64.440  1.00  0.00    -0.395 OA 
ENDBRANCH  10  11
ENDBRANCH   9  10
ENDBRANCH   4   9
TORSDOF 3
ENDMDL
MODEL       29
REMARK 921   NORMALIZED FREE ENERGY PREDICTED BY IDOCK:   -5.36 KCAL/MOL
REMARK 922        TOTAL FREE ENERGY PREDICTED BY IDOCK:   -6.53 KCAL/MOL
REMARK 923 INTER-LIGAND FREE ENERGY PREDICTED BY IDOCK:   -6.32 KCAL/MOL
REMARK 924 INTRA-LIGAND FREE ENERGY PREDICTED BY IDOCK:   -0.21 KCAL/MOL
REMARK 927      BINDING AFFINITY PREDICTED BY RF-SCORE:    0.00 PKD
ROOT
HETATM    1  C   UNL     1     -11.224  13.704  68.722  1.00  0.00    -0.314 C  
HETATM    2  C   UNL     1     -12.039  13.445  69.954  1.00  0.00    -0.389 A  
HETATM    3  C   UNL     1     -12.228  12.145  70.446  1.00  0.00    -0.378 A  
HETATM    4  C   UNL     1     -12.962  11.922  71.616  1.00  0.00    -0.342 A  
HETATM    5  C   UNL     1     -12.616  14.523  70.637  1.00  0.00    -0.416 A  
HETATM    6  C   UNL     1     -13.549  13.007  72.271  1.00  0.00    -0.643 A  
HETATM    7  C   UNL     1     -13.998  15.481  72.500  1.00  0.00    -0.646 C  
HETATM    8  C   UNL     1     -13.379  14.313  71.790  1.00  0.00    -0.450 A  
ENDROOT
BRANCH   4   9
HETATM    9  O   UNL     1     -13.072  10.610  72.008  1.00  0.00    -0.481 OA 
BRANCH   9  10
HETATM   10  C   UNL     1     -12.021   9.746  71.568  1.00  0.00    -0.407 C  
BRANCH  10  11
HETATM   11  C   UNL     1     -12.222   8.342  72.123  1.00  0.00    -0.364 C  
HETATM   12  C   UNL     1     -12.122   7.225  71.106  1.00  0.00    -0.340 C  
HETATM   13  N   UNL     1     -11.624   6.163  71.918  1.00  0.00    -0.308 NA 
HETATM   14  C   UNL     1     -10.949   6.681  72.990  1.00  0.00    -0.247 C  
HETATM   15  O   UNL     1     -10.219   6.053  73.734  1.00  0.00    -0.205 OA 
HETATM   16  O   UNL     1     -11.190   8.023  73.079  1.00  0.00    -0.388 OA 
ENDBRANCH  10  11
ENDBRANCH   9  10
ENDBRANCH   4   9
TORSDOF 3
ENDMDL
MODEL       30
REMARK 921   NORMALIZED FREE ENERGY PREDICTED BY IDOCK:   -5.36 KCAL/MOL
REMARK 922        TOTAL FREE ENERGY PREDICTED BY IDOCK:   -6.53 KCAL/MOL
REMARK 923 INTER-LIGAND FREE ENERGY PREDICTED BY IDOCK:   -6.31 KCAL/MOL
REMARK 924 INTRA-LIGAND FREE ENERGY PREDICTED BY IDOCK:   -0.22 KCAL/MOL
REMARK 927      BINDING AFFINITY PREDICTED BY RF-SCORE:    0.00 PKD
ROOT
HETATM    1  C   UNL     1     -14.018  15.589  72.531  1.00  0.00    -0.646 C  
HETATM    2  C   UNL     1     -13.368  14.430  71.834  1.00  0.00    -0.456 A  
HETATM    3  C   UNL     1     -13.565  13.111  72.269  1.00  0.00    -0.677 A  
HETATM    4  C   UNL     1     -12.980  12.038  71.588  1.00  0.00    -0.334 A  
HETATM    5  C   UNL     1     -12.557  14.666  70.717  1.00  0.00    -0.415 A  
HETATM    6  C   UNL     1     -12.156  12.294  70.490  1.00  0.00    -0.371 A  
HETATM    7  C   UNL     1     -11.065  13.882  68.857  1.00  0.00    -0.296 C  
HETATM    8  C   UNL     1     -11.941  13.606  70.045  1.00  0.00    -0.413 A  
ENDROOT
BRANCH   4   9
HETATM    9  O   UNL     1     -13.250  10.791  72.099  1.00  0.00    -0.473 OA 
BRANCH   9  10
HETATM   10  C   UNL     1     -12.796   9.690  71.306  1.00  0.00    -0.350 C  
BRANCH  10  11
HETATM   11  C   UNL     1     -12.586   8.460  72.179  1.00  0.00    -0.364 C  
HETATM   12  C   UNL     1     -12.790   7.132  71.483  1.00  0.00    -0.391 C  
HETATM   13  N   UNL     1     -11.881   6.304  72.207  1.00  0.00    -0.306 NA 
HETATM   14  C   UNL     1     -10.886   7.074  72.745  1.00  0.00    -0.288 C  
HETATM   15  O   UNL     1      -9.846   6.653  73.216  1.00  0.00    -0.161 OA 
HETATM   16  O   UNL     1     -11.221   8.395  72.640  1.00  0.00    -0.369 OA 
ENDBRANCH  10  11
ENDBRANCH   9  10
ENDBRANCH   4   9
TORSDOF 3
ENDMDL
MODEL       31
REMARK 921   NORMALIZED FREE ENERGY PREDICTED BY IDOCK:   -5.34 KCAL/MOL
REMARK 922        TOTAL FREE ENERGY PREDICTED BY IDOCK:   -6.51 KCAL/MOL
REMARK 923 INTER-LIGAND FREE ENERGY PREDICTED BY IDOCK:   -6.20 KCAL/MOL
REMARK 924 INTRA-LIGAND FREE ENERGY PREDICTED BY IDOCK:   -0.31 KCAL/MOL
REMARK 927      BINDING AFFINITY PREDICTED BY RF-SCORE:    0.00 PKD
ROOT
HETATM    1  C   UNL     1     -11.378  12.563  68.366  1.00  0.00    -0.333 C  
HETATM    2  C   UNL     1     -11.384  13.146  66.983  1.00  0.00    -0.349 A  
HETATM    3  C   UNL     1     -10.903  14.440  66.734  1.00  0.00    -0.301 A  
HETATM    4  C   UNL     1     -10.883  14.957  65.434  1.00  0.00    -0.369 A  
HETATM    5  C   UNL     1     -11.869  12.380  65.915  1.00  0.00    -0.467 A  
HETATM    6  C   UNL     1     -11.390  14.188  64.385  1.00  0.00    -0.310 A  
HETATM    7  C   UNL     1     -12.419  12.063  63.487  1.00  0.00    -0.654 C  
HETATM    8  C   UNL     1     -11.884  12.896  64.616  1.00  0.00    -0.422 A  
ENDROOT
BRANCH   4   9
HETATM    9  O   UNL     1     -10.380  16.230  65.308  1.00  0.00    -0.552 OA 
BRANCH   9  10
HETATM   10  C   UNL     1      -9.274  16.542  66.159  1.00  0.00    -0.303 C  
BRANCH  10  11
HETATM   11  C   UNL     1      -9.313  18.010  66.562  1.00  0.00    -0.285 C  
HETATM   12  C   UNL     1     -10.612  18.727  66.266  1.00  0.00    -0.369 C  
HETATM   13  N   UNL     1     -10.634  19.693  67.316  1.00  0.00    -0.471 NA 
HETATM   14  C   UNL     1      -9.893  19.239  68.374  1.00  0.00    -0.414 C  
HETATM   15  O   UNL     1      -9.902  19.713  69.494  1.00  0.00    -0.326 OA 
HETATM   16  O   UNL     1      -9.168  18.146  67.991  1.00  0.00    -0.267 OA 
ENDBRANCH  10  11
ENDBRANCH   9  10
ENDBRANCH   4   9
TORSDOF 3
ENDMDL
MODEL       32
REMARK 921   NORMALIZED FREE ENERGY PREDICTED BY IDOCK:   -5.33 KCAL/MOL
REMARK 922        TOTAL FREE ENERGY PREDICTED BY IDOCK:   -6.50 KCAL/MOL
REMARK 923 INTER-LIGAND FREE ENERGY PREDICTED BY IDOCK:   -6.21 KCAL/MOL
REMARK 924 INTRA-LIGAND FREE ENERGY PREDICTED BY IDOCK:   -0.29 KCAL/MOL
REMARK 927      BINDING AFFINITY PREDICTED BY RF-SCORE:    0.00 PKD
ROOT
HETATM    1  C   UNL     1     -13.992  15.485  72.470  1.00  0.00    -0.646 C  
HETATM    2  C   UNL     1     -13.375  14.347  71.711  1.00  0.00    -0.446 A  
HETATM    3  C   UNL     1     -12.604  14.569  70.560  1.00  0.00    -0.413 A  
HETATM    4  C   UNL     1     -12.007  13.500  69.883  1.00  0.00    -0.348 A  
HETATM    5  C   UNL     1     -13.562  13.035  72.166  1.00  0.00    -0.618 A  
HETATM    6  C   UNL     1     -12.221  12.197  70.338  1.00  0.00    -0.378 A  
HETATM    7  C   UNL     1     -13.218  10.556  71.978  1.00  0.00    -0.483 C  
HETATM    8  C   UNL     1     -12.996  11.955  71.481  1.00  0.00    -0.427 A  
ENDROOT
BRANCH   4   9
HETATM    9  O   UNL     1     -11.267  13.837  68.775  1.00  0.00    -0.244 OA 
BRANCH   9  10
HETATM   10  C   UNL     1     -11.969  13.796  67.530  1.00  0.00    -0.376 C  
BRANCH  10  11
HETATM   11  C   UNL     1     -11.418  12.683  66.648  1.00  0.00    -0.351 C  
HETATM   12  C   UNL     1      -9.909  12.628  66.544  1.00  0.00    -0.256 C  
HETATM   13  N   UNL     1      -9.701  11.230  66.350  1.00  0.00    -0.203 NA 
HETATM   14  C   UNL     1     -10.752  10.531  66.881  1.00  0.00    -0.219 C  
HETATM   15  O   UNL     1     -10.769   9.331  67.082  1.00  0.00    -0.251 OA 
HETATM   16  O   UNL     1     -11.768  11.391  67.186  1.00  0.00    -0.556 OA 
ENDBRANCH  10  11
ENDBRANCH   9  10
ENDBRANCH   4   9
TORSDOF 3
ENDMDL
MODEL       33
REMARK 921   NORMALIZED FREE ENERGY PREDICTED BY IDOCK:   -5.32 KCAL/MOL
REMARK 922        TOTAL FREE ENERGY PREDICTED BY IDOCK:   -6.48 KCAL/MOL
REMARK 923 INTER-LIGAND FREE ENERGY PREDICTED BY IDOCK:   -6.24 KCAL/MOL
REMARK 924 INTRA-LIGAND FREE ENERGY PREDICTED BY IDOCK:   -0.25 KCAL/MOL
REMARK 927      BINDING AFFINITY PREDICTED BY RF-SCORE:    0.00 PKD
ROOT
HETATM    1  C   UNL     1      -6.031  17.846  65.944  1.00  0.00    -0.243 C  
HETATM    2  C   UNL     1      -7.486  18.014  66.266  1.00  0.00    -0.312 A  
HETATM    3  C   UNL     1      -8.387  16.943  66.159  1.00  0.00    -0.286 A  
HETATM    4  C   UNL     1      -9.735  17.106  66.496  1.00  0.00    -0.287 A  
HETATM    5  C   UNL     1      -7.957  19.261  66.694  1.00  0.00    -0.288 A  
HETATM    6  C   UNL     1     -10.191  18.362  66.900  1.00  0.00    -0.403 A  
HETATM    7  C   UNL     1      -9.795  20.795  67.450  1.00  0.00    -0.435 C  
HETATM    8  C   UNL     1      -9.308  19.447  67.004  1.00  0.00    -0.393 A  
ENDROOT
BRANCH   4   9
HETATM    9  O   UNL     1     -10.521  15.986  66.362  1.00  0.00    -0.301 OA 
BRANCH   9  10
HETATM   10  C   UNL     1     -10.026  14.992  65.461  1.00  0.00    -0.356 C  
BRANCH  10  11
HETATM   11  C   UNL     1     -10.908  13.751  65.506  1.00  0.00    -0.299 C  
HETATM   12  C   UNL     1     -12.351  13.997  65.888  1.00  0.00    -0.486 C  
HETATM   13  N   UNL     1     -13.004  12.951  65.170  1.00  0.00    -0.769 NA 
HETATM   14  C   UNL     1     -12.242  12.587  64.093  1.00  0.00    -0.467 C  
HETATM   15  O   UNL     1     -12.618  11.896  63.166  1.00  0.00    -0.530 OA 
HETATM   16  O   UNL     1     -11.001  13.149  64.198  1.00  0.00    -0.381 OA 
ENDBRANCH  10  11
ENDBRANCH   9  10
ENDBRANCH   4   9
TORSDOF 3
ENDMDL
MODEL       34
REMARK 921   NORMALIZED FREE ENERGY PREDICTED BY IDOCK:   -5.31 KCAL/MOL
REMARK 922        TOTAL FREE ENERGY PREDICTED BY IDOCK:   -6.47 KCAL/MOL
REMARK 923 INTER-LIGAND FREE ENERGY PREDICTED BY IDOCK:   -6.22 KCAL/MOL
REMARK 924 INTRA-LIGAND FREE ENERGY PREDICTED BY IDOCK:   -0.25 KCAL/MOL
REMARK 927      BINDING AFFINITY PREDICTED BY RF-SCORE:    0.00 PKD
ROOT
HETATM    1  C   UNL     1      -6.743  19.389  68.777  1.00  0.00    -0.338 C  
HETATM    2  C   UNL     1      -8.061  18.889  68.263  1.00  0.00    -0.353 A  
HETATM    3  C   UNL     1      -8.588  17.657  68.680  1.00  0.00    -0.264 A  
HETATM    4  C   UNL     1      -9.834  17.219  68.218  1.00  0.00    -0.304 A  
HETATM    5  C   UNL     1      -8.788  19.671  67.358  1.00  0.00    -0.376 A  
HETATM    6  C   UNL     1     -10.535  18.002  67.299  1.00  0.00    -0.390 A  
HETATM    7  C   UNL     1     -10.779  20.081  65.885  1.00  0.00    -0.379 C  
HETATM    8  C   UNL     1     -10.021  19.232  66.864  1.00  0.00    -0.443 A  
ENDROOT
BRANCH   4   9
HETATM    9  O   UNL     1     -10.254  16.003  68.701  1.00  0.00    -0.218 OA 
BRANCH   9  10
HETATM   10  C   UNL     1     -11.462  15.497  68.127  1.00  0.00    -0.326 C  
BRANCH  10  11
HETATM   11  C   UNL     1     -11.168  14.277  67.264  1.00  0.00    -0.318 C  
HETATM   12  C   UNL     1     -11.451  12.941  67.915  1.00  0.00    -0.318 C  
HETATM   13  N   UNL     1     -11.798  12.153  66.778  1.00  0.00    -0.606 NA 
HETATM   14  C   UNL     1     -12.268  12.965  65.781  1.00  0.00    -0.439 C  
HETATM   15  O   UNL     1     -12.855  12.588  64.784  1.00  0.00    -0.755 OA 
HETATM   16  O   UNL     1     -12.012  14.270  66.094  1.00  0.00    -0.391 OA 
ENDBRANCH  10  11
ENDBRANCH   9  10
ENDBRANCH   4   9
TORSDOF 3
ENDMDL
MODEL       35
REMARK 921   NORMALIZED FREE ENERGY PREDICTED BY IDOCK:   -5.30 KCAL/MOL
REMARK 922        TOTAL FREE ENERGY PREDICTED BY IDOCK:   -6.46 KCAL/MOL
REMARK 923 INTER-LIGAND FREE ENERGY PREDICTED BY IDOCK:   -6.23 KCAL/MOL
REMARK 924 INTRA-LIGAND FREE ENERGY PREDICTED BY IDOCK:   -0.23 KCAL/MOL
REMARK 927      BINDING AFFINITY PREDICTED BY RF-SCORE:    0.00 PKD
ROOT
HETATM    1  C   UNL     1      -9.427   8.259  67.354  1.00  0.00    -0.188 C  
HETATM    2  C   UNL     1     -10.270   9.218  68.141  1.00  0.00    -0.246 A  
HETATM    3  C   UNL     1     -10.817  10.367  67.548  1.00  0.00    -0.358 A  
HETATM    4  C   UNL     1     -11.630  11.234  68.286  1.00  0.00    -0.300 A  
HETATM    5  C   UNL     1     -10.528   8.959  69.493  1.00  0.00    -0.229 A  
HETATM    6  C   UNL     1     -11.859  10.971  69.639  1.00  0.00    -0.414 A  
HETATM    7  C   UNL     1     -11.567   9.543  71.702  1.00  0.00    -0.451 C  
HETATM    8  C   UNL     1     -11.313   9.834  70.251  1.00  0.00    -0.333 A  
ENDROOT
BRANCH   4   9
HETATM    9  O   UNL     1     -12.119  12.320  67.600  1.00  0.00    -0.502 OA 
BRANCH   9  10
HETATM   10  C   UNL     1     -11.393  12.679  66.421  1.00  0.00    -0.331 C  
BRANCH  10  11
HETATM   11  C   UNL     1     -11.260  14.193  66.322  1.00  0.00    -0.329 C  
HETATM   12  C   UNL     1      -9.843  14.711  66.203  1.00  0.00    -0.312 C  
HETATM   13  N   UNL     1     -10.050  15.895  65.435  1.00  0.00    -0.451 NA 
HETATM   14  C   UNL     1     -11.197  15.770  64.698  1.00  0.00    -0.363 C  
HETATM   15  O   UNL     1     -11.527  16.497  63.780  1.00  0.00    -1.065 OA 
HETATM   16  O   UNL     1     -11.901  14.680  65.125  1.00  0.00    -0.363 OA 
ENDBRANCH  10  11
ENDBRANCH   9  10
ENDBRANCH   4   9
TORSDOF 3
ENDMDL
MODEL       36
REMARK 921   NORMALIZED FREE ENERGY PREDICTED BY IDOCK:   -5.30 KCAL/MOL
REMARK 922        TOTAL FREE ENERGY PREDICTED BY IDOCK:   -6.46 KCAL/MOL
REMARK 923 INTER-LIGAND FREE ENERGY PREDICTED BY IDOCK:   -6.05 KCAL/MOL
REMARK 924 INTRA-LIGAND FREE ENERGY PREDICTED BY IDOCK:   -0.40 KCAL/MOL
REMARK 927      BINDING AFFINITY PREDICTED BY RF-SCORE:    0.00 PKD
ROOT
HETATM    1  C   UNL     1     -11.187  10.897  68.980  1.00  0.00    -0.327 C  
HETATM    2  C   UNL     1     -11.499  12.081  68.113  1.00  0.00    -0.383 A  
HETATM    3  C   UNL     1     -11.520  13.383  68.635  1.00  0.00    -0.345 A  
HETATM    4  C   UNL     1     -11.778  14.481  67.807  1.00  0.00    -0.374 A  
HETATM    5  C   UNL     1     -11.762  11.887  66.751  1.00  0.00    -0.281 A  
HETATM    6  C   UNL     1     -12.060  14.267  66.456  1.00  0.00    -0.454 A  
HETATM    7  C   UNL     1     -12.344  12.741  64.464  1.00  0.00    -0.515 C  
HETATM    8  C   UNL     1     -12.052  12.972  65.918  1.00  0.00    -0.503 A  
ENDROOT
BRANCH   4   9
HETATM    9  O   UNL     1     -11.764  15.709  68.425  1.00  0.00    -0.367 OA 
BRANCH   9  10
HETATM   10  C   UNL     1     -10.514  16.089  69.008  1.00  0.00    -0.246 C  
BRANCH  10  11
HETATM   11  C   UNL     1      -9.824  17.136  68.144  1.00  0.00    -0.281 C  
HETATM   12  C   UNL     1      -8.955  16.587  67.033  1.00  0.00    -0.204 C  
HETATM   13  N   UNL     1      -9.077  17.621  66.057  1.00  0.00    -0.514 NA 
HETATM   14  C   UNL     1     -10.253  18.295  66.246  1.00  0.00    -0.401 C  
HETATM   15  O   UNL     1     -10.756  19.068  65.453  1.00  0.00    -0.520 OA 
HETATM   16  O   UNL     1     -10.799  17.939  67.446  1.00  0.00    -0.339 OA 
ENDBRANCH  10  11
ENDBRANCH   9  10
ENDBRANCH   4   9
TORSDOF 3
ENDMDL
MODEL       37
REMARK 921   NORMALIZED FREE ENERGY PREDICTED BY IDOCK:   -5.29 KCAL/MOL
REMARK 922        TOTAL FREE ENERGY PREDICTED BY IDOCK:   -6.45 KCAL/MOL
REMARK 923 INTER-LIGAND FREE ENERGY PREDICTED BY IDOCK:   -6.22 KCAL/MOL
REMARK 924 INTRA-LIGAND FREE ENERGY PREDICTED BY IDOCK:   -0.23 KCAL/MOL
REMARK 927      BINDING AFFINITY PREDICTED BY RF-SCORE:    0.00 PKD
ROOT
HETATM    1  C   UNL     1     -11.118  16.278  69.702  1.00  0.00    -0.333 C  
HETATM    2  C   UNL     1     -11.795  15.513  70.801  1.00  0.00    -0.406 A  
HETATM    3  C   UNL     1     -12.379  14.259  70.566  1.00  0.00    -0.430 A  
HETATM    4  C   UNL     1     -12.975  13.541  71.609  1.00  0.00    -0.359 A  
HETATM    5  C   UNL     1     -11.836  16.053  72.092  1.00  0.00    -0.623 A  
HETATM    6  C   UNL     1     -13.026  14.105  72.885  1.00  0.00    -0.498 A  
HETATM    7  C   UNL     1     -12.500  15.964  74.511  1.00  0.00    -0.734 C  
HETATM    8  C   UNL     1     -12.456  15.362  73.137  1.00  0.00    -0.572 A  
ENDROOT
BRANCH   4   9
HETATM    9  O   UNL     1     -13.505  12.321  71.264  1.00  0.00     0.042 OA 
BRANCH   9  10
HETATM   10  C   UNL     1     -13.074  11.215  72.062  1.00  0.00    -0.328 C  
BRANCH  10  11
HETATM   11  C   UNL     1     -12.782  10.008  71.181  1.00  0.00    -0.387 C  
HETATM   12  C   UNL     1     -11.329   9.818  70.806  1.00  0.00    -0.342 C  
HETATM   13  N   UNL     1     -11.263   8.398  70.684  1.00  0.00    -0.258 NA 
HETATM   14  C   UNL     1     -12.242   7.825  71.450  1.00  0.00    -0.319 C  
HETATM   15  O   UNL     1     -12.308   6.646  71.742  1.00  0.00    -0.345 OA 
HETATM   16  O   UNL     1     -13.117   8.786  71.870  1.00  0.00    -0.333 OA 
ENDBRANCH  10  11
ENDBRANCH   9  10
ENDBRANCH   4   9
TORSDOF 3
ENDMDL
MODEL       38
REMARK 921   NORMALIZED FREE ENERGY PREDICTED BY IDOCK:   -5.29 KCAL/MOL
REMARK 922        TOTAL FREE ENERGY PREDICTED BY IDOCK:   -6.45 KCAL/MOL
REMARK 923 INTER-LIGAND FREE ENERGY PREDICTED BY IDOCK:   -6.06 KCAL/MOL
REMARK 924 INTRA-LIGAND FREE ENERGY PREDICTED BY IDOCK:   -0.39 KCAL/MOL
REMARK 927      BINDING AFFINITY PREDICTED BY RF-SCORE:    0.00 PKD
ROOT
HETATM    1  C   UNL     1     -10.584  19.965  65.526  1.00  0.00    -0.341 C  
HETATM    2  C   UNL     1      -9.950  19.073  66.552  1.00  0.00    -0.437 A  
HETATM    3  C   UNL     1     -10.450  17.788  66.812  1.00  0.00    -0.300 A  
HETATM    4  C   UNL     1      -9.827  16.953  67.746  1.00  0.00    -0.252 A  
HETATM    5  C   UNL     1      -8.829  19.524  67.258  1.00  0.00    -0.358 A  
HETATM    6  C   UNL     1      -8.723  17.429  68.457  1.00  0.00    -0.277 A  
HETATM    7  C   UNL     1      -7.020  19.221  68.972  1.00  0.00    -0.381 C  
HETATM    8  C   UNL     1      -8.214  18.714  68.217  1.00  0.00    -0.349 A  
ENDROOT
BRANCH   4   9
HETATM    9  O   UNL     1     -10.398  15.714  67.911  1.00  0.00    -0.249 OA 
BRANCH   9  10
HETATM   10  C   UNL     1      -9.750  14.642  67.221  1.00  0.00    -0.231 C  
BRANCH  10  11
HETATM   11  C   UNL     1     -10.719  13.970  66.257  1.00  0.00    -0.289 C  
HETATM   12  C   UNL     1     -12.126  13.782  66.783  1.00  0.00    -0.418 C  
HETATM   13  N   UNL     1     -12.880  13.861  65.575  1.00  0.00    -0.669 NA 
HETATM   14  C   UNL     1     -12.185  14.589  64.646  1.00  0.00    -0.460 C  
HETATM   15  O   UNL     1     -12.645  15.030  63.610  1.00  0.00    -0.680 OA 
HETATM   16  O   UNL     1     -10.904  14.779  65.078  1.00  0.00    -0.372 OA 
ENDBRANCH  10  11
ENDBRANCH   9  10
ENDBRANCH   4   9
TORSDOF 3
ENDMDL
MODEL       39
REMARK 921   NORMALIZED FREE ENERGY PREDICTED BY IDOCK:   -5.27 KCAL/MOL
REMARK 922        TOTAL FREE ENERGY PREDICTED BY IDOCK:   -6.43 KCAL/MOL
REMARK 923 INTER-LIGAND FREE ENERGY PREDICTED BY IDOCK:   -6.05 KCAL/MOL
REMARK 924 INTRA-LIGAND FREE ENERGY PREDICTED BY IDOCK:   -0.38 KCAL/MOL
REMARK 927      BINDING AFFINITY PREDICTED BY RF-SCORE:    0.00 PKD
ROOT
HETATM    1  C   UNL     1     -10.681   8.968  71.641  1.00  0.00    -0.441 C  
HETATM    2  C   UNL     1     -10.718   9.275  70.172  1.00  0.00    -0.269 A  
HETATM    3  C   UNL     1     -11.413  10.387  69.675  1.00  0.00    -0.326 A  
HETATM    4  C   UNL     1     -11.410  10.680  68.307  1.00  0.00    -0.289 A  
HETATM    5  C   UNL     1     -10.034   8.442  69.278  1.00  0.00    -0.195 A  
HETATM    6  C   UNL     1     -10.741   9.826  67.427  1.00  0.00    -0.314 A  
HETATM    7  C   UNL     1      -9.318   7.791  66.962  1.00  0.00    -0.196 C  
HETATM    8  C   UNL     1     -10.048   8.704  67.905  1.00  0.00    -0.254 A  
ENDROOT
BRANCH   4   9
HETATM    9  O   UNL     1     -12.116  11.799  67.936  1.00  0.00    -0.592 OA 
BRANCH   9  10
HETATM   10  C   UNL     1     -11.326  12.954  67.640  1.00  0.00    -0.303 C  
BRANCH  10  11
HETATM   11  C   UNL     1     -11.591  13.427  66.217  1.00  0.00    -0.344 C  
HETATM   12  C   UNL     1     -10.423  13.295  65.264  1.00  0.00    -0.313 C  
HETATM   13  N   UNL     1     -11.103  13.086  64.028  1.00  0.00    -0.396 NA 
HETATM   14  C   UNL     1     -12.338  12.548  64.268  1.00  0.00    -0.456 C  
HETATM   15  O   UNL     1     -13.062  12.045  63.429  1.00  0.00    -0.747 OA 
HETATM   16  O   UNL     1     -12.622  12.627  65.602  1.00  0.00    -0.611 OA 
ENDBRANCH  10  11
ENDBRANCH   9  10
ENDBRANCH   4   9
TORSDOF 3
ENDMDL
MODEL       40
REMARK 921   NORMALIZED FREE ENERGY PREDICTED BY IDOCK:   -5.25 KCAL/MOL
REMARK 922        TOTAL FREE ENERGY PREDICTED BY IDOCK:   -6.40 KCAL/MOL
REMARK 923 INTER-LIGAND FREE ENERGY PREDICTED BY IDOCK:   -6.08 KCAL/MOL
REMARK 924 INTRA-LIGAND FREE ENERGY PREDICTED BY IDOCK:   -0.32 KCAL/MOL
REMARK 927      BINDING AFFINITY PREDICTED BY RF-SCORE:    0.00 PKD
ROOT
HETATM    1  C   UNL     1      -9.577   7.968  66.707  1.00  0.00    -0.281 C  
HETATM    2  C   UNL     1     -10.144   8.830  67.796  1.00  0.00    -0.261 A  
HETATM    3  C   UNL     1     -10.909   9.970  67.502  1.00  0.00    -0.326 A  
HETATM    4  C   UNL     1     -11.461  10.745  68.528  1.00  0.00    -0.292 A  
HETATM    5  C   UNL     1      -9.918   8.487  69.134  1.00  0.00    -0.194 A  
HETATM    6  C   UNL     1     -11.206  10.399  69.857  1.00  0.00    -0.371 A  
HETATM    7  C   UNL     1     -10.173   8.890  71.598  1.00  0.00    -0.415 C  
HETATM    8  C   UNL     1     -10.437   9.269  70.170  1.00  0.00    -0.265 A  
ENDROOT
BRANCH   4   9
HETATM    9  O   UNL     1     -12.199  11.830  68.122  1.00  0.00    -0.507 OA 
BRANCH   9  10
HETATM   10  C   UNL     1     -11.440  12.958  67.677  1.00  0.00    -0.334 C  
BRANCH  10  11
HETATM   11  C   UNL     1     -12.020  13.509  66.381  1.00  0.00    -0.414 C  
HETATM   12  C   UNL     1     -11.028  14.200  65.472  1.00  0.00    -0.310 C  
HETATM   13  N   UNL     1     -11.599  13.932  64.193  1.00  0.00    -0.340 NA 
HETATM   14  C   UNL     1     -12.362  12.797  64.259  1.00  0.00    -0.416 C  
HETATM   15  O   UNL     1     -12.790  12.180  63.302  1.00  0.00    -0.735 OA 
HETATM   16  O   UNL     1     -12.540  12.440  65.565  1.00  0.00    -0.616 OA 
ENDBRANCH  10  11
ENDBRANCH   9  10
ENDBRANCH   4   9
TORSDOF 3
ENDMDL
MODEL       41
REMARK 921   NORMALIZED FREE ENERGY PREDICTED BY IDOCK:   -5.22 KCAL/MOL
REMARK 922        TOTAL FREE ENERGY PREDICTED BY IDOCK:   -6.36 KCAL/MOL
REMARK 923 INTER-LIGAND FREE ENERGY PREDICTED BY IDOCK:   -5.99 KCAL/MOL
REMARK 924 INTRA-LIGAND FREE ENERGY PREDICTED BY IDOCK:   -0.37 KCAL/MOL
REMARK 927      BINDING AFFINITY PREDICTED BY RF-SCORE:    0.00 PKD
ROOT
HETATM    1  C   UNL     1     -10.068  10.121  67.749  1.00  0.00    -0.216 C  
HETATM    2  C   UNL     1     -10.822  11.336  67.295  1.00  0.00    -0.317 A  
HETATM    3  C   UNL     1     -11.149  12.369  68.188  1.00  0.00    -0.288 A  
HETATM    4  C   UNL     1     -11.822  13.512  67.743  1.00  0.00    -0.362 A  
HETATM    5  C   UNL     1     -11.200  11.450  65.952  1.00  0.00    -0.172 A  
HETATM    6  C   UNL     1     -12.211  13.598  66.404  1.00  0.00    -0.472 A  
HETATM    7  C   UNL     1     -12.307  12.669  64.058  1.00  0.00    -0.528 C  
HETATM    8  C   UNL     1     -11.901  12.572  65.500  1.00  0.00    -0.491 A  
ENDROOT
BRANCH   4   9
HETATM    9  O   UNL     1     -12.080  14.461  68.702  1.00  0.00    -0.311 OA 
BRANCH   9  10
HETATM   10  C   UNL     1     -11.028  14.684  69.645  1.00  0.00    -0.226 C  
BRANCH  10  11
HETATM   11  C   UNL     1     -11.588  14.742  71.060  1.00  0.00    -0.265 C  
HETATM   12  C   UNL     1     -12.503  15.914  71.345  1.00  0.00    -0.403 C  
HETATM   13  N   UNL     1     -13.371  15.349  72.326  1.00  0.00    -0.410 NA 
HETATM   14  C   UNL     1     -13.408  13.988  72.178  1.00  0.00    -0.453 C  
HETATM   15  O   UNL     1     -14.218  13.245  72.699  1.00  0.00    -0.724 OA 
HETATM   16  O   UNL     1     -12.418  13.593  71.324  1.00  0.00    -0.352 OA 
ENDBRANCH  10  11
ENDBRANCH   9  10
ENDBRANCH   4   9
TORSDOF 3
ENDMDL
MODEL       42
REMARK 921   NORMALIZED FREE ENERGY PREDICTED BY IDOCK:   -5.20 KCAL/MOL
REMARK 922        TOTAL FREE ENERGY PREDICTED BY IDOCK:   -6.34 KCAL/MOL
REMARK 923 INTER-LIGAND FREE ENERGY PREDICTED BY IDOCK:   -6.10 KCAL/MOL
REMARK 924 INTRA-LIGAND FREE ENERGY PREDICTED BY IDOCK:   -0.24 KCAL/MOL
REMARK 927      BINDING AFFINITY PREDICTED BY RF-SCORE:    0.00 PKD
ROOT
HETATM    1  C   UNL     1     -11.829  12.267  68.925  1.00  0.00    -0.355 C  
HETATM    2  C   UNL     1     -11.807  13.540  69.719  1.00  0.00    -0.395 A  
HETATM    3  C   UNL     1     -11.253  14.718  69.196  1.00  0.00    -0.287 A  
HETATM    4  C   UNL     1     -11.271  15.906  69.935  1.00  0.00    -0.348 A  
HETATM    5  C   UNL     1     -12.362  13.559  71.004  1.00  0.00    -0.422 A  
HETATM    6  C   UNL     1     -11.809  15.901  71.224  1.00  0.00    -0.502 A  
HETATM    7  C   UNL     1     -12.949  14.727  73.147  1.00  0.00    -0.623 C  
HETATM    8  C   UNL     1     -12.360  14.731  71.766  1.00  0.00    -0.414 A  
ENDROOT
BRANCH   4   9
HETATM    9  O   UNL     1     -10.709  16.998  69.319  1.00  0.00    -0.323 OA 
BRANCH   9  10
HETATM   10  C   UNL     1     -10.457  16.852  67.919  1.00  0.00    -0.344 C  
BRANCH  10  11
HETATM   11  C   UNL     1      -9.913  18.152  67.340  1.00  0.00    -0.323 C  
HETATM   12  C   UNL     1      -9.046  18.964  68.278  1.00  0.00    -0.323 C  
HETATM   13  N   UNL     1      -8.167  19.601  67.351  1.00  0.00    -0.288 NA 
HETATM   14  C   UNL     1      -8.077  18.849  66.211  1.00  0.00    -0.269 C  
HETATM   15  O   UNL     1      -7.245  18.994  65.336  1.00  0.00    -0.483 OA 
HETATM   16  O   UNL     1      -9.043  17.883  66.221  1.00  0.00    -0.398 OA 
ENDBRANCH  10  11
ENDBRANCH   9  10
ENDBRANCH   4   9
TORSDOF 3
ENDMDL
MODEL       43
REMARK 921   NORMALIZED FREE ENERGY PREDICTED BY IDOCK:   -5.18 KCAL/MOL
REMARK 922        TOTAL FREE ENERGY PREDICTED BY IDOCK:   -6.33 KCAL/MOL
REMARK 923 INTER-LIGAND FREE ENERGY PREDICTED BY IDOCK:   -6.14 KCAL/MOL
REMARK 924 INTRA-LIGAND FREE ENERGY PREDICTED BY IDOCK:   -0.19 KCAL/MOL
REMARK 927      BINDING AFFINITY PREDICTED BY RF-SCORE:    0.00 PKD
ROOT
HETATM    1  C   UNL     1     -14.287   8.771  72.232  1.00  0.00    -0.468 C  
HETATM    2  C   UNL     1     -12.880   9.017  71.773  1.00  0.00    -0.437 A  
HETATM    3  C   UNL     1     -12.590   9.968  70.783  1.00  0.00    -0.372 A  
HETATM    4  C   UNL     1     -11.270  10.211  70.390  1.00  0.00    -0.330 A  
HETATM    5  C   UNL     1     -11.831   8.293  72.352  1.00  0.00    -0.461 A  
HETATM    6  C   UNL     1     -10.238   9.463  70.962  1.00  0.00    -0.369 A  
HETATM    7  C   UNL     1      -9.400   7.707  72.571  1.00  0.00    -0.215 C  
HETATM    8  C   UNL     1     -10.509   8.502  71.947  1.00  0.00    -0.387 A  
ENDROOT
BRANCH   4   9
HETATM    9  O   UNL     1     -11.105  11.170  69.420  1.00  0.00    -0.229 OA 
BRANCH   9  10
HETATM   10  C   UNL     1     -11.218  10.707  68.071  1.00  0.00    -0.307 C  
BRANCH  10  11
HETATM   11  C   UNL     1     -11.020  11.861  67.097  1.00  0.00    -0.269 C  
HETATM   12  C   UNL     1     -10.516  11.469  65.725  1.00  0.00    -0.259 C  
HETATM   13  N   UNL     1     -11.109  12.484  64.917  1.00  0.00    -0.290 NA 
HETATM   14  C   UNL     1     -12.232  12.965  65.534  1.00  0.00    -0.474 C  
HETATM   15  O   UNL     1     -13.080  13.662  65.009  1.00  0.00    -0.742 OA 
HETATM   16  O   UNL     1     -12.278  12.512  66.822  1.00  0.00    -0.532 OA 
ENDBRANCH  10  11
ENDBRANCH   9  10
ENDBRANCH   4   9
TORSDOF 3
ENDMDL
MODEL       44
REMARK 921   NORMALIZED FREE ENERGY PREDICTED BY IDOCK:   -5.18 KCAL/MOL
REMARK 922        TOTAL FREE ENERGY PREDICTED BY IDOCK:   -6.32 KCAL/MOL
REMARK 923 INTER-LIGAND FREE ENERGY PREDICTED BY IDOCK:   -6.09 KCAL/MOL
REMARK 924 INTRA-LIGAND FREE ENERGY PREDICTED BY IDOCK:   -0.24 KCAL/MOL
REMARK 927      BINDING AFFINITY PREDICTED BY RF-SCORE:    0.00 PKD
ROOT
HETATM    1  C   UNL     1     -12.337  12.460  63.466  1.00  0.00    -0.648 C  
HETATM    2  C   UNL     1     -11.917  13.319  64.623  1.00  0.00    -0.440 A  
HETATM    3  C   UNL     1     -11.340  14.582  64.423  1.00  0.00    -0.247 A  
HETATM    4  C   UNL     1     -10.985  15.386  65.512  1.00  0.00    -0.343 A  
HETATM    5  C   UNL     1     -12.115  12.858  65.930  1.00  0.00    -0.503 A  
HETATM    6  C   UNL     1     -11.169  14.901  66.809  1.00  0.00    -0.338 A  
HETATM    7  C   UNL     1     -11.946  13.119  68.421  1.00  0.00    -0.324 C  
HETATM    8  C   UNL     1     -11.736  13.637  67.028  1.00  0.00    -0.419 A  
ENDROOT
BRANCH   4   9
HETATM    9  O   UNL     1     -10.438  16.607  65.197  1.00  0.00    -0.647 OA 
BRANCH   9  10
HETATM   10  C   UNL     1     -10.623  17.635  66.174  1.00  0.00    -0.220 C  
BRANCH  10  11
HETATM   11  C   UNL     1      -9.345  18.448  66.335  1.00  0.00    -0.283 C  
HETATM   12  C   UNL     1      -9.523  19.949  66.275  1.00  0.00    -0.410 C  
HETATM   13  N   UNL     1      -8.465  20.382  67.129  1.00  0.00    -0.337 NA 
HETATM   14  C   UNL     1      -8.155  19.388  68.017  1.00  0.00    -0.310 C  
HETATM   15  O   UNL     1      -7.468  19.522  69.012  1.00  0.00    -0.363 OA 
HETATM   16  O   UNL     1      -8.766  18.227  67.638  1.00  0.00    -0.252 OA 
ENDBRANCH  10  11
ENDBRANCH   9  10
ENDBRANCH   4   9
TORSDOF 3
ENDMDL
MODEL       45
REMARK 921   NORMALIZED FREE ENERGY PREDICTED BY IDOCK:   -5.16 KCAL/MOL
REMARK 922        TOTAL FREE ENERGY PREDICTED BY IDOCK:   -6.30 KCAL/MOL
REMARK 923 INTER-LIGAND FREE ENERGY PREDICTED BY IDOCK:   -6.10 KCAL/MOL
REMARK 924 INTRA-LIGAND FREE ENERGY PREDICTED BY IDOCK:   -0.20 KCAL/MOL
REMARK 927      BINDING AFFINITY PREDICTED BY RF-SCORE:    0.00 PKD
ROOT
HETATM    1  C   UNL     1     -10.087   8.524  70.064  1.00  0.00    -0.195 C  
HETATM    2  C   UNL     1     -10.214   9.185  68.723  1.00  0.00    -0.228 A  
HETATM    3  C   UNL     1     -11.064  10.285  68.529  1.00  0.00    -0.294 A  
HETATM    4  C   UNL     1     -11.146  10.913  67.281  1.00  0.00    -0.283 A  
HETATM    5  C   UNL     1      -9.461   8.706  67.644  1.00  0.00    -0.169 A  
HETATM    6  C   UNL     1     -10.405  10.408  66.211  1.00  0.00    -0.270 A  
HETATM    7  C   UNL     1      -8.750   8.767  65.238  1.00  0.00    -0.216 C  
HETATM    8  C   UNL     1      -9.557   9.304  66.384  1.00  0.00    -0.301 A  
ENDROOT
BRANCH   4   9
HETATM    9  O   UNL     1     -12.003  11.985  67.211  1.00  0.00    -0.591 OA 
BRANCH   9  10
HETATM   10  C   UNL     1     -11.377  13.268  67.126  1.00  0.00    -0.317 C  
BRANCH  10  11
HETATM   11  C   UNL     1     -11.347  13.748  65.681  1.00  0.00    -0.305 C  
HETATM   12  C   UNL     1     -12.683  13.745  64.970  1.00  0.00    -0.336 C  
HETATM   13  N   UNL     1     -12.508  14.829  64.060  1.00  0.00    -0.809 NA 
HETATM   14  C   UNL     1     -11.574  15.700  64.554  1.00  0.00    -0.262 C  
HETATM   15  O   UNL     1     -11.370  16.824  64.138  1.00  0.00    -1.194 OA 
HETATM   16  O   UNL     1     -10.930  15.127  65.614  1.00  0.00    -0.334 OA 
ENDBRANCH  10  11
ENDBRANCH   9  10
ENDBRANCH   4   9
TORSDOF 3
ENDMDL
MODEL       46
REMARK 921   NORMALIZED FREE ENERGY PREDICTED BY IDOCK:   -5.14 KCAL/MOL
REMARK 922        TOTAL FREE ENERGY PREDICTED BY IDOCK:   -6.28 KCAL/MOL
REMARK 923 INTER-LIGAND FREE ENERGY PREDICTED BY IDOCK:   -6.00 KCAL/MOL
REMARK 924 INTRA-LIGAND FREE ENERGY PREDICTED BY IDOCK:   -0.28 KCAL/MOL
REMARK 927      BINDING AFFINITY PREDICTED BY RF-SCORE:    0.00 PKD
ROOT
HETATM    1  C   UNL     1     -12.322  12.134  63.457  1.00  0.00    -0.682 C  
HETATM    2  C   UNL     1     -11.732  12.858  64.631  1.00  0.00    -0.407 A  
HETATM    3  C   UNL     1     -10.925  13.992  64.459  1.00  0.00    -0.361 A  
HETATM    4  C   UNL     1     -10.409  14.678  65.564  1.00  0.00    -0.362 A  
HETATM    5  C   UNL     1     -11.999  12.401  65.927  1.00  0.00    -0.434 A  
HETATM    6  C   UNL     1     -10.668  14.195  66.849  1.00  0.00    -0.286 A  
HETATM    7  C   UNL     1     -11.754  12.543  68.421  1.00  0.00    -0.375 C  
HETATM    8  C   UNL     1     -11.465  13.057  67.040  1.00  0.00    -0.381 A  
ENDROOT
BRANCH   4   9
HETATM    9  O   UNL     1      -9.641  15.780  65.276  1.00  0.00    -0.331 OA 
BRANCH   9  10
HETATM   10  C   UNL     1      -8.898  16.317  66.374  1.00  0.00    -0.311 C  
BRANCH  10  11
HETATM   11  C   UNL     1      -9.496  17.645  66.818  1.00  0.00    -0.280 C  
HETATM   12  C   UNL     1      -8.496  18.758  67.051  1.00  0.00    -0.281 C  
HETATM   13  N   UNL     1      -9.281  19.902  66.719  1.00  0.00    -0.357 NA 
HETATM   14  C   UNL     1     -10.280  19.539  65.856  1.00  0.00    -0.422 C  
HETATM   15  O   UNL     1     -10.969  20.309  65.213  1.00  0.00    -0.149 OA 
HETATM   16  O   UNL     1     -10.363  18.177  65.797  1.00  0.00    -0.586 OA 
ENDBRANCH  10  11
ENDBRANCH   9  10
ENDBRANCH   4   9
TORSDOF 3
ENDMDL
MODEL       47
REMARK 921   NORMALIZED FREE ENERGY PREDICTED BY IDOCK:   -5.13 KCAL/MOL
REMARK 922        TOTAL FREE ENERGY PREDICTED BY IDOCK:   -6.26 KCAL/MOL
REMARK 923 INTER-LIGAND FREE ENERGY PREDICTED BY IDOCK:   -6.01 KCAL/MOL
REMARK 924 INTRA-LIGAND FREE ENERGY PREDICTED BY IDOCK:   -0.25 KCAL/MOL
REMARK 927      BINDING AFFINITY PREDICTED BY RF-SCORE:    0.00 PKD
ROOT
HETATM    1  C   UNL     1      -7.357  16.145  67.228  1.00  0.00    -0.226 C  
HETATM    2  C   UNL     1      -8.474  17.043  66.784  1.00  0.00    -0.265 A  
HETATM    3  C   UNL     1      -9.427  16.615  65.848  1.00  0.00    -0.218 A  
HETATM    4  C   UNL     1     -10.484  17.450  65.469  1.00  0.00    -0.101 A  
HETATM    5  C   UNL     1      -8.577  18.331  67.322  1.00  0.00    -0.254 A  
HETATM    6  C   UNL     1     -10.558  18.740  66.000  1.00  0.00    -0.442 A  
HETATM    7  C   UNL     1      -9.695  20.571  67.510  1.00  0.00    -0.554 C  
HETATM    8  C   UNL     1      -9.609  19.189  66.930  1.00  0.00    -0.379 A  
ENDROOT
BRANCH   4   9
HETATM    9  O   UNL     1     -11.362  16.922  64.554  1.00  0.00    -1.006 OA 
BRANCH   9  10
HETATM   10  C   UNL     1     -11.053  15.602  64.097  1.00  0.00     0.255 C  
BRANCH  10  11
HETATM   11  C   UNL     1     -12.103  14.613  64.587  1.00  0.00    -0.454 C  
HETATM   12  C   UNL     1     -12.339  13.422  63.685  1.00  0.00    -0.351 C  
HETATM   13  N   UNL     1     -12.713  12.429  64.638  1.00  0.00    -0.702 NA 
HETATM   14  C   UNL     1     -12.182  12.742  65.861  1.00  0.00    -0.359 C  
HETATM   15  O   UNL     1     -12.123  11.991  66.816  1.00  0.00    -0.613 OA 
HETATM   16  O   UNL     1     -11.694  14.017  65.835  1.00  0.00    -0.341 OA 
ENDBRANCH  10  11
ENDBRANCH   9  10
ENDBRANCH   4   9
TORSDOF 3
ENDMDL
MODEL       48
REMARK 921   NORMALIZED FREE ENERGY PREDICTED BY IDOCK:   -5.11 KCAL/MOL
REMARK 922        TOTAL FREE ENERGY PREDICTED BY IDOCK:   -6.23 KCAL/MOL
REMARK 923 INTER-LIGAND FREE ENERGY PREDICTED BY IDOCK:   -6.02 KCAL/MOL
REMARK 924 INTRA-LIGAND FREE ENERGY PREDICTED BY IDOCK:   -0.21 KCAL/MOL
REMARK 927      BINDING AFFINITY PREDICTED BY RF-SCORE:    0.00 PKD
ROOT
HETATM    1  C   UNL     1     -12.737  10.862  70.774  1.00  0.00    -0.431 C  
HETATM    2  C   UNL     1     -12.513  12.346  70.768  1.00  0.00    -0.356 A  
HETATM    3  C   UNL     1     -11.884  12.986  69.690  1.00  0.00    -0.385 A  
HETATM    4  C   UNL     1     -11.714  14.374  69.682  1.00  0.00    -0.309 A  
HETATM    5  C   UNL     1     -12.952  13.112  71.855  1.00  0.00    -0.414 A  
HETATM    6  C   UNL     1     -12.137  15.120  70.785  1.00  0.00    -0.387 A  
HETATM    7  C   UNL     1     -13.227  15.299  73.056  1.00  0.00    -0.617 C  
HETATM    8  C   UNL     1     -12.760  14.497  71.876  1.00  0.00    -0.410 A  
ENDROOT
BRANCH   4   9
HETATM    9  O   UNL     1     -11.094  14.892  68.571  1.00  0.00    -0.246 OA 
BRANCH   9  10
HETATM   10  C   UNL     1     -11.616  16.137  68.099  1.00  0.00    -0.133 C  
BRANCH  10  11
HETATM   11  C   UNL     1     -10.480  17.082  67.731  1.00  0.00    -0.349 C  
HETATM   12  C   UNL     1      -9.856  16.844  66.373  1.00  0.00    -0.305 C  
HETATM   13  N   UNL     1      -9.447  18.167  66.026  1.00  0.00    -0.519 NA 
HETATM   14  C   UNL     1     -10.227  19.077  66.688  1.00  0.00    -0.407 C  
HETATM   15  O   UNL     1     -10.287  20.266  66.437  1.00  0.00    -0.409 OA 
HETATM   16  O   UNL     1     -10.958  18.441  67.650  1.00  0.00    -0.346 OA 
ENDBRANCH  10  11
ENDBRANCH   9  10
ENDBRANCH   4   9
TORSDOF 3
ENDMDL
MODEL       49
REMARK 921   NORMALIZED FREE ENERGY PREDICTED BY IDOCK:   -5.08 KCAL/MOL
REMARK 922        TOTAL FREE ENERGY PREDICTED BY IDOCK:   -6.21 KCAL/MOL
REMARK 923 INTER-LIGAND FREE ENERGY PREDICTED BY IDOCK:   -6.00 KCAL/MOL
REMARK 924 INTRA-LIGAND FREE ENERGY PREDICTED BY IDOCK:   -0.21 KCAL/MOL
REMARK 927      BINDING AFFINITY PREDICTED BY RF-SCORE:    0.00 PKD
ROOT
HETATM    1  C   UNL     1     -13.370  14.164  72.581  1.00  0.00    -0.638 C  
HETATM    2  C   UNL     1     -12.732  14.190  71.224  1.00  0.00    -0.434 A  
HETATM    3  C   UNL     1     -12.463  15.400  70.565  1.00  0.00    -0.468 A  
HETATM    4  C   UNL     1     -11.835  15.409  69.315  1.00  0.00    -0.343 A  
HETATM    5  C   UNL     1     -12.385  12.984  70.603  1.00  0.00    -0.391 A  
HETATM    6  C   UNL     1     -11.517  14.196  68.701  1.00  0.00    -0.332 A  
HETATM    7  C   UNL     1     -11.433  11.672  68.686  1.00  0.00    -0.349 C  
HETATM    8  C   UNL     1     -11.786  12.977  69.339  1.00  0.00    -0.380 A  
ENDROOT
BRANCH   4   9
HETATM    9  O   UNL     1     -11.613  16.651  68.770  1.00  0.00    -0.178 OA 
BRANCH   9  10
HETATM   10  C   UNL     1     -10.320  17.209  69.018  1.00  0.00    -0.331 C  
BRANCH  10  11
HETATM   11  C   UNL     1      -9.865  18.040  67.825  1.00  0.00    -0.305 C  
HETATM   12  C   UNL     1     -10.825  19.125  67.390  1.00  0.00    -0.435 C  
HETATM   13  N   UNL     1      -9.920  20.096  66.868  1.00  0.00    -0.438 NA 
HETATM   14  C   UNL     1      -8.692  19.942  67.455  1.00  0.00    -0.336 C  
HETATM   15  O   UNL     1      -7.781  20.746  67.401  1.00  0.00    -0.345 OA 
HETATM   16  O   UNL     1      -8.658  18.764  68.144  1.00  0.00    -0.291 OA 
ENDBRANCH  10  11
ENDBRANCH   9  10
ENDBRANCH   4   9
TORSDOF 3
ENDMDL
MODEL       50
REMARK 921   NORMALIZED FREE ENERGY PREDICTED BY IDOCK:   -5.07 KCAL/MOL
REMARK 922        TOTAL FREE ENERGY PREDICTED BY IDOCK:   -6.19 KCAL/MOL
REMARK 923 INTER-LIGAND FREE ENERGY PREDICTED BY IDOCK:   -5.88 KCAL/MOL
REMARK 924 INTRA-LIGAND FREE ENERGY PREDICTED BY IDOCK:   -0.32 KCAL/MOL
REMARK 927      BINDING AFFINITY PREDICTED BY RF-SCORE:    0.00 PKD
ROOT
HETATM    1  C   UNL     1     -12.150  14.827  69.822  1.00  0.00    -0.364 C  
HETATM    2  C   UNL     1     -11.924  13.765  68.787  1.00  0.00    -0.400 A  
HETATM    3  C   UNL     1     -11.552  12.461  69.147  1.00  0.00    -0.369 A  
HETATM    4  C   UNL     1     -11.378  11.471  68.173  1.00  0.00    -0.298 A  
HETATM    5  C   UNL     1     -12.099  14.075  67.433  1.00  0.00    -0.384 A  
HETATM    6  C   UNL     1     -11.535  11.804  66.826  1.00  0.00    -0.352 A  
HETATM    7  C   UNL     1     -12.079  13.461  64.999  1.00  0.00    -0.436 C  
HETATM    8  C   UNL     1     -11.898  13.104  66.446  1.00  0.00    -0.455 A  
ENDROOT
BRANCH   4   9
HETATM    9  O   UNL     1     -11.023  10.230  68.643  1.00  0.00    -0.226 OA 
BRANCH   9  10
HETATM   10  C   UNL     1     -10.713  10.166  70.038  1.00  0.00    -0.305 C  
BRANCH  10  11
HETATM   11  C   UNL     1     -11.522   9.064  70.710  1.00  0.00    -0.282 C  
HETATM   12  C   UNL     1     -10.957   8.554  72.018  1.00  0.00    -0.340 C  
HETATM   13  N   UNL     1     -12.151   8.176  72.701  1.00  0.00    -0.325 NA 
HETATM   14  C   UNL     1     -13.207   8.899  72.214  1.00  0.00    -0.447 C  
HETATM   15  O   UNL     1     -14.304   8.980  72.735  1.00  0.00    -0.596 OA 
HETATM   16  O   UNL     1     -12.832   9.548  71.073  1.00  0.00    -0.298 OA 
ENDBRANCH  10  11
ENDBRANCH   9  10
ENDBRANCH   4   9
TORSDOF 3
ENDMDL
MODEL       51
REMARK 921   NORMALIZED FREE ENERGY PREDICTED BY IDOCK:   -5.05 KCAL/MOL
REMARK 922        TOTAL FREE ENERGY PREDICTED BY IDOCK:   -6.16 KCAL/MOL
REMARK 923 INTER-LIGAND FREE ENERGY PREDICTED BY IDOCK:   -5.91 KCAL/MOL
REMARK 924 INTRA-LIGAND FREE ENERGY PREDICTED BY IDOCK:   -0.25 KCAL/MOL
REMARK 927      BINDING AFFINITY PREDICTED BY RF-SCORE:    0.00 PKD
ROOT
HETATM    1  C   UNL     1     -12.238  11.217  70.455  1.00  0.00    -0.474 C  
HETATM    2  C   UNL     1     -11.752  11.540  69.073  1.00  0.00    -0.400 A  
HETATM    3  C   UNL     1     -11.853  12.836  68.546  1.00  0.00    -0.345 A  
HETATM    4  C   UNL     1     -11.364  13.130  67.268  1.00  0.00    -0.306 A  
HETATM    5  C   UNL     1     -11.176  10.530  68.293  1.00  0.00    -0.354 A  
HETATM    6  C   UNL     1     -10.812  12.105  66.497  1.00  0.00    -0.307 A  
HETATM    7  C   UNL     1     -10.106   9.701  66.178  1.00  0.00    -0.328 C  
HETATM    8  C   UNL     1     -10.711  10.801  67.002  1.00  0.00    -0.320 A  
ENDROOT
BRANCH   4   9
HETATM    9  O   UNL     1     -11.508  14.434  66.862  1.00  0.00    -0.337 OA 
BRANCH   9  10
HETATM   10  C   UNL     1     -11.207  15.423  67.850  1.00  0.00    -0.329 C  
BRANCH  10  11
HETATM   11  C   UNL     1     -10.367  16.540  67.244  1.00  0.00    -0.296 C  
HETATM   12  C   UNL     1     -10.498  16.707  65.746  1.00  0.00    -0.311 C  
HETATM   13  N   UNL     1     -10.268  18.108  65.608  1.00  0.00    -0.561 NA 
HETATM   14  C   UNL     1     -10.590  18.744  66.777  1.00  0.00    -0.395 C  
HETATM   15  O   UNL     1     -10.725  19.946  66.910  1.00  0.00    -0.459 OA 
HETATM   16  O   UNL     1     -10.776  17.821  67.765  1.00  0.00    -0.390 OA 
ENDBRANCH  10  11
ENDBRANCH   9  10
ENDBRANCH   4   9
TORSDOF 3
ENDMDL
MODEL       52
REMARK 921   NORMALIZED FREE ENERGY PREDICTED BY IDOCK:   -5.04 KCAL/MOL
REMARK 922        TOTAL FREE ENERGY PREDICTED BY IDOCK:   -6.16 KCAL/MOL
REMARK 923 INTER-LIGAND FREE ENERGY PREDICTED BY IDOCK:   -5.86 KCAL/MOL
REMARK 924 INTRA-LIGAND FREE ENERGY PREDICTED BY IDOCK:   -0.30 KCAL/MOL
REMARK 927      BINDING AFFINITY PREDICTED BY RF-SCORE:    0.00 PKD
ROOT
HETATM    1  C   UNL     1      -6.476  17.490  69.313  1.00  0.00    -0.243 C  
HETATM    2  C   UNL     1      -7.630  17.639  68.365  1.00  0.00    -0.260 A  
HETATM    3  C   UNL     1      -8.125  16.546  67.638  1.00  0.00    -0.177 A  
HETATM    4  C   UNL     1      -9.224  16.693  66.784  1.00  0.00    -0.238 A  
HETATM    5  C   UNL     1      -8.236  18.892  68.210  1.00  0.00    -0.362 A  
HETATM    6  C   UNL     1      -9.801  17.955  66.625  1.00  0.00    -0.342 A  
HETATM    7  C   UNL     1      -9.943  20.415  67.176  1.00  0.00    -0.568 C  
HETATM    8  C   UNL     1      -9.315  19.061  67.337  1.00  0.00    -0.345 A  
ENDROOT
BRANCH   4   9
HETATM    9  O   UNL     1      -9.627  15.552  66.132  1.00  0.00    -0.278 OA 
BRANCH   9  10
HETATM   10  C   UNL     1     -10.693  15.725  65.195  1.00  0.00    -0.435 C  
BRANCH  10  11
HETATM   11  C   UNL     1     -11.797  14.708  65.455  1.00  0.00    -0.304 C  
HETATM   12  C   UNL     1     -11.935  13.623  64.409  1.00  0.00    -0.437 C  
HETATM   13  N   UNL     1     -12.420  12.541  65.203  1.00  0.00    -0.628 NA 
HETATM   14  C   UNL     1     -12.029  12.714  66.504  1.00  0.00    -0.331 C  
HETATM   15  O   UNL     1     -12.082  11.865  67.374  1.00  0.00    -0.577 OA 
HETATM   16  O   UNL     1     -11.534  13.976  66.670  1.00  0.00    -0.335 OA 
ENDBRANCH  10  11
ENDBRANCH   9  10
ENDBRANCH   4   9
TORSDOF 3
ENDMDL
MODEL       53
REMARK 921   NORMALIZED FREE ENERGY PREDICTED BY IDOCK:   -5.02 KCAL/MOL
REMARK 922        TOTAL FREE ENERGY PREDICTED BY IDOCK:   -6.14 KCAL/MOL
REMARK 923 INTER-LIGAND FREE ENERGY PREDICTED BY IDOCK:   -5.94 KCAL/MOL
REMARK 924 INTRA-LIGAND FREE ENERGY PREDICTED BY IDOCK:   -0.20 KCAL/MOL
REMARK 927      BINDING AFFINITY PREDICTED BY RF-SCORE:    0.00 PKD
ROOT
HETATM    1  C   UNL     1     -10.766  17.059  68.205  1.00  0.00    -0.374 C  
HETATM    2  C   UNL     1     -11.150  15.694  68.695  1.00  0.00    -0.317 A  
HETATM    3  C   UNL     1     -10.627  14.533  68.107  1.00  0.00    -0.238 A  
HETATM    4  C   UNL     1     -10.968  13.267  68.597  1.00  0.00    -0.264 A  
HETATM    5  C   UNL     1     -12.040  15.574  69.769  1.00  0.00    -0.372 A  
HETATM    6  C   UNL     1     -11.874  13.166  69.654  1.00  0.00    -0.390 A  
HETATM    7  C   UNL     1     -13.379  14.208  71.394  1.00  0.00    -0.402 C  
HETATM    8  C   UNL     1     -12.414  14.315  70.249  1.00  0.00    -0.422 A  
ENDROOT
BRANCH   4   9
HETATM    9  O   UNL     1     -10.387  12.203  67.950  1.00  0.00    -0.197 OA 
BRANCH   9  10
HETATM   10  C   UNL     1     -11.186  11.592  66.932  1.00  0.00    -0.313 C  
BRANCH  10  11
HETATM   11  C   UNL     1     -10.875  12.208  65.574  1.00  0.00    -0.283 C  
HETATM   12  C   UNL     1     -10.726  11.221  64.436  1.00  0.00    -0.339 C  
HETATM   13  N   UNL     1     -11.175  12.008  63.334  1.00  0.00    -0.414 NA 
HETATM   14  C   UNL     1     -12.021  12.987  63.783  1.00  0.00    -0.518 C  
HETATM   15  O   UNL     1     -12.744  13.668  63.080  1.00  0.00    -0.737 OA 
HETATM   16  O   UNL     1     -11.957  13.059  65.145  1.00  0.00    -0.354 OA 
ENDBRANCH  10  11
ENDBRANCH   9  10
ENDBRANCH   4   9
TORSDOF 3
ENDMDL
MODEL       54
REMARK 921   NORMALIZED FREE ENERGY PREDICTED BY IDOCK:   -5.02 KCAL/MOL
REMARK 922        TOTAL FREE ENERGY PREDICTED BY IDOCK:   -6.13 KCAL/MOL
REMARK 923 INTER-LIGAND FREE ENERGY PREDICTED BY IDOCK:   -5.88 KCAL/MOL
REMARK 924 INTRA-LIGAND FREE ENERGY PREDICTED BY IDOCK:   -0.25 KCAL/MOL
REMARK 927      BINDING AFFINITY PREDICTED BY RF-SCORE:    0.00 PKD
ROOT
HETATM    1  C   UNL     1     -11.705  12.126  68.442  1.00  0.00    -0.388 C  
HETATM    2  C   UNL     1     -11.593  12.874  67.147  1.00  0.00    -0.421 A  
HETATM    3  C   UNL     1     -11.110  14.191  67.103  1.00  0.00    -0.315 A  
HETATM    4  C   UNL     1     -10.978  14.865  65.884  1.00  0.00    -0.338 A  
HETATM    5  C   UNL     1     -11.966  12.244  65.953  1.00  0.00    -0.358 A  
HETATM    6  C   UNL     1     -11.375  14.228  64.706  1.00  0.00    -0.382 A  
HETATM    7  C   UNL     1     -12.284  12.226  63.464  1.00  0.00    -0.669 C  
HETATM    8  C   UNL     1     -11.869  12.916  64.730  1.00  0.00    -0.409 A  
ENDROOT
BRANCH   4   9
HETATM    9  O   UNL     1     -10.486  16.145  65.962  1.00  0.00    -0.321 OA 
BRANCH   9  10
HETATM   10  C   UNL     1     -10.152  16.597  67.277  1.00  0.00    -0.279 C  
BRANCH  10  11
HETATM   11  C   UNL     1      -9.669  18.041  67.235  1.00  0.00    -0.297 C  
HETATM   12  C   UNL     1      -8.712  18.435  68.339  1.00  0.00    -0.317 C  
HETATM   13  N   UNL     1      -7.931  19.429  67.679  1.00  0.00    -0.276 NA 
HETATM   14  C   UNL     1      -7.956  19.211  66.327  1.00  0.00    -0.300 C  
HETATM   15  O   UNL     1      -7.215  19.735  65.516  1.00  0.00    -0.306 OA 
HETATM   16  O   UNL     1      -8.916  18.287  66.029  1.00  0.00    -0.500 OA 
ENDBRANCH  10  11
ENDBRANCH   9  10
ENDBRANCH   4   9
TORSDOF 3
ENDMDL
MODEL       55
REMARK 921   NORMALIZED FREE ENERGY PREDICTED BY IDOCK:   -5.01 KCAL/MOL
REMARK 922        TOTAL FREE ENERGY PREDICTED BY IDOCK:   -6.12 KCAL/MOL
REMARK 923 INTER-LIGAND FREE ENERGY PREDICTED BY IDOCK:   -5.81 KCAL/MOL
REMARK 924 INTRA-LIGAND FREE ENERGY PREDICTED BY IDOCK:   -0.31 KCAL/MOL
REMARK 927      BINDING AFFINITY PREDICTED BY RF-SCORE:    0.00 PKD
ROOT
HETATM    1  C   UNL     1      -9.617  10.398  62.976  1.00  0.00    -0.341 C  
HETATM    2  C   UNL     1     -10.181  10.770  64.316  1.00  0.00    -0.422 A  
HETATM    3  C   UNL     1     -10.911  11.954  64.499  1.00  0.00    -0.376 A  
HETATM    4  C   UNL     1     -11.461  12.270  65.746  1.00  0.00    -0.367 A  
HETATM    5  C   UNL     1      -9.986   9.913  65.406  1.00  0.00    -0.349 A  
HETATM    6  C   UNL     1     -11.237  11.414  66.827  1.00  0.00    -0.319 A  
HETATM    7  C   UNL     1     -10.272   9.304  67.824  1.00  0.00    -0.271 C  
HETATM    8  C   UNL     1     -10.503  10.231  66.666  1.00  0.00    -0.260 A  
ENDROOT
BRANCH   4   9
HETATM    9  O   UNL     1     -12.164  13.449  65.805  1.00  0.00    -0.411 OA 
BRANCH   9  10
HETATM   10  C   UNL     1     -11.896  14.268  66.946  1.00  0.00    -0.433 C  
BRANCH  10  11
HETATM   11  C   UNL     1     -10.788  15.265  66.634  1.00  0.00    -0.310 C  
HETATM   12  C   UNL     1     -10.801  15.827  65.229  1.00  0.00    -0.395 C  
HETATM   13  N   UNL     1     -10.241  17.120  65.448  1.00  0.00    -0.612 NA 
HETATM   14  C   UNL     1     -10.463  17.504  66.744  1.00  0.00    -0.270 C  
HETATM   15  O   UNL     1     -10.318  18.630  67.179  1.00  0.00    -0.360 OA 
HETATM   16  O   UNL     1     -10.910  16.435  67.468  1.00  0.00    -0.315 OA 
ENDBRANCH  10  11
ENDBRANCH   9  10
ENDBRANCH   4   9
TORSDOF 3
ENDMDL
MODEL       56
REMARK 921   NORMALIZED FREE ENERGY PREDICTED BY IDOCK:   -4.99 KCAL/MOL
REMARK 922        TOTAL FREE ENERGY PREDICTED BY IDOCK:   -6.10 KCAL/MOL
REMARK 923 INTER-LIGAND FREE ENERGY PREDICTED BY IDOCK:   -5.79 KCAL/MOL
REMARK 924 INTRA-LIGAND FREE ENERGY PREDICTED BY IDOCK:   -0.30 KCAL/MOL
REMARK 927      BINDING AFFINITY PREDICTED BY RF-SCORE:    0.00 PKD
ROOT
HETATM    1  C   UNL     1      -9.200   7.527  67.570  1.00  0.00    -0.140 C  
HETATM    2  C   UNL     1     -10.044   8.596  68.201  1.00  0.00    -0.236 A  
HETATM    3  C   UNL     1     -10.497   9.700  67.463  1.00  0.00    -0.321 A  
HETATM    4  C   UNL     1     -11.312  10.671  68.056  1.00  0.00    -0.278 A  
HETATM    5  C   UNL     1     -10.399   8.485  69.551  1.00  0.00    -0.218 A  
HETATM    6  C   UNL     1     -11.637  10.556  69.409  1.00  0.00    -0.318 A  
HETATM    7  C   UNL     1     -11.545   9.333  71.617  1.00  0.00    -0.463 C  
HETATM    8  C   UNL     1     -11.186   9.464  70.165  1.00  0.00    -0.253 A  
ENDROOT
BRANCH   4   9
HETATM    9  O   UNL     1     -11.703  11.701  67.235  1.00  0.00    -0.568 OA 
BRANCH   9  10
HETATM   10  C   UNL     1     -10.643  12.500  66.704  1.00  0.00    -0.237 C  
BRANCH  10  11
HETATM   11  C   UNL     1     -10.966  12.931  65.279  1.00  0.00    -0.283 C  
HETATM   12  C   UNL     1     -12.141  12.222  64.641  1.00  0.00    -0.374 C  
HETATM   13  N   UNL     1     -12.629  13.238  63.767  1.00  0.00    -0.710 NA 
HETATM   14  C   UNL     1     -12.269  14.469  64.245  1.00  0.00    -0.415 C  
HETATM   15  O   UNL     1     -12.719  15.532  63.863  1.00  0.00    -0.665 OA 
HETATM   16  O   UNL     1     -11.351  14.321  65.246  1.00  0.00    -0.314 OA 
ENDBRANCH  10  11
ENDBRANCH   9  10
ENDBRANCH   4   9
TORSDOF 3
ENDMDL
MODEL       57
REMARK 921   NORMALIZED FREE ENERGY PREDICTED BY IDOCK:   -4.96 KCAL/MOL
REMARK 922        TOTAL FREE ENERGY PREDICTED BY IDOCK:   -6.06 KCAL/MOL
REMARK 923 INTER-LIGAND FREE ENERGY PREDICTED BY IDOCK:   -5.79 KCAL/MOL
REMARK 924 INTRA-LIGAND FREE ENERGY PREDICTED BY IDOCK:   -0.27 KCAL/MOL
REMARK 927      BINDING AFFINITY PREDICTED BY RF-SCORE:    0.00 PKD
ROOT
HETATM    1  C   UNL     1     -10.196  11.847  63.617  1.00  0.00    -0.466 C  
HETATM    2  C   UNL     1     -10.445  11.294  64.990  1.00  0.00    -0.359 A  
HETATM    3  C   UNL     1     -11.172  12.018  65.947  1.00  0.00    -0.385 A  
HETATM    4  C   UNL     1     -11.426  11.475  67.212  1.00  0.00    -0.263 A  
HETATM    5  C   UNL     1      -9.954  10.026  65.321  1.00  0.00    -0.368 A  
HETATM    6  C   UNL     1     -10.909  10.218  67.532  1.00  0.00    -0.355 A  
HETATM    7  C   UNL     1      -9.627   8.127  66.930  1.00  0.00    -0.269 C  
HETATM    8  C   UNL     1     -10.173   9.484  66.591  1.00  0.00    -0.310 A  
ENDROOT
BRANCH   4   9
HETATM    9  O   UNL     1     -12.156  12.269  68.064  1.00  0.00    -0.439 OA 
BRANCH   9  10
HETATM   10  C   UNL     1     -11.745  13.637  68.133  1.00  0.00    -0.357 C  
BRANCH  10  11
HETATM   11  C   UNL     1     -11.606  14.075  69.585  1.00  0.00    -0.289 C  
HETATM   12  C   UNL     1     -12.115  15.467  69.891  1.00  0.00    -0.355 C  
HETATM   13  N   UNL     1     -12.533  15.312  71.246  1.00  0.00    -0.336 NA 
HETATM   14  C   UNL     1     -12.834  13.998  71.487  1.00  0.00    -0.362 C  
HETATM   15  O   UNL     1     -13.431  13.580  72.461  1.00  0.00    -0.543 OA 
HETATM   16  O   UNL     1     -12.395  13.229  70.447  1.00  0.00    -0.333 OA 
ENDBRANCH  10  11
ENDBRANCH   9  10
ENDBRANCH   4   9
TORSDOF 3
ENDMDL
MODEL       58
REMARK 921   NORMALIZED FREE ENERGY PREDICTED BY IDOCK:   -4.96 KCAL/MOL
REMARK 922        TOTAL FREE ENERGY PREDICTED BY IDOCK:   -6.06 KCAL/MOL
REMARK 923 INTER-LIGAND FREE ENERGY PREDICTED BY IDOCK:   -5.78 KCAL/MOL
REMARK 924 INTRA-LIGAND FREE ENERGY PREDICTED BY IDOCK:   -0.28 KCAL/MOL
REMARK 927      BINDING AFFINITY PREDICTED BY RF-SCORE:    0.00 PKD
ROOT
HETATM    1  C   UNL     1      -9.909   8.915  66.318  1.00  0.00    -0.355 C  
HETATM    2  C   UNL     1     -10.546  10.155  66.873  1.00  0.00    -0.267 A  
HETATM    3  C   UNL     1     -10.715  11.305  66.087  1.00  0.00    -0.307 A  
HETATM    4  C   UNL     1     -11.342  12.442  66.608  1.00  0.00    -0.339 A  
HETATM    5  C   UNL     1     -10.993  10.164  68.200  1.00  0.00    -0.313 A  
HETATM    6  C   UNL     1     -11.761  12.441  67.940  1.00  0.00    -0.421 A  
HETATM    7  C   UNL     1     -12.054  11.297  70.173  1.00  0.00    -0.448 C  
HETATM    8  C   UNL     1     -11.593  11.304  68.744  1.00  0.00    -0.383 A  
ENDROOT
BRANCH   4   9
HETATM    9  O   UNL     1     -11.461  13.504  65.744  1.00  0.00    -0.307 OA 
BRANCH   9  10
HETATM   10  C   UNL     1     -10.406  14.468  65.806  1.00  0.00    -0.331 C  
BRANCH  10  11
HETATM   11  C   UNL     1     -10.961  15.837  66.179  1.00  0.00    -0.169 C  
HETATM   12  C   UNL     1     -10.740  16.253  67.617  1.00  0.00    -0.311 C  
HETATM   13  N   UNL     1     -10.655  17.671  67.479  1.00  0.00    -0.364 NA 
HETATM   14  C   UNL     1     -10.246  17.986  66.211  1.00  0.00    -0.381 C  
HETATM   15  O   UNL     1      -9.860  19.080  65.848  1.00  0.00    -0.472 OA 
HETATM   16  O   UNL     1     -10.303  16.873  65.421  1.00  0.00    -0.609 OA 
ENDBRANCH  10  11
ENDBRANCH   9  10
ENDBRANCH   4   9
TORSDOF 3
ENDMDL
MODEL       59
REMARK 921   NORMALIZED FREE ENERGY PREDICTED BY IDOCK:   -4.95 KCAL/MOL
REMARK 922        TOTAL FREE ENERGY PREDICTED BY IDOCK:   -6.05 KCAL/MOL
REMARK 923 INTER-LIGAND FREE ENERGY PREDICTED BY IDOCK:   -5.68 KCAL/MOL
REMARK 924 INTRA-LIGAND FREE ENERGY PREDICTED BY IDOCK:   -0.38 KCAL/MOL
REMARK 927      BINDING AFFINITY PREDICTED BY RF-SCORE:    0.00 PKD
ROOT
HETATM    1  C   UNL     1     -12.122  14.269  70.803  1.00  0.00    -0.418 C  
HETATM    2  C   UNL     1     -11.617  15.053  69.627  1.00  0.00    -0.333 A  
HETATM    3  C   UNL     1     -11.756  14.574  68.316  1.00  0.00    -0.368 A  
HETATM    4  C   UNL     1     -11.312  15.332  67.227  1.00  0.00    -0.269 A  
HETATM    5  C   UNL     1     -11.005  16.294  69.839  1.00  0.00    -0.365 A  
HETATM    6  C   UNL     1     -10.684  16.558  67.459  1.00  0.00    -0.283 A  
HETATM    7  C   UNL     1      -9.864  18.371  69.013  1.00  0.00    -0.288 C  
HETATM    8  C   UNL     1     -10.528  17.048  68.763  1.00  0.00    -0.347 A  
ENDROOT
BRANCH   4   9
HETATM    9  O   UNL     1     -11.509  14.768  65.989  1.00  0.00    -0.351 OA 
BRANCH   9  10
HETATM   10  C   UNL     1     -12.715  14.013  65.843  1.00  0.00    -0.397 C  
BRANCH  10  11
HETATM   11  C   UNL     1     -12.447  12.733  65.063  1.00  0.00    -0.506 C  
HETATM   12  C   UNL     1     -11.668  12.910  63.777  1.00  0.00    -0.492 C  
HETATM   13  N   UNL     1     -10.982  11.662  63.702  1.00  0.00    -0.413 NA 
HETATM   14  C   UNL     1     -10.845  11.135  64.958  1.00  0.00    -0.173 C  
HETATM   15  O   UNL     1     -10.116  10.209  65.258  1.00  0.00    -0.319 OA 
HETATM   16  O   UNL     1     -11.626  11.833  65.835  1.00  0.00    -0.354 OA 
ENDBRANCH  10  11
ENDBRANCH   9  10
ENDBRANCH   4   9
TORSDOF 3
ENDMDL
MODEL       60
REMARK 921   NORMALIZED FREE ENERGY PREDICTED BY IDOCK:   -4.95 KCAL/MOL
REMARK 922        TOTAL FREE ENERGY PREDICTED BY IDOCK:   -6.05 KCAL/MOL
REMARK 923 INTER-LIGAND FREE ENERGY PREDICTED BY IDOCK:   -5.80 KCAL/MOL
REMARK 924 INTRA-LIGAND FREE ENERGY PREDICTED BY IDOCK:   -0.26 KCAL/MOL
REMARK 927      BINDING AFFINITY PREDICTED BY RF-SCORE:    0.00 PKD
ROOT
HETATM    1  C   UNL     1     -11.735  12.401  65.629  1.00  0.00    -0.468 C  
HETATM    2  C   UNL     1     -11.777  12.780  67.080  1.00  0.00    -0.443 A  
HETATM    3  C   UNL     1     -11.669  11.814  68.092  1.00  0.00    -0.377 A  
HETATM    4  C   UNL     1     -11.675  12.186  69.441  1.00  0.00    -0.329 A  
HETATM    5  C   UNL     1     -11.916  14.127  67.436  1.00  0.00    -0.439 A  
HETATM    6  C   UNL     1     -11.836  13.532  69.777  1.00  0.00    -0.395 A  
HETATM    7  C   UNL     1     -12.116  15.960  69.140  1.00  0.00    -0.158 C  
HETATM    8  C   UNL     1     -11.955  14.511  68.780  1.00  0.00    -0.315 A  
ENDROOT
BRANCH   4   9
HETATM    9  O   UNL     1     -11.552  11.157  70.343  1.00  0.00    -0.310 OA 
BRANCH   9  10
HETATM   10  C   UNL     1     -12.736  10.841  71.080  1.00  0.00    -0.415 C  
BRANCH  10  11
HETATM   11  C   UNL     1     -12.606   9.468  71.727  1.00  0.00    -0.405 C  
HETATM   12  C   UNL     1     -13.895   8.683  71.840  1.00  0.00    -0.432 C  
HETATM   13  N   UNL     1     -13.406   7.345  71.751  1.00  0.00    -0.340 NA 
HETATM   14  C   UNL     1     -12.216   7.335  71.074  1.00  0.00    -0.313 C  
HETATM   15  O   UNL     1     -11.665   6.343  70.635  1.00  0.00    -0.373 OA 
HETATM   16  O   UNL     1     -11.757   8.613  70.934  1.00  0.00    -0.282 OA 
ENDBRANCH  10  11
ENDBRANCH   9  10
ENDBRANCH   4   9
TORSDOF 3
ENDMDL
MODEL       61
REMARK 921   NORMALIZED FREE ENERGY PREDICTED BY IDOCK:   -4.95 KCAL/MOL
REMARK 922        TOTAL FREE ENERGY PREDICTED BY IDOCK:   -6.05 KCAL/MOL
REMARK 923 INTER-LIGAND FREE ENERGY PREDICTED BY IDOCK:   -5.77 KCAL/MOL
REMARK 924 INTRA-LIGAND FREE ENERGY PREDICTED BY IDOCK:   -0.28 KCAL/MOL
REMARK 927      BINDING AFFINITY PREDICTED BY RF-SCORE:    0.00 PKD
ROOT
HETATM    1  C   UNL     1      -8.974  15.108  66.477  1.00  0.00    -0.326 C  
HETATM    2  C   UNL     1     -10.064  14.098  66.269  1.00  0.00    -0.308 A  
HETATM    3  C   UNL     1     -10.641  13.413  67.349  1.00  0.00    -0.254 A  
HETATM    4  C   UNL     1     -11.681  12.500  67.143  1.00  0.00    -0.355 A  
HETATM    5  C   UNL     1     -10.526  13.841  64.973  1.00  0.00    -0.418 A  
HETATM    6  C   UNL     1     -12.114  12.239  65.841  1.00  0.00    -0.261 A  
HETATM    7  C   UNL     1     -12.016  12.638  63.350  1.00  0.00    -0.613 C  
HETATM    8  C   UNL     1     -11.543  12.908  64.749  1.00  0.00    -0.373 A  
ENDROOT
BRANCH   4   9
HETATM    9  O   UNL     1     -12.175  11.896  68.275  1.00  0.00    -0.447 OA 
BRANCH   9  10
HETATM   10  C   UNL     1     -11.279  10.995  68.932  1.00  0.00    -0.265 C  
BRANCH  10  11
HETATM   11  C   UNL     1     -11.638  10.874  70.407  1.00  0.00    -0.323 C  
HETATM   12  C   UNL     1     -12.635  11.893  70.916  1.00  0.00    -0.266 C  
HETATM   13  N   UNL     1     -13.283  11.148  71.945  1.00  0.00    -0.454 NA 
HETATM   14  C   UNL     1     -13.180   9.809  71.679  1.00  0.00    -0.420 C  
HETATM   15  O   UNL     1     -13.816   8.931  72.230  1.00  0.00    -0.434 OA 
HETATM   16  O   UNL     1     -12.281   9.610  70.670  1.00  0.00    -0.252 OA 
ENDBRANCH  10  11
ENDBRANCH   9  10
ENDBRANCH   4   9
TORSDOF 3
ENDMDL
MODEL       62
REMARK 921   NORMALIZED FREE ENERGY PREDICTED BY IDOCK:   -4.95 KCAL/MOL
REMARK 922        TOTAL FREE ENERGY PREDICTED BY IDOCK:   -6.04 KCAL/MOL
REMARK 923 INTER-LIGAND FREE ENERGY PREDICTED BY IDOCK:   -5.69 KCAL/MOL
REMARK 924 INTRA-LIGAND FREE ENERGY PREDICTED BY IDOCK:   -0.36 KCAL/MOL
REMARK 927      BINDING AFFINITY PREDICTED BY RF-SCORE:    0.00 PKD
ROOT
HETATM    1  C   UNL     1      -6.158  17.548  66.990  1.00  0.00    -0.184 C  
HETATM    2  C   UNL     1      -7.612  17.439  66.634  1.00  0.00    -0.291 A  
HETATM    3  C   UNL     1      -8.206  16.198  66.359  1.00  0.00    -0.336 A  
HETATM    4  C   UNL     1      -9.571  16.109  66.062  1.00  0.00    -0.346 A  
HETATM    5  C   UNL     1      -8.397  18.598  66.585  1.00  0.00    -0.297 A  
HETATM    6  C   UNL     1     -10.333  17.277  65.996  1.00  0.00    -0.312 A  
HETATM    7  C   UNL     1     -10.577  19.782  66.201  1.00  0.00    -0.569 C  
HETATM    8  C   UNL     1      -9.755  18.527  66.259  1.00  0.00    -0.315 A  
ENDROOT
BRANCH   4   9
HETATM    9  O   UNL     1     -10.045  14.842  65.820  1.00  0.00    -0.300 OA 
BRANCH   9  10
HETATM   10  C   UNL     1     -11.432  14.758  65.485  1.00  0.00    -0.329 C  
BRANCH  10  11
HETATM   11  C   UNL     1     -12.147  13.796  66.425  1.00  0.00    -0.444 C  
HETATM   12  C   UNL     1     -11.663  12.363  66.374  1.00  0.00    -0.391 C  
HETATM   13  N   UNL     1     -11.912  11.945  67.715  1.00  0.00    -0.573 NA 
HETATM   14  C   UNL     1     -11.910  13.034  68.545  1.00  0.00    -0.325 C  
HETATM   15  O   UNL     1     -11.863  12.993  69.760  1.00  0.00    -0.308 OA 
HETATM   16  O   UNL     1     -11.931  14.178  67.800  1.00  0.00    -0.366 OA 
ENDBRANCH  10  11
ENDBRANCH   9  10
ENDBRANCH   4   9
TORSDOF 3
ENDMDL
MODEL       63
REMARK 921   NORMALIZED FREE ENERGY PREDICTED BY IDOCK:   -4.94 KCAL/MOL
REMARK 922        TOTAL FREE ENERGY PREDICTED BY IDOCK:   -6.04 KCAL/MOL
REMARK 923 INTER-LIGAND FREE ENERGY PREDICTED BY IDOCK:   -5.79 KCAL/MOL
REMARK 924 INTRA-LIGAND FREE ENERGY PREDICTED BY IDOCK:   -0.25 KCAL/MOL
REMARK 927      BINDING AFFINITY PREDICTED BY RF-SCORE:    0.00 PKD
ROOT
HETATM    1  C   UNL     1     -10.473  16.415  65.467  1.00  0.00    -0.349 C  
HETATM    2  C   UNL     1     -11.003  15.029  65.692  1.00  0.00    -0.357 A  
HETATM    3  C   UNL     1     -11.086  14.478  66.979  1.00  0.00    -0.324 A  
HETATM    4  C   UNL     1     -11.614  13.197  67.177  1.00  0.00    -0.361 A  
HETATM    5  C   UNL     1     -11.436  14.272  64.596  1.00  0.00    -0.389 A  
HETATM    6  C   UNL     1     -12.021  12.448  66.070  1.00  0.00    -0.419 A  
HETATM    7  C   UNL     1     -12.385  12.179  63.586  1.00  0.00    -0.673 C  
HETATM    8  C   UNL     1     -11.937  12.979  64.775  1.00  0.00    -0.443 A  
ENDROOT
BRANCH   4   9
HETATM    9  O   UNL     1     -11.655  12.765  68.481  1.00  0.00    -0.277 OA 
BRANCH   9  10
HETATM   10  C   UNL     1     -10.754  11.704  68.805  1.00  0.00    -0.219 C  
BRANCH  10  11
HETATM   11  C   UNL     1     -11.495  10.577  69.512  1.00  0.00    -0.272 C  
HETATM   12  C   UNL     1     -10.681   9.803  70.526  1.00  0.00    -0.317 C  
HETATM   13  N   UNL     1     -11.695   9.417  71.452  1.00  0.00    -0.349 NA 
HETATM   14  C   UNL     1     -12.739  10.301  71.385  1.00  0.00    -0.442 C  
HETATM   15  O   UNL     1     -13.642  10.385  72.195  1.00  0.00    -0.324 OA 
HETATM   16  O   UNL     1     -12.592  11.101  70.288  1.00  0.00    -0.273 OA 
ENDBRANCH  10  11
ENDBRANCH   9  10
ENDBRANCH   4   9
TORSDOF 3
ENDMDL
MODEL       64
REMARK 921   NORMALIZED FREE ENERGY PREDICTED BY IDOCK:   -4.93 KCAL/MOL
REMARK 922        TOTAL FREE ENERGY PREDICTED BY IDOCK:   -6.03 KCAL/MOL
REMARK 923 INTER-LIGAND FREE ENERGY PREDICTED BY IDOCK:   -5.66 KCAL/MOL
REMARK 924 INTRA-LIGAND FREE ENERGY PREDICTED BY IDOCK:   -0.37 KCAL/MOL
REMARK 927      BINDING AFFINITY PREDICTED BY RF-SCORE:    0.00 PKD
ROOT
HETATM    1  C   UNL     1     -11.009  13.029  68.375  1.00  0.00    -0.288 C  
HETATM    2  C   UNL     1     -11.765  12.533  69.573  1.00  0.00    -0.375 A  
HETATM    3  C   UNL     1     -11.871  11.163  69.855  1.00  0.00    -0.439 A  
HETATM    4  C   UNL     1     -12.550  10.717  70.994  1.00  0.00    -0.420 A  
HETATM    5  C   UNL     1     -12.368  13.456  70.436  1.00  0.00    -0.382 A  
HETATM    6  C   UNL     1     -13.164  11.651  71.832  1.00  0.00    -0.475 A  
HETATM    7  C   UNL     1     -13.726  14.029  72.468  1.00  0.00    -0.651 C  
HETATM    8  C   UNL     1     -13.077  13.024  71.562  1.00  0.00    -0.400 A  
ENDROOT
BRANCH   4   9
HETATM    9  O   UNL     1     -12.581   9.355  71.174  1.00  0.00    -0.314 OA 
BRANCH   9  10
HETATM   10  C   UNL     1     -11.489   8.808  71.917  1.00  0.00    -0.358 C  
BRANCH  10  11
HETATM   11  C   UNL     1     -10.883   7.624  71.174  1.00  0.00    -0.235 C  
HETATM   12  C   UNL     1     -11.880   6.621  70.634  1.00  0.00    -0.383 C  
HETATM   13  N   UNL     1     -11.188   6.143  69.482  1.00  0.00    -0.417 NA 
HETATM   14  C   UNL     1     -10.303   7.094  69.049  1.00  0.00    -0.199 C  
HETATM   15  O   UNL     1      -9.736   7.089  67.973  1.00  0.00    -0.128 OA 
HETATM   16  O   UNL     1     -10.181   8.071  69.996  1.00  0.00    -0.197 OA 
ENDBRANCH  10  11
ENDBRANCH   9  10
ENDBRANCH   4   9
TORSDOF 3
ENDMDL
MODEL       65
REMARK 921   NORMALIZED FREE ENERGY PREDICTED BY IDOCK:   -4.93 KCAL/MOL
REMARK 922        TOTAL FREE ENERGY PREDICTED BY IDOCK:   -6.03 KCAL/MOL
REMARK 923 INTER-LIGAND FREE ENERGY PREDICTED BY IDOCK:   -5.81 KCAL/MOL
REMARK 924 INTRA-LIGAND FREE ENERGY PREDICTED BY IDOCK:   -0.21 KCAL/MOL
REMARK 927      BINDING AFFINITY PREDICTED BY RF-SCORE:    0.00 PKD
ROOT
HETATM    1  C   UNL     1     -12.434  14.208  64.801  1.00  0.00    -0.395 C  
HETATM    2  C   UNL     1     -11.670  12.983  65.209  1.00  0.00    -0.388 A  
HETATM    3  C   UNL     1     -11.591  12.585  66.552  1.00  0.00    -0.447 A  
HETATM    4  C   UNL     1     -10.904  11.420  66.913  1.00  0.00    -0.285 A  
HETATM    5  C   UNL     1     -11.031  12.212  64.230  1.00  0.00    -0.391 A  
HETATM    6  C   UNL     1     -10.254  10.676  65.926  1.00  0.00    -0.314 A  
HETATM    7  C   UNL     1      -9.627  10.258  63.516  1.00  0.00    -0.321 C  
HETATM    8  C   UNL     1     -10.315  11.064  64.579  1.00  0.00    -0.420 A  
ENDROOT
BRANCH   4   9
HETATM    9  O   UNL     1     -10.901  11.124  68.255  1.00  0.00    -0.185 OA 
BRANCH   9  10
HETATM   10  C   UNL     1     -12.152  11.300  68.926  1.00  0.00    -0.224 C  
BRANCH  10  11
HETATM   11  C   UNL     1     -11.974  12.183  70.154  1.00  0.00    -0.314 C  
HETATM   12  C   UNL     1     -12.061  13.672  69.898  1.00  0.00    -0.341 C  
HETATM   13  N   UNL     1     -12.585  14.132  71.142  1.00  0.00    -0.346 NA 
HETATM   14  C   UNL     1     -13.279  13.120  71.750  1.00  0.00    -0.403 C  
HETATM   15  O   UNL     1     -14.030  13.253  72.698  1.00  0.00    -0.741 OA 
HETATM   16  O   UNL     1     -13.030  11.942  71.108  1.00  0.00    -0.299 OA 
ENDBRANCH  10  11
ENDBRANCH   9  10
ENDBRANCH   4   9
TORSDOF 3
ENDMDL
MODEL       66
REMARK 921   NORMALIZED FREE ENERGY PREDICTED BY IDOCK:   -4.92 KCAL/MOL
REMARK 922        TOTAL FREE ENERGY PREDICTED BY IDOCK:   -6.02 KCAL/MOL
REMARK 923 INTER-LIGAND FREE ENERGY PREDICTED BY IDOCK:   -5.76 KCAL/MOL
REMARK 924 INTRA-LIGAND FREE ENERGY PREDICTED BY IDOCK:   -0.26 KCAL/MOL
REMARK 927      BINDING AFFINITY PREDICTED BY RF-SCORE:    0.00 PKD
ROOT
HETATM    1  C   UNL     1     -14.357   7.093  71.905  1.00  0.00    -0.471 C  
HETATM    2  C   UNL     1     -13.254   8.067  71.610  1.00  0.00    -0.358 A  
HETATM    3  C   UNL     1     -13.517   9.311  71.018  1.00  0.00    -0.120 A  
HETATM    4  C   UNL     1     -12.483  10.223  70.781  1.00  0.00    -0.346 A  
HETATM    5  C   UNL     1     -11.935   7.734  71.942  1.00  0.00    -0.340 A  
HETATM    6  C   UNL     1     -11.171   9.866  71.099  1.00  0.00    -0.404 A  
HETATM    7  C   UNL     1      -9.479   8.242  72.036  1.00  0.00    -0.304 C  
HETATM    8  C   UNL     1     -10.887   8.623  71.683  1.00  0.00    -0.374 A  
ENDROOT
BRANCH   4   9
HETATM    9  O   UNL     1     -12.859  11.414  70.207  1.00  0.00    -0.093 OA 
BRANCH   9  10
HETATM   10  C   UNL     1     -11.983  12.518  70.449  1.00  0.00    -0.251 C  
BRANCH  10  11
HETATM   11  C   UNL     1     -12.751  13.678  71.069  1.00  0.00    -0.332 C  
HETATM   12  C   UNL     1     -13.585  13.326  72.282  1.00  0.00    -0.605 C  
HETATM   13  N   UNL     1     -13.543  14.554  73.006  1.00  0.00    -0.576 NA 
HETATM   14  C   UNL     1     -12.416  15.252  72.663  1.00  0.00    -0.380 C  
HETATM   15  O   UNL     1     -11.974  16.214  73.262  1.00  0.00    -0.465 OA 
HETATM   16  O   UNL     1     -11.840  14.681  71.564  1.00  0.00    -0.340 OA 
ENDBRANCH  10  11
ENDBRANCH   9  10
ENDBRANCH   4   9
TORSDOF 3
ENDMDL
MODEL       67
REMARK 921   NORMALIZED FREE ENERGY PREDICTED BY IDOCK:   -4.91 KCAL/MOL
REMARK 922        TOTAL FREE ENERGY PREDICTED BY IDOCK:   -6.00 KCAL/MOL
REMARK 923 INTER-LIGAND FREE ENERGY PREDICTED BY IDOCK:   -5.64 KCAL/MOL
REMARK 924 INTRA-LIGAND FREE ENERGY PREDICTED BY IDOCK:   -0.36 KCAL/MOL
REMARK 927      BINDING AFFINITY PREDICTED BY RF-SCORE:    0.00 PKD
ROOT
HETATM    1  C   UNL     1      -7.074  15.584  67.217  1.00  0.00    -0.225 C  
HETATM    2  C   UNL     1      -8.325  16.210  66.673  1.00  0.00    -0.321 A  
HETATM    3  C   UNL     1      -9.299  15.443  66.015  1.00  0.00    -0.364 A  
HETATM    4  C   UNL     1     -10.476  16.034  65.543  1.00  0.00    -0.405 A  
HETATM    5  C   UNL     1      -8.533  17.585  66.832  1.00  0.00    -0.261 A  
HETATM    6  C   UNL     1     -10.656  17.411  65.692  1.00  0.00    -0.158 A  
HETATM    7  C   UNL     1      -9.887  19.674  66.510  1.00  0.00    -0.523 C  
HETATM    8  C   UNL     1      -9.690  18.195  66.338  1.00  0.00    -0.329 A  
ENDROOT
BRANCH   4   9
HETATM    9  O   UNL     1     -11.362  15.185  64.925  1.00  0.00    -0.385 OA 
BRANCH   9  10
HETATM   10  C   UNL     1     -12.006  14.238  65.782  1.00  0.00    -0.393 C  
BRANCH  10  11
HETATM   11  C   UNL     1     -12.080  12.876  65.106  1.00  0.00    -0.445 C  
HETATM   12  C   UNL     1     -11.973  12.897  63.596  1.00  0.00    -0.541 C  
HETATM   13  N   UNL     1     -11.357  11.634  63.350  1.00  0.00    -0.357 NA 
HETATM   14  C   UNL     1     -10.651  11.244  64.456  1.00  0.00    -0.336 C  
HETATM   15  O   UNL     1      -9.836  10.341  64.488  1.00  0.00    -0.318 OA 
HETATM   16  O   UNL     1     -10.972  12.048  65.512  1.00  0.00    -0.282 OA 
ENDBRANCH  10  11
ENDBRANCH   9  10
ENDBRANCH   4   9
TORSDOF 3
ENDMDL
MODEL       68
REMARK 921   NORMALIZED FREE ENERGY PREDICTED BY IDOCK:   -4.89 KCAL/MOL
REMARK 922        TOTAL FREE ENERGY PREDICTED BY IDOCK:   -5.98 KCAL/MOL
REMARK 923 INTER-LIGAND FREE ENERGY PREDICTED BY IDOCK:   -5.64 KCAL/MOL
REMARK 924 INTRA-LIGAND FREE ENERGY PREDICTED BY IDOCK:   -0.34 KCAL/MOL
REMARK 927      BINDING AFFINITY PREDICTED BY RF-SCORE:    0.00 PKD
ROOT
HETATM    1  C   UNL     1     -13.675  14.014  72.544  1.00  0.00    -0.651 C  
HETATM    2  C   UNL     1     -12.995  13.181  71.498  1.00  0.00    -0.412 A  
HETATM    3  C   UNL     1     -12.967  11.781  71.584  1.00  0.00    -0.467 A  
HETATM    4  C   UNL     1     -12.359  11.015  70.583  1.00  0.00    -0.386 A  
HETATM    5  C   UNL     1     -12.383  13.810  70.407  1.00  0.00    -0.423 A  
HETATM    6  C   UNL     1     -11.735  11.661  69.513  1.00  0.00    -0.410 A  
HETATM    7  C   UNL     1     -11.084  13.754  68.260  1.00  0.00    -0.279 C  
HETATM    8  C   UNL     1     -11.744  13.059  69.416  1.00  0.00    -0.386 A  
ENDROOT
BRANCH   4   9
HETATM    9  O   UNL     1     -12.402   9.654  70.767  1.00  0.00    -0.275 OA 
BRANCH   9  10
HETATM   10  C   UNL     1     -11.348   9.108  71.564  1.00  0.00    -0.368 C  
BRANCH  10  11
HETATM   11  C   UNL     1     -10.803   7.838  70.924  1.00  0.00    -0.237 C  
HETATM   12  C   UNL     1     -11.689   6.618  71.052  1.00  0.00    -0.360 C  
HETATM   13  N   UNL     1     -11.356   5.913  69.857  1.00  0.00    -0.285 NA 
HETATM   14  C   UNL     1     -10.899   6.796  68.915  1.00  0.00    -0.243 C  
HETATM   15  O   UNL     1     -10.754   6.551  67.733  1.00  0.00    -0.227 OA 
HETATM   16  O   UNL     1     -10.665   8.009  69.498  1.00  0.00    -0.230 OA 
ENDBRANCH  10  11
ENDBRANCH   9  10
ENDBRANCH   4   9
TORSDOF 3
ENDMDL
MODEL       69
REMARK 921   NORMALIZED FREE ENERGY PREDICTED BY IDOCK:   -4.89 KCAL/MOL
REMARK 922        TOTAL FREE ENERGY PREDICTED BY IDOCK:   -5.97 KCAL/MOL
REMARK 923 INTER-LIGAND FREE ENERGY PREDICTED BY IDOCK:   -5.64 KCAL/MOL
REMARK 924 INTRA-LIGAND FREE ENERGY PREDICTED BY IDOCK:   -0.33 KCAL/MOL
REMARK 927      BINDING AFFINITY PREDICTED BY RF-SCORE:    0.00 PKD
ROOT
HETATM    1  C   UNL     1     -10.511  19.946  66.050  1.00  0.00    -0.580 C  
HETATM    2  C   UNL     1      -9.759  19.037  66.978  1.00  0.00    -0.365 A  
HETATM    3  C   UNL     1     -10.210  17.737  67.251  1.00  0.00    -0.350 A  
HETATM    4  C   UNL     1      -9.480  16.889  68.091  1.00  0.00    -0.251 A  
HETATM    5  C   UNL     1      -8.576  19.489  67.575  1.00  0.00    -0.348 A  
HETATM    6  C   UNL     1      -8.314  17.364  68.695  1.00  0.00    -0.264 A  
HETATM    7  C   UNL     1      -6.593  19.171  69.080  1.00  0.00    -0.336 C  
HETATM    8  C   UNL     1      -7.852  18.663  68.441  1.00  0.00    -0.344 A  
ENDROOT
BRANCH   4   9
HETATM    9  O   UNL     1     -10.012  15.636  68.278  1.00  0.00    -0.211 OA 
BRANCH   9  10
HETATM   10  C   UNL     1     -11.431  15.589  68.444  1.00  0.00    -0.363 C  
BRANCH  10  11
HETATM   11  C   UNL     1     -12.031  14.493  67.572  1.00  0.00    -0.325 C  
HETATM   12  C   UNL     1     -11.442  14.379  66.182  1.00  0.00    -0.357 C  
HETATM   13  N   UNL     1     -11.602  12.983  65.934  1.00  0.00    -0.345 NA 
HETATM   14  C   UNL     1     -11.647  12.307  67.123  1.00  0.00    -0.353 C  
HETATM   15  O   UNL     1     -11.546  11.101  67.251  1.00  0.00    -0.514 OA 
HETATM   16  O   UNL     1     -11.787  13.195  68.151  1.00  0.00    -0.336 OA 
ENDBRANCH  10  11
ENDBRANCH   9  10
ENDBRANCH   4   9
TORSDOF 3
ENDMDL
MODEL       70
REMARK 921   NORMALIZED FREE ENERGY PREDICTED BY IDOCK:   -4.86 KCAL/MOL
REMARK 922        TOTAL FREE ENERGY PREDICTED BY IDOCK:   -5.95 KCAL/MOL
REMARK 923 INTER-LIGAND FREE ENERGY PREDICTED BY IDOCK:   -5.72 KCAL/MOL
REMARK 924 INTRA-LIGAND FREE ENERGY PREDICTED BY IDOCK:   -0.23 KCAL/MOL
REMARK 927      BINDING AFFINITY PREDICTED BY RF-SCORE:    0.00 PKD
ROOT
HETATM    1  C   UNL     1     -10.926  10.226  67.810  1.00  0.00    -0.360 C  
HETATM    2  C   UNL     1     -10.839  11.096  66.592  1.00  0.00    -0.308 A  
HETATM    3  C   UNL     1     -11.312  12.417  66.602  1.00  0.00    -0.394 A  
HETATM    4  C   UNL     1     -11.193  13.229  65.468  1.00  0.00    -0.287 A  
HETATM    5  C   UNL     1     -10.263  10.587  65.421  1.00  0.00    -0.340 A  
HETATM    6  C   UNL     1     -10.636  12.697  64.303  1.00  0.00    -0.408 A  
HETATM    7  C   UNL     1      -9.556  10.807  63.023  1.00  0.00    -0.381 C  
HETATM    8  C   UNL     1     -10.166  11.376  64.271  1.00  0.00    -0.367 A  
ENDROOT
BRANCH   4   9
HETATM    9  O   UNL     1     -11.682  14.507  65.598  1.00  0.00    -0.345 OA 
BRANCH   9  10
HETATM   10  C   UNL     1     -10.850  15.540  65.062  1.00  0.00    -0.450 C  
BRANCH  10  11
HETATM   11  C   UNL     1     -10.640  16.639  66.096  1.00  0.00    -0.215 C  
HETATM   12  C   UNL     1      -9.268  16.672  66.733  1.00  0.00    -0.238 C  
HETATM   13  N   UNL     1      -9.128  18.066  67.005  1.00  0.00    -0.253 NA 
HETATM   14  C   UNL     1      -9.912  18.783  66.141  1.00  0.00    -0.345 C  
HETATM   15  O   UNL     1      -9.844  19.984  65.961  1.00  0.00    -0.445 OA 
HETATM   16  O   UNL     1     -10.761  17.939  65.483  1.00  0.00    -0.585 OA 
ENDBRANCH  10  11
ENDBRANCH   9  10
ENDBRANCH   4   9
TORSDOF 3
ENDMDL
MODEL       71
REMARK 921   NORMALIZED FREE ENERGY PREDICTED BY IDOCK:   -4.86 KCAL/MOL
REMARK 922        TOTAL FREE ENERGY PREDICTED BY IDOCK:   -5.94 KCAL/MOL
REMARK 923 INTER-LIGAND FREE ENERGY PREDICTED BY IDOCK:   -5.68 KCAL/MOL
REMARK 924 INTRA-LIGAND FREE ENERGY PREDICTED BY IDOCK:   -0.27 KCAL/MOL
REMARK 927      BINDING AFFINITY PREDICTED BY RF-SCORE:    0.00 PKD
ROOT
HETATM    1  C   UNL     1     -13.771  15.593  72.866  1.00  0.00    -0.628 C  
HETATM    2  C   UNL     1     -13.085  14.879  71.739  1.00  0.00    -0.425 A  
HETATM    3  C   UNL     1     -12.975  13.480  71.720  1.00  0.00    -0.439 A  
HETATM    4  C   UNL     1     -12.363  12.825  70.645  1.00  0.00    -0.297 A  
HETATM    5  C   UNL     1     -12.552  15.619  70.677  1.00  0.00    -0.461 A  
HETATM    6  C   UNL     1     -11.818  13.582  69.606  1.00  0.00    -0.398 A  
HETATM    7  C   UNL     1     -11.336  15.795  68.489  1.00  0.00    -0.374 C  
HETATM    8  C   UNL     1     -11.910  14.981  69.612  1.00  0.00    -0.358 A  
ENDROOT
BRANCH   4   9
HETATM    9  O   UNL     1     -12.322  11.454  70.730  1.00  0.00    -0.365 OA 
BRANCH   9  10
HETATM   10  C   UNL     1     -11.377  10.813  69.869  1.00  0.00    -0.311 C  
BRANCH  10  11
HETATM   11  C   UNL     1     -11.114   9.388  70.338  1.00  0.00    -0.261 C  
HETATM   12  C   UNL     1      -9.656   9.030  70.529  1.00  0.00    -0.219 C  
HETATM   13  N   UNL     1      -9.749   8.066  71.577  1.00  0.00    -0.161 NA 
HETATM   14  C   UNL     1     -10.889   8.283  72.302  1.00  0.00    -0.338 C  
HETATM   15  O   UNL     1     -11.139   7.788  73.385  1.00  0.00    -0.316 OA 
HETATM   16  O   UNL     1     -11.690   9.171  71.643  1.00  0.00    -0.328 OA 
ENDBRANCH  10  11
ENDBRANCH   9  10
ENDBRANCH   4   9
TORSDOF 3
ENDMDL
MODEL       72
REMARK 921   NORMALIZED FREE ENERGY PREDICTED BY IDOCK:   -4.84 KCAL/MOL
REMARK 922        TOTAL FREE ENERGY PREDICTED BY IDOCK:   -5.92 KCAL/MOL
REMARK 923 INTER-LIGAND FREE ENERGY PREDICTED BY IDOCK:   -5.61 KCAL/MOL
REMARK 924 INTRA-LIGAND FREE ENERGY PREDICTED BY IDOCK:   -0.30 KCAL/MOL
REMARK 927      BINDING AFFINITY PREDICTED BY RF-SCORE:    0.00 PKD
ROOT
HETATM    1  C   UNL     1     -12.777   9.503  71.305  1.00  0.00    -0.416 C  
HETATM    2  C   UNL     1     -12.611  10.965  71.010  1.00  0.00    -0.517 A  
HETATM    3  C   UNL     1     -11.982  11.406  69.836  1.00  0.00    -0.434 A  
HETATM    4  C   UNL     1     -11.865  12.773  69.558  1.00  0.00    -0.316 A  
HETATM    5  C   UNL     1     -13.104  11.911  71.917  1.00  0.00    -0.474 A  
HETATM    6  C   UNL     1     -12.342  13.702  70.485  1.00  0.00    -0.425 A  
HETATM    7  C   UNL     1     -13.491  14.277  72.659  1.00  0.00    -0.623 C  
HETATM    8  C   UNL     1     -12.966  13.279  71.668  1.00  0.00    -0.441 A  
ENDROOT
BRANCH   4   9
HETATM    9  O   UNL     1     -11.239  13.087  68.375  1.00  0.00    -0.237 OA 
BRANCH   9  10
HETATM   10  C   UNL     1      -9.873  13.491  68.491  1.00  0.00    -0.189 C  
BRANCH  10  11
HETATM   11  C   UNL     1      -9.661  14.842  67.819  1.00  0.00    -0.209 C  
HETATM   12  C   UNL     1     -10.926  15.577  67.434  1.00  0.00    -0.306 C  
HETATM   13  N   UNL     1     -10.499  16.933  67.553  1.00  0.00    -0.326 NA 
HETATM   14  C   UNL     1      -9.457  17.011  68.438  1.00  0.00    -0.269 C  
HETATM   15  O   UNL     1      -9.025  18.037  68.928  1.00  0.00    -0.246 OA 
HETATM   16  O   UNL     1      -8.998  15.755  68.718  1.00  0.00    -0.187 OA 
ENDBRANCH  10  11
ENDBRANCH   9  10
ENDBRANCH   4   9
TORSDOF 3
ENDMDL
MODEL       73
REMARK 921   NORMALIZED FREE ENERGY PREDICTED BY IDOCK:   -4.79 KCAL/MOL
REMARK 922        TOTAL FREE ENERGY PREDICTED BY IDOCK:   -5.86 KCAL/MOL
REMARK 923 INTER-LIGAND FREE ENERGY PREDICTED BY IDOCK:   -5.69 KCAL/MOL
REMARK 924 INTRA-LIGAND FREE ENERGY PREDICTED BY IDOCK:   -0.18 KCAL/MOL
REMARK 927      BINDING AFFINITY PREDICTED BY RF-SCORE:    0.00 PKD
ROOT
HETATM    1  C   UNL     1     -12.275  10.765  70.942  1.00  0.00    -0.487 C  
HETATM    2  C   UNL     1     -12.209  12.151  70.371  1.00  0.00    -0.378 A  
HETATM    3  C   UNL     1     -11.855  12.375  69.032  1.00  0.00    -0.349 A  
HETATM    4  C   UNL     1     -11.831  13.671  68.505  1.00  0.00    -0.371 A  
HETATM    5  C   UNL     1     -12.517  13.247  71.187  1.00  0.00    -0.397 A  
HETATM    6  C   UNL     1     -12.120  14.753  69.339  1.00  0.00    -0.305 A  
HETATM    7  C   UNL     1     -12.790  15.711  71.578  1.00  0.00    -0.538 C  
HETATM    8  C   UNL     1     -12.467  14.550  70.683  1.00  0.00    -0.409 A  
ENDROOT
BRANCH   4   9
HETATM    9  O   UNL     1     -11.480  13.767  67.180  1.00  0.00    -0.310 OA 
BRANCH   9  10
HETATM   10  C   UNL     1     -10.449  12.874  66.750  1.00  0.00    -0.254 C  
BRANCH  10  11
HETATM   11  C   UNL     1     -10.948  12.001  65.607  1.00  0.00    -0.297 C  
HETATM   12  C   UNL     1     -11.165  12.718  64.292  1.00  0.00    -0.364 C  
HETATM   13  N   UNL     1     -10.892  11.671  63.363  1.00  0.00    -0.394 NA 
HETATM   14  C   UNL     1     -10.061  10.749  63.941  1.00  0.00    -0.333 C  
HETATM   15  O   UNL     1      -9.464   9.870  63.348  1.00  0.00    -0.265 OA 
HETATM   16  O   UNL     1      -9.974  10.987  65.283  1.00  0.00    -0.234 OA 
ENDBRANCH  10  11
ENDBRANCH   9  10
ENDBRANCH   4   9
TORSDOF 3
ENDMDL
MODEL       74
REMARK 921   NORMALIZED FREE ENERGY PREDICTED BY IDOCK:   -4.77 KCAL/MOL
REMARK 922        TOTAL FREE ENERGY PREDICTED BY IDOCK:   -5.84 KCAL/MOL
REMARK 923 INTER-LIGAND FREE ENERGY PREDICTED BY IDOCK:   -5.62 KCAL/MOL
REMARK 924 INTRA-LIGAND FREE ENERGY PREDICTED BY IDOCK:   -0.22 KCAL/MOL
REMARK 927      BINDING AFFINITY PREDICTED BY RF-SCORE:    0.00 PKD
ROOT
HETATM    1  C   UNL     1      -6.647  16.707  68.107  1.00  0.00    -0.148 C  
HETATM    2  C   UNL     1      -8.126  16.954  68.132  1.00  0.00    -0.201 A  
HETATM    3  C   UNL     1      -9.010  16.038  68.722  1.00  0.00    -0.226 A  
HETATM    4  C   UNL     1     -10.384  16.298  68.769  1.00  0.00    -0.261 A  
HETATM    5  C   UNL     1      -8.638  18.128  67.566  1.00  0.00    -0.249 A  
HETATM    6  C   UNL     1     -10.879  17.464  68.180  1.00  0.00    -0.273 A  
HETATM    7  C   UNL     1     -10.541  19.647  66.955  1.00  0.00    -0.602 C  
HETATM    8  C   UNL     1     -10.012  18.387  67.578  1.00  0.00    -0.349 A  
ENDROOT
BRANCH   4   9
HETATM    9  O   UNL     1     -11.151  15.336  69.380  1.00  0.00    -0.248 OA 
BRANCH   9  10
HETATM   10  C   UNL     1     -12.394  15.792  69.921  1.00  0.00    -0.178 C  
BRANCH  10  11
HETATM   11  C   UNL     1     -12.677  15.106  71.251  1.00  0.00    -0.369 C  
HETATM   12  C   UNL     1     -14.106  15.206  71.739  1.00  0.00    -0.548 C  
HETATM   13  N   UNL     1     -14.230  13.985  72.467  1.00  0.00    -0.648 NA 
HETATM   14  C   UNL     1     -13.340  13.067  71.980  1.00  0.00    -0.492 C  
HETATM   15  O   UNL     1     -13.353  11.875  72.226  1.00  0.00    -0.471 OA 
HETATM   16  O   UNL     1     -12.454  13.685  71.145  1.00  0.00    -0.354 OA 
ENDBRANCH  10  11
ENDBRANCH   9  10
ENDBRANCH   4   9
TORSDOF 3
ENDMDL
MODEL       75
REMARK 921   NORMALIZED FREE ENERGY PREDICTED BY IDOCK:   -4.76 KCAL/MOL
REMARK 922        TOTAL FREE ENERGY PREDICTED BY IDOCK:   -5.83 KCAL/MOL
REMARK 923 INTER-LIGAND FREE ENERGY PREDICTED BY IDOCK:   -5.58 KCAL/MOL
REMARK 924 INTRA-LIGAND FREE ENERGY PREDICTED BY IDOCK:   -0.25 KCAL/MOL
REMARK 927      BINDING AFFINITY PREDICTED BY RF-SCORE:    0.00 PKD
ROOT
HETATM    1  C   UNL     1      -8.380   8.030  67.340  1.00  0.00    -0.123 C  
HETATM    2  C   UNL     1      -9.047   8.961  66.372  1.00  0.00    -0.217 A  
HETATM    3  C   UNL     1     -10.004   9.895  66.797  1.00  0.00    -0.272 A  
HETATM    4  C   UNL     1     -10.593  10.780  65.887  1.00  0.00    -0.147 A  
HETATM    5  C   UNL     1      -8.700   8.908  65.016  1.00  0.00    -0.200 A  
HETATM    6  C   UNL     1     -10.251  10.698  64.536  1.00  0.00    -0.399 A  
HETATM    7  C   UNL     1      -8.926   9.685  62.640  1.00  0.00    -0.274 C  
HETATM    8  C   UNL     1      -9.303   9.766  64.091  1.00  0.00    -0.237 A  
ENDROOT
BRANCH   4   9
HETATM    9  O   UNL     1     -11.509  11.656  66.418  1.00  0.00    -0.390 OA 
BRANCH   9  10
HETATM   10  C   UNL     1     -12.109  12.559  65.485  1.00  0.00    -0.419 C  
BRANCH  10  11
HETATM   11  C   UNL     1     -11.765  13.998  65.844  1.00  0.00    -0.366 C  
HETATM   12  C   UNL     1     -10.286  14.308  65.928  1.00  0.00    -0.314 C  
HETATM   13  N   UNL     1     -10.273  15.680  65.540  1.00  0.00    -0.370 NA 
HETATM   14  C   UNL     1     -11.368  15.949  64.764  1.00  0.00    -0.309 C  
HETATM   15  O   UNL     1     -11.527  16.952  64.093  1.00  0.00    -1.174 OA 
HETATM   16  O   UNL     1     -12.243  14.902  64.826  1.00  0.00    -0.373 OA 
ENDBRANCH  10  11
ENDBRANCH   9  10
ENDBRANCH   4   9
TORSDOF 3
ENDMDL
MODEL       76
REMARK 921   NORMALIZED FREE ENERGY PREDICTED BY IDOCK:   -4.75 KCAL/MOL
REMARK 922        TOTAL FREE ENERGY PREDICTED BY IDOCK:   -5.81 KCAL/MOL
REMARK 923 INTER-LIGAND FREE ENERGY PREDICTED BY IDOCK:   -5.49 KCAL/MOL
REMARK 924 INTRA-LIGAND FREE ENERGY PREDICTED BY IDOCK:   -0.32 KCAL/MOL
REMARK 927      BINDING AFFINITY PREDICTED BY RF-SCORE:    0.00 PKD
ROOT
HETATM    1  C   UNL     1     -12.046  15.356  69.437  1.00  0.00    -0.308 C  
HETATM    2  C   UNL     1     -11.947  13.862  69.352  1.00  0.00    -0.402 A  
HETATM    3  C   UNL     1     -12.220  13.047  70.461  1.00  0.00    -0.392 A  
HETATM    4  C   UNL     1     -12.158  11.653  70.357  1.00  0.00    -0.373 A  
HETATM    5  C   UNL     1     -11.587  13.264  68.138  1.00  0.00    -0.373 A  
HETATM    6  C   UNL     1     -11.775  11.075  69.145  1.00  0.00    -0.403 A  
HETATM    7  C   UNL     1     -11.090  11.253  66.720  1.00  0.00    -0.314 C  
HETATM    8  C   UNL     1     -11.490  11.873  68.028  1.00  0.00    -0.389 A  
ENDROOT
BRANCH   4   9
HETATM    9  O   UNL     1     -12.455  10.957  71.504  1.00  0.00    -0.358 OA 
BRANCH   9  10
HETATM   10  C   UNL     1     -13.365   9.866  71.343  1.00  0.00    -0.365 C  
BRANCH  10  11
HETATM   11  C   UNL     1     -12.844   8.630  72.065  1.00  0.00    -0.379 C  
HETATM   12  C   UNL     1     -13.295   7.306  71.488  1.00  0.00    -0.369 C  
HETATM   13  N   UNL     1     -12.181   6.475  71.812  1.00  0.00    -0.349 NA 
HETATM   14  C   UNL     1     -11.057   7.244  71.944  1.00  0.00    -0.238 C  
HETATM   15  O   UNL     1      -9.917   6.822  71.989  1.00  0.00    -0.172 OA 
HETATM   16  O   UNL     1     -11.405   8.564  71.981  1.00  0.00    -0.307 OA 
ENDBRANCH  10  11
ENDBRANCH   9  10
ENDBRANCH   4   9
TORSDOF 3
ENDMDL
MODEL       77
REMARK 921   NORMALIZED FREE ENERGY PREDICTED BY IDOCK:   -4.74 KCAL/MOL
REMARK 922        TOTAL FREE ENERGY PREDICTED BY IDOCK:   -5.80 KCAL/MOL
REMARK 923 INTER-LIGAND FREE ENERGY PREDICTED BY IDOCK:   -5.58 KCAL/MOL
REMARK 924 INTRA-LIGAND FREE ENERGY PREDICTED BY IDOCK:   -0.22 KCAL/MOL
REMARK 927      BINDING AFFINITY PREDICTED BY RF-SCORE:    0.00 PKD
ROOT
HETATM    1  C   UNL     1     -10.690  20.072  65.889  1.00  0.00    -0.379 C  
HETATM    2  C   UNL     1      -9.856  19.405  66.943  1.00  0.00    -0.447 A  
HETATM    3  C   UNL     1     -10.242  18.184  67.516  1.00  0.00    -0.382 A  
HETATM    4  C   UNL     1      -9.437  17.556  68.473  1.00  0.00    -0.296 A  
HETATM    5  C   UNL     1      -8.660  20.004  67.357  1.00  0.00    -0.403 A  
HETATM    6  C   UNL     1      -8.259  18.179  68.889  1.00  0.00    -0.160 A  
HETATM    7  C   UNL     1      -6.588  20.070  68.772  1.00  0.00    -0.356 C  
HETATM    8  C   UNL     1      -7.860  19.404  68.334  1.00  0.00    -0.377 A  
ENDROOT
BRANCH   4   9
HETATM    9  O   UNL     1      -9.911  16.360  68.957  1.00  0.00    -0.244 OA 
BRANCH   9  10
HETATM   10  C   UNL     1     -11.307  16.331  69.263  1.00  0.00    -0.288 C  
BRANCH  10  11
HETATM   11  C   UNL     1     -11.574  15.389  70.430  1.00  0.00    -0.324 C  
HETATM   12  C   UNL     1     -11.599  16.041  71.795  1.00  0.00    -0.448 C  
HETATM   13  N   UNL     1     -12.523  15.199  72.482  1.00  0.00    -0.336 NA 
HETATM   14  C   UNL     1     -13.361  14.603  71.579  1.00  0.00    -0.364 C  
HETATM   15  O   UNL     1     -14.391  14.017  71.854  1.00  0.00    -0.464 OA 
HETATM   16  O   UNL     1     -12.884  14.797  70.313  1.00  0.00    -0.310 OA 
ENDBRANCH  10  11
ENDBRANCH   9  10
ENDBRANCH   4   9
TORSDOF 3
ENDMDL
MODEL       78
REMARK 921   NORMALIZED FREE ENERGY PREDICTED BY IDOCK:   -4.69 KCAL/MOL
REMARK 922        TOTAL FREE ENERGY PREDICTED BY IDOCK:   -5.74 KCAL/MOL
REMARK 923 INTER-LIGAND FREE ENERGY PREDICTED BY IDOCK:   -5.37 KCAL/MOL
REMARK 924 INTRA-LIGAND FREE ENERGY PREDICTED BY IDOCK:   -0.37 KCAL/MOL
REMARK 927      BINDING AFFINITY PREDICTED BY RF-SCORE:    0.00 PKD
ROOT
HETATM    1  C   UNL     1     -12.228  10.072  71.098  1.00  0.00    -0.477 C  
HETATM    2  C   UNL     1     -12.356  11.545  70.843  1.00  0.00    -0.460 A  
HETATM    3  C   UNL     1     -11.783  12.143  69.711  1.00  0.00    -0.381 A  
HETATM    4  C   UNL     1     -11.941  13.512  69.469  1.00  0.00    -0.334 A  
HETATM    5  C   UNL     1     -13.073  12.340  71.747  1.00  0.00    -0.449 A  
HETATM    6  C   UNL     1     -12.640  14.293  70.392  1.00  0.00    -0.405 A  
HETATM    7  C   UNL     1     -13.974  14.551  72.520  1.00  0.00    -0.510 C  
HETATM    8  C   UNL     1     -13.212  13.715  71.534  1.00  0.00    -0.409 A  
ENDROOT
BRANCH   4   9
HETATM    9  O   UNL     1     -11.345  13.986  68.325  1.00  0.00    -0.259 OA 
BRANCH   9  10
HETATM   10  C   UNL     1      -9.918  14.063  68.361  1.00  0.00    -0.236 C  
BRANCH  10  11
HETATM   11  C   UNL     1      -9.318  13.371  67.144  1.00  0.00    -0.240 C  
HETATM   12  C   UNL     1      -8.981  11.908  67.334  1.00  0.00    -0.173 C  
HETATM   13  N   UNL     1      -9.170  11.412  66.010  1.00  0.00    -0.212 NA 
HETATM   14  C   UNL     1     -10.052  12.216  65.339  1.00  0.00    -0.255 C  
HETATM   15  O   UNL     1     -10.594  11.941  64.286  1.00  0.00    -0.286 OA 
HETATM   16  O   UNL     1     -10.261  13.362  66.052  1.00  0.00    -0.288 OA 
ENDBRANCH  10  11
ENDBRANCH   9  10
ENDBRANCH   4   9
TORSDOF 3
ENDMDL
MODEL       79
REMARK 921   NORMALIZED FREE ENERGY PREDICTED BY IDOCK:   -4.64 KCAL/MOL
REMARK 922        TOTAL FREE ENERGY PREDICTED BY IDOCK:   -5.69 KCAL/MOL
REMARK 923 INTER-LIGAND FREE ENERGY PREDICTED BY IDOCK:   -5.37 KCAL/MOL
REMARK 924 INTRA-LIGAND FREE ENERGY PREDICTED BY IDOCK:   -0.32 KCAL/MOL
REMARK 927      BINDING AFFINITY PREDICTED BY RF-SCORE:    0.00 PKD
ROOT
HETATM    1  C   UNL     1     -10.988  12.598  65.491  1.00  0.00    -0.313 C  
HETATM    2  C   UNL     1     -11.223  13.317  66.787  1.00  0.00    -0.331 A  
HETATM    3  C   UNL     1     -11.082  14.710  66.885  1.00  0.00    -0.333 A  
HETATM    4  C   UNL     1     -11.338  15.371  68.091  1.00  0.00    -0.348 A  
HETATM    5  C   UNL     1     -11.603  12.588  67.920  1.00  0.00    -0.403 A  
HETATM    6  C   UNL     1     -11.694  14.625  69.217  1.00  0.00    -0.348 A  
HETATM    7  C   UNL     1     -12.226  12.430  70.346  1.00  0.00    -0.370 C  
HETATM    8  C   UNL     1     -11.831  13.232  69.140  1.00  0.00    -0.378 A  
ENDROOT
BRANCH   4   9
HETATM    9  O   UNL     1     -11.177  16.736  68.067  1.00  0.00    -0.295 OA 
BRANCH   9  10
HETATM   10  C   UNL     1     -10.057  17.236  68.802  1.00  0.00    -0.337 C  
BRANCH  10  11
HETATM   11  C   UNL     1      -9.396  18.381  68.046  1.00  0.00    -0.291 C  
HETATM   12  C   UNL     1      -8.338  17.969  67.046  1.00  0.00    -0.236 C  
HETATM   13  N   UNL     1      -8.461  19.008  66.076  1.00  0.00    -0.470 NA 
HETATM   14  C   UNL     1      -9.724  19.534  66.125  1.00  0.00    -0.387 C  
HETATM   15  O   UNL     1     -10.214  20.266  65.285  1.00  0.00    -0.157 OA 
HETATM   16  O   UNL     1     -10.366  19.083  67.243  1.00  0.00    -0.371 OA 
ENDBRANCH  10  11
ENDBRANCH   9  10
ENDBRANCH   4   9
TORSDOF 3
ENDMDL
MODEL       80
REMARK 921   NORMALIZED FREE ENERGY PREDICTED BY IDOCK:   -4.57 KCAL/MOL
REMARK 922        TOTAL FREE ENERGY PREDICTED BY IDOCK:   -5.61 KCAL/MOL
REMARK 923 INTER-LIGAND FREE ENERGY PREDICTED BY IDOCK:   -5.36 KCAL/MOL
REMARK 924 INTRA-LIGAND FREE ENERGY PREDICTED BY IDOCK:   -0.24 KCAL/MOL
REMARK 927      BINDING AFFINITY PREDICTED BY RF-SCORE:    0.00 PKD
ROOT
HETATM    1  C   UNL     1     -11.548  15.786  68.239  1.00  0.00    -0.302 C  
HETATM    2  C   UNL     1     -11.505  14.405  67.653  1.00  0.00    -0.369 A  
HETATM    3  C   UNL     1     -11.833  13.276  68.419  1.00  0.00    -0.395 A  
HETATM    4  C   UNL     1     -11.822  11.998  67.850  1.00  0.00    -0.250 A  
HETATM    5  C   UNL     1     -11.143  14.238  66.311  1.00  0.00    -0.323 A  
HETATM    6  C   UNL     1     -11.437  11.848  66.516  1.00  0.00    -0.381 A  
HETATM    7  C   UNL     1     -10.694  12.805  64.300  1.00  0.00    -0.419 C  
HETATM    8  C   UNL     1     -11.097  12.964  65.737  1.00  0.00    -0.312 A  
ENDROOT
BRANCH   4   9
HETATM    9  O   UNL     1     -12.170  10.969  68.691  1.00  0.00    -0.571 OA 
BRANCH   9  10
HETATM   10  C   UNL     1     -11.595  11.024  70.000  1.00  0.00    -0.344 C  
BRANCH  10  11
HETATM   11  C   UNL     1     -10.939   9.693  70.346  1.00  0.00    -0.299 C  
HETATM   12  C   UNL     1      -9.430   9.669  70.238  1.00  0.00    -0.248 C  
HETATM   13  N   UNL     1      -9.101   8.708  71.240  1.00  0.00    -0.191 NA 
HETATM   14  C   UNL     1     -10.096   8.664  72.179  1.00  0.00    -0.318 C  
HETATM   15  O   UNL     1     -10.014   8.125  73.266  1.00  0.00    -0.266 OA 
HETATM   16  O   UNL     1     -11.186   9.352  71.726  1.00  0.00    -0.376 OA 
ENDBRANCH  10  11
ENDBRANCH   9  10
ENDBRANCH   4   9
TORSDOF 3
ENDMDL
MODEL       81
REMARK 921   NORMALIZED FREE ENERGY PREDICTED BY IDOCK:   -4.56 KCAL/MOL
REMARK 922        TOTAL FREE ENERGY PREDICTED BY IDOCK:   -5.60 KCAL/MOL
REMARK 923 INTER-LIGAND FREE ENERGY PREDICTED BY IDOCK:   -5.28 KCAL/MOL
REMARK 924 INTRA-LIGAND FREE ENERGY PREDICTED BY IDOCK:   -0.31 KCAL/MOL
REMARK 927      BINDING AFFINITY PREDICTED BY RF-SCORE:    0.00 PKD
ROOT
HETATM    1  C   UNL     1     -13.206   9.384  72.279  1.00  0.00    -0.528 C  
HETATM    2  C   UNL     1     -12.208   9.894  71.282  1.00  0.00    -0.480 A  
HETATM    3  C   UNL     1     -12.508  10.967  70.430  1.00  0.00    -0.397 A  
HETATM    4  C   UNL     1     -11.554  11.454  69.529  1.00  0.00    -0.331 A  
HETATM    5  C   UNL     1     -10.944   9.294  71.205  1.00  0.00    -0.421 A  
HETATM    6  C   UNL     1     -10.307  10.830  69.451  1.00  0.00    -0.207 A  
HETATM    7  C   UNL     1      -8.648   9.085  70.214  1.00  0.00    -0.193 C  
HETATM    8  C   UNL     1      -9.992   9.749  70.288  1.00  0.00    -0.309 A  
ENDROOT
BRANCH   4   9
HETATM    9  O   UNL     1     -11.955  12.515  68.753  1.00  0.00    -0.310 OA 
BRANCH   9  10
HETATM   10  C   UNL     1     -11.808  13.805  69.352  1.00  0.00    -0.341 C  
BRANCH  10  11
HETATM   11  C   UNL     1     -10.971  14.711  68.458  1.00  0.00    -0.252 C  
HETATM   12  C   UNL     1      -9.589  14.192  68.125  1.00  0.00    -0.218 C  
HETATM   13  N   UNL     1      -9.387  14.765  66.834  1.00  0.00    -0.228 NA 
HETATM   14  C   UNL     1     -10.599  15.004  66.243  1.00  0.00    -0.307 C  
HETATM   15  O   UNL     1     -10.768  15.268  65.068  1.00  0.00    -0.400 OA 
HETATM   16  O   UNL     1     -11.595  14.864  67.166  1.00  0.00    -0.362 OA 
ENDBRANCH  10  11
ENDBRANCH   9  10
ENDBRANCH   4   9
TORSDOF 3
ENDMDL
MODEL       82
REMARK 921   NORMALIZED FREE ENERGY PREDICTED BY IDOCK:   -4.53 KCAL/MOL
REMARK 922        TOTAL FREE ENERGY PREDICTED BY IDOCK:   -5.56 KCAL/MOL
REMARK 923 INTER-LIGAND FREE ENERGY PREDICTED BY IDOCK:   -5.27 KCAL/MOL
REMARK 924 INTRA-LIGAND FREE ENERGY PREDICTED BY IDOCK:   -0.29 KCAL/MOL
REMARK 927      BINDING AFFINITY PREDICTED BY RF-SCORE:    0.00 PKD
ROOT
HETATM    1  C   UNL     1     -10.434  10.769  64.893  1.00  0.00    -0.324 C  
HETATM    2  C   UNL     1     -10.849  11.788  65.913  1.00  0.00    -0.339 A  
HETATM    3  C   UNL     1     -10.821  13.162  65.626  1.00  0.00    -0.294 A  
HETATM    4  C   UNL     1     -11.243  14.099  66.575  1.00  0.00    -0.330 A  
HETATM    5  C   UNL     1     -11.284  11.363  67.174  1.00  0.00    -0.363 A  
HETATM    6  C   UNL     1     -11.654  13.658  67.835  1.00  0.00    -0.376 A  
HETATM    7  C   UNL     1     -12.133  11.813  69.492  1.00  0.00    -0.314 C  
HETATM    8  C   UNL     1     -11.680  12.290  68.143  1.00  0.00    -0.408 A  
ENDROOT
BRANCH   4   9
HETATM    9  O   UNL     1     -11.182  15.414  66.181  1.00  0.00    -0.281 OA 
BRANCH   9  10
HETATM   10  C   UNL     1      -9.873  15.990  66.165  1.00  0.00    -0.325 C  
BRANCH  10  11
HETATM   11  C   UNL     1      -9.892  17.364  66.822  1.00  0.00    -0.296 C  
HETATM   12  C   UNL     1     -10.674  17.453  68.114  1.00  0.00    -0.343 C  
HETATM   13  N   UNL     1      -9.953  18.475  68.799  1.00  0.00    -0.385 NA 
HETATM   14  C   UNL     1      -8.665  18.518  68.337  1.00  0.00    -0.327 C  
HETATM   15  O   UNL     1      -7.746  19.111  68.868  1.00  0.00    -0.339 OA 
HETATM   16  O   UNL     1      -8.559  17.760  67.206  1.00  0.00    -0.227 OA 
ENDBRANCH  10  11
ENDBRANCH   9  10
ENDBRANCH   4   9
TORSDOF 3
ENDMDL
MODEL       83
REMARK 921   NORMALIZED FREE ENERGY PREDICTED BY IDOCK:   -4.52 KCAL/MOL
REMARK 922        TOTAL FREE ENERGY PREDICTED BY IDOCK:   -5.55 KCAL/MOL
REMARK 923 INTER-LIGAND FREE ENERGY PREDICTED BY IDOCK:   -5.30 KCAL/MOL
REMARK 924 INTRA-LIGAND FREE ENERGY PREDICTED BY IDOCK:   -0.25 KCAL/MOL
REMARK 927      BINDING AFFINITY PREDICTED BY RF-SCORE:    0.00 PKD
ROOT
HETATM    1  C   UNL     1      -6.219  14.414  70.001  1.00  0.00    -0.158 C  
HETATM    2  C   UNL     1      -7.019  15.569  69.474  1.00  0.00    -0.190 A  
HETATM    3  C   UNL     1      -8.345  15.404  69.046  1.00  0.00    -0.223 A  
HETATM    4  C   UNL     1      -9.090  16.497  68.589  1.00  0.00    -0.239 A  
HETATM    5  C   UNL     1      -6.437  16.841  69.419  1.00  0.00    -0.229 A  
HETATM    6  C   UNL     1      -8.486  17.755  68.520  1.00  0.00    -0.296 A  
HETATM    7  C   UNL     1      -6.512  19.290  68.873  1.00  0.00    -0.308 C  
HETATM    8  C   UNL     1      -7.159  17.937  68.935  1.00  0.00    -0.264 A  
ENDROOT
BRANCH   4   9
HETATM    9  O   UNL     1     -10.380  16.219  68.205  1.00  0.00    -0.252 OA 
BRANCH   9  10
HETATM   10  C   UNL     1     -10.648  16.354  66.807  1.00  0.00    -0.238 C  
BRANCH  10  11
HETATM   11  C   UNL     1     -10.921  14.990  66.186  1.00  0.00    -0.334 C  
HETATM   12  C   UNL     1     -12.134  14.265  66.728  1.00  0.00    -0.417 C  
HETATM   13  N   UNL     1     -12.537  13.517  65.582  1.00  0.00    -0.473 NA 
HETATM   14  C   UNL     1     -12.098  14.143  64.447  1.00  0.00    -0.463 C  
HETATM   15  O   UNL     1     -12.468  13.890  63.316  1.00  0.00    -0.817 OA 
HETATM   16  O   UNL     1     -11.206  15.123  64.779  1.00  0.00    -0.394 OA 
ENDBRANCH  10  11
ENDBRANCH   9  10
ENDBRANCH   4   9
TORSDOF 3
ENDMDL
MODEL       84
REMARK 921   NORMALIZED FREE ENERGY PREDICTED BY IDOCK:   -4.52 KCAL/MOL
REMARK 922        TOTAL FREE ENERGY PREDICTED BY IDOCK:   -5.54 KCAL/MOL
REMARK 923 INTER-LIGAND FREE ENERGY PREDICTED BY IDOCK:   -5.32 KCAL/MOL
REMARK 924 INTRA-LIGAND FREE ENERGY PREDICTED BY IDOCK:   -0.23 KCAL/MOL
REMARK 927      BINDING AFFINITY PREDICTED BY RF-SCORE:    0.00 PKD
ROOT
HETATM    1  C   UNL     1     -11.385  11.975  63.593  1.00  0.00    -0.536 C  
HETATM    2  C   UNL     1     -11.218  12.781  64.847  1.00  0.00    -0.331 A  
HETATM    3  C   UNL     1     -11.674  12.308  66.086  1.00  0.00    -0.440 A  
HETATM    4  C   UNL     1     -11.480  13.055  67.253  1.00  0.00    -0.332 A  
HETATM    5  C   UNL     1     -10.584  14.028  64.784  1.00  0.00    -0.441 A  
HETATM    6  C   UNL     1     -10.865  14.307  67.168  1.00  0.00    -0.296 A  
HETATM    7  C   UNL     1      -9.739  16.140  65.846  1.00  0.00    -0.374 C  
HETATM    8  C   UNL     1     -10.411  14.800  65.937  1.00  0.00    -0.335 A  
ENDROOT
BRANCH   4   9
HETATM    9  O   UNL     1     -11.959  12.488  68.410  1.00  0.00    -0.322 OA 
BRANCH   9  10
HETATM   10  C   UNL     1     -11.765  11.076  68.528  1.00  0.00    -0.278 C  
BRANCH  10  11
HETATM   11  C   UNL     1     -11.170  10.736  69.888  1.00  0.00    -0.300 C  
HETATM   12  C   UNL     1     -12.147  10.172  70.898  1.00  0.00    -0.356 C  
HETATM   13  N   UNL     1     -11.288   9.330  71.665  1.00  0.00    -0.381 NA 
HETATM   14  C   UNL     1     -10.216   8.950  70.904  1.00  0.00    -0.240 C  
HETATM   15  O   UNL     1      -9.434   8.062  71.183  1.00  0.00    -0.149 OA 
HETATM   16  O   UNL     1     -10.178   9.697  69.761  1.00  0.00    -0.205 OA 
ENDBRANCH  10  11
ENDBRANCH   9  10
ENDBRANCH   4   9
TORSDOF 3
ENDMDL
MODEL       85
REMARK 921   NORMALIZED FREE ENERGY PREDICTED BY IDOCK:   -4.50 KCAL/MOL
REMARK 922        TOTAL FREE ENERGY PREDICTED BY IDOCK:   -5.52 KCAL/MOL
REMARK 923 INTER-LIGAND FREE ENERGY PREDICTED BY IDOCK:   -5.18 KCAL/MOL
REMARK 924 INTRA-LIGAND FREE ENERGY PREDICTED BY IDOCK:   -0.35 KCAL/MOL
REMARK 927      BINDING AFFINITY PREDICTED BY RF-SCORE:    0.00 PKD
ROOT
HETATM    1  C   UNL     1      -8.264   9.331  66.361  1.00  0.00    -0.111 C  
HETATM    2  C   UNL     1      -9.411  10.291  66.485  1.00  0.00    -0.212 A  
HETATM    3  C   UNL     1     -10.335  10.193  67.537  1.00  0.00    -0.279 A  
HETATM    4  C   UNL     1     -11.379  11.116  67.660  1.00  0.00    -0.284 A  
HETATM    5  C   UNL     1      -9.560  11.313  65.540  1.00  0.00    -0.259 A  
HETATM    6  C   UNL     1     -11.525  12.115  66.695  1.00  0.00    -0.426 A  
HETATM    7  C   UNL     1     -10.765  13.305  64.601  1.00  0.00    -0.415 C  
HETATM    8  C   UNL     1     -10.617  12.223  65.632  1.00  0.00    -0.295 A  
ENDROOT
BRANCH   4   9
HETATM    9  O   UNL     1     -12.216  10.928  68.734  1.00  0.00    -0.518 OA 
BRANCH   9  10
HETATM   10  C   UNL     1     -11.788  11.531  69.958  1.00  0.00    -0.355 C  
BRANCH  10  11
HETATM   11  C   UNL     1     -11.974  10.562  71.119  1.00  0.00    -0.336 C  
HETATM   12  C   UNL     1     -13.360  10.537  71.724  1.00  0.00    -0.344 C  
HETATM   13  N   UNL     1     -13.438   9.183  72.169  1.00  0.00    -0.437 NA 
HETATM   14  C   UNL     1     -12.595   8.405  71.422  1.00  0.00    -0.277 C  
HETATM   15  O   UNL     1     -12.598   7.189  71.395  1.00  0.00    -0.359 OA 
HETATM   16  O   UNL     1     -11.771   9.203  70.680  1.00  0.00    -0.271 OA 
ENDBRANCH  10  11
ENDBRANCH   9  10
ENDBRANCH   4   9
TORSDOF 3
ENDMDL
MODEL       86
REMARK 921   NORMALIZED FREE ENERGY PREDICTED BY IDOCK:   -4.50 KCAL/MOL
REMARK 922        TOTAL FREE ENERGY PREDICTED BY IDOCK:   -5.52 KCAL/MOL
REMARK 923 INTER-LIGAND FREE ENERGY PREDICTED BY IDOCK:   -5.23 KCAL/MOL
REMARK 924 INTRA-LIGAND FREE ENERGY PREDICTED BY IDOCK:   -0.29 KCAL/MOL
REMARK 927      BINDING AFFINITY PREDICTED BY RF-SCORE:    0.00 PKD
ROOT
HETATM    1  C   UNL     1     -13.017   9.798  72.105  1.00  0.00    -0.483 C  
HETATM    2  C   UNL     1     -12.222   9.802  70.833  1.00  0.00    -0.390 A  
HETATM    3  C   UNL     1     -12.483  10.727  69.811  1.00  0.00    -0.231 A  
HETATM    4  C   UNL     1     -11.710  10.742  68.645  1.00  0.00    -0.219 A  
HETATM    5  C   UNL     1     -11.189   8.871  70.664  1.00  0.00    -0.308 A  
HETATM    6  C   UNL     1     -10.699   9.792  68.484  1.00  0.00    -0.252 A  
HETATM    7  C   UNL     1      -9.334   7.840  69.324  1.00  0.00    -0.148 C  
HETATM    8  C   UNL     1     -10.429   8.853  69.490  1.00  0.00    -0.229 A  
ENDROOT
BRANCH   4   9
HETATM    9  O   UNL     1     -12.050  11.698  67.718  1.00  0.00    -0.613 OA 
BRANCH   9  10
HETATM   10  C   UNL     1     -10.956  12.266  66.992  1.00  0.00    -0.268 C  
BRANCH  10  11
HETATM   11  C   UNL     1     -11.199  12.152  65.493  1.00  0.00    -0.334 C  
HETATM   12  C   UNL     1     -10.571  13.242  64.652  1.00  0.00    -0.404 C  
HETATM   13  N   UNL     1     -10.321  12.537  63.437  1.00  0.00    -0.362 NA 
HETATM   14  C   UNL     1     -10.198  11.198  63.699  1.00  0.00    -0.387 C  
HETATM   15  O   UNL     1      -9.760  10.367  62.926  1.00  0.00    -0.316 OA 
HETATM   16  O   UNL     1     -10.608  10.942  64.976  1.00  0.00    -0.286 OA 
ENDBRANCH  10  11
ENDBRANCH   9  10
ENDBRANCH   4   9
TORSDOF 3
ENDMDL
MODEL       87
REMARK 921   NORMALIZED FREE ENERGY PREDICTED BY IDOCK:   -4.50 KCAL/MOL
REMARK 922        TOTAL FREE ENERGY PREDICTED BY IDOCK:   -5.52 KCAL/MOL
REMARK 923 INTER-LIGAND FREE ENERGY PREDICTED BY IDOCK:   -5.28 KCAL/MOL
REMARK 924 INTRA-LIGAND FREE ENERGY PREDICTED BY IDOCK:   -0.24 KCAL/MOL
REMARK 927      BINDING AFFINITY PREDICTED BY RF-SCORE:    0.00 PKD
ROOT
HETATM    1  C   UNL     1     -10.485   5.345  69.255  1.00  0.00    -0.309 C  
HETATM    2  C   UNL     1     -10.745   6.271  70.407  1.00  0.00    -0.329 A  
HETATM    3  C   UNL     1     -11.290   7.549  70.208  1.00  0.00    -0.219 A  
HETATM    4  C   UNL     1     -11.559   8.388  71.295  1.00  0.00    -0.283 A  
HETATM    5  C   UNL     1     -10.448   5.850  71.709  1.00  0.00    -0.276 A  
HETATM    6  C   UNL     1     -11.237   7.960  72.585  1.00  0.00    -0.459 A  
HETATM    7  C   UNL     1     -10.347   6.224  74.189  1.00  0.00    -0.319 C  
HETATM    8  C   UNL     1     -10.683   6.690  72.802  1.00  0.00    -0.272 A  
ENDROOT
BRANCH   4   9
HETATM    9  O   UNL     1     -12.102   9.611  70.982  1.00  0.00    -0.304 OA 
BRANCH   9  10
HETATM   10  C   UNL     1     -11.233  10.509  70.287  1.00  0.00    -0.313 C  
BRANCH  10  11
HETATM   11  C   UNL     1     -12.038  11.419  69.368  1.00  0.00    -0.291 C  
HETATM   12  C   UNL     1     -11.610  12.871  69.359  1.00  0.00    -0.302 C  
HETATM   13  N   UNL     1     -11.951  13.246  68.025  1.00  0.00    -0.345 NA 
HETATM   14  C   UNL     1     -11.952  12.138  67.222  1.00  0.00    -0.087 C  
HETATM   15  O   UNL     1     -11.975  12.151  66.005  1.00  0.00    -0.578 OA 
HETATM   16  O   UNL     1     -11.885  11.013  67.992  1.00  0.00    -0.593 OA 
ENDBRANCH  10  11
ENDBRANCH   9  10
ENDBRANCH   4   9
TORSDOF 3
ENDMDL
MODEL       88
REMARK 921   NORMALIZED FREE ENERGY PREDICTED BY IDOCK:   -4.49 KCAL/MOL
REMARK 922        TOTAL FREE ENERGY PREDICTED BY IDOCK:   -5.51 KCAL/MOL
REMARK 923 INTER-LIGAND FREE ENERGY PREDICTED BY IDOCK:   -5.24 KCAL/MOL
REMARK 924 INTRA-LIGAND FREE ENERGY PREDICTED BY IDOCK:   -0.27 KCAL/MOL
REMARK 927      BINDING AFFINITY PREDICTED BY RF-SCORE:    0.00 PKD
ROOT
HETATM    1  C   UNL     1     -13.887  15.212  72.811  1.00  0.00    -0.508 C  
HETATM    2  C   UNL     1     -13.329  14.146  71.914  1.00  0.00    -0.476 A  
HETATM    3  C   UNL     1     -12.658  14.470  70.725  1.00  0.00    -0.418 A  
HETATM    4  C   UNL     1     -12.112  13.467  69.916  1.00  0.00    -0.322 A  
HETATM    5  C   UNL     1     -13.468  12.800  72.275  1.00  0.00    -0.591 A  
HETATM    6  C   UNL     1     -12.279  12.129  70.281  1.00  0.00    -0.344 A  
HETATM    7  C   UNL     1     -13.126  10.349  71.860  1.00  0.00    -0.563 C  
HETATM    8  C   UNL     1     -12.955  11.786  71.461  1.00  0.00    -0.446 A  
ENDROOT
BRANCH   4   9
HETATM    9  O   UNL     1     -11.468  13.901  68.783  1.00  0.00    -0.252 OA 
BRANCH   9  10
HETATM   10  C   UNL     1     -10.287  13.176  68.430  1.00  0.00    -0.253 C  
BRANCH  10  11
HETATM   11  C   UNL     1      -9.062  14.074  68.541  1.00  0.00    -0.163 C  
HETATM   12  C   UNL     1      -7.855  13.622  67.747  1.00  0.00    -0.171 C  
HETATM   13  N   UNL     1      -7.243  14.875  67.447  1.00  0.00    -0.200 NA 
HETATM   14  C   UNL     1      -8.189  15.865  67.464  1.00  0.00    -0.159 C  
HETATM   15  O   UNL     1      -8.038  16.991  67.029  1.00  0.00    -0.184 OA 
HETATM   16  O   UNL     1      -9.345  15.385  68.011  1.00  0.00    -0.194 OA 
ENDBRANCH  10  11
ENDBRANCH   9  10
ENDBRANCH   4   9
TORSDOF 3
ENDMDL
MODEL       89
REMARK 921   NORMALIZED FREE ENERGY PREDICTED BY IDOCK:   -4.48 KCAL/MOL
REMARK 922        TOTAL FREE ENERGY PREDICTED BY IDOCK:   -5.50 KCAL/MOL
REMARK 923 INTER-LIGAND FREE ENERGY PREDICTED BY IDOCK:   -5.12 KCAL/MOL
REMARK 924 INTRA-LIGAND FREE ENERGY PREDICTED BY IDOCK:   -0.38 KCAL/MOL
REMARK 927      BINDING AFFINITY PREDICTED BY RF-SCORE:    0.00 PKD
ROOT
HETATM    1  C   UNL     1     -10.861   9.708  70.964  1.00  0.00    -0.412 C  
HETATM    2  C   UNL     1     -10.956  10.313  69.594  1.00  0.00    -0.314 A  
HETATM    3  C   UNL     1     -11.585  11.549  69.384  1.00  0.00    -0.388 A  
HETATM    4  C   UNL     1     -11.636  12.118  68.106  1.00  0.00    -0.337 A  
HETATM    5  C   UNL     1     -10.395   9.638  68.503  1.00  0.00    -0.231 A  
HETATM    6  C   UNL     1     -11.091  11.419  67.026  1.00  0.00    -0.364 A  
HETATM    7  C   UNL     1      -9.868   9.433  66.058  1.00  0.00    -0.366 C  
HETATM    8  C   UNL     1     -10.465  10.179  67.216  1.00  0.00    -0.313 A  
ENDROOT
BRANCH   4   9
HETATM    9  O   UNL     1     -12.268  13.335  68.021  1.00  0.00    -0.275 OA 
BRANCH   9  10
HETATM   10  C   UNL     1     -11.799  14.200  66.984  1.00  0.00    -0.429 C  
BRANCH  10  11
HETATM   11  C   UNL     1     -11.217  15.475  67.581  1.00  0.00    -0.291 C  
HETATM   12  C   UNL     1     -11.730  15.836  68.958  1.00  0.00    -0.396 C  
HETATM   13  N   UNL     1     -10.596  16.508  69.503  1.00  0.00    -0.322 NA 
HETATM   14  C   UNL     1      -9.459  16.072  68.877  1.00  0.00    -0.235 C  
HETATM   15  O   UNL     1      -8.322  16.274  69.261  1.00  0.00    -0.228 OA 
HETATM   16  O   UNL     1      -9.794  15.340  67.774  1.00  0.00    -0.219 OA 
ENDBRANCH  10  11
ENDBRANCH   9  10
ENDBRANCH   4   9
TORSDOF 3
ENDMDL
MODEL       90
REMARK 921   NORMALIZED FREE ENERGY PREDICTED BY IDOCK:   -4.45 KCAL/MOL
REMARK 922        TOTAL FREE ENERGY PREDICTED BY IDOCK:   -5.46 KCAL/MOL
REMARK 923 INTER-LIGAND FREE ENERGY PREDICTED BY IDOCK:   -5.25 KCAL/MOL
REMARK 924 INTRA-LIGAND FREE ENERGY PREDICTED BY IDOCK:   -0.21 KCAL/MOL
REMARK 927      BINDING AFFINITY PREDICTED BY RF-SCORE:    0.00 PKD
ROOT
HETATM    1  C   UNL     1      -9.263   8.107  69.512  1.00  0.00    -0.158 C  
HETATM    2  C   UNL     1     -10.445   8.968  69.848  1.00  0.00    -0.226 A  
HETATM    3  C   UNL     1     -10.774  10.092  69.075  1.00  0.00    -0.249 A  
HETATM    4  C   UNL     1     -11.899  10.866  69.380  1.00  0.00    -0.328 A  
HETATM    5  C   UNL     1     -11.245   8.639  70.949  1.00  0.00    -0.311 A  
HETATM    6  C   UNL     1     -12.673  10.535  70.495  1.00  0.00    -0.385 A  
HETATM    7  C   UNL     1     -13.193   9.058  72.476  1.00  0.00    -0.467 C  
HETATM    8  C   UNL     1     -12.355   9.421  71.284  1.00  0.00    -0.422 A  
ENDROOT
BRANCH   4   9
HETATM    9  O   UNL     1     -12.129  11.935  68.549  1.00  0.00    -0.412 OA 
BRANCH   9  10
HETATM   10  C   UNL     1     -11.019  12.817  68.359  1.00  0.00    -0.254 C  
BRANCH  10  11
HETATM   11  C   UNL     1     -11.054  13.941  69.386  1.00  0.00    -0.180 C  
HETATM   12  C   UNL     1     -10.942  15.339  68.818  1.00  0.00    -0.260 C  
HETATM   13  N   UNL     1     -11.700  16.082  69.772  1.00  0.00    -0.301 NA 
HETATM   14  C   UNL     1     -12.606  15.257  70.382  1.00  0.00    -0.375 C  
HETATM   15  O   UNL     1     -13.542  15.624  71.066  1.00  0.00    -0.588 OA 
HETATM   16  O   UNL     1     -12.321  13.956  70.076  1.00  0.00    -0.330 OA 
ENDBRANCH  10  11
ENDBRANCH   9  10
ENDBRANCH   4   9
TORSDOF 3
ENDMDL
MODEL       91
REMARK 921   NORMALIZED FREE ENERGY PREDICTED BY IDOCK:   -4.44 KCAL/MOL
REMARK 922        TOTAL FREE ENERGY PREDICTED BY IDOCK:   -5.45 KCAL/MOL
REMARK 923 INTER-LIGAND FREE ENERGY PREDICTED BY IDOCK:   -5.09 KCAL/MOL
REMARK 924 INTRA-LIGAND FREE ENERGY PREDICTED BY IDOCK:   -0.36 KCAL/MOL
REMARK 927      BINDING AFFINITY PREDICTED BY RF-SCORE:    0.00 PKD
ROOT
HETATM    1  C   UNL     1     -13.172  10.879  71.740  1.00  0.00    -0.513 C  
HETATM    2  C   UNL     1     -12.027  10.326  70.943  1.00  0.00    -0.473 A  
HETATM    3  C   UNL     1     -11.794  10.732  69.620  1.00  0.00    -0.392 A  
HETATM    4  C   UNL     1     -10.702  10.235  68.901  1.00  0.00    -0.227 A  
HETATM    5  C   UNL     1     -11.165   9.394  71.533  1.00  0.00    -0.457 A  
HETATM    6  C   UNL     1      -9.865   9.289  69.498  1.00  0.00    -0.188 A  
HETATM    7  C   UNL     1      -9.182   7.856  71.463  1.00  0.00    -0.171 C  
HETATM    8  C   UNL     1     -10.088   8.864  70.816  1.00  0.00    -0.282 A  
ENDROOT
BRANCH   4   9
HETATM    9  O   UNL     1     -10.567  10.711  67.619  1.00  0.00    -0.210 OA 
BRANCH   9  10
HETATM   10  C   UNL     1      -9.581  11.731  67.443  1.00  0.00    -0.168 C  
BRANCH  10  11
HETATM   11  C   UNL     1     -10.230  13.013  66.938  1.00  0.00    -0.244 C  
HETATM   12  C   UNL     1     -11.690  12.893  66.561  1.00  0.00    -0.393 C  
HETATM   13  N   UNL     1     -12.155  14.209  66.854  1.00  0.00    -0.446 NA 
HETATM   14  C   UNL     1     -11.351  14.781  67.802  1.00  0.00    -0.330 C  
HETATM   15  O   UNL     1     -11.608  15.793  68.426  1.00  0.00    -0.373 OA 
HETATM   16  O   UNL     1     -10.227  14.022  67.968  1.00  0.00    -0.228 OA 
ENDBRANCH  10  11
ENDBRANCH   9  10
ENDBRANCH   4   9
TORSDOF 3
ENDMDL
MODEL       92
REMARK 921   NORMALIZED FREE ENERGY PREDICTED BY IDOCK:   -4.44 KCAL/MOL
REMARK 922        TOTAL FREE ENERGY PREDICTED BY IDOCK:   -5.45 KCAL/MOL
REMARK 923 INTER-LIGAND FREE ENERGY PREDICTED BY IDOCK:   -5.25 KCAL/MOL
REMARK 924 INTRA-LIGAND FREE ENERGY PREDICTED BY IDOCK:   -0.20 KCAL/MOL
REMARK 927      BINDING AFFINITY PREDICTED BY RF-SCORE:    0.00 PKD
ROOT
HETATM    1  C   UNL     1      -6.727  19.753  69.646  1.00  0.00    -0.351 C  
HETATM    2  C   UNL     1      -7.117  19.122  68.342  1.00  0.00    -0.313 A  
HETATM    3  C   UNL     1      -8.079  18.102  68.283  1.00  0.00    -0.306 A  
HETATM    4  C   UNL     1      -8.458  17.546  67.056  1.00  0.00    -0.234 A  
HETATM    5  C   UNL     1      -6.520  19.566  67.156  1.00  0.00    -0.207 A  
HETATM    6  C   UNL     1      -7.836  17.987  65.885  1.00  0.00    -0.093 A  
HETATM    7  C   UNL     1      -6.205  19.482  64.667  1.00  0.00    -0.271 C  
HETATM    8  C   UNL     1      -6.866  18.999  65.926  1.00  0.00    -0.296 A  
ENDROOT
BRANCH   4   9
HETATM    9  O   UNL     1      -9.415  16.562  67.118  1.00  0.00    -0.233 OA 
BRANCH   9  10
HETATM   10  C   UNL     1      -9.827  16.024  65.859  1.00  0.00    -0.348 C  
BRANCH  10  11
HETATM   11  C   UNL     1     -11.160  15.301  66.003  1.00  0.00    -0.278 C  
HETATM   12  C   UNL     1     -11.862  14.975  64.703  1.00  0.00    -0.375 C  
HETATM   13  N   UNL     1     -12.558  13.782  65.062  1.00  0.00    -0.631 NA 
HETATM   14  C   UNL     1     -11.910  13.166  66.098  1.00  0.00    -0.401 C  
HETATM   15  O   UNL     1     -12.113  12.029  66.479  1.00  0.00    -0.617 OA 
HETATM   16  O   UNL     1     -10.972  14.011  66.619  1.00  0.00    -0.295 OA 
ENDBRANCH  10  11
ENDBRANCH   9  10
ENDBRANCH   4   9
TORSDOF 3
ENDMDL
MODEL       93
REMARK 921   NORMALIZED FREE ENERGY PREDICTED BY IDOCK:   -4.42 KCAL/MOL
REMARK 922        TOTAL FREE ENERGY PREDICTED BY IDOCK:   -5.42 KCAL/MOL
REMARK 923 INTER-LIGAND FREE ENERGY PREDICTED BY IDOCK:   -5.18 KCAL/MOL
REMARK 924 INTRA-LIGAND FREE ENERGY PREDICTED BY IDOCK:   -0.25 KCAL/MOL
REMARK 927      BINDING AFFINITY PREDICTED BY RF-SCORE:    0.00 PKD
ROOT
HETATM    1  C   UNL     1      -6.643  20.634  64.945  1.00  0.00    -0.274 C  
HETATM    2  C   UNL     1      -7.257  20.131  66.218  1.00  0.00    -0.311 A  
HETATM    3  C   UNL     1      -8.494  19.469  66.221  1.00  0.00    -0.370 A  
HETATM    4  C   UNL     1      -9.038  18.975  67.412  1.00  0.00    -0.293 A  
HETATM    5  C   UNL     1      -6.578  20.314  67.429  1.00  0.00    -0.267 A  
HETATM    6  C   UNL     1      -8.357  19.186  68.613  1.00  0.00    -0.403 A  
HETATM    7  C   UNL     1      -6.386  20.070  69.920  1.00  0.00    -0.391 C  
HETATM    8  C   UNL     1      -7.124  19.853  68.631  1.00  0.00    -0.338 A  
ENDROOT
BRANCH   4   9
HETATM    9  O   UNL     1     -10.249  18.336  67.292  1.00  0.00    -0.338 OA 
BRANCH   9  10
HETATM   10  C   UNL     1     -10.329  17.050  67.914  1.00  0.00    -0.338 C  
BRANCH  10  11
HETATM   11  C   UNL     1     -10.838  16.013  66.922  1.00  0.00    -0.203 C  
HETATM   12  C   UNL     1      -9.764  15.235  66.193  1.00  0.00    -0.314 C  
HETATM   13  N   UNL     1     -10.428  13.991  65.979  1.00  0.00    -0.296 NA 
HETATM   14  C   UNL     1     -11.400  13.819  66.928  1.00  0.00    -0.328 C  
HETATM   15  O   UNL     1     -11.981  12.776  67.160  1.00  0.00    -0.372 OA 
HETATM   16  O   UNL     1     -11.595  14.991  67.602  1.00  0.00    -0.339 OA 
ENDBRANCH  10  11
ENDBRANCH   9  10
ENDBRANCH   4   9
TORSDOF 3
ENDMDL
MODEL       94
REMARK 921   NORMALIZED FREE ENERGY PREDICTED BY IDOCK:   -4.39 KCAL/MOL
REMARK 922        TOTAL FREE ENERGY PREDICTED BY IDOCK:   -5.39 KCAL/MOL
REMARK 923 INTER-LIGAND FREE ENERGY PREDICTED BY IDOCK:   -5.08 KCAL/MOL
REMARK 924 INTRA-LIGAND FREE ENERGY PREDICTED BY IDOCK:   -0.31 KCAL/MOL
REMARK 927      BINDING AFFINITY PREDICTED BY RF-SCORE:    0.00 PKD
ROOT
HETATM    1  C   UNL     1     -13.744  13.392  72.312  1.00  0.00    -0.705 C  
HETATM    2  C   UNL     1     -13.062  12.251  71.616  1.00  0.00    -0.408 A  
HETATM    3  C   UNL     1     -13.196  10.931  72.073  1.00  0.00    -0.456 A  
HETATM    4  C   UNL     1     -12.583   9.873  71.394  1.00  0.00    -0.398 A  
HETATM    5  C   UNL     1     -12.283  12.503  70.480  1.00  0.00    -0.382 A  
HETATM    6  C   UNL     1     -11.792  10.146  70.275  1.00  0.00    -0.342 A  
HETATM    7  C   UNL     1     -10.800  11.754  68.600  1.00  0.00    -0.259 C  
HETATM    8  C   UNL     1     -11.639  11.460  69.809  1.00  0.00    -0.407 A  
ENDROOT
BRANCH   4   9
HETATM    9  O   UNL     1     -12.792   8.623  71.926  1.00  0.00    -0.329 OA 
BRANCH   9  10
HETATM   10  C   UNL     1     -12.091   7.556  71.283  1.00  0.00    -0.323 C  
BRANCH  10  11
HETATM   11  C   UNL     1     -11.180   6.846  72.277  1.00  0.00    -0.263 C  
HETATM   12  C   UNL     1     -10.456   5.632  71.737  1.00  0.00    -0.228 C  
HETATM   13  N   UNL     1      -9.260   5.661  72.514  1.00  0.00    -0.143 NA 
HETATM   14  C   UNL     1      -9.014   6.941  72.933  1.00  0.00    -0.126 C  
HETATM   15  O   UNL     1      -7.968   7.336  73.411  1.00  0.00    -0.100 OA 
HETATM   16  O   UNL     1     -10.111   7.719  72.696  1.00  0.00    -0.214 OA 
ENDBRANCH  10  11
ENDBRANCH   9  10
ENDBRANCH   4   9
TORSDOF 3
ENDMDL
MODEL       95
REMARK 921   NORMALIZED FREE ENERGY PREDICTED BY IDOCK:   -4.38 KCAL/MOL
REMARK 922        TOTAL FREE ENERGY PREDICTED BY IDOCK:   -5.38 KCAL/MOL
REMARK 923 INTER-LIGAND FREE ENERGY PREDICTED BY IDOCK:   -5.14 KCAL/MOL
REMARK 924 INTRA-LIGAND FREE ENERGY PREDICTED BY IDOCK:   -0.24 KCAL/MOL
REMARK 927      BINDING AFFINITY PREDICTED BY RF-SCORE:    0.00 PKD
ROOT
HETATM    1  C   UNL     1      -9.657  18.098  66.969  1.00  0.00    -0.287 C  
HETATM    2  C   UNL     1     -10.397  16.905  67.499  1.00  0.00    -0.318 A  
HETATM    3  C   UNL     1     -10.712  15.815  66.673  1.00  0.00    -0.287 A  
HETATM    4  C   UNL     1     -11.373  14.695  67.189  1.00  0.00    -0.356 A  
HETATM    5  C   UNL     1     -10.774  16.871  68.847  1.00  0.00    -0.321 A  
HETATM    6  C   UNL     1     -11.760  14.688  68.531  1.00  0.00    -0.348 A  
HETATM    7  C   UNL     1     -11.866  15.760  70.815  1.00  0.00    -0.438 C  
HETATM    8  C   UNL     1     -11.462  15.772  69.369  1.00  0.00    -0.357 A  
ENDROOT
BRANCH   4   9
HETATM    9  O   UNL     1     -11.619  13.684  66.291  1.00  0.00    -0.324 OA 
BRANCH   9  10
HETATM   10  C   UNL     1     -10.520  12.805  66.037  1.00  0.00    -0.274 C  
BRANCH  10  11
HETATM   11  C   UNL     1     -10.556  11.622  66.996  1.00  0.00    -0.237 C  
HETATM   12  C   UNL     1      -9.648  11.740  68.202  1.00  0.00    -0.193 C  
HETATM   13  N   UNL     1     -10.381  10.989  69.168  1.00  0.00    -0.210 NA 
HETATM   14  C   UNL     1     -11.710  10.989  68.839  1.00  0.00    -0.330 C  
HETATM   15  O   UNL     1     -12.616  10.640  69.571  1.00  0.00    -0.259 OA 
HETATM   16  O   UNL     1     -11.869  11.479  67.574  1.00  0.00    -0.605 OA 
ENDBRANCH  10  11
ENDBRANCH   9  10
ENDBRANCH   4   9
TORSDOF 3
ENDMDL
MODEL       96
REMARK 921   NORMALIZED FREE ENERGY PREDICTED BY IDOCK:   -4.37 KCAL/MOL
REMARK 922        TOTAL FREE ENERGY PREDICTED BY IDOCK:   -5.37 KCAL/MOL
REMARK 923 INTER-LIGAND FREE ENERGY PREDICTED BY IDOCK:   -5.02 KCAL/MOL
REMARK 924 INTRA-LIGAND FREE ENERGY PREDICTED BY IDOCK:   -0.35 KCAL/MOL
REMARK 927      BINDING AFFINITY PREDICTED BY RF-SCORE:    0.00 PKD
ROOT
HETATM    1  C   UNL     1     -11.119   7.906  72.808  1.00  0.00    -0.462 C  
HETATM    2  C   UNL     1     -10.950   8.314  71.374  1.00  0.00    -0.301 A  
HETATM    3  C   UNL     1     -10.913   9.665  70.998  1.00  0.00    -0.431 A  
HETATM    4  C   UNL     1     -10.721  10.031  69.661  1.00  0.00    -0.255 A  
HETATM    5  C   UNL     1     -10.814   7.328  70.389  1.00  0.00    -0.265 A  
HETATM    6  C   UNL     1     -10.609   9.033  68.689  1.00  0.00    -0.194 A  
HETATM    7  C   UNL     1     -10.520   6.605  68.003  1.00  0.00    -0.261 C  
HETATM    8  C   UNL     1     -10.652   7.678  69.045  1.00  0.00    -0.186 A  
ENDROOT
BRANCH   4   9
HETATM    9  O   UNL     1     -10.692  11.382  69.412  1.00  0.00    -0.196 OA 
BRANCH   9  10
HETATM   10  C   UNL     1     -11.885  11.927  68.843  1.00  0.00    -0.307 C  
BRANCH  10  11
HETATM   11  C   UNL     1     -11.560  12.702  67.572  1.00  0.00    -0.359 C  
HETATM   12  C   UNL     1     -10.086  12.849  67.264  1.00  0.00    -0.231 C  
HETATM   13  N   UNL     1     -10.110  12.897  65.839  1.00  0.00    -0.286 NA 
HETATM   14  C   UNL     1     -11.229  12.261  65.376  1.00  0.00    -0.328 C  
HETATM   15  O   UNL     1     -11.424  11.931  64.221  1.00  0.00    -0.350 OA 
HETATM   16  O   UNL     1     -12.081  12.017  66.415  1.00  0.00    -0.610 OA 
ENDBRANCH  10  11
ENDBRANCH   9  10
ENDBRANCH   4   9
TORSDOF 3
ENDMDL
MODEL       97
REMARK 921   NORMALIZED FREE ENERGY PREDICTED BY IDOCK:   -4.37 KCAL/MOL
REMARK 922        TOTAL FREE ENERGY PREDICTED BY IDOCK:   -5.36 KCAL/MOL
REMARK 923 INTER-LIGAND FREE ENERGY PREDICTED BY IDOCK:   -5.06 KCAL/MOL
REMARK 924 INTRA-LIGAND FREE ENERGY PREDICTED BY IDOCK:   -0.30 KCAL/MOL
REMARK 927      BINDING AFFINITY PREDICTED BY RF-SCORE:    0.00 PKD
ROOT
HETATM    1  C   UNL     1     -10.663   5.111  66.401  1.00  0.00    -0.275 C  
HETATM    2  C   UNL     1     -10.553   6.286  67.328  1.00  0.00    -0.371 A  
HETATM    3  C   UNL     1     -10.028   7.513  66.895  1.00  0.00    -0.318 A  
HETATM    4  C   UNL     1      -9.964   8.610  67.761  1.00  0.00    -0.190 A  
HETATM    5  C   UNL     1     -10.994   6.162  68.652  1.00  0.00    -0.415 A  
HETATM    6  C   UNL     1     -10.388   8.461  69.083  1.00  0.00    -0.229 A  
HETATM    7  C   UNL     1     -11.375   7.083  70.955  1.00  0.00    -0.325 C  
HETATM    8  C   UNL     1     -10.908   7.241  69.537  1.00  0.00    -0.224 A  
ENDROOT
BRANCH   4   9
HETATM    9  O   UNL     1      -9.440   9.761  67.224  1.00  0.00    -0.149 OA 
BRANCH   9  10
HETATM   10  C   UNL     1      -9.999  10.981  67.721  1.00  0.00    -0.173 C  
BRANCH  10  11
HETATM   11  C   UNL     1     -10.346  11.913  66.568  1.00  0.00    -0.216 C  
HETATM   12  C   UNL     1     -10.246  11.300  65.188  1.00  0.00    -0.289 C  
HETATM   13  N   UNL     1     -11.246  12.038  64.490  1.00  0.00    -0.321 NA 
HETATM   14  C   UNL     1     -12.181  12.500  65.377  1.00  0.00    -0.412 C  
HETATM   15  O   UNL     1     -13.267  12.960  65.080  1.00  0.00    -0.702 OA 
HETATM   16  O   UNL     1     -11.723  12.333  66.653  1.00  0.00    -0.452 OA 
ENDBRANCH  10  11
ENDBRANCH   9  10
ENDBRANCH   4   9
TORSDOF 3
ENDMDL
MODEL       98
REMARK 921   NORMALIZED FREE ENERGY PREDICTED BY IDOCK:   -4.35 KCAL/MOL
REMARK 922        TOTAL FREE ENERGY PREDICTED BY IDOCK:   -5.35 KCAL/MOL
REMARK 923 INTER-LIGAND FREE ENERGY PREDICTED BY IDOCK:   -5.06 KCAL/MOL
REMARK 924 INTRA-LIGAND FREE ENERGY PREDICTED BY IDOCK:   -0.29 KCAL/MOL
REMARK 927      BINDING AFFINITY PREDICTED BY RF-SCORE:    0.00 PKD
ROOT
HETATM    1  C   UNL     1      -9.083   7.235  68.367  1.00  0.00    -0.135 C  
HETATM    2  C   UNL     1      -9.715   8.426  67.710  1.00  0.00    -0.199 A  
HETATM    3  C   UNL     1     -10.685   9.196  68.369  1.00  0.00    -0.163 A  
HETATM    4  C   UNL     1     -11.241  10.324  67.757  1.00  0.00    -0.190 A  
HETATM    5  C   UNL     1      -9.323   8.787  66.415  1.00  0.00    -0.264 A  
HETATM    6  C   UNL     1     -10.854  10.656  66.457  1.00  0.00    -0.168 A  
HETATM    7  C   UNL     1      -9.466  10.257  64.385  1.00  0.00    -0.360 C  
HETATM    8  C   UNL     1      -9.892   9.894  65.778  1.00  0.00    -0.356 A  
ENDROOT
BRANCH   4   9
HETATM    9  O   UNL     1     -12.173  11.006  68.501  1.00  0.00    -0.582 OA 
BRANCH   9  10
HETATM   10  C   UNL     1     -12.197  10.691  69.896  1.00  0.00    -0.275 C  
BRANCH  10  11
HETATM   11  C   UNL     1     -12.042  11.958  70.728  1.00  0.00    -0.226 C  
HETATM   12  C   UNL     1     -12.015  13.249  69.940  1.00  0.00    -0.330 C  
HETATM   13  N   UNL     1     -12.588  14.154  70.882  1.00  0.00    -0.342 NA 
HETATM   14  C   UNL     1     -13.383  13.464  71.758  1.00  0.00    -0.394 C  
HETATM   15  O   UNL     1     -14.182  13.964  72.526  1.00  0.00    -0.671 OA 
HETATM   16  O   UNL     1     -13.169  12.123  71.612  1.00  0.00    -0.406 OA 
ENDBRANCH  10  11
ENDBRANCH   9  10
ENDBRANCH   4   9
TORSDOF 3
ENDMDL
MODEL       99
REMARK 921   NORMALIZED FREE ENERGY PREDICTED BY IDOCK:   -4.35 KCAL/MOL
REMARK 922        TOTAL FREE ENERGY PREDICTED BY IDOCK:   -5.34 KCAL/MOL
REMARK 923 INTER-LIGAND FREE ENERGY PREDICTED BY IDOCK:   -5.07 KCAL/MOL
REMARK 924 INTRA-LIGAND FREE ENERGY PREDICTED BY IDOCK:   -0.27 KCAL/MOL
REMARK 927      BINDING AFFINITY PREDICTED BY RF-SCORE:    0.00 PKD
ROOT
HETATM    1  C   UNL     1      -8.620   8.670  67.726  1.00  0.00    -0.136 C  
HETATM    2  C   UNL     1      -9.780   9.427  68.303  1.00  0.00    -0.162 A  
HETATM    3  C   UNL     1     -10.413  10.453  67.585  1.00  0.00    -0.277 A  
HETATM    4  C   UNL     1     -11.515  11.127  68.122  1.00  0.00    -0.303 A  
HETATM    5  C   UNL     1     -10.249   9.098  69.581  1.00  0.00    -0.211 A  
HETATM    6  C   UNL     1     -11.956  10.801  69.406  1.00  0.00    -0.353 A  
HETATM    7  C   UNL     1     -11.811   9.425  71.519  1.00  0.00    -0.456 C  
HETATM    8  C   UNL     1     -11.330   9.785  70.143  1.00  0.00    -0.305 A  
ENDROOT
BRANCH   4   9
HETATM    9  O   UNL     1     -12.060  12.105  67.325  1.00  0.00    -0.565 OA 
BRANCH   9  10
HETATM   10  C   UNL     1     -11.168  13.155  66.944  1.00  0.00    -0.296 C  
BRANCH  10  11
HETATM   11  C   UNL     1     -11.720  14.505  67.385  1.00  0.00    -0.400 C  
HETATM   12  C   UNL     1     -11.950  14.654  68.873  1.00  0.00    -0.274 C  
HETATM   13  N   UNL     1     -11.730  16.053  69.043  1.00  0.00    -0.356 NA 
HETATM   14  C   UNL     1     -10.912  16.514  68.047  1.00  0.00    -0.320 C  
HETATM   15  O   UNL     1     -10.355  17.595  68.038  1.00  0.00    -0.339 OA 
HETATM   16  O   UNL     1     -10.784  15.559  67.079  1.00  0.00    -0.314 OA 
ENDBRANCH  10  11
ENDBRANCH   9  10
ENDBRANCH   4   9
TORSDOF 3
ENDMDL
MODEL      100
REMARK 921   NORMALIZED FREE ENERGY PREDICTED BY IDOCK:   -4.34 KCAL/MOL
REMARK 922        TOTAL FREE ENERGY PREDICTED BY IDOCK:   -5.33 KCAL/MOL
REMARK 923 INTER-LIGAND FREE ENERGY PREDICTED BY IDOCK:   -5.11 KCAL/MOL
REMARK 924 INTRA-LIGAND FREE ENERGY PREDICTED BY IDOCK:   -0.22 KCAL/MOL
REMARK 927      BINDING AFFINITY PREDICTED BY RF-SCORE:    0.00 PKD
ROOT
HETATM    1  C   UNL     1      -9.194  10.569  64.078  1.00  0.00    -0.286 C  
HETATM    2  C   UNL     1      -9.792  10.215  65.408  1.00  0.00    -0.375 A  
HETATM    3  C   UNL     1     -10.619  11.112  66.100  1.00  0.00    -0.305 A  
HETATM    4  C   UNL     1     -11.197  10.754  67.323  1.00  0.00    -0.197 A  
HETATM    5  C   UNL     1      -9.530   8.958  65.967  1.00  0.00    -0.320 A  
HETATM    6  C   UNL     1     -10.907   9.505  67.876  1.00  0.00    -0.240 A  
HETATM    7  C   UNL     1      -9.772   7.250  67.791  1.00  0.00    -0.167 C  
HETATM    8  C   UNL     1     -10.075   8.598  67.203  1.00  0.00    -0.329 A  
ENDROOT
BRANCH   4   9
HETATM    9  O   UNL     1     -11.997  11.708  67.905  1.00  0.00    -0.599 OA 
BRANCH   9  10
HETATM   10  C   UNL     1     -11.383  12.473  68.945  1.00  0.00    -0.297 C  
BRANCH  10  11
HETATM   11  C   UNL     1     -11.977  13.875  68.992  1.00  0.00    -0.364 C  
HETATM   12  C   UNL     1     -12.020  14.513  70.364  1.00  0.00    -0.318 C  
HETATM   13  N   UNL     1     -11.890  15.893  70.026  1.00  0.00    -0.336 NA 
HETATM   14  C   UNL     1     -11.249  16.013  68.822  1.00  0.00    -0.360 C  
HETATM   15  O   UNL     1     -10.785  17.043  68.372  1.00  0.00    -0.354 OA 
HETATM   16  O   UNL     1     -11.175  14.790  68.218  1.00  0.00    -0.262 OA 
ENDBRANCH  10  11
ENDBRANCH   9  10
ENDBRANCH   4   9
TORSDOF 3
ENDMDL
MODEL      101
REMARK 921   NORMALIZED FREE ENERGY PREDICTED BY IDOCK:   -4.33 KCAL/MOL
REMARK 922        TOTAL FREE ENERGY PREDICTED BY IDOCK:   -5.32 KCAL/MOL
REMARK 923 INTER-LIGAND FREE ENERGY PREDICTED BY IDOCK:   -5.29 KCAL/MOL
REMARK 924 INTRA-LIGAND FREE ENERGY PREDICTED BY IDOCK:   -0.02 KCAL/MOL
REMARK 927      BINDING AFFINITY PREDICTED BY RF-SCORE:    0.00 PKD
ROOT
HETATM    1  C   UNL     1     -12.805  11.067  71.209  1.00  0.00    -0.528 C  
HETATM    2  C   UNL     1     -12.688  12.551  71.022  1.00  0.00    -0.316 A  
HETATM    3  C   UNL     1     -11.994  13.099  69.933  1.00  0.00    -0.387 A  
HETATM    4  C   UNL     1     -11.922  14.485  69.753  1.00  0.00    -0.332 A  
HETATM    5  C   UNL     1     -13.293  13.411  71.947  1.00  0.00    -0.539 A  
HETATM    6  C   UNL     1     -12.514  15.327  70.698  1.00  0.00    -0.458 A  
HETATM    7  C   UNL     1     -13.850  15.702  72.807  1.00  0.00    -0.628 C  
HETATM    8  C   UNL     1     -13.204  14.798  71.798  1.00  0.00    -0.435 A  
ENDROOT
BRANCH   4   9
HETATM    9  O   UNL     1     -11.225  14.906  68.647  1.00  0.00    -0.251 OA 
BRANCH   9  10
HETATM   10  C   UNL     1     -10.874  16.292  68.632  1.00  0.00    -0.322 C  
BRANCH  10  11
HETATM   11  C   UNL     1      -9.595  16.523  69.426  1.00  0.00    -0.099 C  
HETATM   12  C   UNL     1      -8.674  15.327  69.530  1.00  0.00    -0.178 C  
HETATM   13  N   UNL     1      -7.403  15.969  69.614  1.00  0.00    -0.132 NA 
HETATM   14  C   UNL     1      -7.472  17.203  69.027  1.00  0.00    -0.203 C  
HETATM   15  O   UNL     1      -6.517  17.897  68.732  1.00  0.00    -0.211 OA 
HETATM   16  O   UNL     1      -8.777  17.525  68.787  1.00  0.00    -0.278 OA 
ENDBRANCH  10  11
ENDBRANCH   9  10
ENDBRANCH   4   9
TORSDOF 3
ENDMDL
MODEL      102
REMARK 921   NORMALIZED FREE ENERGY PREDICTED BY IDOCK:   -4.32 KCAL/MOL
REMARK 922        TOTAL FREE ENERGY PREDICTED BY IDOCK:   -5.31 KCAL/MOL
REMARK 923 INTER-LIGAND FREE ENERGY PREDICTED BY IDOCK:   -5.02 KCAL/MOL
REMARK 924 INTRA-LIGAND FREE ENERGY PREDICTED BY IDOCK:   -0.29 KCAL/MOL
REMARK 927      BINDING AFFINITY PREDICTED BY RF-SCORE:    0.00 PKD
ROOT
HETATM    1  C   UNL     1     -10.305   5.529  73.880  1.00  0.00    -0.285 C  
HETATM    2  C   UNL     1     -10.605   6.333  72.650  1.00  0.00    -0.243 A  
HETATM    3  C   UNL     1     -10.900   7.703  72.725  1.00  0.00    -0.416 A  
HETATM    4  C   UNL     1     -11.144   8.447  71.566  1.00  0.00    -0.266 A  
HETATM    5  C   UNL     1     -10.580   5.709  71.397  1.00  0.00    -0.317 A  
HETATM    6  C   UNL     1     -11.136   7.803  70.326  1.00  0.00    -0.242 A  
HETATM    7  C   UNL     1     -10.831   5.742  68.899  1.00  0.00    -0.305 C  
HETATM    8  C   UNL     1     -10.852   6.433  70.232  1.00  0.00    -0.350 A  
ENDROOT
BRANCH   4   9
HETATM    9  O   UNL     1     -11.411   9.781  71.760  1.00  0.00    -0.322 OA 
BRANCH   9  10
HETATM   10  C   UNL     1     -12.787  10.107  71.975  1.00  0.00    -0.376 C  
BRANCH  10  11
HETATM   11  C   UNL     1     -13.134  11.421  71.288  1.00  0.00    -0.200 C  
HETATM   12  C   UNL     1     -13.182  12.632  72.194  1.00  0.00    -0.421 C  
HETATM   13  N   UNL     1     -12.790  13.663  71.291  1.00  0.00    -0.348 NA 
HETATM   14  C   UNL     1     -12.039  13.128  70.279  1.00  0.00    -0.328 C  
HETATM   15  O   UNL     1     -11.369  13.764  69.488  1.00  0.00    -0.260 OA 
HETATM   16  O   UNL     1     -12.125  11.765  70.316  1.00  0.00    -0.338 OA 
ENDBRANCH  10  11
ENDBRANCH   9  10
ENDBRANCH   4   9
TORSDOF 3
ENDMDL
MODEL      103
REMARK 921   NORMALIZED FREE ENERGY PREDICTED BY IDOCK:   -4.31 KCAL/MOL
REMARK 922        TOTAL FREE ENERGY PREDICTED BY IDOCK:   -5.30 KCAL/MOL
REMARK 923 INTER-LIGAND FREE ENERGY PREDICTED BY IDOCK:   -5.26 KCAL/MOL
REMARK 924 INTRA-LIGAND FREE ENERGY PREDICTED BY IDOCK:   -0.04 KCAL/MOL
REMARK 927      BINDING AFFINITY PREDICTED BY RF-SCORE:    0.00 PKD
ROOT
HETATM    1  C   UNL     1     -11.342  15.844  70.497  1.00  0.00    -0.409 C  
HETATM    2  C   UNL     1     -10.303  15.349  69.534  1.00  0.00    -0.269 A  
HETATM    3  C   UNL     1     -10.535  14.232  68.718  1.00  0.00    -0.249 A  
HETATM    4  C   UNL     1      -9.570  13.803  67.800  1.00  0.00    -0.219 A  
HETATM    5  C   UNL     1      -9.078  16.022  69.437  1.00  0.00    -0.189 A  
HETATM    6  C   UNL     1      -8.347  14.473  67.733  1.00  0.00    -0.173 A  
HETATM    7  C   UNL     1      -6.782  16.314  68.467  1.00  0.00    -0.135 C  
HETATM    8  C   UNL     1      -8.092  15.586  68.547  1.00  0.00    -0.146 A  
ENDROOT
BRANCH   4   9
HETATM    9  O   UNL     1      -9.912  12.705  67.047  1.00  0.00    -0.214 OA 
BRANCH   9  10
HETATM   10  C   UNL     1     -11.260  12.681  66.572  1.00  0.00    -0.296 C  
BRANCH  10  11
HETATM   11  C   UNL     1     -11.352  13.345  65.204  1.00  0.00    -0.299 C  
HETATM   12  C   UNL     1     -12.753  13.492  64.650  1.00  0.00    -0.170 C  
HETATM   13  N   UNL     1     -12.613  14.679  63.871  1.00  0.00    -0.782 NA 
HETATM   14  C   UNL     1     -11.586  15.436  64.366  1.00  0.00    -0.264 C  
HETATM   15  O   UNL     1     -11.362  16.596  64.075  1.00  0.00    -1.120 OA 
HETATM   16  O   UNL     1     -10.869  14.702  65.268  1.00  0.00    -0.328 OA 
ENDBRANCH  10  11
ENDBRANCH   9  10
ENDBRANCH   4   9
TORSDOF 3
ENDMDL
MODEL      104
REMARK 921   NORMALIZED FREE ENERGY PREDICTED BY IDOCK:   -4.31 KCAL/MOL
REMARK 922        TOTAL FREE ENERGY PREDICTED BY IDOCK:   -5.30 KCAL/MOL
REMARK 923 INTER-LIGAND FREE ENERGY PREDICTED BY IDOCK:   -4.98 KCAL/MOL
REMARK 924 INTRA-LIGAND FREE ENERGY PREDICTED BY IDOCK:   -0.32 KCAL/MOL
REMARK 927      BINDING AFFINITY PREDICTED BY RF-SCORE:    0.00 PKD
ROOT
HETATM    1  C   UNL     1      -7.651  13.207  67.471  1.00  0.00    -0.166 C  
HETATM    2  C   UNL     1      -9.075  12.734  67.438  1.00  0.00    -0.192 A  
HETATM    3  C   UNL     1      -9.490  11.613  68.173  1.00  0.00    -0.191 A  
HETATM    4  C   UNL     1     -10.828  11.205  68.159  1.00  0.00    -0.219 A  
HETATM    5  C   UNL     1     -10.013  13.430  66.666  1.00  0.00    -0.277 A  
HETATM    6  C   UNL     1     -11.746  11.898  67.367  1.00  0.00    -0.326 A  
HETATM    7  C   UNL     1     -12.335  13.768  65.775  1.00  0.00    -0.523 C  
HETATM    8  C   UNL     1     -11.347  13.014  66.618  1.00  0.00    -0.366 A  
ENDROOT
BRANCH   4   9
HETATM    9  O   UNL     1     -11.121  10.102  68.925  1.00  0.00    -0.231 OA 
BRANCH   9  10
HETATM   10  C   UNL     1     -10.446  10.029  70.183  1.00  0.00    -0.284 C  
BRANCH  10  11
HETATM   11  C   UNL     1     -11.415   9.612  71.281  1.00  0.00    -0.392 C  
HETATM   12  C   UNL     1     -12.660  10.463  71.402  1.00  0.00    -0.434 C  
HETATM   13  N   UNL     1     -13.599   9.504  71.885  1.00  0.00    -0.401 NA 
HETATM   14  C   UNL     1     -13.209   8.247  71.507  1.00  0.00    -0.287 C  
HETATM   15  O   UNL     1     -13.901   7.249  71.561  1.00  0.00    -0.393 OA 
HETATM   16  O   UNL     1     -11.932   8.290  71.024  1.00  0.00    -0.296 OA 
ENDBRANCH  10  11
ENDBRANCH   9  10
ENDBRANCH   4   9
TORSDOF 3
ENDMDL
MODEL      105
REMARK 921   NORMALIZED FREE ENERGY PREDICTED BY IDOCK:   -4.30 KCAL/MOL
REMARK 922        TOTAL FREE ENERGY PREDICTED BY IDOCK:   -5.28 KCAL/MOL
REMARK 923 INTER-LIGAND FREE ENERGY PREDICTED BY IDOCK:   -5.09 KCAL/MOL
REMARK 924 INTRA-LIGAND FREE ENERGY PREDICTED BY IDOCK:   -0.19 KCAL/MOL
REMARK 927      BINDING AFFINITY PREDICTED BY RF-SCORE:    0.00 PKD
ROOT
HETATM    1  C   UNL     1      -6.115   9.504  68.573  1.00  0.00    -0.044 C  
HETATM    2  C   UNL     1      -7.434   9.583  67.861  1.00  0.00    -0.083 A  
HETATM    3  C   UNL     1      -7.785  10.705  67.096  1.00  0.00    -0.110 A  
HETATM    4  C   UNL     1      -9.003  10.750  66.409  1.00  0.00    -0.166 A  
HETATM    5  C   UNL     1      -8.331   8.511  67.952  1.00  0.00    -0.126 A  
HETATM    6  C   UNL     1      -9.895   9.681  66.529  1.00  0.00    -0.298 A  
HETATM    7  C   UNL     1     -10.517   7.400  67.417  1.00  0.00    -0.366 C  
HETATM    8  C   UNL     1      -9.565   8.555  67.297  1.00  0.00    -0.220 A  
ENDROOT
BRANCH   4   9
HETATM    9  O   UNL     1      -9.236  11.894  65.684  1.00  0.00    -0.173 OA 
BRANCH   9  10
HETATM   10  C   UNL     1     -10.303  12.718  66.160  1.00  0.00    -0.269 C  
BRANCH  10  11
HETATM   11  C   UNL     1     -11.024  13.377  64.992  1.00  0.00    -0.316 C  
HETATM   12  C   UNL     1     -12.521  13.528  65.158  1.00  0.00    -0.451 C  
HETATM   13  N   UNL     1     -12.761  14.711  64.398  1.00  0.00    -0.591 NA 
HETATM   14  C   UNL     1     -11.620  15.467  64.350  1.00  0.00    -0.264 C  
HETATM   15  O   UNL     1     -11.557  16.624  63.983  1.00  0.00    -1.197 OA 
HETATM   16  O   UNL     1     -10.565  14.733  64.814  1.00  0.00    -0.413 OA 
ENDBRANCH  10  11
ENDBRANCH   9  10
ENDBRANCH   4   9
TORSDOF 3
ENDMDL
MODEL      106
REMARK 921   NORMALIZED FREE ENERGY PREDICTED BY IDOCK:   -4.28 KCAL/MOL
REMARK 922        TOTAL FREE ENERGY PREDICTED BY IDOCK:   -5.27 KCAL/MOL
REMARK 923 INTER-LIGAND FREE ENERGY PREDICTED BY IDOCK:   -4.95 KCAL/MOL
REMARK 924 INTRA-LIGAND FREE ENERGY PREDICTED BY IDOCK:   -0.32 KCAL/MOL
REMARK 927      BINDING AFFINITY PREDICTED BY RF-SCORE:    0.00 PKD
ROOT
HETATM    1  C   UNL     1      -7.210  20.069  65.367  1.00  0.00    -0.258 C  
HETATM    2  C   UNL     1      -7.607  19.201  66.525  1.00  0.00    -0.264 A  
HETATM    3  C   UNL     1      -8.927  18.752  66.682  1.00  0.00    -0.315 A  
HETATM    4  C   UNL     1      -9.276  17.914  67.748  1.00  0.00    -0.258 A  
HETATM    5  C   UNL     1      -6.640  18.819  67.463  1.00  0.00    -0.202 A  
HETATM    6  C   UNL     1      -8.303  17.562  68.686  1.00  0.00    -0.258 A  
HETATM    7  C   UNL     1      -5.931  17.621  69.551  1.00  0.00    -0.243 C  
HETATM    8  C   UNL     1      -6.980  18.008  68.550  1.00  0.00    -0.245 A  
ENDROOT
BRANCH   4   9
HETATM    9  O   UNL     1     -10.594  17.530  67.796  1.00  0.00    -0.370 OA 
BRANCH   9  10
HETATM   10  C   UNL     1     -10.824  16.118  67.779  1.00  0.00    -0.318 C  
BRANCH  10  11
HETATM   11  C   UNL     1     -11.785  15.725  68.893  1.00  0.00    -0.394 C  
HETATM   12  C   UNL     1     -11.821  14.248  69.223  1.00  0.00    -0.330 C  
HETATM   13  N   UNL     1     -12.143  14.289  70.613  1.00  0.00    -0.325 NA 
HETATM   14  C   UNL     1     -11.736  15.482  71.145  1.00  0.00    -0.391 C  
HETATM   15  O   UNL     1     -11.656  15.733  72.332  1.00  0.00    -0.432 OA 
HETATM   16  O   UNL     1     -11.395  16.341  70.138  1.00  0.00    -0.349 OA 
ENDBRANCH  10  11
ENDBRANCH   9  10
ENDBRANCH   4   9
TORSDOF 3
ENDMDL
MODEL      107
REMARK 921   NORMALIZED FREE ENERGY PREDICTED BY IDOCK:   -4.28 KCAL/MOL
REMARK 922        TOTAL FREE ENERGY PREDICTED BY IDOCK:   -5.27 KCAL/MOL
REMARK 923 INTER-LIGAND FREE ENERGY PREDICTED BY IDOCK:   -5.01 KCAL/MOL
REMARK 924 INTRA-LIGAND FREE ENERGY PREDICTED BY IDOCK:   -0.26 KCAL/MOL
REMARK 927      BINDING AFFINITY PREDICTED BY RF-SCORE:    0.00 PKD
ROOT
HETATM    1  C   UNL     1     -10.398  19.964  66.717  1.00  0.00    -0.599 C  
HETATM    2  C   UNL     1      -9.666  18.655  66.670  1.00  0.00    -0.360 A  
HETATM    3  C   UNL     1     -10.253  17.508  66.116  1.00  0.00    -0.339 A  
HETATM    4  C   UNL     1      -9.545  16.303  66.048  1.00  0.00    -0.337 A  
HETATM    5  C   UNL     1      -8.364  18.577  67.179  1.00  0.00    -0.253 A  
HETATM    6  C   UNL     1      -8.255  16.238  66.580  1.00  0.00    -0.316 A  
HETATM    7  C   UNL     1      -6.265  17.307  67.709  1.00  0.00    -0.160 C  
HETATM    8  C   UNL     1      -7.655  17.372  67.147  1.00  0.00    -0.226 A  
ENDROOT
BRANCH   4   9
HETATM    9  O   UNL     1     -10.216  15.250  65.475  1.00  0.00    -0.334 OA 
BRANCH   9  10
HETATM   10  C   UNL     1      -9.981  13.972  66.074  1.00  0.00    -0.315 C  
BRANCH  10  11
HETATM   11  C   UNL     1     -11.217  13.507  66.833  1.00  0.00    -0.311 C  
HETATM   12  C   UNL     1     -11.043  12.235  67.634  1.00  0.00    -0.268 C  
HETATM   13  N   UNL     1     -11.960  12.460  68.703  1.00  0.00    -0.286 NA 
HETATM   14  C   UNL     1     -12.141  13.805  68.879  1.00  0.00    -0.313 C  
HETATM   15  O   UNL     1     -12.673  14.324  69.842  1.00  0.00    -0.262 OA 
HETATM   16  O   UNL     1     -11.598  14.483  67.825  1.00  0.00    -0.330 OA 
ENDBRANCH  10  11
ENDBRANCH   9  10
ENDBRANCH   4   9
TORSDOF 3
ENDMDL
MODEL      108
REMARK 921   NORMALIZED FREE ENERGY PREDICTED BY IDOCK:   -4.28 KCAL/MOL
REMARK 922        TOTAL FREE ENERGY PREDICTED BY IDOCK:   -5.26 KCAL/MOL
REMARK 923 INTER-LIGAND FREE ENERGY PREDICTED BY IDOCK:   -4.96 KCAL/MOL
REMARK 924 INTRA-LIGAND FREE ENERGY PREDICTED BY IDOCK:   -0.30 KCAL/MOL
REMARK 927      BINDING AFFINITY PREDICTED BY RF-SCORE:    0.00 PKD
ROOT
HETATM    1  C   UNL     1     -12.604  12.156  63.391  1.00  0.00    -0.584 C  
HETATM    2  C   UNL     1     -11.552  12.393  64.435  1.00  0.00    -0.418 A  
HETATM    3  C   UNL     1     -11.576  13.534  65.250  1.00  0.00    -0.329 A  
HETATM    4  C   UNL     1     -10.608  13.724  66.243  1.00  0.00    -0.289 A  
HETATM    5  C   UNL     1     -10.531  11.450  64.610  1.00  0.00    -0.373 A  
HETATM    6  C   UNL     1      -9.585  12.785  66.388  1.00  0.00    -0.254 A  
HETATM    7  C   UNL     1      -8.447  10.625  65.740  1.00  0.00    -0.179 C  
HETATM    8  C   UNL     1      -9.540  11.642  65.577  1.00  0.00    -0.241 A  
ENDROOT
BRANCH   4   9
HETATM    9  O   UNL     1     -10.737  14.873  66.987  1.00  0.00    -0.294 OA 
BRANCH   9  10
HETATM   10  C   UNL     1     -12.000  15.048  67.633  1.00  0.00    -0.068 C  
BRANCH  10  11
HETATM   11  C   UNL     1     -11.898  14.674  69.106  1.00  0.00    -0.312 C  
HETATM   12  C   UNL     1     -10.698  15.239  69.835  1.00  0.00    -0.285 C  
HETATM   13  N   UNL     1     -11.221  15.373  71.155  1.00  0.00    -0.364 NA 
HETATM   14  C   UNL     1     -12.583  15.502  71.100  1.00  0.00    -0.448 C  
HETATM   15  O   UNL     1     -13.294  15.860  72.020  1.00  0.00    -0.443 OA 
HETATM   16  O   UNL     1     -13.021  15.202  69.842  1.00  0.00    -0.085 OA 
ENDBRANCH  10  11
ENDBRANCH   9  10
ENDBRANCH   4   9
TORSDOF 3
ENDMDL
MODEL      109
REMARK 921   NORMALIZED FREE ENERGY PREDICTED BY IDOCK:   -4.28 KCAL/MOL
REMARK 922        TOTAL FREE ENERGY PREDICTED BY IDOCK:   -5.26 KCAL/MOL
REMARK 923 INTER-LIGAND FREE ENERGY PREDICTED BY IDOCK:   -4.92 KCAL/MOL
REMARK 924 INTRA-LIGAND FREE ENERGY PREDICTED BY IDOCK:   -0.34 KCAL/MOL
REMARK 927      BINDING AFFINITY PREDICTED BY RF-SCORE:    0.00 PKD
ROOT
HETATM    1  C   UNL     1     -12.189  11.920  70.285  1.00  0.00    -0.353 C  
HETATM    2  C   UNL     1     -11.759  12.263  68.890  1.00  0.00    -0.380 A  
HETATM    3  C   UNL     1     -11.861  13.572  68.394  1.00  0.00    -0.408 A  
HETATM    4  C   UNL     1     -11.423  13.883  67.102  1.00  0.00    -0.347 A  
HETATM    5  C   UNL     1     -11.232  11.260  68.066  1.00  0.00    -0.351 A  
HETATM    6  C   UNL     1     -10.921  12.866  66.287  1.00  0.00    -0.305 A  
HETATM    7  C   UNL     1     -10.269  10.459  65.891  1.00  0.00    -0.302 C  
HETATM    8  C   UNL     1     -10.820  11.551  66.762  1.00  0.00    -0.330 A  
ENDROOT
BRANCH   4   9
HETATM    9  O   UNL     1     -11.563  15.198  66.728  1.00  0.00    -0.270 OA 
BRANCH   9  10
HETATM   10  C   UNL     1     -10.465  15.749  65.996  1.00  0.00    -0.338 C  
BRANCH  10  11
HETATM   11  C   UNL     1      -9.806  16.868  66.793  1.00  0.00    -0.279 C  
HETATM   12  C   UNL     1     -10.525  17.265  68.065  1.00  0.00    -0.375 C  
HETATM   13  N   UNL     1      -9.429  17.689  68.874  1.00  0.00    -0.228 NA 
HETATM   14  C   UNL     1      -8.282  17.071  68.456  1.00  0.00    -0.259 C  
HETATM   15  O   UNL     1      -7.234  17.040  69.073  1.00  0.00    -0.227 OA 
HETATM   16  O   UNL     1      -8.502  16.459  67.255  1.00  0.00    -0.166 OA 
ENDBRANCH  10  11
ENDBRANCH   9  10
ENDBRANCH   4   9
TORSDOF 3
ENDMDL
MODEL      110
REMARK 921   NORMALIZED FREE ENERGY PREDICTED BY IDOCK:   -4.25 KCAL/MOL
REMARK 922        TOTAL FREE ENERGY PREDICTED BY IDOCK:   -5.23 KCAL/MOL
REMARK 923 INTER-LIGAND FREE ENERGY PREDICTED BY IDOCK:   -4.95 KCAL/MOL
REMARK 924 INTRA-LIGAND FREE ENERGY PREDICTED BY IDOCK:   -0.28 KCAL/MOL
REMARK 927      BINDING AFFINITY PREDICTED BY RF-SCORE:    0.00 PKD
ROOT
HETATM    1  C   UNL     1      -6.811  19.017  68.852  1.00  0.00    -0.347 C  
HETATM    2  C   UNL     1      -7.350  17.641  69.107  1.00  0.00    -0.122 A  
HETATM    3  C   UNL     1      -8.728  17.377  69.069  1.00  0.00    -0.054 A  
HETATM    4  C   UNL     1      -9.214  16.081  69.274  1.00  0.00    -0.243 A  
HETATM    5  C   UNL     1      -6.462  16.592  69.376  1.00  0.00    -0.220 A  
HETATM    6  C   UNL     1      -8.315  15.052  69.563  1.00  0.00    -0.092 A  
HETATM    7  C   UNL     1      -5.967  14.191  69.912  1.00  0.00    -0.133 C  
HETATM    8  C   UNL     1      -6.935  15.298  69.614  1.00  0.00    -0.188 A  
ENDROOT
BRANCH   4   9
HETATM    9  O   UNL     1     -10.579  15.940  69.204  1.00  0.00    -0.215 OA 
BRANCH   9  10
HETATM   10  C   UNL     1     -11.163  15.102  70.206  1.00  0.00    -0.277 C  
BRANCH  10  11
HETATM   11  C   UNL     1     -12.080  15.917  71.109  1.00  0.00    -0.418 C  
HETATM   12  C   UNL     1     -13.407  15.268  71.437  1.00  0.00    -0.491 C  
HETATM   13  N   UNL     1     -13.659  15.807  72.734  1.00  0.00    -0.579 NA 
HETATM   14  C   UNL     1     -12.475  16.153  73.327  1.00  0.00    -0.536 C  
HETATM   15  O   UNL     1     -12.329  16.421  74.504  1.00  0.00    -0.689 OA 
HETATM   16  O   UNL     1     -11.471  16.116  72.402  1.00  0.00    -0.351 OA 
ENDBRANCH  10  11
ENDBRANCH   9  10
ENDBRANCH   4   9
TORSDOF 3
ENDMDL
MODEL      111
REMARK 921   NORMALIZED FREE ENERGY PREDICTED BY IDOCK:   -4.25 KCAL/MOL
REMARK 922        TOTAL FREE ENERGY PREDICTED BY IDOCK:   -5.22 KCAL/MOL
REMARK 923 INTER-LIGAND FREE ENERGY PREDICTED BY IDOCK:   -4.94 KCAL/MOL
REMARK 924 INTRA-LIGAND FREE ENERGY PREDICTED BY IDOCK:   -0.28 KCAL/MOL
REMARK 927      BINDING AFFINITY PREDICTED BY RF-SCORE:    0.00 PKD
ROOT
HETATM    1  C   UNL     1      -7.556  19.339  67.071  1.00  0.00    -0.252 C  
HETATM    2  C   UNL     1      -7.889  18.047  67.757  1.00  0.00    -0.223 A  
HETATM    3  C   UNL     1      -9.149  17.446  67.612  1.00  0.00    -0.234 A  
HETATM    4  C   UNL     1      -9.433  16.224  68.230  1.00  0.00    -0.214 A  
HETATM    5  C   UNL     1      -6.920  17.419  68.550  1.00  0.00    -0.215 A  
HETATM    6  C   UNL     1      -8.462  15.623  69.035  1.00  0.00    -0.231 A  
HETATM    7  C   UNL     1      -6.152  15.562  70.053  1.00  0.00    -0.148 C  
HETATM    8  C   UNL     1      -7.201  16.213  69.199  1.00  0.00    -0.212 A  
ENDROOT
BRANCH   4   9
HETATM    9  O   UNL     1     -10.695  15.725  68.010  1.00  0.00    -0.276 OA 
BRANCH   9  10
HETATM   10  C   UNL     1     -10.763  14.323  67.739  1.00  0.00    -0.251 C  
BRANCH  10  11
HETATM   11  C   UNL     1     -11.136  14.083  66.282  1.00  0.00    -0.307 C  
HETATM   12  C   UNL     1     -12.498  13.462  66.056  1.00  0.00    -0.369 C  
HETATM   13  N   UNL     1     -12.844  14.020  64.790  1.00  0.00    -0.687 NA 
HETATM   14  C   UNL     1     -12.177  15.201  64.609  1.00  0.00    -0.211 C  
HETATM   15  O   UNL     1     -12.424  16.025  63.749  1.00  0.00    -0.784 OA 
HETATM   16  O   UNL     1     -11.211  15.334  65.566  1.00  0.00    -0.329 OA 
ENDBRANCH  10  11
ENDBRANCH   9  10
ENDBRANCH   4   9
TORSDOF 3
ENDMDL
MODEL      112
REMARK 921   NORMALIZED FREE ENERGY PREDICTED BY IDOCK:   -4.22 KCAL/MOL
REMARK 922        TOTAL FREE ENERGY PREDICTED BY IDOCK:   -5.19 KCAL/MOL
REMARK 923 INTER-LIGAND FREE ENERGY PREDICTED BY IDOCK:   -4.89 KCAL/MOL
REMARK 924 INTRA-LIGAND FREE ENERGY PREDICTED BY IDOCK:   -0.31 KCAL/MOL
REMARK 927      BINDING AFFINITY PREDICTED BY RF-SCORE:    0.00 PKD
ROOT
HETATM    1  C   UNL     1     -12.395  15.676  70.839  1.00  0.00    -0.479 C  
HETATM    2  C   UNL     1     -12.156  14.615  69.805  1.00  0.00    -0.371 A  
HETATM    3  C   UNL     1     -12.219  13.251  70.129  1.00  0.00    -0.376 A  
HETATM    4  C   UNL     1     -12.028  12.273  69.147  1.00  0.00    -0.249 A  
HETATM    5  C   UNL     1     -11.875  14.990  68.486  1.00  0.00    -0.319 A  
HETATM    6  C   UNL     1     -11.727  12.666  67.841  1.00  0.00    -0.412 A  
HETATM    7  C   UNL     1     -11.340  14.448  66.094  1.00  0.00    -0.350 C  
HETATM    8  C   UNL     1     -11.651  14.024  67.500  1.00  0.00    -0.397 A  
ENDROOT
BRANCH   4   9
HETATM    9  O   UNL     1     -12.123  10.971  69.578  1.00  0.00    -0.324 OA 
BRANCH   9  10
HETATM   10  C   UNL     1     -11.545  10.704  70.858  1.00  0.00    -0.217 C  
BRANCH  10  11
HETATM   11  C   UNL     1     -10.702   9.436  70.805  1.00  0.00    -0.305 C  
HETATM   12  C   UNL     1     -11.323   8.220  71.456  1.00  0.00    -0.268 C  
HETATM   13  N   UNL     1     -10.762   7.173  70.665  1.00  0.00    -0.230 NA 
HETATM   14  C   UNL     1     -10.430   7.658  69.429  1.00  0.00    -0.220 C  
HETATM   15  O   UNL     1     -10.150   6.980  68.459  1.00  0.00    -0.154 OA 
HETATM   16  O   UNL     1     -10.498   9.022  69.439  1.00  0.00    -0.215 OA 
ENDBRANCH  10  11
ENDBRANCH   9  10
ENDBRANCH   4   9
TORSDOF 3
ENDMDL
MODEL      113
REMARK 921   NORMALIZED FREE ENERGY PREDICTED BY IDOCK:   -4.20 KCAL/MOL
REMARK 922        TOTAL FREE ENERGY PREDICTED BY IDOCK:   -5.17 KCAL/MOL
REMARK 923 INTER-LIGAND FREE ENERGY PREDICTED BY IDOCK:   -4.85 KCAL/MOL
REMARK 924 INTRA-LIGAND FREE ENERGY PREDICTED BY IDOCK:   -0.32 KCAL/MOL
REMARK 927      BINDING AFFINITY PREDICTED BY RF-SCORE:    0.00 PKD
ROOT
HETATM    1  C   UNL     1     -11.521  15.973  70.372  1.00  0.00    -0.392 C  
HETATM    2  C   UNL     1     -10.518  15.458  69.383  1.00  0.00    -0.257 A  
HETATM    3  C   UNL     1     -10.539  14.124  68.947  1.00  0.00    -0.249 A  
HETATM    4  C   UNL     1      -9.618  13.667  67.997  1.00  0.00    -0.216 A  
HETATM    5  C   UNL     1      -9.546  16.327  68.872  1.00  0.00    -0.243 A  
HETATM    6  C   UNL     1      -8.642  14.543  67.516  1.00  0.00    -0.198 A  
HETATM    7  C   UNL     1      -7.559  16.822  67.419  1.00  0.00    -0.188 C  
HETATM    8  C   UNL     1      -8.600  15.877  67.946  1.00  0.00    -0.164 A  
ENDROOT
BRANCH   4   9
HETATM    9  O   UNL     1      -9.740  12.347  67.639  1.00  0.00    -0.188 OA 
BRANCH   9  10
HETATM   10  C   UNL     1     -11.008  11.972  67.094  1.00  0.00    -0.270 C  
BRANCH  10  11
HETATM   11  C   UNL     1     -11.099  12.386  65.631  1.00  0.00    -0.306 C  
HETATM   12  C   UNL     1     -10.353  11.497  64.660  1.00  0.00    -0.297 C  
HETATM   13  N   UNL     1     -11.158  11.636  63.491  1.00  0.00    -0.414 NA 
HETATM   14  C   UNL     1     -12.436  11.973  63.850  1.00  0.00    -0.436 C  
HETATM   15  O   UNL     1     -13.405  11.938  63.116  1.00  0.00    -0.470 OA 
HETATM   16  O   UNL     1     -12.465  12.319  65.171  1.00  0.00    -0.563 OA 
ENDBRANCH  10  11
ENDBRANCH   9  10
ENDBRANCH   4   9
TORSDOF 3
ENDMDL
MODEL      114
REMARK 921   NORMALIZED FREE ENERGY PREDICTED BY IDOCK:   -4.19 KCAL/MOL
REMARK 922        TOTAL FREE ENERGY PREDICTED BY IDOCK:   -5.16 KCAL/MOL
REMARK 923 INTER-LIGAND FREE ENERGY PREDICTED BY IDOCK:   -5.07 KCAL/MOL
REMARK 924 INTRA-LIGAND FREE ENERGY PREDICTED BY IDOCK:   -0.09 KCAL/MOL
REMARK 927      BINDING AFFINITY PREDICTED BY RF-SCORE:    0.00 PKD
ROOT
HETATM    1  C   UNL     1      -9.315  10.937  67.121  1.00  0.00    -0.174 C  
HETATM    2  C   UNL     1      -9.953  11.982  66.253  1.00  0.00    -0.249 A  
HETATM    3  C   UNL     1      -9.521  13.317  66.281  1.00  0.00    -0.196 A  
HETATM    4  C   UNL     1     -10.102  14.274  65.441  1.00  0.00    -0.351 A  
HETATM    5  C   UNL     1     -10.992  11.619  65.388  1.00  0.00    -0.328 A  
HETATM    6  C   UNL     1     -11.152  13.898  64.601  1.00  0.00    -0.389 A  
HETATM    7  C   UNL     1     -12.724  12.162  63.654  1.00  0.00    -0.549 C  
HETATM    8  C   UNL     1     -11.603  12.570  64.566  1.00  0.00    -0.406 A  
ENDROOT
BRANCH   4   9
HETATM    9  O   UNL     1      -9.593  15.546  65.547  1.00  0.00    -0.312 OA 
BRANCH   9  10
HETATM   10  C   UNL     1     -10.383  16.463  66.308  1.00  0.00    -0.329 C  
BRANCH  10  11
HETATM   11  C   UNL     1     -10.195  16.213  67.799  1.00  0.00    -0.267 C  
HETATM   12  C   UNL     1     -10.135  17.456  68.660  1.00  0.00    -0.355 C  
HETATM   13  N   UNL     1     -10.683  16.966  69.883  1.00  0.00    -0.160 NA 
HETATM   14  C   UNL     1     -11.496  15.895  69.625  1.00  0.00    -0.346 C  
HETATM   15  O   UNL     1     -12.283  15.404  70.412  1.00  0.00    -0.340 OA 
HETATM   16  O   UNL     1     -11.317  15.483  68.335  1.00  0.00    -0.320 OA 
ENDBRANCH  10  11
ENDBRANCH   9  10
ENDBRANCH   4   9
TORSDOF 3
ENDMDL
MODEL      115
REMARK 921   NORMALIZED FREE ENERGY PREDICTED BY IDOCK:   -4.19 KCAL/MOL
REMARK 922        TOTAL FREE ENERGY PREDICTED BY IDOCK:   -5.15 KCAL/MOL
REMARK 923 INTER-LIGAND FREE ENERGY PREDICTED BY IDOCK:   -4.94 KCAL/MOL
REMARK 924 INTRA-LIGAND FREE ENERGY PREDICTED BY IDOCK:   -0.21 KCAL/MOL
REMARK 927      BINDING AFFINITY PREDICTED BY RF-SCORE:    0.00 PKD
ROOT
HETATM    1  C   UNL     1     -10.400  19.443  66.072  1.00  0.00    -0.584 C  
HETATM    2  C   UNL     1     -10.516  18.039  66.586  1.00  0.00    -0.332 A  
HETATM    3  C   UNL     1     -10.473  16.937  65.719  1.00  0.00    -0.279 A  
HETATM    4  C   UNL     1     -10.547  15.631  66.216  1.00  0.00    -0.307 A  
HETATM    5  C   UNL     1     -10.658  17.819  67.962  1.00  0.00    -0.372 A  
HETATM    6  C   UNL     1     -10.712  15.432  67.589  1.00  0.00    -0.292 A  
HETATM    7  C   UNL     1     -10.930  16.308  69.948  1.00  0.00    -0.365 C  
HETATM    8  C   UNL     1     -10.766  16.521  68.471  1.00  0.00    -0.336 A  
ENDROOT
BRANCH   4   9
HETATM    9  O   UNL     1     -10.485  14.631  65.276  1.00  0.00    -0.342 OA 
BRANCH   9  10
HETATM   10  C   UNL     1      -9.732  13.476  65.655  1.00  0.00    -0.086 C  
BRANCH  10  11
HETATM   11  C   UNL     1     -10.311  12.228  65.002  1.00  0.00    -0.291 C  
HETATM   12  C   UNL     1     -10.497  12.310  63.503  1.00  0.00    -0.424 C  
HETATM   13  N   UNL     1     -10.316  10.945  63.131  1.00  0.00    -0.227 NA 
HETATM   14  C   UNL     1      -9.545  10.312  64.069  1.00  0.00    -0.304 C  
HETATM   15  O   UNL     1      -9.023   9.222  63.932  1.00  0.00    -0.184 OA 
HETATM   16  O   UNL     1      -9.419  11.108  65.172  1.00  0.00    -0.216 OA 
ENDBRANCH  10  11
ENDBRANCH   9  10
ENDBRANCH   4   9
TORSDOF 3
ENDMDL
MODEL      116
REMARK 921   NORMALIZED FREE ENERGY PREDICTED BY IDOCK:   -4.18 KCAL/MOL
REMARK 922        TOTAL FREE ENERGY PREDICTED BY IDOCK:   -5.15 KCAL/MOL
REMARK 923 INTER-LIGAND FREE ENERGY PREDICTED BY IDOCK:   -4.90 KCAL/MOL
REMARK 924 INTRA-LIGAND FREE ENERGY PREDICTED BY IDOCK:   -0.25 KCAL/MOL
REMARK 927      BINDING AFFINITY PREDICTED BY RF-SCORE:    0.00 PKD
ROOT
HETATM    1  C   UNL     1     -10.345  19.763  66.325  1.00  0.00    -0.626 C  
HETATM    2  C   UNL     1     -10.063  18.378  66.828  1.00  0.00    -0.391 A  
HETATM    3  C   UNL     1     -11.071  17.590  67.403  1.00  0.00     0.097 A  
HETATM    4  C   UNL     1     -10.801  16.287  67.837  1.00  0.00    -0.330 A  
HETATM    5  C   UNL     1      -8.769  17.853  66.713  1.00  0.00    -0.269 A  
HETATM    6  C   UNL     1      -9.501  15.789  67.734  1.00  0.00    -0.212 A  
HETATM    7  C   UNL     1      -7.082  16.026  67.049  1.00  0.00    -0.233 C  
HETATM    8  C   UNL     1      -8.477  16.565  67.171  1.00  0.00    -0.205 A  
ENDROOT
BRANCH   4   9
HETATM    9  O   UNL     1     -11.867  15.606  68.373  1.00  0.00    -0.346 OA 
BRANCH   9  10
HETATM   10  C   UNL     1     -11.609  14.247  68.737  1.00  0.00    -0.322 C  
BRANCH  10  11
HETATM   11  C   UNL     1     -11.902  14.029  70.215  1.00  0.00    -0.303 C  
HETATM   12  C   UNL     1     -13.123  14.750  70.745  1.00  0.00    -0.336 C  
HETATM   13  N   UNL     1     -13.540  13.856  71.776  1.00  0.00    -0.379 NA 
HETATM   14  C   UNL     1     -13.096  12.592  71.496  1.00  0.00    -0.277 C  
HETATM   15  O   UNL     1     -13.472  11.575  72.047  1.00  0.00    -0.405 OA 
HETATM   16  O   UNL     1     -12.190  12.640  70.474  1.00  0.00    -0.365 OA 
ENDBRANCH  10  11
ENDBRANCH   9  10
ENDBRANCH   4   9
TORSDOF 3
ENDMDL
MODEL      117
REMARK 921   NORMALIZED FREE ENERGY PREDICTED BY IDOCK:   -4.18 KCAL/MOL
REMARK 922        TOTAL FREE ENERGY PREDICTED BY IDOCK:   -5.14 KCAL/MOL
REMARK 923 INTER-LIGAND FREE ENERGY PREDICTED BY IDOCK:   -4.85 KCAL/MOL
REMARK 924 INTRA-LIGAND FREE ENERGY PREDICTED BY IDOCK:   -0.29 KCAL/MOL
REMARK 927      BINDING AFFINITY PREDICTED BY RF-SCORE:    0.00 PKD
ROOT
HETATM    1  C   UNL     1     -13.178  15.395  71.250  1.00  0.00    -0.585 C  
HETATM    2  C   UNL     1     -12.434  14.750  70.117  1.00  0.00    -0.359 A  
HETATM    3  C   UNL     1     -12.250  13.360  70.061  1.00  0.00    -0.367 A  
HETATM    4  C   UNL     1     -11.584  12.770  68.981  1.00  0.00    -0.316 A  
HETATM    5  C   UNL     1     -11.922  15.548  69.087  1.00  0.00    -0.331 A  
HETATM    6  C   UNL     1     -11.062  13.584  67.974  1.00  0.00    -0.283 A  
HETATM    7  C   UNL     1     -10.677  15.850  66.928  1.00  0.00    -0.289 C  
HETATM    8  C   UNL     1     -11.228  14.975  68.017  1.00  0.00    -0.324 A  
ENDROOT
BRANCH   4   9
HETATM    9  O   UNL     1     -11.472  11.401  69.028  1.00  0.00    -0.243 OA 
BRANCH   9  10
HETATM   10  C   UNL     1     -10.144  10.888  68.891  1.00  0.00    -0.198 C  
BRANCH  10  11
HETATM   11  C   UNL     1      -9.988   9.601  69.690  1.00  0.00    -0.221 C  
HETATM   12  C   UNL     1      -8.677   9.454  70.432  1.00  0.00    -0.240 C  
HETATM   13  N   UNL     1      -9.085   8.669  71.551  1.00  0.00    -0.217 NA 
HETATM   14  C   UNL     1     -10.419   8.864  71.788  1.00  0.00    -0.360 C  
HETATM   15  O   UNL     1     -11.012   8.526  72.795  1.00  0.00    -0.251 OA 
HETATM   16  O   UNL     1     -10.979   9.532  70.736  1.00  0.00    -0.267 OA 
ENDBRANCH  10  11
ENDBRANCH   9  10
ENDBRANCH   4   9
TORSDOF 3
ENDMDL
MODEL      118
REMARK 921   NORMALIZED FREE ENERGY PREDICTED BY IDOCK:   -4.15 KCAL/MOL
REMARK 922        TOTAL FREE ENERGY PREDICTED BY IDOCK:   -5.11 KCAL/MOL
REMARK 923 INTER-LIGAND FREE ENERGY PREDICTED BY IDOCK:   -4.89 KCAL/MOL
REMARK 924 INTRA-LIGAND FREE ENERGY PREDICTED BY IDOCK:   -0.22 KCAL/MOL
REMARK 927      BINDING AFFINITY PREDICTED BY RF-SCORE:    0.00 PKD
ROOT
HETATM    1  C   UNL     1     -10.268   5.557  68.298  1.00  0.00    -0.237 C  
HETATM    2  C   UNL     1     -10.617   6.273  69.569  1.00  0.00    -0.331 A  
HETATM    3  C   UNL     1     -10.897   7.648  69.581  1.00  0.00    -0.195 A  
HETATM    4  C   UNL     1     -11.255   8.295  70.769  1.00  0.00    -0.264 A  
HETATM    5  C   UNL     1     -10.676   5.555  70.770  1.00  0.00    -0.294 A  
HETATM    6  C   UNL     1     -11.287   7.567  71.960  1.00  0.00    -0.314 A  
HETATM    7  C   UNL     1     -11.047   5.407  73.248  1.00  0.00    -0.352 C  
HETATM    8  C   UNL     1     -11.001   6.194  71.970  1.00  0.00    -0.305 A  
ENDROOT
BRANCH   4   9
HETATM    9  O   UNL     1     -11.517   9.639  70.658  1.00  0.00    -0.268 OA 
BRANCH   9  10
HETATM   10  C   UNL     1     -12.333  10.194  71.694  1.00  0.00    -0.377 C  
BRANCH  10  11
HETATM   11  C   UNL     1     -12.982  11.488  71.221  1.00  0.00    -0.297 C  
HETATM   12  C   UNL     1     -13.473  12.404  72.320  1.00  0.00    -0.323 C  
HETATM   13  N   UNL     1     -13.314  13.680  71.702  1.00  0.00    -0.358 NA 
HETATM   14  C   UNL     1     -12.343  13.607  70.740  1.00  0.00    -0.371 C  
HETATM   15  O   UNL     1     -11.816  14.561  70.199  1.00  0.00    -0.274 OA 
HETATM   16  O   UNL     1     -12.028  12.299  70.505  1.00  0.00    -0.335 OA 
ENDBRANCH  10  11
ENDBRANCH   9  10
ENDBRANCH   4   9
TORSDOF 3
ENDMDL
MODEL      119
REMARK 921   NORMALIZED FREE ENERGY PREDICTED BY IDOCK:   -4.15 KCAL/MOL
REMARK 922        TOTAL FREE ENERGY PREDICTED BY IDOCK:   -5.11 KCAL/MOL
REMARK 923 INTER-LIGAND FREE ENERGY PREDICTED BY IDOCK:   -4.84 KCAL/MOL
REMARK 924 INTRA-LIGAND FREE ENERGY PREDICTED BY IDOCK:   -0.27 KCAL/MOL
REMARK 927      BINDING AFFINITY PREDICTED BY RF-SCORE:    0.00 PKD
ROOT
HETATM    1  C   UNL     1     -12.025  15.849  71.575  1.00  0.00    -0.537 C  
HETATM    2  C   UNL     1     -11.779  15.365  70.176  1.00  0.00    -0.356 A  
HETATM    3  C   UNL     1     -12.032  14.035  69.807  1.00  0.00    -0.393 A  
HETATM    4  C   UNL     1     -11.830  13.607  68.490  1.00  0.00    -0.371 A  
HETATM    5  C   UNL     1     -11.296  16.260  69.213  1.00  0.00    -0.288 A  
HETATM    6  C   UNL     1     -11.328  14.508  67.549  1.00  0.00    -0.355 A  
HETATM    7  C   UNL     1     -10.532  16.812  66.887  1.00  0.00    -0.269 C  
HETATM    8  C   UNL     1     -11.060  15.839  67.901  1.00  0.00    -0.326 A  
ENDROOT
BRANCH   4   9
HETATM    9  O   UNL     1     -12.121  12.287  68.243  1.00  0.00    -0.363 OA 
BRANCH   9  10
HETATM   10  C   UNL     1     -11.272  11.638  67.293  1.00  0.00    -0.304 C  
BRANCH  10  11
HETATM   11  C   UNL     1     -10.430  10.570  67.978  1.00  0.00    -0.197 C  
HETATM   12  C   UNL     1     -10.793  10.287  69.420  1.00  0.00    -0.245 C  
HETATM   13  N   UNL     1     -10.440   8.909  69.524  1.00  0.00    -0.223 NA 
HETATM   14  C   UNL     1     -10.491   8.327  68.286  1.00  0.00    -0.161 C  
HETATM   15  O   UNL     1     -10.470   7.130  68.070  1.00  0.00    -0.185 OA 
HETATM   16  O   UNL     1     -10.605   9.294  67.329  1.00  0.00    -0.264 OA 
ENDBRANCH  10  11
ENDBRANCH   9  10
ENDBRANCH   4   9
TORSDOF 3
ENDMDL
MODEL      120
REMARK 921   NORMALIZED FREE ENERGY PREDICTED BY IDOCK:   -4.14 KCAL/MOL
REMARK 922        TOTAL FREE ENERGY PREDICTED BY IDOCK:   -5.10 KCAL/MOL
REMARK 923 INTER-LIGAND FREE ENERGY PREDICTED BY IDOCK:   -4.81 KCAL/MOL
REMARK 924 INTRA-LIGAND FREE ENERGY PREDICTED BY IDOCK:   -0.29 KCAL/MOL
REMARK 927      BINDING AFFINITY PREDICTED BY RF-SCORE:    0.00 PKD
ROOT
HETATM    1  C   UNL     1      -9.806   6.275  71.017  1.00  0.00    -0.206 C  
HETATM    2  C   UNL     1     -10.108   6.694  69.608  1.00  0.00    -0.202 A  
HETATM    3  C   UNL     1     -10.321   8.041  69.276  1.00  0.00    -0.224 A  
HETATM    4  C   UNL     1     -10.567   8.421  67.952  1.00  0.00    -0.154 A  
HETATM    5  C   UNL     1     -10.167   5.725  68.599  1.00  0.00    -0.254 A  
HETATM    6  C   UNL     1     -10.645   7.438  66.963  1.00  0.00    -0.414 A  
HETATM    7  C   UNL     1     -10.514   5.030  66.212  1.00  0.00    -0.352 C  
HETATM    8  C   UNL     1     -10.443   6.086  67.277  1.00  0.00    -0.319 A  
ENDROOT
BRANCH   4   9
HETATM    9  O   UNL     1     -10.751   9.767  67.744  1.00  0.00    -0.255 OA 
BRANCH   9  10
HETATM   10  C   UNL     1     -11.161  10.516  68.891  1.00  0.00    -0.261 C  
BRANCH  10  11
HETATM   11  C   UNL     1     -11.665  11.891  68.473  1.00  0.00    -0.330 C  
HETATM   12  C   UNL     1     -10.602  12.961  68.353  1.00  0.00    -0.253 C  
HETATM   13  N   UNL     1     -11.159  13.784  67.330  1.00  0.00    -0.298 NA 
HETATM   14  C   UNL     1     -12.006  13.041  66.552  1.00  0.00    -0.391 C  
HETATM   15  O   UNL     1     -12.455  13.384  65.474  1.00  0.00    -0.453 OA 
HETATM   16  O   UNL     1     -12.243  11.838  67.153  1.00  0.00    -0.446 OA 
ENDBRANCH  10  11
ENDBRANCH   9  10
ENDBRANCH   4   9
TORSDOF 3
ENDMDL
MODEL      121
REMARK 921   NORMALIZED FREE ENERGY PREDICTED BY IDOCK:   -4.13 KCAL/MOL
REMARK 922        TOTAL FREE ENERGY PREDICTED BY IDOCK:   -5.09 KCAL/MOL
REMARK 923 INTER-LIGAND FREE ENERGY PREDICTED BY IDOCK:   -5.13 KCAL/MOL
REMARK 924 INTRA-LIGAND FREE ENERGY PREDICTED BY IDOCK:    0.03 KCAL/MOL
REMARK 927      BINDING AFFINITY PREDICTED BY RF-SCORE:    0.00 PKD
ROOT
HETATM    1  C   UNL     1      -7.667  19.380  68.794  1.00  0.00    -0.397 C  
HETATM    2  C   UNL     1      -7.991  18.078  68.122  1.00  0.00    -0.270 A  
HETATM    3  C   UNL     1      -9.204  17.889  67.441  1.00  0.00    -0.253 A  
HETATM    4  C   UNL     1      -9.477  16.681  66.790  1.00  0.00    -0.244 A  
HETATM    5  C   UNL     1      -7.061  17.032  68.162  1.00  0.00    -0.178 A  
HETATM    6  C   UNL     1      -8.547  15.642  66.860  1.00  0.00    -0.281 A  
HETATM    7  C   UNL     1      -6.328  14.697  67.608  1.00  0.00    -0.133 C  
HETATM    8  C   UNL     1      -7.334  15.809  67.542  1.00  0.00    -0.205 A  
ENDROOT
BRANCH   4   9
HETATM    9  O   UNL     1     -10.691  16.613  66.148  1.00  0.00    -0.249 OA 
BRANCH   9  10
HETATM   10  C   UNL     1     -10.750  15.712  65.040  1.00  0.00    -0.436 C  
BRANCH  10  11
HETATM   11  C   UNL     1     -11.128  14.314  65.513  1.00  0.00    -0.323 C  
HETATM   12  C   UNL     1     -12.586  13.946  65.341  1.00  0.00    -0.507 C  
HETATM   13  N   UNL     1     -12.489  12.536  65.146  1.00  0.00    -0.628 NA 
HETATM   14  C   UNL     1     -11.252  12.225  64.647  1.00  0.00    -0.315 C  
HETATM   15  O   UNL     1     -10.938  11.154  64.163  1.00  0.00    -0.358 OA 
HETATM   16  O   UNL     1     -10.433  13.313  64.742  1.00  0.00    -0.348 OA 
ENDBRANCH  10  11
ENDBRANCH   9  10
ENDBRANCH   4   9
TORSDOF 3
ENDMDL
MODEL      122
REMARK 921   NORMALIZED FREE ENERGY PREDICTED BY IDOCK:   -4.12 KCAL/MOL
REMARK 922        TOTAL FREE ENERGY PREDICTED BY IDOCK:   -5.08 KCAL/MOL
REMARK 923 INTER-LIGAND FREE ENERGY PREDICTED BY IDOCK:   -4.80 KCAL/MOL
REMARK 924 INTRA-LIGAND FREE ENERGY PREDICTED BY IDOCK:   -0.27 KCAL/MOL
REMARK 927      BINDING AFFINITY PREDICTED BY RF-SCORE:    0.00 PKD
ROOT
HETATM    1  C   UNL     1     -10.998  12.183  67.357  1.00  0.00    -0.308 C  
HETATM    2  C   UNL     1     -11.332  11.686  68.733  1.00  0.00    -0.324 A  
HETATM    3  C   UNL     1     -10.901  10.427  69.179  1.00  0.00    -0.274 A  
HETATM    4  C   UNL     1     -11.190   9.991  70.477  1.00  0.00    -0.336 A  
HETATM    5  C   UNL     1     -12.078  12.497  69.596  1.00  0.00    -0.272 A  
HETATM    6  C   UNL     1     -11.954  10.804  71.317  1.00  0.00    -0.286 A  
HETATM    7  C   UNL     1     -13.212  12.942  71.791  1.00  0.00    -0.479 C  
HETATM    8  C   UNL     1     -12.401  12.062  70.885  1.00  0.00    -0.384 A  
ENDROOT
BRANCH   4   9
HETATM    9  O   UNL     1     -10.709   8.747  70.807  1.00  0.00    -0.209 OA 
BRANCH   9  10
HETATM   10  C   UNL     1     -10.158   8.629  72.121  1.00  0.00    -0.318 C  
BRANCH  10  11
HETATM   11  C   UNL     1     -10.931   7.597  72.930  1.00  0.00    -0.400 C  
HETATM   12  C   UNL     1     -11.766   6.631  72.117  1.00  0.00    -0.304 C  
HETATM   13  N   UNL     1     -11.730   5.473  72.949  1.00  0.00    -0.234 NA 
HETATM   14  C   UNL     1     -10.605   5.503  73.730  1.00  0.00    -0.281 C  
HETATM   15  O   UNL     1     -10.168   4.566  74.370  1.00  0.00    -0.190 OA 
HETATM   16  O   UNL     1     -10.025   6.737  73.652  1.00  0.00    -0.206 OA 
ENDBRANCH  10  11
ENDBRANCH   9  10
ENDBRANCH   4   9
TORSDOF 3
ENDMDL
MODEL      123
REMARK 921   NORMALIZED FREE ENERGY PREDICTED BY IDOCK:   -4.11 KCAL/MOL
REMARK 922        TOTAL FREE ENERGY PREDICTED BY IDOCK:   -5.07 KCAL/MOL
REMARK 923 INTER-LIGAND FREE ENERGY PREDICTED BY IDOCK:   -4.85 KCAL/MOL
REMARK 924 INTRA-LIGAND FREE ENERGY PREDICTED BY IDOCK:   -0.21 KCAL/MOL
REMARK 927      BINDING AFFINITY PREDICTED BY RF-SCORE:    0.00 PKD
ROOT
HETATM    1  C   UNL     1     -11.542   7.714  72.418  1.00  0.00    -0.386 C  
HETATM    2  C   UNL     1     -11.289   8.455  71.138  1.00  0.00    -0.310 A  
HETATM    3  C   UNL     1     -11.545   9.830  71.027  1.00  0.00    -0.455 A  
HETATM    4  C   UNL     1     -11.272  10.514  69.837  1.00  0.00    -0.307 A  
HETATM    5  C   UNL     1     -10.777   7.764  70.033  1.00  0.00    -0.245 A  
HETATM    6  C   UNL     1     -10.782   9.805  68.738  1.00  0.00    -0.243 A  
HETATM    7  C   UNL     1      -9.990   7.668  67.651  1.00  0.00    -0.225 C  
HETATM    8  C   UNL     1     -10.528   8.429  68.828  1.00  0.00    -0.202 A  
ENDROOT
BRANCH   4   9
HETATM    9  O   UNL     1     -11.552  11.859  69.847  1.00  0.00    -0.296 OA 
BRANCH   9  10
HETATM   10  C   UNL     1     -11.096  12.591  68.707  1.00  0.00    -0.270 C  
BRANCH  10  11
HETATM   11  C   UNL     1     -11.766  13.958  68.651  1.00  0.00    -0.361 C  
HETATM   12  C   UNL     1     -11.780  14.725  69.956  1.00  0.00    -0.295 C  
HETATM   13  N   UNL     1     -11.746  16.069  69.480  1.00  0.00    -0.308 NA 
HETATM   14  C   UNL     1     -11.171  16.104  68.238  1.00  0.00    -0.343 C  
HETATM   15  O   UNL     1     -10.790  17.108  67.667  1.00  0.00    -0.332 OA 
HETATM   16  O   UNL     1     -11.056  14.833  67.751  1.00  0.00    -0.278 OA 
ENDBRANCH  10  11
ENDBRANCH   9  10
ENDBRANCH   4   9
TORSDOF 3
ENDMDL
MODEL      124
REMARK 921   NORMALIZED FREE ENERGY PREDICTED BY IDOCK:   -4.11 KCAL/MOL
REMARK 922        TOTAL FREE ENERGY PREDICTED BY IDOCK:   -5.06 KCAL/MOL
REMARK 923 INTER-LIGAND FREE ENERGY PREDICTED BY IDOCK:   -4.89 KCAL/MOL
REMARK 924 INTRA-LIGAND FREE ENERGY PREDICTED BY IDOCK:   -0.17 KCAL/MOL
REMARK 927      BINDING AFFINITY PREDICTED BY RF-SCORE:    0.00 PKD
ROOT
HETATM    1  C   UNL     1     -10.518   9.660  67.565  1.00  0.00    -0.321 C  
HETATM    2  C   UNL     1     -10.574  10.580  66.381  1.00  0.00    -0.218 A  
HETATM    3  C   UNL     1     -11.155  11.854  66.472  1.00  0.00    -0.357 A  
HETATM    4  C   UNL     1     -11.169  12.714  65.368  1.00  0.00    -0.299 A  
HETATM    5  C   UNL     1     -10.025  10.165  65.161  1.00  0.00    -0.379 A  
HETATM    6  C   UNL     1     -10.637  12.275  64.153  1.00  0.00    -0.408 A  
HETATM    7  C   UNL     1      -9.476  10.534  62.739  1.00  0.00    -0.353 C  
HETATM    8  C   UNL     1     -10.060  11.002  64.041  1.00  0.00    -0.408 A  
ENDROOT
BRANCH   4   9
HETATM    9  O   UNL     1     -11.755  13.939  65.576  1.00  0.00    -0.329 OA 
BRANCH   9  10
HETATM   10  C   UNL     1     -11.116  15.044  64.931  1.00  0.00    -0.415 C  
BRANCH  10  11
HETATM   11  C   UNL     1     -10.135  15.717  65.881  1.00  0.00    -0.353 C  
HETATM   12  C   UNL     1     -10.749  16.315  67.128  1.00  0.00    -0.247 C  
HETATM   13  N   UNL     1      -9.674  16.174  68.055  1.00  0.00    -0.227 NA 
HETATM   14  C   UNL     1      -8.862  15.142  67.664  1.00  0.00    -0.173 C  
HETATM   15  O   UNL     1      -8.003  14.624  68.352  1.00  0.00    -0.124 OA 
HETATM   16  O   UNL     1      -9.189  14.757  66.396  1.00  0.00    -0.277 OA 
ENDBRANCH  10  11
ENDBRANCH   9  10
ENDBRANCH   4   9
TORSDOF 3
ENDMDL
MODEL      125
REMARK 921   NORMALIZED FREE ENERGY PREDICTED BY IDOCK:   -4.10 KCAL/MOL
REMARK 922        TOTAL FREE ENERGY PREDICTED BY IDOCK:   -5.06 KCAL/MOL
REMARK 923 INTER-LIGAND FREE ENERGY PREDICTED BY IDOCK:   -4.70 KCAL/MOL
REMARK 924 INTRA-LIGAND FREE ENERGY PREDICTED BY IDOCK:   -0.36 KCAL/MOL
REMARK 927      BINDING AFFINITY PREDICTED BY RF-SCORE:    0.00 PKD
ROOT
HETATM    1  C   UNL     1     -10.700   7.957  67.313  1.00  0.00    -0.299 C  
HETATM    2  C   UNL     1      -9.901   9.191  67.612  1.00  0.00    -0.217 A  
HETATM    3  C   UNL     1     -10.499  10.460  67.635  1.00  0.00    -0.277 A  
HETATM    4  C   UNL     1      -9.748  11.598  67.950  1.00  0.00    -0.179 A  
HETATM    5  C   UNL     1      -8.533   9.076  67.886  1.00  0.00    -0.121 A  
HETATM    6  C   UNL     1      -8.380  11.467  68.199  1.00  0.00    -0.152 A  
HETATM    7  C   UNL     1      -6.296  10.064  68.452  1.00  0.00    -0.049 C  
HETATM    8  C   UNL     1      -7.764  10.208  68.172  1.00  0.00    -0.088 A  
ENDROOT
BRANCH   4   9
HETATM    9  O   UNL     1     -10.441  12.785  67.952  1.00  0.00    -0.211 OA 
BRANCH   9  10
HETATM   10  C   UNL     1     -11.831  12.687  67.631  1.00  0.00    -0.329 C  
BRANCH  10  11
HETATM   11  C   UNL     1     -12.191  13.676  66.530  1.00  0.00    -0.404 C  
HETATM   12  C   UNL     1     -11.071  14.597  66.097  1.00  0.00    -0.334 C  
HETATM   13  N   UNL     1     -11.410  14.811  64.728  1.00  0.00    -0.398 NA 
HETATM   14  C   UNL     1     -12.150  13.756  64.267  1.00  0.00    -0.440 C  
HETATM   15  O   UNL     1     -12.396  13.526  63.098  1.00  0.00    -0.712 OA 
HETATM   16  O   UNL     1     -12.543  12.977  65.318  1.00  0.00    -0.486 OA 
ENDBRANCH  10  11
ENDBRANCH   9  10
ENDBRANCH   4   9
TORSDOF 3
ENDMDL
MODEL      126
REMARK 921   NORMALIZED FREE ENERGY PREDICTED BY IDOCK:   -4.10 KCAL/MOL
REMARK 922        TOTAL FREE ENERGY PREDICTED BY IDOCK:   -5.05 KCAL/MOL
REMARK 923 INTER-LIGAND FREE ENERGY PREDICTED BY IDOCK:   -4.69 KCAL/MOL
REMARK 924 INTRA-LIGAND FREE ENERGY PREDICTED BY IDOCK:   -0.36 KCAL/MOL
REMARK 927      BINDING AFFINITY PREDICTED BY RF-SCORE:    0.00 PKD
ROOT
HETATM    1  C   UNL     1     -12.141  15.159  70.722  1.00  0.00    -0.387 C  
HETATM    2  C   UNL     1     -11.951  14.157  69.621  1.00  0.00    -0.389 A  
HETATM    3  C   UNL     1     -11.846  12.784  69.893  1.00  0.00    -0.371 A  
HETATM    4  C   UNL     1     -11.704  11.858  68.854  1.00  0.00    -0.323 A  
HETATM    5  C   UNL     1     -11.887  14.596  68.293  1.00  0.00    -0.333 A  
HETATM    6  C   UNL     1     -11.620  12.317  67.538  1.00  0.00    -0.422 A  
HETATM    7  C   UNL     1     -11.635  14.178  65.831  1.00  0.00    -0.349 C  
HETATM    8  C   UNL     1     -11.713  13.685  67.247  1.00  0.00    -0.416 A  
ENDROOT
BRANCH   4   9
HETATM    9  O   UNL     1     -11.621  10.541  69.238  1.00  0.00    -0.261 OA 
BRANCH   9  10
HETATM   10  C   UNL     1     -12.243  10.225  70.487  1.00  0.00    -0.301 C  
BRANCH  10  11
HETATM   11  C   UNL     1     -11.433   9.170  71.229  1.00  0.00    -0.335 C  
HETATM   12  C   UNL     1     -10.926   8.027  70.377  1.00  0.00    -0.248 C  
HETATM   13  N   UNL     1      -9.722   7.689  71.065  1.00  0.00    -0.164 NA 
HETATM   14  C   UNL     1      -9.264   8.780  71.753  1.00  0.00    -0.262 C  
HETATM   15  O   UNL     1      -8.157   8.888  72.245  1.00  0.00    -0.376 OA 
HETATM   16  O   UNL     1     -10.228   9.747  71.773  1.00  0.00     0.247 OA 
ENDBRANCH  10  11
ENDBRANCH   9  10
ENDBRANCH   4   9
TORSDOF 3
ENDMDL
MODEL      127
REMARK 921   NORMALIZED FREE ENERGY PREDICTED BY IDOCK:   -4.10 KCAL/MOL
REMARK 922        TOTAL FREE ENERGY PREDICTED BY IDOCK:   -5.05 KCAL/MOL
REMARK 923 INTER-LIGAND FREE ENERGY PREDICTED BY IDOCK:   -4.71 KCAL/MOL
REMARK 924 INTRA-LIGAND FREE ENERGY PREDICTED BY IDOCK:   -0.33 KCAL/MOL
REMARK 927      BINDING AFFINITY PREDICTED BY RF-SCORE:    0.00 PKD
ROOT
HETATM    1  C   UNL     1      -6.144  14.769  69.002  1.00  0.00    -0.093 C  
HETATM    2  C   UNL     1      -6.895  15.587  67.993  1.00  0.00    -0.148 A  
HETATM    3  C   UNL     1      -8.261  15.377  67.753  1.00  0.00    -0.159 A  
HETATM    4  C   UNL     1      -8.957  16.171  66.835  1.00  0.00    -0.223 A  
HETATM    5  C   UNL     1      -6.224  16.590  67.283  1.00  0.00    -0.209 A  
HETATM    6  C   UNL     1      -8.266  17.152  66.119  1.00  0.00    -0.269 A  
HETATM    7  C   UNL     1      -6.157  18.432  65.579  1.00  0.00    -0.281 C  
HETATM    8  C   UNL     1      -6.898  17.370  66.339  1.00  0.00    -0.310 A  
ENDROOT
BRANCH   4   9
HETATM    9  O   UNL     1     -10.292  15.882  66.689  1.00  0.00    -0.287 OA 
BRANCH   9  10
HETATM   10  C   UNL     1     -10.727  15.641  65.349  1.00  0.00    -0.408 C  
BRANCH  10  11
HETATM   11  C   UNL     1     -11.556  14.365  65.282  1.00  0.00    -0.353 C  
HETATM   12  C   UNL     1     -11.077  13.335  64.282  1.00  0.00    -0.388 C  
HETATM   13  N   UNL     1     -11.489  12.126  64.918  1.00  0.00    -0.331 NA 
HETATM   14  C   UNL     1     -11.582  12.327  66.269  1.00  0.00    -0.385 C  
HETATM   15  O   UNL     1     -11.683  11.449  67.106  1.00  0.00    -0.556 OA 
HETATM   16  O   UNL     1     -11.506  13.663  66.541  1.00  0.00    -0.314 OA 
ENDBRANCH  10  11
ENDBRANCH   9  10
ENDBRANCH   4   9
TORSDOF 3
ENDMDL
MODEL      128
REMARK 921   NORMALIZED FREE ENERGY PREDICTED BY IDOCK:   -4.08 KCAL/MOL
REMARK 922        TOTAL FREE ENERGY PREDICTED BY IDOCK:   -5.03 KCAL/MOL
REMARK 923 INTER-LIGAND FREE ENERGY PREDICTED BY IDOCK:   -4.74 KCAL/MOL
REMARK 924 INTRA-LIGAND FREE ENERGY PREDICTED BY IDOCK:   -0.30 KCAL/MOL
REMARK 927      BINDING AFFINITY PREDICTED BY RF-SCORE:    0.00 PKD
ROOT
HETATM    1  C   UNL     1      -9.039   9.451  68.277  1.00  0.00    -0.128 C  
HETATM    2  C   UNL     1      -9.806  10.402  67.406  1.00  0.00    -0.210 A  
HETATM    3  C   UNL     1     -10.587  11.430  67.958  1.00  0.00    -0.224 A  
HETATM    4  C   UNL     1     -11.269  12.331  67.132  1.00  0.00    -0.307 A  
HETATM    5  C   UNL     1      -9.735  10.272  66.014  1.00  0.00    -0.274 A  
HETATM    6  C   UNL     1     -11.204  12.172  65.746  1.00  0.00    -0.384 A  
HETATM    7  C   UNL     1     -10.356  10.980  63.688  1.00  0.00    -0.415 C  
HETATM    8  C   UNL     1     -10.437  11.145  65.178  1.00  0.00    -0.341 A  
ENDROOT
BRANCH   4   9
HETATM    9  O   UNL     1     -11.993  13.301  67.782  1.00  0.00    -0.349 OA 
BRANCH   9  10
HETATM   10  C   UNL     1     -11.789  14.637  67.314  1.00  0.00    -0.351 C  
BRANCH  10  11
HETATM   11  C   UNL     1     -10.948  15.425  68.310  1.00  0.00    -0.288 C  
HETATM   12  C   UNL     1      -9.461  15.437  68.033  1.00  0.00    -0.201 C  
HETATM   13  N   UNL     1      -9.095  16.708  68.568  1.00  0.00    -0.226 NA 
HETATM   14  C   UNL     1     -10.181  17.542  68.555  1.00  0.00    -0.378 C  
HETATM   15  O   UNL     1     -10.146  18.746  68.726  1.00  0.00    -0.386 OA 
HETATM   16  O   UNL     1     -11.309  16.821  68.284  1.00  0.00    -0.274 OA 
ENDBRANCH  10  11
ENDBRANCH   9  10
ENDBRANCH   4   9
TORSDOF 3
ENDMDL
MODEL      129
REMARK 921   NORMALIZED FREE ENERGY PREDICTED BY IDOCK:   -4.07 KCAL/MOL
REMARK 922        TOTAL FREE ENERGY PREDICTED BY IDOCK:   -5.01 KCAL/MOL
REMARK 923 INTER-LIGAND FREE ENERGY PREDICTED BY IDOCK:   -4.76 KCAL/MOL
REMARK 924 INTRA-LIGAND FREE ENERGY PREDICTED BY IDOCK:   -0.26 KCAL/MOL
REMARK 927      BINDING AFFINITY PREDICTED BY RF-SCORE:    0.00 PKD
ROOT
HETATM    1  C   UNL     1     -12.208  14.452  69.566  1.00  0.00    -0.325 C  
HETATM    2  C   UNL     1     -11.862  13.516  68.446  1.00  0.00    -0.408 A  
HETATM    3  C   UNL     1     -11.360  12.230  68.697  1.00  0.00    -0.339 A  
HETATM    4  C   UNL     1     -11.074  11.356  67.642  1.00  0.00    -0.268 A  
HETATM    5  C   UNL     1     -12.052  13.928  67.121  1.00  0.00    -0.422 A  
HETATM    6  C   UNL     1     -11.250  11.791  66.327  1.00  0.00    -0.370 A  
HETATM    7  C   UNL     1     -11.943  13.541  64.643  1.00  0.00    -0.438 C  
HETATM    8  C   UNL     1     -11.742  13.076  66.056  1.00  0.00    -0.442 A  
ENDROOT
BRANCH   4   9
HETATM    9  O   UNL     1     -10.598  10.119  68.007  1.00  0.00    -0.198 OA 
BRANCH   9  10
HETATM   10  C   UNL     1     -10.161   9.286  66.930  1.00  0.00    -0.256 C  
BRANCH  10  11
HETATM   11  C   UNL     1     -10.647   7.857  67.136  1.00  0.00    -0.313 C  
HETATM   12  C   UNL     1      -9.685   6.777  66.690  1.00  0.00    -0.158 C  
HETATM   13  N   UNL     1     -10.010   5.730  67.603  1.00  0.00    -0.130 NA 
HETATM   14  C   UNL     1     -10.546   6.265  68.744  1.00  0.00    -0.262 C  
HETATM   15  O   UNL     1     -10.711   5.668  69.791  1.00  0.00    -0.310 OA 
HETATM   16  O   UNL     1     -10.836   7.584  68.540  1.00  0.00    -0.117 OA 
ENDBRANCH  10  11
ENDBRANCH   9  10
ENDBRANCH   4   9
TORSDOF 3
ENDMDL
MODEL      130
REMARK 921   NORMALIZED FREE ENERGY PREDICTED BY IDOCK:   -4.06 KCAL/MOL
REMARK 922        TOTAL FREE ENERGY PREDICTED BY IDOCK:   -5.01 KCAL/MOL
REMARK 923 INTER-LIGAND FREE ENERGY PREDICTED BY IDOCK:   -4.73 KCAL/MOL
REMARK 924 INTRA-LIGAND FREE ENERGY PREDICTED BY IDOCK:   -0.28 KCAL/MOL
REMARK 927      BINDING AFFINITY PREDICTED BY RF-SCORE:    0.00 PKD
ROOT
HETATM    1  C   UNL     1      -6.443  18.988  65.421  1.00  0.00    -0.308 C  
HETATM    2  C   UNL     1      -6.967  18.016  66.437  1.00  0.00    -0.278 A  
HETATM    3  C   UNL     1      -8.156  17.302  66.221  1.00  0.00    -0.315 A  
HETATM    4  C   UNL     1      -8.614  16.373  67.161  1.00  0.00    -0.181 A  
HETATM    5  C   UNL     1      -6.251  17.804  67.621  1.00  0.00    -0.168 A  
HETATM    6  C   UNL     1      -7.898  16.192  68.347  1.00  0.00    -0.160 A  
HETATM    7  C   UNL     1      -5.935  16.699  69.853  1.00  0.00    -0.214 C  
HETATM    8  C   UNL     1      -6.713  16.902  68.584  1.00  0.00    -0.178 A  
ENDROOT
BRANCH   4   9
HETATM    9  O   UNL     1      -9.783  15.727  66.839  1.00  0.00    -0.222 OA 
BRANCH   9  10
HETATM   10  C   UNL     1     -10.670  15.478  67.933  1.00  0.00    -0.294 C  
BRANCH  10  11
HETATM   11  C   UNL     1     -11.671  14.391  67.566  1.00  0.00    -0.387 C  
HETATM   12  C   UNL     1     -11.880  14.178  66.082  1.00  0.00    -0.407 C  
HETATM   13  N   UNL     1     -12.196  12.788  66.049  1.00  0.00    -0.559 NA 
HETATM   14  C   UNL     1     -11.653  12.166  67.141  1.00  0.00    -0.335 C  
HETATM   15  O   UNL     1     -11.546  10.963  67.285  1.00  0.00    -0.475 OA 
HETATM   16  O   UNL     1     -11.215  13.105  68.031  1.00  0.00    -0.251 OA 
ENDBRANCH  10  11
ENDBRANCH   9  10
ENDBRANCH   4   9
TORSDOF 3
ENDMDL
MODEL      131
REMARK 921   NORMALIZED FREE ENERGY PREDICTED BY IDOCK:   -4.05 KCAL/MOL
REMARK 922        TOTAL FREE ENERGY PREDICTED BY IDOCK:   -5.00 KCAL/MOL
REMARK 923 INTER-LIGAND FREE ENERGY PREDICTED BY IDOCK:   -4.82 KCAL/MOL
REMARK 924 INTRA-LIGAND FREE ENERGY PREDICTED BY IDOCK:   -0.17 KCAL/MOL
REMARK 927      BINDING AFFINITY PREDICTED BY RF-SCORE:    0.00 PKD
ROOT
HETATM    1  C   UNL     1      -6.219  17.813  66.174  1.00  0.00    -0.276 C  
HETATM    2  C   UNL     1      -7.683  17.867  66.502  1.00  0.00    -0.292 A  
HETATM    3  C   UNL     1      -8.558  16.844  66.108  1.00  0.00    -0.277 A  
HETATM    4  C   UNL     1      -9.914  16.891  66.451  1.00  0.00    -0.309 A  
HETATM    5  C   UNL     1      -8.186  18.955  67.226  1.00  0.00    -0.287 A  
HETATM    6  C   UNL     1     -10.403  17.994  67.154  1.00  0.00    -0.382 A  
HETATM    7  C   UNL     1     -10.066  20.212  68.315  1.00  0.00    -0.471 C  
HETATM    8  C   UNL     1      -9.545  19.031  67.549  1.00  0.00    -0.358 A  
ENDROOT
BRANCH   4   9
HETATM    9  O   UNL     1     -10.673  15.829  66.021  1.00  0.00    -0.323 OA 
BRANCH   9  10
HETATM   10  C   UNL     1     -10.216  14.539  66.434  1.00  0.00    -0.287 C  
BRANCH  10  11
HETATM   11  C   UNL     1     -10.623  14.270  67.877  1.00  0.00    -0.240 C  
HETATM   12  C   UNL     1      -9.611  14.684  68.923  1.00  0.00    -0.184 C  
HETATM   13  N   UNL     1     -10.467  15.006  70.017  1.00  0.00    -0.167 NA 
HETATM   14  C   UNL     1     -11.705  15.353  69.546  1.00  0.00    -0.346 C  
HETATM   15  O   UNL     1     -12.579  15.895  70.196  1.00  0.00    -0.297 OA 
HETATM   16  O   UNL     1     -11.798  15.032  68.222  1.00  0.00    -0.327 OA 
ENDBRANCH  10  11
ENDBRANCH   9  10
ENDBRANCH   4   9
TORSDOF 3
ENDMDL
MODEL      132
REMARK 921   NORMALIZED FREE ENERGY PREDICTED BY IDOCK:   -4.02 KCAL/MOL
REMARK 922        TOTAL FREE ENERGY PREDICTED BY IDOCK:   -4.96 KCAL/MOL
REMARK 923 INTER-LIGAND FREE ENERGY PREDICTED BY IDOCK:   -4.77 KCAL/MOL
REMARK 924 INTRA-LIGAND FREE ENERGY PREDICTED BY IDOCK:   -0.19 KCAL/MOL
REMARK 927      BINDING AFFINITY PREDICTED BY RF-SCORE:    0.00 PKD
ROOT
HETATM    1  C   UNL     1     -14.398   7.294  71.646  1.00  0.00    -0.583 C  
HETATM    2  C   UNL     1     -13.256   8.249  71.459  1.00  0.00    -0.308 A  
HETATM    3  C   UNL     1     -13.423   9.462  70.775  1.00  0.00     0.078 A  
HETATM    4  C   UNL     1     -12.357  10.359  70.638  1.00  0.00    -0.346 A  
HETATM    5  C   UNL     1     -11.999   7.930  71.988  1.00  0.00    -0.364 A  
HETATM    6  C   UNL     1     -11.105  10.014  71.153  1.00  0.00    -0.270 A  
HETATM    7  C   UNL     1      -9.575   8.436  72.397  1.00  0.00    -0.373 C  
HETATM    8  C   UNL     1     -10.917   8.802  71.832  1.00  0.00    -0.435 A  
ENDROOT
BRANCH   4   9
HETATM    9  O   UNL     1     -12.638  11.519  69.958  1.00  0.00    -0.148 OA 
BRANCH   9  10
HETATM   10  C   UNL     1     -11.810  12.639  70.283  1.00  0.00    -0.214 C  
BRANCH  10  11
HETATM   11  C   UNL     1     -12.172  13.835  69.413  1.00  0.00    -0.278 C  
HETATM   12  C   UNL     1     -12.187  15.171  70.125  1.00  0.00    -0.352 C  
HETATM   13  N   UNL     1     -11.818  16.048  69.062  1.00  0.00    -0.329 NA 
HETATM   14  C   UNL     1     -11.102  15.358  68.122  1.00  0.00    -0.309 C  
HETATM   15  O   UNL     1     -10.455  15.859  67.222  1.00  0.00    -0.298 OA 
HETATM   16  O   UNL     1     -11.193  14.018  68.370  1.00  0.00    -0.244 OA 
ENDBRANCH  10  11
ENDBRANCH   9  10
ENDBRANCH   4   9
TORSDOF 3
ENDMDL
MODEL      133
REMARK 921   NORMALIZED FREE ENERGY PREDICTED BY IDOCK:   -4.02 KCAL/MOL
REMARK 922        TOTAL FREE ENERGY PREDICTED BY IDOCK:   -4.95 KCAL/MOL
REMARK 923 INTER-LIGAND FREE ENERGY PREDICTED BY IDOCK:   -4.66 KCAL/MOL
REMARK 924 INTRA-LIGAND FREE ENERGY PREDICTED BY IDOCK:   -0.30 KCAL/MOL
REMARK 927      BINDING AFFINITY PREDICTED BY RF-SCORE:    0.00 PKD
ROOT
HETATM    1  C   UNL     1     -12.159  13.087  63.685  1.00  0.00    -0.604 C  
HETATM    2  C   UNL     1     -11.655  12.994  65.095  1.00  0.00    -0.357 A  
HETATM    3  C   UNL     1     -10.946  11.870  65.545  1.00  0.00    -0.347 A  
HETATM    4  C   UNL     1     -10.452  11.812  66.852  1.00  0.00    -0.223 A  
HETATM    5  C   UNL     1     -11.884  14.055  65.979  1.00  0.00    -0.401 A  
HETATM    6  C   UNL     1     -10.709  12.870  67.727  1.00  0.00    -0.238 A  
HETATM    7  C   UNL     1     -11.691  15.141  68.234  1.00  0.00    -0.336 C  
HETATM    8  C   UNL     1     -11.423  13.998  67.298  1.00  0.00    -0.372 A  
ENDROOT
BRANCH   4   9
HETATM    9  O   UNL     1      -9.765  10.667  67.179  1.00  0.00    -0.166 OA 
BRANCH   9  10
HETATM   10  C   UNL     1      -8.764  10.818  68.189  1.00  0.00    -0.130 C  
BRANCH  10  11
HETATM   11  C   UNL     1      -8.866   9.691  69.208  1.00  0.00    -0.164 C  
HETATM   12  C   UNL     1      -7.803   9.695  70.285  1.00  0.00    -0.178 C  
HETATM   13  N   UNL     1      -8.517   9.111  71.373  1.00  0.00    -0.333 NA 
HETATM   14  C   UNL     1      -9.859   9.324  71.211  1.00  0.00    -0.248 C  
HETATM   15  O   UNL     1     -10.707   9.158  72.067  1.00  0.00    -0.341 OA 
HETATM   16  O   UNL     1     -10.100   9.790  69.950  1.00  0.00    -0.220 OA 
ENDBRANCH  10  11
ENDBRANCH   9  10
ENDBRANCH   4   9
TORSDOF 3
ENDMDL
MODEL      134
REMARK 921   NORMALIZED FREE ENERGY PREDICTED BY IDOCK:   -4.01 KCAL/MOL
REMARK 922        TOTAL FREE ENERGY PREDICTED BY IDOCK:   -4.94 KCAL/MOL
REMARK 923 INTER-LIGAND FREE ENERGY PREDICTED BY IDOCK:   -4.74 KCAL/MOL
REMARK 924 INTRA-LIGAND FREE ENERGY PREDICTED BY IDOCK:   -0.20 KCAL/MOL
REMARK 927      BINDING AFFINITY PREDICTED BY RF-SCORE:    0.00 PKD
ROOT
HETATM    1  C   UNL     1      -6.740  19.725  69.466  1.00  0.00    -0.372 C  
HETATM    2  C   UNL     1      -7.579  19.066  68.410  1.00  0.00    -0.343 A  
HETATM    3  C   UNL     1      -7.295  17.770  67.955  1.00  0.00    -0.215 A  
HETATM    4  C   UNL     1      -8.107  17.155  66.995  1.00  0.00    -0.201 A  
HETATM    5  C   UNL     1      -8.676  19.753  67.875  1.00  0.00    -0.370 A  
HETATM    6  C   UNL     1      -9.184  17.863  66.457  1.00  0.00    -0.286 A  
HETATM    7  C   UNL     1     -10.642  19.921  66.324  1.00  0.00    -0.534 C  
HETATM    8  C   UNL     1      -9.478  19.163  66.893  1.00  0.00    -0.368 A  
ENDROOT
BRANCH   4   9
HETATM    9  O   UNL     1      -7.739  15.882  66.632  1.00  0.00    -0.234 OA 
BRANCH   9  10
HETATM   10  C   UNL     1      -8.197  14.839  67.498  1.00  0.00    -0.185 C  
BRANCH  10  11
HETATM   11  C   UNL     1      -9.675  14.564  67.259  1.00  0.00    -0.232 C  
HETATM   12  C   UNL     1     -10.006  13.158  66.805  1.00  0.00    -0.250 C  
HETATM   13  N   UNL     1     -11.310  12.993  67.360  1.00  0.00    -0.289 NA 
HETATM   14  C   UNL     1     -11.456  13.818  68.443  1.00  0.00    -0.316 C  
HETATM   15  O   UNL     1     -12.352  13.750  69.263  1.00  0.00    -0.312 OA 
HETATM   16  O   UNL     1     -10.421  14.708  68.486  1.00  0.00    -0.233 OA 
ENDBRANCH  10  11
ENDBRANCH   9  10
ENDBRANCH   4   9
TORSDOF 3
ENDMDL
MODEL      135
REMARK 921   NORMALIZED FREE ENERGY PREDICTED BY IDOCK:   -4.00 KCAL/MOL
REMARK 922        TOTAL FREE ENERGY PREDICTED BY IDOCK:   -4.94 KCAL/MOL
REMARK 923 INTER-LIGAND FREE ENERGY PREDICTED BY IDOCK:   -4.67 KCAL/MOL
REMARK 924 INTRA-LIGAND FREE ENERGY PREDICTED BY IDOCK:   -0.27 KCAL/MOL
REMARK 927      BINDING AFFINITY PREDICTED BY RF-SCORE:    0.00 PKD
ROOT
HETATM    1  C   UNL     1     -13.974  14.880  71.742  1.00  0.00    -0.583 C  
HETATM    2  C   UNL     1     -13.198  13.759  71.115  1.00  0.00    -0.277 A  
HETATM    3  C   UNL     1     -12.465  13.948  69.934  1.00  0.00    -0.285 A  
HETATM    4  C   UNL     1     -11.719  12.903  69.380  1.00  0.00    -0.321 A  
HETATM    5  C   UNL     1     -13.194  12.499  71.726  1.00  0.00    -0.444 A  
HETATM    6  C   UNL     1     -11.744  11.647  69.990  1.00  0.00    -0.402 A  
HETATM    7  C   UNL     1     -12.496  10.090  71.831  1.00  0.00    -0.408 C  
HETATM    8  C   UNL     1     -12.477  11.436  71.167  1.00  0.00    -0.465 A  
ENDROOT
BRANCH   4   9
HETATM    9  O   UNL     1     -11.033  13.206  68.228  1.00  0.00    -0.234 OA 
BRANCH   9  10
HETATM   10  C   UNL     1     -10.968  12.159  67.257  1.00  0.00    -0.260 C  
BRANCH  10  11
HETATM   11  C   UNL     1      -9.622  12.181  66.543  1.00  0.00    -0.228 C  
HETATM   12  C   UNL     1      -8.410  12.132  67.448  1.00  0.00    -0.174 C  
HETATM   13  N   UNL     1      -7.474  11.455  66.610  1.00  0.00    -0.136 NA 
HETATM   14  C   UNL     1      -8.145  10.687  65.697  1.00  0.00    -0.146 C  
HETATM   15  O   UNL     1      -7.646   9.822  65.003  1.00  0.00    -0.115 OA 
HETATM   16  O   UNL     1      -9.472  11.013  65.711  1.00  0.00    -0.194 OA 
ENDBRANCH  10  11
ENDBRANCH   9  10
ENDBRANCH   4   9
TORSDOF 3
ENDMDL
MODEL      136
REMARK 921   NORMALIZED FREE ENERGY PREDICTED BY IDOCK:   -3.97 KCAL/MOL
REMARK 922        TOTAL FREE ENERGY PREDICTED BY IDOCK:   -4.90 KCAL/MOL
REMARK 923 INTER-LIGAND FREE ENERGY PREDICTED BY IDOCK:   -4.61 KCAL/MOL
REMARK 924 INTRA-LIGAND FREE ENERGY PREDICTED BY IDOCK:   -0.28 KCAL/MOL
REMARK 927      BINDING AFFINITY PREDICTED BY RF-SCORE:    0.00 PKD
ROOT
HETATM    1  C   UNL     1      -8.862   5.495  70.718  1.00  0.00    -0.143 C  
HETATM    2  C   UNL     1      -9.518   6.104  69.513  1.00  0.00    -0.156 A  
HETATM    3  C   UNL     1      -9.827   7.472  69.463  1.00  0.00    -0.169 A  
HETATM    4  C   UNL     1     -10.406   8.032  68.319  1.00  0.00    -0.197 A  
HETATM    5  C   UNL     1      -9.818   5.295  68.411  1.00  0.00    -0.208 A  
HETATM    6  C   UNL     1     -10.719   7.206  67.237  1.00  0.00    -0.399 A  
HETATM    7  C   UNL     1     -10.750   4.948  66.106  1.00  0.00    -0.243 C  
HETATM    8  C   UNL     1     -10.425   5.835  67.273  1.00  0.00    -0.330 A  
ENDROOT
BRANCH   4   9
HETATM    9  O   UNL     1     -10.655   9.382  68.379  1.00  0.00    -0.218 OA 
BRANCH   9  10
HETATM   10  C   UNL     1     -10.617   9.957  69.688  1.00  0.00    -0.250 C  
BRANCH  10  11
HETATM   11  C   UNL     1     -12.027  10.278  70.167  1.00  0.00    -0.234 C  
HETATM   12  C   UNL     1     -12.514   9.455  71.340  1.00  0.00    -0.352 C  
HETATM   13  N   UNL     1     -13.393  10.381  71.975  1.00  0.00    -0.410 NA 
HETATM   14  C   UNL     1     -13.019  11.660  71.662  1.00  0.00    -0.378 C  
HETATM   15  O   UNL     1     -13.415  12.666  72.219  1.00  0.00    -0.561 OA 
HETATM   16  O   UNL     1     -12.101  11.634  70.650  1.00  0.00    -0.368 OA 
ENDBRANCH  10  11
ENDBRANCH   9  10
ENDBRANCH   4   9
TORSDOF 3
ENDMDL
MODEL      137
REMARK 921   NORMALIZED FREE ENERGY PREDICTED BY IDOCK:   -3.95 KCAL/MOL
REMARK 922        TOTAL FREE ENERGY PREDICTED BY IDOCK:   -4.88 KCAL/MOL
REMARK 923 INTER-LIGAND FREE ENERGY PREDICTED BY IDOCK:   -4.53 KCAL/MOL
REMARK 924 INTRA-LIGAND FREE ENERGY PREDICTED BY IDOCK:   -0.35 KCAL/MOL
REMARK 927      BINDING AFFINITY PREDICTED BY RF-SCORE:    0.00 PKD
ROOT
HETATM    1  C   UNL     1     -10.447  16.907  67.227  1.00  0.00    -0.301 C  
HETATM    2  C   UNL     1     -11.052  15.747  67.961  1.00  0.00    -0.337 A  
HETATM    3  C   UNL     1     -11.428  14.573  67.290  1.00  0.00    -0.381 A  
HETATM    4  C   UNL     1     -11.959  13.486  67.993  1.00  0.00    -0.337 A  
HETATM    5  C   UNL     1     -11.235  15.829  69.347  1.00  0.00    -0.324 A  
HETATM    6  C   UNL     1     -12.155  13.594  69.371  1.00  0.00    -0.364 A  
HETATM    7  C   UNL     1     -11.992  14.875  71.542  1.00  0.00    -0.408 C  
HETATM    8  C   UNL     1     -11.793  14.762  70.058  1.00  0.00    -0.362 A  
ENDROOT
BRANCH   4   9
HETATM    9  O   UNL     1     -12.282  12.387  67.234  1.00  0.00    -0.478 OA 
BRANCH   9  10
HETATM   10  C   UNL     1     -11.224  11.867  66.423  1.00  0.00    -0.331 C  
BRANCH  10  11
HETATM   11  C   UNL     1     -10.243  11.075  67.277  1.00  0.00    -0.199 C  
HETATM   12  C   UNL     1      -9.933   9.680  66.779  1.00  0.00    -0.227 C  
HETATM   13  N   UNL     1      -8.595   9.516  67.246  1.00  0.00    -0.128 NA 
HETATM   14  C   UNL     1      -8.006  10.743  67.393  1.00  0.00    -0.112 C  
HETATM   15  O   UNL     1      -6.816  10.938  67.551  1.00  0.00    -0.075 OA 
HETATM   16  O   UNL     1      -8.954  11.722  67.299  1.00  0.00    -0.163 OA 
ENDBRANCH  10  11
ENDBRANCH   9  10
ENDBRANCH   4   9
TORSDOF 3
ENDMDL
MODEL      138
REMARK 921   NORMALIZED FREE ENERGY PREDICTED BY IDOCK:   -3.93 KCAL/MOL
REMARK 922        TOTAL FREE ENERGY PREDICTED BY IDOCK:   -4.85 KCAL/MOL
REMARK 923 INTER-LIGAND FREE ENERGY PREDICTED BY IDOCK:   -4.56 KCAL/MOL
REMARK 924 INTRA-LIGAND FREE ENERGY PREDICTED BY IDOCK:   -0.29 KCAL/MOL
REMARK 927      BINDING AFFINITY PREDICTED BY RF-SCORE:    0.00 PKD
ROOT
HETATM    1  C   UNL     1     -12.027  12.739  69.799  1.00  0.00    -0.362 C  
HETATM    2  C   UNL     1     -11.929  11.350  70.358  1.00  0.00    -0.465 A  
HETATM    3  C   UNL     1     -10.790  10.557  70.150  1.00  0.00    -0.291 A  
HETATM    4  C   UNL     1     -10.699   9.276  70.706  1.00  0.00    -0.284 A  
HETATM    5  C   UNL     1     -12.990  10.836  71.113  1.00  0.00    -0.467 A  
HETATM    6  C   UNL     1     -11.776   8.771  71.438  1.00  0.00    -0.369 A  
HETATM    7  C   UNL     1     -14.080   9.009  72.446  1.00  0.00    -0.478 C  
HETATM    8  C   UNL     1     -12.926   9.546  71.649  1.00  0.00    -0.483 A  
ENDROOT
BRANCH   4   9
HETATM    9  O   UNL     1      -9.535   8.596  70.445  1.00  0.00    -0.159 OA 
BRANCH   9  10
HETATM   10  C   UNL     1      -9.692   7.216  70.100  1.00  0.00    -0.171 C  
BRANCH  10  11
HETATM   11  C   UNL     1      -9.269   6.980  68.656  1.00  0.00    -0.131 C  
HETATM   12  C   UNL     1     -10.220   6.137  67.834  1.00  0.00    -0.175 C  
HETATM   13  N   UNL     1     -10.008   6.680  66.532  1.00  0.00    -0.129 NA 
HETATM   14  C   UNL     1      -9.557   7.969  66.639  1.00  0.00    -0.230 C  
HETATM   15  O   UNL     1      -9.502   8.773  65.728  1.00  0.00    -0.229 OA 
HETATM   16  O   UNL     1      -9.212   8.228  67.935  1.00  0.00    -0.132 OA 
ENDBRANCH  10  11
ENDBRANCH   9  10
ENDBRANCH   4   9
TORSDOF 3
ENDMDL
MODEL      139
REMARK 921   NORMALIZED FREE ENERGY PREDICTED BY IDOCK:   -3.92 KCAL/MOL
REMARK 922        TOTAL FREE ENERGY PREDICTED BY IDOCK:   -4.84 KCAL/MOL
REMARK 923 INTER-LIGAND FREE ENERGY PREDICTED BY IDOCK:   -4.49 KCAL/MOL
REMARK 924 INTRA-LIGAND FREE ENERGY PREDICTED BY IDOCK:   -0.35 KCAL/MOL
REMARK 927      BINDING AFFINITY PREDICTED BY RF-SCORE:    0.00 PKD
ROOT
HETATM    1  C   UNL     1      -6.356   8.523  68.550  1.00  0.00    -0.054 C  
HETATM    2  C   UNL     1      -7.743   8.964  68.186  1.00  0.00    -0.100 A  
HETATM    3  C   UNL     1      -8.071  10.324  68.072  1.00  0.00    -0.106 A  
HETATM    4  C   UNL     1      -9.360  10.720  67.698  1.00  0.00    -0.147 A  
HETATM    5  C   UNL     1      -8.730   8.002  67.942  1.00  0.00    -0.128 A  
HETATM    6  C   UNL     1     -10.337   9.746  67.480  1.00  0.00    -0.291 A  
HETATM    7  C   UNL     1     -11.077   7.335  67.352  1.00  0.00    -0.138 C  
HETATM    8  C   UNL     1     -10.030   8.383  67.597  1.00  0.00    -0.246 A  
ENDROOT
BRANCH   4   9
HETATM    9  O   UNL     1      -9.563  12.076  67.609  1.00  0.00    -0.180 OA 
BRANCH   9  10
HETATM   10  C   UNL     1     -10.810  12.546  68.128  1.00  0.00    -0.222 C  
BRANCH  10  11
HETATM   11  C   UNL     1     -11.618  13.226  67.030  1.00  0.00    -0.359 C  
HETATM   12  C   UNL     1     -10.810  14.038  66.041  1.00  0.00    -0.295 C  
HETATM   13  N   UNL     1     -11.604  13.902  64.864  1.00  0.00    -0.343 NA 
HETATM   14  C   UNL     1     -12.339  12.749  64.937  1.00  0.00    -0.490 C  
HETATM   15  O   UNL     1     -12.932  12.233  64.008  1.00  0.00    -0.740 OA 
HETATM   16  O   UNL     1     -12.275  12.243  66.204  1.00  0.00    -0.647 OA 
ENDBRANCH  10  11
ENDBRANCH   9  10
ENDBRANCH   4   9
TORSDOF 3
ENDMDL
MODEL      140
REMARK 921   NORMALIZED FREE ENERGY PREDICTED BY IDOCK:   -3.92 KCAL/MOL
REMARK 922        TOTAL FREE ENERGY PREDICTED BY IDOCK:   -4.84 KCAL/MOL
REMARK 923 INTER-LIGAND FREE ENERGY PREDICTED BY IDOCK:   -4.62 KCAL/MOL
REMARK 924 INTRA-LIGAND FREE ENERGY PREDICTED BY IDOCK:   -0.22 KCAL/MOL
REMARK 927      BINDING AFFINITY PREDICTED BY RF-SCORE:    0.00 PKD
ROOT
HETATM    1  C   UNL     1     -13.549   9.397  72.396  1.00  0.00    -0.498 C  
HETATM    2  C   UNL     1     -12.662  10.076  71.394  1.00  0.00    -0.518 A  
HETATM    3  C   UNL     1     -11.753   9.349  70.611  1.00  0.00    -0.302 A  
HETATM    4  C   UNL     1     -10.957   9.992  69.657  1.00  0.00    -0.264 A  
HETATM    5  C   UNL     1     -12.749  11.464  71.227  1.00  0.00    -0.498 A  
HETATM    6  C   UNL     1     -11.042  11.380  69.519  1.00  0.00    -0.274 A  
HETATM    7  C   UNL     1     -12.040  13.614  70.144  1.00  0.00    -0.431 C  
HETATM    8  C   UNL     1     -11.938  12.124  70.299  1.00  0.00    -0.389 A  
ENDROOT
BRANCH   4   9
HETATM    9  O   UNL     1     -10.112   9.179  68.941  1.00  0.00    -0.185 OA 
BRANCH   9  10
HETATM   10  C   UNL     1     -10.398   9.071  67.544  1.00  0.00    -0.264 C  
BRANCH  10  11
HETATM   11  C   UNL     1      -9.300   9.739  66.726  1.00  0.00    -0.152 C  
HETATM   12  C   UNL     1      -8.079   8.885  66.463  1.00  0.00    -0.107 C  
HETATM   13  N   UNL     1      -7.655   9.399  65.201  1.00  0.00    -0.106 NA 
HETATM   14  C   UNL     1      -8.724   9.949  64.546  1.00  0.00    -0.198 C  
HETATM   15  O   UNL     1      -8.744  10.260  63.370  1.00  0.00    -0.173 OA 
HETATM   16  O   UNL     1      -9.780  10.061  65.404  1.00  0.00    -0.260 OA 
ENDBRANCH  10  11
ENDBRANCH   9  10
ENDBRANCH   4   9
TORSDOF 3
ENDMDL
MODEL      141
REMARK 921   NORMALIZED FREE ENERGY PREDICTED BY IDOCK:   -3.90 KCAL/MOL
REMARK 922        TOTAL FREE ENERGY PREDICTED BY IDOCK:   -4.82 KCAL/MOL
REMARK 923 INTER-LIGAND FREE ENERGY PREDICTED BY IDOCK:   -4.60 KCAL/MOL
REMARK 924 INTRA-LIGAND FREE ENERGY PREDICTED BY IDOCK:   -0.22 KCAL/MOL
REMARK 927      BINDING AFFINITY PREDICTED BY RF-SCORE:    0.00 PKD
ROOT
HETATM    1  C   UNL     1     -12.128  13.393  68.604  1.00  0.00    -0.281 C  
HETATM    2  C   UNL     1     -11.607  12.003  68.823  1.00  0.00    -0.366 A  
HETATM    3  C   UNL     1     -11.538  11.443  70.108  1.00  0.00    -0.368 A  
HETATM    4  C   UNL     1     -11.083  10.133  70.294  1.00  0.00    -0.317 A  
HETATM    5  C   UNL     1     -11.191  11.242  67.724  1.00  0.00    -0.354 A  
HETATM    6  C   UNL     1     -10.652   9.396  69.188  1.00  0.00    -0.234 A  
HETATM    7  C   UNL     1     -10.254   9.148  66.706  1.00  0.00    -0.331 C  
HETATM    8  C   UNL     1     -10.705   9.943  67.897  1.00  0.00    -0.316 A  
ENDROOT
BRANCH   4   9
HETATM    9  O   UNL     1     -11.068   9.687  71.593  1.00  0.00    -0.348 OA 
BRANCH   9  10
HETATM   10  C   UNL     1     -11.667   8.406  71.810  1.00  0.00    -0.310 C  
BRANCH  10  11
HETATM   11  C   UNL     1     -10.619   7.404  72.278  1.00  0.00    -0.232 C  
HETATM   12  C   UNL     1     -10.505   7.240  73.778  1.00  0.00    -0.288 C  
HETATM   13  N   UNL     1     -10.093   5.878  73.871  1.00  0.00    -0.213 NA 
HETATM   14  C   UNL     1     -10.508   5.194  72.760  1.00  0.00    -0.214 C  
HETATM   15  O   UNL     1     -10.518   3.983  72.642  1.00  0.00    -0.177 OA 
HETATM   16  O   UNL     1     -10.947   6.077  71.816  1.00  0.00    -0.250 OA 
ENDBRANCH  10  11
ENDBRANCH   9  10
ENDBRANCH   4   9
TORSDOF 3
ENDMDL
MODEL      142
REMARK 921   NORMALIZED FREE ENERGY PREDICTED BY IDOCK:   -3.90 KCAL/MOL
REMARK 922        TOTAL FREE ENERGY PREDICTED BY IDOCK:   -4.81 KCAL/MOL
REMARK 923 INTER-LIGAND FREE ENERGY PREDICTED BY IDOCK:   -4.50 KCAL/MOL
REMARK 924 INTRA-LIGAND FREE ENERGY PREDICTED BY IDOCK:   -0.31 KCAL/MOL
REMARK 927      BINDING AFFINITY PREDICTED BY RF-SCORE:    0.00 PKD
ROOT
HETATM    1  C   UNL     1      -8.145   6.949  68.673  1.00  0.00    -0.121 C  
HETATM    2  C   UNL     1      -8.747   7.953  67.735  1.00  0.00    -0.127 A  
HETATM    3  C   UNL     1      -9.691   8.892  68.176  1.00  0.00    -0.180 A  
HETATM    4  C   UNL     1     -10.218   9.845  67.297  1.00  0.00    -0.222 A  
HETATM    5  C   UNL     1      -8.351   7.963  66.392  1.00  0.00    -0.129 A  
HETATM    6  C   UNL     1      -9.828   9.826  65.956  1.00  0.00    -0.342 A  
HETATM    7  C   UNL     1      -8.463   8.875  64.056  1.00  0.00    -0.146 C  
HETATM    8  C   UNL     1      -8.892   8.889  65.494  1.00  0.00    -0.238 A  
ENDROOT
BRANCH   4   9
HETATM    9  O   UNL     1     -11.126  10.720  67.842  1.00  0.00    -0.264 OA 
BRANCH   9  10
HETATM   10  C   UNL     1     -10.572  11.915  68.398  1.00  0.00    -0.218 C  
BRANCH  10  11
HETATM   11  C   UNL     1     -11.420  13.121  68.014  1.00  0.00    -0.311 C  
HETATM   12  C   UNL     1     -10.650  14.307  67.475  1.00  0.00    -0.261 C  
HETATM   13  N   UNL     1     -11.613  14.875  66.588  1.00  0.00    -0.310 NA 
HETATM   14  C   UNL     1     -12.489  13.905  66.178  1.00  0.00    -0.436 C  
HETATM   15  O   UNL     1     -13.274  14.011  65.255  1.00  0.00    -0.782 OA 
HETATM   16  O   UNL     1     -12.321  12.784  66.939  1.00  0.00    -0.412 OA 
ENDBRANCH  10  11
ENDBRANCH   9  10
ENDBRANCH   4   9
TORSDOF 3
ENDMDL
MODEL      143
REMARK 921   NORMALIZED FREE ENERGY PREDICTED BY IDOCK:   -3.88 KCAL/MOL
REMARK 922        TOTAL FREE ENERGY PREDICTED BY IDOCK:   -4.79 KCAL/MOL
REMARK 923 INTER-LIGAND FREE ENERGY PREDICTED BY IDOCK:   -4.42 KCAL/MOL
REMARK 924 INTRA-LIGAND FREE ENERGY PREDICTED BY IDOCK:   -0.37 KCAL/MOL
REMARK 927      BINDING AFFINITY PREDICTED BY RF-SCORE:    0.00 PKD
ROOT
HETATM    1  C   UNL     1      -6.182  14.735  69.096  1.00  0.00    -0.105 C  
HETATM    2  C   UNL     1      -6.998  15.573  68.157  1.00  0.00    -0.129 A  
HETATM    3  C   UNL     1      -8.394  15.449  68.091  1.00  0.00    -0.145 A  
HETATM    4  C   UNL     1      -9.145  16.262  67.235  1.00  0.00    -0.203 A  
HETATM    5  C   UNL     1      -6.356  16.509  67.336  1.00  0.00    -0.199 A  
HETATM    6  C   UNL     1      -8.486  17.174  66.407  1.00  0.00    -0.307 A  
HETATM    7  C   UNL     1      -6.382  18.295  65.573  1.00  0.00    -0.285 C  
HETATM    8  C   UNL     1      -7.091  17.307  66.453  1.00  0.00    -0.312 A  
ENDROOT
BRANCH   4   9
HETATM    9  O   UNL     1     -10.503  16.059  67.261  1.00  0.00    -0.298 OA 
BRANCH   9  10
HETATM   10  C   UNL     1     -10.921  14.691  67.230  1.00  0.00    -0.317 C  
BRANCH  10  11
HETATM   11  C   UNL     1     -11.938  14.423  68.332  1.00  0.00    -0.293 C  
HETATM   12  C   UNL     1     -11.541  13.359  69.332  1.00  0.00    -0.307 C  
HETATM   13  N   UNL     1     -12.205  13.827  70.504  1.00  0.00    -0.353 NA 
HETATM   14  C   UNL     1     -12.393  15.180  70.417  1.00  0.00    -0.363 C  
HETATM   15  O   UNL     1     -12.716  15.907  71.338  1.00  0.00    -0.464 OA 
HETATM   16  O   UNL     1     -12.125  15.599  69.145  1.00  0.00    -0.344 OA 
ENDBRANCH  10  11
ENDBRANCH   9  10
ENDBRANCH   4   9
TORSDOF 3
ENDMDL
MODEL      144
REMARK 921   NORMALIZED FREE ENERGY PREDICTED BY IDOCK:   -3.87 KCAL/MOL
REMARK 922        TOTAL FREE ENERGY PREDICTED BY IDOCK:   -4.79 KCAL/MOL
REMARK 923 INTER-LIGAND FREE ENERGY PREDICTED BY IDOCK:   -4.47 KCAL/MOL
REMARK 924 INTRA-LIGAND FREE ENERGY PREDICTED BY IDOCK:   -0.31 KCAL/MOL
REMARK 927      BINDING AFFINITY PREDICTED BY RF-SCORE:    0.00 PKD
ROOT
HETATM    1  C   UNL     1      -6.202  14.592  70.416  1.00  0.00    -0.174 C  
HETATM    2  C   UNL     1      -6.333  15.748  69.469  1.00  0.00    -0.171 A  
HETATM    3  C   UNL     1      -7.036  15.626  68.260  1.00  0.00    -0.117 A  
HETATM    4  C   UNL     1      -7.180  16.723  67.403  1.00  0.00    -0.160 A  
HETATM    5  C   UNL     1      -5.754  16.979  69.800  1.00  0.00    -0.213 A  
HETATM    6  C   UNL     1      -6.576  17.937  67.740  1.00  0.00    -0.193 A  
HETATM    7  C   UNL     1      -5.224  19.382  69.308  1.00  0.00    -0.198 C  
HETATM    8  C   UNL     1      -5.863  18.075  68.939  1.00  0.00    -0.201 A  
ENDROOT
BRANCH   4   9
HETATM    9  O   UNL     1      -7.896  16.490  66.254  1.00  0.00    -0.306 OA 
BRANCH   9  10
HETATM   10  C   UNL     1      -9.129  15.787  66.430  1.00  0.00    -0.322 C  
BRANCH  10  11
HETATM   11  C   UNL     1     -10.289  16.769  66.527  1.00  0.00    -0.301 C  
HETATM   12  C   UNL     1     -10.448  17.449  67.870  1.00  0.00    -0.383 C  
HETATM   13  N   UNL     1     -11.010  18.700  67.476  1.00  0.00    -0.311 NA 
HETATM   14  C   UNL     1     -10.651  18.978  66.184  1.00  0.00    -0.416 C  
HETATM   15  O   UNL     1     -10.773  20.058  65.637  1.00  0.00    -0.439 OA 
HETATM   16  O   UNL     1     -10.100  17.867  65.612  1.00  0.00    -0.567 OA 
ENDBRANCH  10  11
ENDBRANCH   9  10
ENDBRANCH   4   9
TORSDOF 3
ENDMDL
MODEL      145
REMARK 921   NORMALIZED FREE ENERGY PREDICTED BY IDOCK:   -3.87 KCAL/MOL
REMARK 922        TOTAL FREE ENERGY PREDICTED BY IDOCK:   -4.78 KCAL/MOL
REMARK 923 INTER-LIGAND FREE ENERGY PREDICTED BY IDOCK:   -4.41 KCAL/MOL
REMARK 924 INTRA-LIGAND FREE ENERGY PREDICTED BY IDOCK:   -0.37 KCAL/MOL
REMARK 927      BINDING AFFINITY PREDICTED BY RF-SCORE:    0.00 PKD
ROOT
HETATM    1  C   UNL     1     -11.889  12.656  69.525  1.00  0.00    -0.376 C  
HETATM    2  C   UNL     1     -11.893  11.268  70.095  1.00  0.00    -0.449 A  
HETATM    3  C   UNL     1     -10.879  10.348  69.786  1.00  0.00    -0.342 A  
HETATM    4  C   UNL     1     -10.878   9.069  70.353  1.00  0.00    -0.246 A  
HETATM    5  C   UNL     1     -12.923  10.883  70.962  1.00  0.00    -0.396 A  
HETATM    6  C   UNL     1     -11.925   8.695  71.198  1.00  0.00    -0.320 A  
HETATM    7  C   UNL     1     -14.072   9.201  72.429  1.00  0.00    -0.434 C  
HETATM    8  C   UNL     1     -12.952   9.598  71.510  1.00  0.00    -0.486 A  
ENDROOT
BRANCH   4   9
HETATM    9  O   UNL     1      -9.831   8.257  69.987  1.00  0.00    -0.179 OA 
BRANCH   9  10
HETATM   10  C   UNL     1     -10.196   7.049  69.315  1.00  0.00    -0.186 C  
BRANCH  10  11
HETATM   11  C   UNL     1      -9.576   5.846  70.014  1.00  0.00    -0.163 C  
HETATM   12  C   UNL     1      -8.507   6.172  71.035  1.00  0.00    -0.128 C  
HETATM   13  N   UNL     1      -8.669   5.091  71.952  1.00  0.00    -0.128 NA 
HETATM   14  C   UNL     1      -9.948   4.611  71.876  1.00  0.00    -0.189 C  
HETATM   15  O   UNL     1     -10.465   3.856  72.677  1.00  0.00    -0.168 OA 
HETATM   16  O   UNL     1     -10.572   5.138  70.781  1.00  0.00    -0.222 OA 
ENDBRANCH  10  11
ENDBRANCH   9  10
ENDBRANCH   4   9
TORSDOF 3
ENDMDL
MODEL      146
REMARK 921   NORMALIZED FREE ENERGY PREDICTED BY IDOCK:   -3.86 KCAL/MOL
REMARK 922        TOTAL FREE ENERGY PREDICTED BY IDOCK:   -4.77 KCAL/MOL
REMARK 923 INTER-LIGAND FREE ENERGY PREDICTED BY IDOCK:   -4.47 KCAL/MOL
REMARK 924 INTRA-LIGAND FREE ENERGY PREDICTED BY IDOCK:   -0.30 KCAL/MOL
REMARK 927      BINDING AFFINITY PREDICTED BY RF-SCORE:    0.00 PKD
ROOT
HETATM    1  C   UNL     1     -13.913   7.280  71.501  1.00  0.00    -0.486 C  
HETATM    2  C   UNL     1     -12.575   7.955  71.554  1.00  0.00    -0.343 A  
HETATM    3  C   UNL     1     -12.277   9.055  70.735  1.00  0.00    -0.119 A  
HETATM    4  C   UNL     1     -11.036   9.696  70.821  1.00  0.00    -0.334 A  
HETATM    5  C   UNL     1     -11.603   7.488  72.448  1.00  0.00    -0.356 A  
HETATM    6  C   UNL     1     -10.072   9.202  71.702  1.00  0.00    -0.346 A  
HETATM    7  C   UNL     1      -9.316   7.574  73.479  1.00  0.00    -0.316 C  
HETATM    8  C   UNL     1     -10.348   8.099  72.522  1.00  0.00    -0.401 A  
ENDROOT
BRANCH   4   9
HETATM    9  O   UNL     1     -10.861  10.767  69.978  1.00  0.00    -0.252 OA 
BRANCH   9  10
HETATM   10  C   UNL     1     -11.638  10.739  68.778  1.00  0.00    -0.280 C  
BRANCH  10  11
HETATM   11  C   UNL     1     -10.924  11.498  67.667  1.00  0.00    -0.242 C  
HETATM   12  C   UNL     1      -9.819  12.425  68.124  1.00  0.00    -0.213 C  
HETATM   13  N   UNL     1      -8.943  12.381  66.999  1.00  0.00    -0.204 NA 
HETATM   14  C   UNL     1      -9.126  11.205  66.321  1.00  0.00    -0.194 C  
HETATM   15  O   UNL     1      -8.383  10.765  65.464  1.00  0.00    -0.168 OA 
HETATM   16  O   UNL     1     -10.251  10.581  66.779  1.00  0.00    -0.217 OA 
ENDBRANCH  10  11
ENDBRANCH   9  10
ENDBRANCH   4   9
TORSDOF 3
ENDMDL
MODEL      147
REMARK 921   NORMALIZED FREE ENERGY PREDICTED BY IDOCK:   -3.83 KCAL/MOL
REMARK 922        TOTAL FREE ENERGY PREDICTED BY IDOCK:   -4.73 KCAL/MOL
REMARK 923 INTER-LIGAND FREE ENERGY PREDICTED BY IDOCK:   -4.43 KCAL/MOL
REMARK 924 INTRA-LIGAND FREE ENERGY PREDICTED BY IDOCK:   -0.30 KCAL/MOL
REMARK 927      BINDING AFFINITY PREDICTED BY RF-SCORE:    0.00 PKD
ROOT
HETATM    1  C   UNL     1     -12.427  13.133  70.758  1.00  0.00    -0.389 C  
HETATM    2  C   UNL     1     -11.941  13.134  69.339  1.00  0.00    -0.347 A  
HETATM    3  C   UNL     1     -11.739  11.938  68.634  1.00  0.00    -0.380 A  
HETATM    4  C   UNL     1     -11.318  11.955  67.300  1.00  0.00    -0.329 A  
HETATM    5  C   UNL     1     -11.693  14.354  68.697  1.00  0.00    -0.367 A  
HETATM    6  C   UNL     1     -11.055  13.180  66.683  1.00  0.00    -0.316 A  
HETATM    7  C   UNL     1     -10.971  15.704  66.708  1.00  0.00    -0.230 C  
HETATM    8  C   UNL     1     -11.242  14.386  67.374  1.00  0.00    -0.337 A  
ENDROOT
BRANCH   4   9
HETATM    9  O   UNL     1     -11.164  10.724  66.709  1.00  0.00    -0.217 OA 
BRANCH   9  10
HETATM   10  C   UNL     1      -9.924  10.064  66.977  1.00  0.00    -0.205 C  
BRANCH  10  11
HETATM   11  C   UNL     1      -9.025  10.106  65.748  1.00  0.00    -0.160 C  
HETATM   12  C   UNL     1      -8.510   8.763  65.278  1.00  0.00    -0.174 C  
HETATM   13  N   UNL     1      -8.390   8.994  63.875  1.00  0.00    -0.177 NA 
HETATM   14  C   UNL     1      -9.252   9.989  63.498  1.00  0.00    -0.277 C  
HETATM   15  O   UNL     1      -9.555  10.259  62.351  1.00  0.00    -0.278 OA 
HETATM   16  O   UNL     1      -9.751  10.609  64.607  1.00  0.00    -0.247 OA 
ENDBRANCH  10  11
ENDBRANCH   9  10
ENDBRANCH   4   9
TORSDOF 3
ENDMDL
MODEL      148
REMARK 921   NORMALIZED FREE ENERGY PREDICTED BY IDOCK:   -3.82 KCAL/MOL
REMARK 922        TOTAL FREE ENERGY PREDICTED BY IDOCK:   -4.73 KCAL/MOL
REMARK 923 INTER-LIGAND FREE ENERGY PREDICTED BY IDOCK:   -4.52 KCAL/MOL
REMARK 924 INTRA-LIGAND FREE ENERGY PREDICTED BY IDOCK:   -0.21 KCAL/MOL
REMARK 927      BINDING AFFINITY PREDICTED BY RF-SCORE:    0.00 PKD
ROOT
HETATM    1  C   UNL     1      -8.907  11.411  67.014  1.00  0.00    -0.168 C  
HETATM    2  C   UNL     1      -9.333  12.743  66.473  1.00  0.00    -0.221 A  
HETATM    3  C   UNL     1      -8.668  13.925  66.834  1.00  0.00    -0.177 A  
HETATM    4  C   UNL     1      -9.055  15.157  66.293  1.00  0.00    -0.278 A  
HETATM    5  C   UNL     1     -10.408  12.811  65.578  1.00  0.00    -0.301 A  
HETATM    6  C   UNL     1     -10.144  15.208  65.420  1.00  0.00    -0.384 A  
HETATM    7  C   UNL     1     -11.989  14.090  64.107  1.00  0.00    -0.439 C  
HETATM    8  C   UNL     1     -10.826  14.039  65.055  1.00  0.00    -0.401 A  
ENDROOT
BRANCH   4   9
HETATM    9  O   UNL     1      -8.326  16.244  66.711  1.00  0.00    -0.199 OA 
BRANCH   9  10
HETATM   10  C   UNL     1      -9.091  17.409  67.036  1.00  0.00    -0.242 C  
BRANCH  10  11
HETATM   11  C   UNL     1      -8.265  18.667  66.801  1.00  0.00    -0.267 C  
HETATM   12  C   UNL     1      -9.006  19.972  66.997  1.00  0.00    -0.350 C  
HETATM   13  N   UNL     1      -7.947  20.822  67.435  1.00  0.00    -0.284 NA 
HETATM   14  C   UNL     1      -6.960  20.068  68.011  1.00  0.00    -0.286 C  
HETATM   15  O   UNL     1      -6.043  20.503  68.681  1.00  0.00    -0.296 OA 
HETATM   16  O   UNL     1      -7.182  18.746  67.751  1.00  0.00    -0.228 OA 
ENDBRANCH  10  11
ENDBRANCH   9  10
ENDBRANCH   4   9
TORSDOF 3
ENDMDL
MODEL      149
REMARK 921   NORMALIZED FREE ENERGY PREDICTED BY IDOCK:   -3.80 KCAL/MOL
REMARK 922        TOTAL FREE ENERGY PREDICTED BY IDOCK:   -4.70 KCAL/MOL
REMARK 923 INTER-LIGAND FREE ENERGY PREDICTED BY IDOCK:   -4.35 KCAL/MOL
REMARK 924 INTRA-LIGAND FREE ENERGY PREDICTED BY IDOCK:   -0.35 KCAL/MOL
REMARK 927      BINDING AFFINITY PREDICTED BY RF-SCORE:    0.00 PKD
ROOT
HETATM    1  C   UNL     1      -7.785   7.812  71.556  1.00  0.00    -0.087 C  
HETATM    2  C   UNL     1      -8.939   8.488  70.876  1.00  0.00    -0.206 A  
HETATM    3  C   UNL     1      -8.887   8.831  69.516  1.00  0.00    -0.144 A  
HETATM    4  C   UNL     1      -9.985   9.429  68.887  1.00  0.00    -0.179 A  
HETATM    5  C   UNL     1     -10.097   8.775  71.608  1.00  0.00    -0.390 A  
HETATM    6  C   UNL     1     -11.124   9.728  69.639  1.00  0.00    -0.251 A  
HETATM    7  C   UNL     1     -12.418   9.710  71.808  1.00  0.00    -0.487 C  
HETATM    8  C   UNL     1     -11.190   9.401  71.001  1.00  0.00    -0.412 A  
ENDROOT
BRANCH   4   9
HETATM    9  O   UNL     1      -9.825   9.710  67.552  1.00  0.00    -0.156 OA 
BRANCH   9  10
HETATM   10  C   UNL     1      -8.899  10.758  67.251  1.00  0.00    -0.133 C  
BRANCH  10  11
HETATM   11  C   UNL     1      -9.525  11.758  66.287  1.00  0.00    -0.224 C  
HETATM   12  C   UNL     1      -9.822  11.223  64.903  1.00  0.00    -0.264 C  
HETATM   13  N   UNL     1     -10.958  12.008  64.546  1.00  0.00    -0.303 NA 
HETATM   14  C   UNL     1     -11.602  12.427  65.679  1.00  0.00    -0.392 C  
HETATM   15  O   UNL     1     -12.716  12.913  65.716  1.00  0.00    -0.492 OA 
HETATM   16  O   UNL     1     -10.816  12.184  66.769  1.00  0.00    -0.231 OA 
ENDBRANCH  10  11
ENDBRANCH   9  10
ENDBRANCH   4   9
TORSDOF 3
ENDMDL
MODEL      150
REMARK 921   NORMALIZED FREE ENERGY PREDICTED BY IDOCK:   -3.79 KCAL/MOL
REMARK 922        TOTAL FREE ENERGY PREDICTED BY IDOCK:   -4.69 KCAL/MOL
REMARK 923 INTER-LIGAND FREE ENERGY PREDICTED BY IDOCK:   -4.49 KCAL/MOL
REMARK 924 INTRA-LIGAND FREE ENERGY PREDICTED BY IDOCK:   -0.20 KCAL/MOL
REMARK 927      BINDING AFFINITY PREDICTED BY RF-SCORE:    0.00 PKD
ROOT
HETATM    1  C   UNL     1     -11.610  15.832  64.095  1.00  0.00    -0.079 C  
HETATM    2  C   UNL     1     -11.531  14.676  65.047  1.00  0.00    -0.386 A  
HETATM    3  C   UNL     1     -11.908  14.809  66.392  1.00  0.00    -0.231 A  
HETATM    4  C   UNL     1     -11.862  13.712  67.260  1.00  0.00    -0.391 A  
HETATM    5  C   UNL     1     -11.083  13.432  64.584  1.00  0.00    -0.380 A  
HETATM    6  C   UNL     1     -11.391  12.486  66.786  1.00  0.00    -0.390 A  
HETATM    7  C   UNL     1     -10.508  11.014  64.934  1.00  0.00    -0.371 C  
HETATM    8  C   UNL     1     -11.002  12.335  65.447  1.00  0.00    -0.341 A  
ENDROOT
BRANCH   4   9
HETATM    9  O   UNL     1     -12.264  13.958  68.551  1.00  0.00    -0.342 OA 
BRANCH   9  10
HETATM   10  C   UNL     1     -11.296  13.664  69.563  1.00  0.00    -0.214 C  
BRANCH  10  11
HETATM   11  C   UNL     1     -10.335  14.833  69.732  1.00  0.00    -0.012 C  
HETATM   12  C   UNL     1      -9.184  14.870  68.750  1.00  0.00    -0.193 C  
HETATM   13  N   UNL     1      -8.959  16.275  68.648  1.00  0.00    -0.221 NA 
HETATM   14  C   UNL     1     -10.111  16.949  68.955  1.00  0.00    -0.297 C  
HETATM   15  O   UNL     1     -10.314  18.129  68.741  1.00  0.00    -0.362 OA 
HETATM   16  O   UNL     1     -11.015  16.084  69.504  1.00  0.00    -0.276 OA 
ENDBRANCH  10  11
ENDBRANCH   9  10
ENDBRANCH   4   9
TORSDOF 3
ENDMDL
MODEL      151
REMARK 921   NORMALIZED FREE ENERGY PREDICTED BY IDOCK:   -3.78 KCAL/MOL
REMARK 922        TOTAL FREE ENERGY PREDICTED BY IDOCK:   -4.68 KCAL/MOL
REMARK 923 INTER-LIGAND FREE ENERGY PREDICTED BY IDOCK:   -4.48 KCAL/MOL
REMARK 924 INTRA-LIGAND FREE ENERGY PREDICTED BY IDOCK:   -0.20 KCAL/MOL
REMARK 927      BINDING AFFINITY PREDICTED BY RF-SCORE:    0.00 PKD
ROOT
HETATM    1  C   UNL     1      -9.660   4.044  66.520  1.00  0.00    -0.223 C  
HETATM    2  C   UNL     1      -9.915   5.402  67.106  1.00  0.00    -0.199 A  
HETATM    3  C   UNL     1     -10.389   5.555  68.418  1.00  0.00    -0.243 A  
HETATM    4  C   UNL     1     -10.590   6.828  68.962  1.00  0.00    -0.230 A  
HETATM    5  C   UNL     1      -9.666   6.543  66.333  1.00  0.00    -0.133 A  
HETATM    6  C   UNL     1     -10.357   7.954  68.169  1.00  0.00    -0.249 A  
HETATM    7  C   UNL     1      -9.630   9.031  66.003  1.00  0.00    -0.342 C  
HETATM    8  C   UNL     1      -9.892   7.821  66.852  1.00  0.00    -0.305 A  
ENDROOT
BRANCH   4   9
HETATM    9  O   UNL     1     -11.046   6.856  70.258  1.00  0.00    -0.264 OA 
BRANCH   9  10
HETATM   10  C   UNL     1     -10.919   8.113  70.927  1.00  0.00    -0.242 C  
BRANCH  10  11
HETATM   11  C   UNL     1     -12.278   8.791  71.044  1.00  0.00    -0.190 C  
HETATM   12  C   UNL     1     -13.066   8.447  72.289  1.00  0.00    -0.284 C  
HETATM   13  N   UNL     1     -13.804   9.652  72.485  1.00  0.00    -0.277 NA 
HETATM   14  C   UNL     1     -13.133  10.700  71.913  1.00  0.00    -0.458 C  
HETATM   15  O   UNL     1     -13.375  11.877  72.100  1.00  0.00    -0.503 OA 
HETATM   16  O   UNL     1     -12.124  10.223  71.125  1.00  0.00    -0.341 OA 
ENDBRANCH  10  11
ENDBRANCH   9  10
ENDBRANCH   4   9
TORSDOF 3
ENDMDL
MODEL      152
REMARK 921   NORMALIZED FREE ENERGY PREDICTED BY IDOCK:   -3.78 KCAL/MOL
REMARK 922        TOTAL FREE ENERGY PREDICTED BY IDOCK:   -4.68 KCAL/MOL
REMARK 923 INTER-LIGAND FREE ENERGY PREDICTED BY IDOCK:   -4.39 KCAL/MOL
REMARK 924 INTRA-LIGAND FREE ENERGY PREDICTED BY IDOCK:   -0.28 KCAL/MOL
REMARK 927      BINDING AFFINITY PREDICTED BY RF-SCORE:    0.00 PKD
ROOT
HETATM    1  C   UNL     1     -11.214  15.975  69.990  1.00  0.00    -0.362 C  
HETATM    2  C   UNL     1     -10.516  16.168  68.676  1.00  0.00    -0.269 A  
HETATM    3  C   UNL     1     -10.515  15.166  67.694  1.00  0.00    -0.253 A  
HETATM    4  C   UNL     1      -9.890  15.374  66.460  1.00  0.00    -0.272 A  
HETATM    5  C   UNL     1      -9.861  17.379  68.416  1.00  0.00    -0.316 A  
HETATM    6  C   UNL     1      -9.223  16.579  66.227  1.00  0.00    -0.345 A  
HETATM    7  C   UNL     1      -8.499  18.889  66.946  1.00  0.00    -0.295 C  
HETATM    8  C   UNL     1      -9.206  17.589  67.199  1.00  0.00    -0.245 A  
ENDROOT
BRANCH   4   9
HETATM    9  O   UNL     1      -9.962  14.327  65.573  1.00  0.00    -0.334 OA 
BRANCH   9  10
HETATM   10  C   UNL     1     -10.073  13.029  66.162  1.00  0.00    -0.285 C  
BRANCH  10  11
HETATM   11  C   UNL     1     -10.447  11.998  65.104  1.00  0.00    -0.289 C  
HETATM   12  C   UNL     1     -11.155  12.550  63.886  1.00  0.00    -0.423 C  
HETATM   13  N   UNL     1     -10.719  11.636  62.881  1.00  0.00    -0.068 NA 
HETATM   14  C   UNL     1      -9.521  11.084  63.251  1.00  0.00    -0.328 C  
HETATM   15  O   UNL     1      -8.782  10.452  62.519  1.00  0.00    -0.179 OA 
HETATM   16  O   UNL     1      -9.263  11.382  64.558  1.00  0.00    -0.130 OA 
ENDBRANCH  10  11
ENDBRANCH   9  10
ENDBRANCH   4   9
TORSDOF 3
ENDMDL
MODEL      153
REMARK 921   NORMALIZED FREE ENERGY PREDICTED BY IDOCK:   -3.78 KCAL/MOL
REMARK 922        TOTAL FREE ENERGY PREDICTED BY IDOCK:   -4.67 KCAL/MOL
REMARK 923 INTER-LIGAND FREE ENERGY PREDICTED BY IDOCK:   -4.32 KCAL/MOL
REMARK 924 INTRA-LIGAND FREE ENERGY PREDICTED BY IDOCK:   -0.35 KCAL/MOL
REMARK 927      BINDING AFFINITY PREDICTED BY RF-SCORE:    0.00 PKD
ROOT
HETATM    1  C   UNL     1     -12.982  15.403  70.968  1.00  0.00    -0.556 C  
HETATM    2  C   UNL     1     -11.898  15.173  69.957  1.00  0.00    -0.361 A  
HETATM    3  C   UNL     1     -11.997  14.155  68.997  1.00  0.00    -0.376 A  
HETATM    4  C   UNL     1     -10.994  13.974  68.039  1.00  0.00    -0.251 A  
HETATM    5  C   UNL     1     -10.766  15.998  69.962  1.00  0.00    -0.328 A  
HETATM    6  C   UNL     1      -9.862  14.792  68.073  1.00  0.00    -0.218 A  
HETATM    7  C   UNL     1      -8.531  16.697  69.061  1.00  0.00    -0.176 C  
HETATM    8  C   UNL     1      -9.741  15.810  69.030  1.00  0.00    -0.242 A  
ENDROOT
BRANCH   4   9
HETATM    9  O   UNL     1     -11.203  12.954  67.143  1.00  0.00    -0.265 OA 
BRANCH   9  10
HETATM   10  C   UNL     1     -10.294  12.907  66.040  1.00  0.00    -0.283 C  
BRANCH  10  11
HETATM   11  C   UNL     1      -9.787  11.486  65.831  1.00  0.00    -0.231 C  
HETATM   12  C   UNL     1      -8.525  11.132  66.587  1.00  0.00    -0.164 C  
HETATM   13  N   UNL     1      -8.721   9.735  66.802  1.00  0.00    -0.131 NA 
HETATM   14  C   UNL     1     -10.059   9.449  66.784  1.00  0.00    -0.256 C  
HETATM   15  O   UNL     1     -10.562   8.407  67.159  1.00  0.00    -0.311 OA 
HETATM   16  O   UNL     1     -10.752  10.529  66.314  1.00  0.00    -0.174 OA 
ENDBRANCH  10  11
ENDBRANCH   9  10
ENDBRANCH   4   9
TORSDOF 3
ENDMDL
MODEL      154
REMARK 921   NORMALIZED FREE ENERGY PREDICTED BY IDOCK:   -3.78 KCAL/MOL
REMARK 922        TOTAL FREE ENERGY PREDICTED BY IDOCK:   -4.67 KCAL/MOL
REMARK 923 INTER-LIGAND FREE ENERGY PREDICTED BY IDOCK:   -4.41 KCAL/MOL
REMARK 924 INTRA-LIGAND FREE ENERGY PREDICTED BY IDOCK:   -0.26 KCAL/MOL
REMARK 927      BINDING AFFINITY PREDICTED BY RF-SCORE:    0.00 PKD
ROOT
HETATM    1  C   UNL     1     -12.599  13.953  65.178  1.00  0.00    -0.466 C  
HETATM    2  C   UNL     1     -11.356  14.016  66.016  1.00  0.00    -0.328 A  
HETATM    3  C   UNL     1     -10.662  15.221  66.204  1.00  0.00    -0.322 A  
HETATM    4  C   UNL     1      -9.523  15.271  67.016  1.00  0.00    -0.223 A  
HETATM    5  C   UNL     1     -10.883  12.852  66.633  1.00  0.00    -0.288 A  
HETATM    6  C   UNL     1      -9.053  14.096  67.606  1.00  0.00    -0.194 A  
HETATM    7  C   UNL     1      -9.231  11.619  68.066  1.00  0.00    -0.178 C  
HETATM    8  C   UNL     1      -9.729  12.881  67.422  1.00  0.00    -0.201 A  
ENDROOT
BRANCH   4   9
HETATM    9  O   UNL     1      -8.932  16.506  67.135  1.00  0.00    -0.198 OA 
BRANCH   9  10
HETATM   10  C   UNL     1      -9.738  17.615  66.729  1.00  0.00    -0.300 C  
BRANCH  10  11
HETATM   11  C   UNL     1      -8.874  18.856  66.539  1.00  0.00    -0.323 C  
HETATM   12  C   UNL     1      -9.446  20.135  67.111  1.00  0.00    -0.406 C  
HETATM   13  N   UNL     1      -8.252  20.840  67.447  1.00  0.00    -0.245 NA 
HETATM   14  C   UNL     1      -7.235  19.948  67.659  1.00  0.00    -0.277 C  
HETATM   15  O   UNL     1      -6.167  20.208  68.178  1.00  0.00    -0.236 OA 
HETATM   16  O   UNL     1      -7.617  18.708  67.231  1.00  0.00    -0.224 OA 
ENDBRANCH  10  11
ENDBRANCH   9  10
ENDBRANCH   4   9
TORSDOF 3
ENDMDL
MODEL      155
REMARK 921   NORMALIZED FREE ENERGY PREDICTED BY IDOCK:   -3.76 KCAL/MOL
REMARK 922        TOTAL FREE ENERGY PREDICTED BY IDOCK:   -4.66 KCAL/MOL
REMARK 923 INTER-LIGAND FREE ENERGY PREDICTED BY IDOCK:   -4.41 KCAL/MOL
REMARK 924 INTRA-LIGAND FREE ENERGY PREDICTED BY IDOCK:   -0.25 KCAL/MOL
REMARK 927      BINDING AFFINITY PREDICTED BY RF-SCORE:    0.00 PKD
ROOT
HETATM    1  C   UNL     1     -11.852  12.771  66.608  1.00  0.00    -0.462 C  
HETATM    2  C   UNL     1     -10.983  11.667  66.082  1.00  0.00    -0.339 A  
HETATM    3  C   UNL     1     -10.573  10.605  66.902  1.00  0.00    -0.311 A  
HETATM    4  C   UNL     1      -9.791   9.565  66.388  1.00  0.00    -0.253 A  
HETATM    5  C   UNL     1     -10.579  11.688  64.741  1.00  0.00    -0.358 A  
HETATM    6  C   UNL     1      -9.380   9.614  65.054  1.00  0.00    -0.319 A  
HETATM    7  C   UNL     1      -9.341  10.720  62.784  1.00  0.00    -0.352 C  
HETATM    8  C   UNL     1      -9.772  10.672  64.222  1.00  0.00    -0.372 A  
ENDROOT
BRANCH   4   9
HETATM    9  O   UNL     1      -9.459   8.574  67.281  1.00  0.00    -0.146 OA 
BRANCH   9  10
HETATM   10  C   UNL     1     -10.540   7.738  67.702  1.00  0.00    -0.213 C  
BRANCH  10  11
HETATM   11  C   UNL     1     -10.563   7.626  69.221  1.00  0.00    -0.201 C  
HETATM   12  C   UNL     1     -11.305   6.427  69.770  1.00  0.00    -0.427 C  
HETATM   13  N   UNL     1     -10.580   6.188  70.975  1.00  0.00    -0.235 NA 
HETATM   14  C   UNL     1      -9.309   6.681  70.853  1.00  0.00    -0.157 C  
HETATM   15  O   UNL     1      -8.384   6.436  71.604  1.00  0.00    -0.123 OA 
HETATM   16  O   UNL     1      -9.225   7.462  69.736  1.00  0.00    -0.142 OA 
ENDBRANCH  10  11
ENDBRANCH   9  10
ENDBRANCH   4   9
TORSDOF 3
ENDMDL
MODEL      156
REMARK 921   NORMALIZED FREE ENERGY PREDICTED BY IDOCK:   -3.76 KCAL/MOL
REMARK 922        TOTAL FREE ENERGY PREDICTED BY IDOCK:   -4.65 KCAL/MOL
REMARK 923 INTER-LIGAND FREE ENERGY PREDICTED BY IDOCK:   -4.27 KCAL/MOL
REMARK 924 INTRA-LIGAND FREE ENERGY PREDICTED BY IDOCK:   -0.37 KCAL/MOL
REMARK 927      BINDING AFFINITY PREDICTED BY RF-SCORE:    0.00 PKD
ROOT
HETATM    1  C   UNL     1     -11.449  11.662  67.039  1.00  0.00    -0.336 C  
HETATM    2  C   UNL     1     -11.393  11.014  68.392  1.00  0.00    -0.363 A  
HETATM    3  C   UNL     1     -10.488   9.978  68.669  1.00  0.00    -0.228 A  
HETATM    4  C   UNL     1     -10.423   9.408  69.945  1.00  0.00    -0.233 A  
HETATM    5  C   UNL     1     -12.252  11.459  69.404  1.00  0.00    -0.288 A  
HETATM    6  C   UNL     1     -11.303   9.849  70.936  1.00  0.00    -0.446 A  
HETATM    7  C   UNL     1     -13.158  11.360  71.743  1.00  0.00    -0.523 C  
HETATM    8  C   UNL     1     -12.220  10.877  70.675  1.00  0.00    -0.472 A  
ENDROOT
BRANCH   4   9
HETATM    9  O   UNL     1      -9.492   8.409  70.103  1.00  0.00    -0.162 OA 
BRANCH   9  10
HETATM   10  C   UNL     1      -9.123   8.121  71.454  1.00  0.00    -0.153 C  
BRANCH  10  11
HETATM   11  C   UNL     1      -9.244   6.628  71.730  1.00  0.00    -0.148 C  
HETATM   12  C   UNL     1     -10.588   6.174  72.256  1.00  0.00    -0.216 C  
HETATM   13  N   UNL     1     -10.652   4.849  71.731  1.00  0.00    -0.145 NA 
HETATM   14  C   UNL     1      -9.868   4.760  70.612  1.00  0.00    -0.222 C  
HETATM   15  O   UNL     1      -9.888   3.845  69.810  1.00  0.00    -0.195 OA 
HETATM   16  O   UNL     1      -9.085   5.874  70.510  1.00  0.00    -0.145 OA 
ENDBRANCH  10  11
ENDBRANCH   9  10
ENDBRANCH   4   9
TORSDOF 3
ENDMDL
MODEL      157
REMARK 921   NORMALIZED FREE ENERGY PREDICTED BY IDOCK:   -3.75 KCAL/MOL
REMARK 922        TOTAL FREE ENERGY PREDICTED BY IDOCK:   -4.64 KCAL/MOL
REMARK 923 INTER-LIGAND FREE ENERGY PREDICTED BY IDOCK:   -4.24 KCAL/MOL
REMARK 924 INTRA-LIGAND FREE ENERGY PREDICTED BY IDOCK:   -0.40 KCAL/MOL
REMARK 927      BINDING AFFINITY PREDICTED BY RF-SCORE:    0.00 PKD
ROOT
HETATM    1  C   UNL     1      -5.957  19.184  69.097  1.00  0.00    -0.259 C  
HETATM    2  C   UNL     1      -6.723  17.894  69.081  1.00  0.00    -0.239 A  
HETATM    3  C   UNL     1      -7.988  17.802  68.483  1.00  0.00    -0.294 A  
HETATM    4  C   UNL     1      -8.675  16.584  68.445  1.00  0.00    -0.218 A  
HETATM    5  C   UNL     1      -6.160  16.752  69.665  1.00  0.00    -0.223 A  
HETATM    6  C   UNL     1      -8.108  15.461  69.052  1.00  0.00    -0.213 A  
HETATM    7  C   UNL     1      -6.231  14.326  70.305  1.00  0.00    -0.163 C  
HETATM    8  C   UNL     1      -6.848  15.535  69.663  1.00  0.00    -0.178 A  
ENDROOT
BRANCH   4   9
HETATM    9  O   UNL     1      -9.901  16.611  67.825  1.00  0.00    -0.244 OA 
BRANCH   9  10
HETATM   10  C   UNL     1     -11.032  16.640  68.699  1.00  0.00    -0.328 C  
BRANCH  10  11
HETATM   11  C   UNL     1     -11.892  15.399  68.494  1.00  0.00    -0.272 C  
HETATM   12  C   UNL     1     -11.713  14.702  67.163  1.00  0.00    -0.373 C  
HETATM   13  N   UNL     1     -11.991  13.350  67.526  1.00  0.00    -0.359 NA 
HETATM   14  C   UNL     1     -11.735  13.169  68.858  1.00  0.00    -0.326 C  
HETATM   15  O   UNL     1     -11.651  12.093  69.419  1.00  0.00    -0.282 OA 
HETATM   16  O   UNL     1     -11.550  14.382  69.459  1.00  0.00    -0.270 OA 
ENDBRANCH  10  11
ENDBRANCH   9  10
ENDBRANCH   4   9
TORSDOF 3
ENDMDL
MODEL      158
REMARK 921   NORMALIZED FREE ENERGY PREDICTED BY IDOCK:   -3.73 KCAL/MOL
REMARK 922        TOTAL FREE ENERGY PREDICTED BY IDOCK:   -4.62 KCAL/MOL
REMARK 923 INTER-LIGAND FREE ENERGY PREDICTED BY IDOCK:   -4.33 KCAL/MOL
REMARK 924 INTRA-LIGAND FREE ENERGY PREDICTED BY IDOCK:   -0.28 KCAL/MOL
REMARK 927      BINDING AFFINITY PREDICTED BY RF-SCORE:    0.00 PKD
ROOT
HETATM    1  C   UNL     1      -9.074  14.446  67.105  1.00  0.00    -0.238 C  
HETATM    2  C   UNL     1      -9.698  13.368  66.267  1.00  0.00    -0.280 A  
HETATM    3  C   UNL     1      -9.427  12.012  66.502  1.00  0.00    -0.234 A  
HETATM    4  C   UNL     1     -10.043  11.016  65.735  1.00  0.00    -0.252 A  
HETATM    5  C   UNL     1     -10.578  13.720  65.236  1.00  0.00    -0.363 A  
HETATM    6  C   UNL     1     -10.901  11.387  64.697  1.00  0.00    -0.359 A  
HETATM    7  C   UNL     1     -12.108  13.137  63.334  1.00  0.00    -0.558 C  
HETATM    8  C   UNL     1     -11.177  12.738  64.442  1.00  0.00    -0.390 A  
ENDROOT
BRANCH   4   9
HETATM    9  O   UNL     1      -9.711   9.724  66.061  1.00  0.00    -0.215 OA 
BRANCH   9  10
HETATM   10  C   UNL     1      -9.441   9.488  67.445  1.00  0.00    -0.135 C  
BRANCH  10  11
HETATM   11  C   UNL     1      -9.497   7.997  67.750  1.00  0.00    -0.145 C  
HETATM   12  C   UNL     1     -10.619   7.567  68.670  1.00  0.00    -0.142 C  
HETATM   13  N   UNL     1     -10.867   6.244  68.196  1.00  0.00    -0.296 NA 
HETATM   14  C   UNL     1     -10.473   6.143  66.889  1.00  0.00    -0.276 C  
HETATM   15  O   UNL     1     -10.757   5.231  66.136  1.00  0.00    -0.266 OA 
HETATM   16  O   UNL     1      -9.740   7.243  66.544  1.00  0.00    -0.186 OA 
ENDBRANCH  10  11
ENDBRANCH   9  10
ENDBRANCH   4   9
TORSDOF 3
ENDMDL
MODEL      159
REMARK 921   NORMALIZED FREE ENERGY PREDICTED BY IDOCK:   -3.72 KCAL/MOL
REMARK 922        TOTAL FREE ENERGY PREDICTED BY IDOCK:   -4.60 KCAL/MOL
REMARK 923 INTER-LIGAND FREE ENERGY PREDICTED BY IDOCK:   -4.32 KCAL/MOL
REMARK 924 INTRA-LIGAND FREE ENERGY PREDICTED BY IDOCK:   -0.28 KCAL/MOL
REMARK 927      BINDING AFFINITY PREDICTED BY RF-SCORE:    0.00 PKD
ROOT
HETATM    1  C   UNL     1      -6.595  16.161  66.956  1.00  0.00    -0.150 C  
HETATM    2  C   UNL     1      -7.728  15.369  67.538  1.00  0.00    -0.205 A  
HETATM    3  C   UNL     1      -8.381  15.780  68.711  1.00  0.00    -0.195 A  
HETATM    4  C   UNL     1      -9.459  15.050  69.223  1.00  0.00    -0.170 A  
HETATM    5  C   UNL     1      -8.155  14.201  66.894  1.00  0.00     0.079 A  
HETATM    6  C   UNL     1      -9.856  13.876  68.579  1.00  0.00    -0.214 A  
HETATM    7  C   UNL     1      -9.644  12.189  66.711  1.00  0.00    -0.216 C  
HETATM    8  C   UNL     1      -9.211  13.444  67.411  1.00  0.00    -0.213 A  
ENDROOT
BRANCH   4   9
HETATM    9  O   UNL     1     -10.026  15.552  70.369  1.00  0.00    -0.135 OA 
BRANCH   9  10
HETATM   10  C   UNL     1     -11.275  16.226  70.193  1.00  0.00    -0.333 C  
BRANCH  10  11
HETATM   11  C   UNL     1     -12.325  15.651  71.135  1.00  0.00    -0.427 C  
HETATM   12  C   UNL     1     -12.299  14.146  71.291  1.00  0.00    -0.369 C  
HETATM   13  N   UNL     1     -12.774  14.003  72.628  1.00  0.00    -0.276 NA 
HETATM   14  C   UNL     1     -12.508  15.145  73.335  1.00  0.00    -0.513 C  
HETATM   15  O   UNL     1     -12.577  15.256  74.545  1.00  0.00    -0.500 OA 
HETATM   16  O   UNL     1     -12.117  16.134  72.479  1.00  0.00    -0.485 OA 
ENDBRANCH  10  11
ENDBRANCH   9  10
ENDBRANCH   4   9
TORSDOF 3
ENDMDL
MODEL      160
REMARK 921   NORMALIZED FREE ENERGY PREDICTED BY IDOCK:   -3.69 KCAL/MOL
REMARK 922        TOTAL FREE ENERGY PREDICTED BY IDOCK:   -4.57 KCAL/MOL
REMARK 923 INTER-LIGAND FREE ENERGY PREDICTED BY IDOCK:   -4.44 KCAL/MOL
REMARK 924 INTRA-LIGAND FREE ENERGY PREDICTED BY IDOCK:   -0.14 KCAL/MOL
REMARK 927      BINDING AFFINITY PREDICTED BY RF-SCORE:    0.00 PKD
ROOT
HETATM    1  C   UNL     1     -11.892  14.501  64.485  1.00  0.00    -0.459 C  
HETATM    2  C   UNL     1     -11.227  13.210  64.861  1.00  0.00    -0.333 A  
HETATM    3  C   UNL     1     -11.064  12.836  66.204  1.00  0.00    -0.322 A  
HETATM    4  C   UNL     1     -10.474  11.612  66.539  1.00  0.00    -0.239 A  
HETATM    5  C   UNL     1     -10.770  12.352  63.854  1.00  0.00    -0.465 A  
HETATM    6  C   UNL     1     -10.004  10.779  65.521  1.00  0.00    -0.321 A  
HETATM    7  C   UNL     1      -9.657  10.240  63.078  1.00  0.00    -0.297 C  
HETATM    8  C   UNL     1     -10.150  11.140  64.174  1.00  0.00    -0.388 A  
ENDROOT
BRANCH   4   9
HETATM    9  O   UNL     1     -10.376  11.347  67.884  1.00  0.00    -0.175 OA 
BRANCH   9  10
HETATM   10  C   UNL     1      -9.600  10.196  68.229  1.00  0.00    -0.141 C  
BRANCH  10  11
HETATM   11  C   UNL     1     -10.509   8.999  68.474  1.00  0.00    -0.196 C  
HETATM   12  C   UNL     1     -10.358   7.860  67.490  1.00  0.00    -0.259 C  
HETATM   13  N   UNL     1     -10.691   6.744  68.313  1.00  0.00    -0.230 NA 
HETATM   14  C   UNL     1     -10.444   7.049  69.624  1.00  0.00    -0.223 C  
HETATM   15  O   UNL     1     -10.404   6.247  70.538  1.00  0.00    -0.190 OA 
HETATM   16  O   UNL     1     -10.210   8.389  69.747  1.00  0.00    -0.197 OA 
ENDBRANCH  10  11
ENDBRANCH   9  10
ENDBRANCH   4   9
TORSDOF 3
ENDMDL
MODEL      161
REMARK 921   NORMALIZED FREE ENERGY PREDICTED BY IDOCK:   -3.68 KCAL/MOL
REMARK 922        TOTAL FREE ENERGY PREDICTED BY IDOCK:   -4.56 KCAL/MOL
REMARK 923 INTER-LIGAND FREE ENERGY PREDICTED BY IDOCK:   -4.33 KCAL/MOL
REMARK 924 INTRA-LIGAND FREE ENERGY PREDICTED BY IDOCK:   -0.23 KCAL/MOL
REMARK 927      BINDING AFFINITY PREDICTED BY RF-SCORE:    0.00 PKD
ROOT
HETATM    1  C   UNL     1      -9.685  11.253  63.067  1.00  0.00    -0.389 C  
HETATM    2  C   UNL     1      -9.622  10.385  64.289  1.00  0.00    -0.377 A  
HETATM    3  C   UNL     1     -10.221  10.776  65.495  1.00  0.00    -0.330 A  
HETATM    4  C   UNL     1     -10.185   9.940  66.617  1.00  0.00    -0.226 A  
HETATM    5  C   UNL     1      -8.962   9.151  64.223  1.00  0.00    -0.076 A  
HETATM    6  C   UNL     1      -9.503   8.723  66.539  1.00  0.00    -0.281 A  
HETATM    7  C   UNL     1      -8.168   7.006  65.257  1.00  0.00    -0.128 C  
HETATM    8  C   UNL     1      -8.890   8.319  65.345  1.00  0.00    -0.116 A  
ENDROOT
BRANCH   4   9
HETATM    9  O   UNL     1     -10.813  10.423  67.739  1.00  0.00    -0.254 OA 
BRANCH   9  10
HETATM   10  C   UNL     1     -10.135  10.181  68.975  1.00  0.00    -0.205 C  
BRANCH  10  11
HETATM   11  C   UNL     1     -11.014   9.361  69.910  1.00  0.00    -0.229 C  
HETATM   12  C   UNL     1     -10.393   9.020  71.247  1.00  0.00    -0.313 C  
HETATM   13  N   UNL     1     -11.552   8.963  72.078  1.00  0.00    -0.367 NA 
HETATM   14  C   UNL     1     -12.543   9.738  71.539  1.00  0.00    -0.398 C  
HETATM   15  O   UNL     1     -13.559  10.082  72.113  1.00  0.00    -0.395 OA 
HETATM   16  O   UNL     1     -12.201  10.100  70.267  1.00  0.00    -0.248 OA 
ENDBRANCH  10  11
ENDBRANCH   9  10
ENDBRANCH   4   9
TORSDOF 3
ENDMDL
MODEL      162
REMARK 921   NORMALIZED FREE ENERGY PREDICTED BY IDOCK:   -3.67 KCAL/MOL
REMARK 922        TOTAL FREE ENERGY PREDICTED BY IDOCK:   -4.55 KCAL/MOL
REMARK 923 INTER-LIGAND FREE ENERGY PREDICTED BY IDOCK:   -4.28 KCAL/MOL
REMARK 924 INTRA-LIGAND FREE ENERGY PREDICTED BY IDOCK:   -0.27 KCAL/MOL
REMARK 927      BINDING AFFINITY PREDICTED BY RF-SCORE:    0.00 PKD
ROOT
HETATM    1  C   UNL     1     -13.285  11.368  71.740  1.00  0.00    -0.472 C  
HETATM    2  C   UNL     1     -12.413  10.242  71.266  1.00  0.00    -0.514 A  
HETATM    3  C   UNL     1     -11.600  10.376  70.130  1.00  0.00    -0.392 A  
HETATM    4  C   UNL     1     -10.766   9.329  69.721  1.00  0.00    -0.231 A  
HETATM    5  C   UNL     1     -12.401   9.036  71.976  1.00  0.00    -0.455 A  
HETATM    6  C   UNL     1     -10.783   8.125  70.428  1.00  0.00    -0.234 A  
HETATM    7  C   UNL     1     -11.607   6.681  72.329  1.00  0.00    -0.313 C  
HETATM    8  C   UNL     1     -11.597   7.970  71.560  1.00  0.00    -0.313 A  
ENDROOT
BRANCH   4   9
HETATM    9  O   UNL     1     -10.007   9.577  68.602  1.00  0.00    -0.158 OA 
BRANCH   9  10
HETATM   10  C   UNL     1     -10.121   8.609  67.555  1.00  0.00    -0.216 C  
BRANCH  10  11
HETATM   11  C   UNL     1      -9.457   9.122  66.285  1.00  0.00    -0.237 C  
HETATM   12  C   UNL     1      -9.847  10.526  65.873  1.00  0.00    -0.234 C  
HETATM   13  N   UNL     1      -8.653  10.960  65.224  1.00  0.00    -0.145 NA 
HETATM   14  C   UNL     1      -7.583  10.258  65.712  1.00  0.00    -0.143 C  
HETATM   15  O   UNL     1      -6.414  10.545  65.536  1.00  0.00    -0.124 OA 
HETATM   16  O   UNL     1      -8.027   9.206  66.460  1.00  0.00    -0.099 OA 
ENDBRANCH  10  11
ENDBRANCH   9  10
ENDBRANCH   4   9
TORSDOF 3
ENDMDL
MODEL      163
REMARK 921   NORMALIZED FREE ENERGY PREDICTED BY IDOCK:   -3.67 KCAL/MOL
REMARK 922        TOTAL FREE ENERGY PREDICTED BY IDOCK:   -4.55 KCAL/MOL
REMARK 923 INTER-LIGAND FREE ENERGY PREDICTED BY IDOCK:   -4.28 KCAL/MOL
REMARK 924 INTRA-LIGAND FREE ENERGY PREDICTED BY IDOCK:   -0.26 KCAL/MOL
REMARK 927      BINDING AFFINITY PREDICTED BY RF-SCORE:    0.00 PKD
ROOT
HETATM    1  C   UNL     1     -13.549   9.397  72.396  1.00  0.00    -0.498 C  
HETATM    2  C   UNL     1     -12.662  10.076  71.394  1.00  0.00    -0.518 A  
HETATM    3  C   UNL     1     -11.753   9.349  70.611  1.00  0.00    -0.302 A  
HETATM    4  C   UNL     1     -10.957   9.992  69.657  1.00  0.00    -0.264 A  
HETATM    5  C   UNL     1     -12.749  11.464  71.227  1.00  0.00    -0.498 A  
HETATM    6  C   UNL     1     -11.042  11.380  69.519  1.00  0.00    -0.274 A  
HETATM    7  C   UNL     1     -12.040  13.614  70.144  1.00  0.00    -0.431 C  
HETATM    8  C   UNL     1     -11.938  12.124  70.299  1.00  0.00    -0.389 A  
ENDROOT
BRANCH   4   9
HETATM    9  O   UNL     1     -10.112   9.179  68.941  1.00  0.00    -0.185 OA 
BRANCH   9  10
HETATM   10  C   UNL     1     -10.398   9.071  67.544  1.00  0.00    -0.264 C  
BRANCH  10  11
HETATM   11  C   UNL     1      -9.399   8.139  66.870  1.00  0.00    -0.173 C  
HETATM   12  C   UNL     1      -8.002   8.697  66.709  1.00  0.00    -0.094 C  
HETATM   13  N   UNL     1      -7.224   7.503  66.779  1.00  0.00    -0.082 NA 
HETATM   14  C   UNL     1      -7.908   6.549  67.483  1.00  0.00    -0.113 C  
HETATM   15  O   UNL     1      -7.432   5.515  67.913  1.00  0.00    -0.078 OA 
HETATM   16  O   UNL     1      -9.201   6.951  67.663  1.00  0.00    -0.121 OA 
ENDBRANCH  10  11
ENDBRANCH   9  10
ENDBRANCH   4   9
TORSDOF 3
ENDMDL
MODEL      164
REMARK 921   NORMALIZED FREE ENERGY PREDICTED BY IDOCK:   -3.64 KCAL/MOL
REMARK 922        TOTAL FREE ENERGY PREDICTED BY IDOCK:   -4.51 KCAL/MOL
REMARK 923 INTER-LIGAND FREE ENERGY PREDICTED BY IDOCK:   -4.15 KCAL/MOL
REMARK 924 INTRA-LIGAND FREE ENERGY PREDICTED BY IDOCK:   -0.36 KCAL/MOL
REMARK 927      BINDING AFFINITY PREDICTED BY RF-SCORE:    0.00 PKD
ROOT
HETATM    1  C   UNL     1      -7.290  13.035  67.334  1.00  0.00    -0.122 C  
HETATM    2  C   UNL     1      -8.747  12.712  67.490  1.00  0.00    -0.184 A  
HETATM    3  C   UNL     1      -9.174  11.581  68.202  1.00  0.00    -0.181 A  
HETATM    4  C   UNL     1     -10.537  11.312  68.368  1.00  0.00    -0.197 A  
HETATM    5  C   UNL     1      -9.705  13.563  66.924  1.00  0.00    -0.261 A  
HETATM    6  C   UNL     1     -11.477  12.159  67.777  1.00  0.00    -0.398 A  
HETATM    7  C   UNL     1     -12.079  14.209  66.430  1.00  0.00    -0.475 C  
HETATM    8  C   UNL     1     -11.070  13.290  67.055  1.00  0.00    -0.304 A  
ENDROOT
BRANCH   4   9
HETATM    9  O   UNL     1     -10.836  10.183  69.091  1.00  0.00    -0.207 OA 
BRANCH   9  10
HETATM   10  C   UNL     1      -9.973   9.064  68.871  1.00  0.00    -0.189 C  
BRANCH  10  11
HETATM   11  C   UNL     1      -9.633   8.389  70.194  1.00  0.00    -0.165 C  
HETATM   12  C   UNL     1      -8.797   9.217  71.145  1.00  0.00    -0.164 C  
HETATM   13  N   UNL     1      -9.254   8.726  72.405  1.00  0.00    -0.375 NA 
HETATM   14  C   UNL     1     -10.520   8.225  72.271  1.00  0.00    -0.321 C  
HETATM   15  O   UNL     1     -11.268   7.948  73.189  1.00  0.00    -0.382 OA 
HETATM   16  O   UNL     1     -10.834   8.118  70.946  1.00  0.00    -0.222 OA 
ENDBRANCH  10  11
ENDBRANCH   9  10
ENDBRANCH   4   9
TORSDOF 3
ENDMDL
MODEL      165
REMARK 921   NORMALIZED FREE ENERGY PREDICTED BY IDOCK:   -3.64 KCAL/MOL
REMARK 922        TOTAL FREE ENERGY PREDICTED BY IDOCK:   -4.51 KCAL/MOL
REMARK 923 INTER-LIGAND FREE ENERGY PREDICTED BY IDOCK:   -4.13 KCAL/MOL
REMARK 924 INTRA-LIGAND FREE ENERGY PREDICTED BY IDOCK:   -0.38 KCAL/MOL
REMARK 927      BINDING AFFINITY PREDICTED BY RF-SCORE:    0.00 PKD
ROOT
HETATM    1  C   UNL     1     -11.511  15.680  68.248  1.00  0.00    -0.353 C  
HETATM    2  C   UNL     1     -10.462  16.752  68.200  1.00  0.00    -0.332 A  
HETATM    3  C   UNL     1      -9.196  16.563  68.776  1.00  0.00    -0.252 A  
HETATM    4  C   UNL     1      -8.217  17.558  68.693  1.00  0.00    -0.265 A  
HETATM    5  C   UNL     1     -10.745  17.964  67.557  1.00  0.00    -0.333 A  
HETATM    6  C   UNL     1      -8.524  18.769  68.067  1.00  0.00    -0.319 A  
HETATM    7  C   UNL     1     -10.114  20.275  66.810  1.00  0.00    -0.556 C  
HETATM    8  C   UNL     1      -9.786  18.980  67.494  1.00  0.00    -0.386 A  
ENDROOT
BRANCH   4   9
HETATM    9  O   UNL     1      -7.013  17.259  69.284  1.00  0.00    -0.239 OA 
BRANCH   9  10
HETATM   10  C   UNL     1      -5.936  16.989  68.383  1.00  0.00    -0.143 C  
BRANCH  10  11
HETATM   11  C   UNL     1      -5.497  15.536  68.501  1.00  0.00    -0.102 C  
HETATM   12  C   UNL     1      -6.035  14.794  69.706  1.00  0.00    -0.123 C  
HETATM   13  N   UNL     1      -6.108  13.464  69.196  1.00  0.00    -0.087 NA 
HETATM   14  C   UNL     1      -6.234  13.501  67.833  1.00  0.00    -0.153 C  
HETATM   15  O   UNL     1      -6.548  12.559  67.130  1.00  0.00    -0.150 OA 
HETATM   16  O   UNL     1      -5.988  14.767  67.383  1.00  0.00    -0.339 OA 
ENDBRANCH  10  11
ENDBRANCH   9  10
ENDBRANCH   4   9
TORSDOF 3
ENDMDL
MODEL      166
REMARK 921   NORMALIZED FREE ENERGY PREDICTED BY IDOCK:   -3.63 KCAL/MOL
REMARK 922        TOTAL FREE ENERGY PREDICTED BY IDOCK:   -4.50 KCAL/MOL
REMARK 923 INTER-LIGAND FREE ENERGY PREDICTED BY IDOCK:   -4.17 KCAL/MOL
REMARK 924 INTRA-LIGAND FREE ENERGY PREDICTED BY IDOCK:   -0.34 KCAL/MOL
REMARK 927      BINDING AFFINITY PREDICTED BY RF-SCORE:    0.00 PKD
ROOT
HETATM    1  C   UNL     1     -11.435  12.656  63.812  1.00  0.00    -0.539 C  
HETATM    2  C   UNL     1     -10.631  12.035  64.915  1.00  0.00    -0.334 A  
HETATM    3  C   UNL     1     -10.174  12.794  66.003  1.00  0.00    -0.290 A  
HETATM    4  C   UNL     1      -9.454  12.193  67.042  1.00  0.00    -0.201 A  
HETATM    5  C   UNL     1     -10.337  10.667  64.866  1.00  0.00    -0.347 A  
HETATM    6  C   UNL     1      -9.152  10.832  66.965  1.00  0.00    -0.155 A  
HETATM    7  C   UNL     1      -9.279   8.593  65.804  1.00  0.00    -0.245 C  
HETATM    8  C   UNL     1      -9.592  10.059  65.881  1.00  0.00    -0.283 A  
ENDROOT
BRANCH   4   9
HETATM    9  O   UNL     1      -9.066  13.032  68.059  1.00  0.00    -0.196 OA 
BRANCH   9  10
HETATM   10  C   UNL     1      -8.536  14.294  67.648  1.00  0.00    -0.180 C  
BRANCH  10  11
HETATM   11  C   UNL     1      -9.313  15.432  68.296  1.00  0.00    -0.193 C  
HETATM   12  C   UNL     1      -9.819  16.494  67.345  1.00  0.00    -0.253 C  
HETATM   13  N   UNL     1     -11.003  16.920  68.018  1.00  0.00    -0.329 NA 
HETATM   14  C   UNL     1     -11.464  15.911  68.820  1.00  0.00    -0.393 C  
HETATM   15  O   UNL     1     -12.562  15.873  69.341  1.00  0.00    -0.001 OA 
HETATM   16  O   UNL     1     -10.515  14.934  68.919  1.00  0.00    -0.228 OA 
ENDBRANCH  10  11
ENDBRANCH   9  10
ENDBRANCH   4   9
TORSDOF 3
ENDMDL
MODEL      167
REMARK 921   NORMALIZED FREE ENERGY PREDICTED BY IDOCK:   -3.62 KCAL/MOL
REMARK 922        TOTAL FREE ENERGY PREDICTED BY IDOCK:   -4.49 KCAL/MOL
REMARK 923 INTER-LIGAND FREE ENERGY PREDICTED BY IDOCK:   -4.30 KCAL/MOL
REMARK 924 INTRA-LIGAND FREE ENERGY PREDICTED BY IDOCK:   -0.19 KCAL/MOL
REMARK 927      BINDING AFFINITY PREDICTED BY RF-SCORE:    0.00 PKD
ROOT
HETATM    1  C   UNL     1      -8.141  19.351  67.657  1.00  0.00    -0.317 C  
HETATM    2  C   UNL     1      -8.081  17.994  68.295  1.00  0.00    -0.296 A  
HETATM    3  C   UNL     1      -9.185  17.128  68.275  1.00  0.00    -0.262 A  
HETATM    4  C   UNL     1      -9.103  15.852  68.843  1.00  0.00    -0.233 A  
HETATM    5  C   UNL     1      -6.897  17.576  68.913  1.00  0.00    -0.246 A  
HETATM    6  C   UNL     1      -7.920  15.461  69.475  1.00  0.00    -0.204 A  
HETATM    7  C   UNL     1      -5.535  15.892  70.181  1.00  0.00    -0.154 C  
HETATM    8  C   UNL     1      -6.810  16.316  69.513  1.00  0.00    -0.188 A  
ENDROOT
BRANCH   4   9
HETATM    9  O   UNL     1     -10.241  15.088  68.755  1.00  0.00    -0.221 OA 
BRANCH   9  10
HETATM   10  C   UNL     1     -10.044  13.737  68.328  1.00  0.00    -0.239 C  
BRANCH  10  11
HETATM   11  C   UNL     1     -11.333  12.940  68.479  1.00  0.00    -0.289 C  
HETATM   12  C   UNL     1     -11.444  11.718  67.594  1.00  0.00    -0.300 C  
HETATM   13  N   UNL     1     -12.252  10.867  68.406  1.00  0.00    -0.452 NA 
HETATM   14  C   UNL     1     -12.102  11.211  69.723  1.00  0.00    -0.344 C  
HETATM   15  O   UNL     1     -12.469  10.543  70.671  1.00  0.00    -0.317 OA 
HETATM   16  O   UNL     1     -11.444  12.404  69.813  1.00  0.00    -0.237 OA 
ENDBRANCH  10  11
ENDBRANCH   9  10
ENDBRANCH   4   9
TORSDOF 3
ENDMDL
MODEL      168
REMARK 921   NORMALIZED FREE ENERGY PREDICTED BY IDOCK:   -3.62 KCAL/MOL
REMARK 922        TOTAL FREE ENERGY PREDICTED BY IDOCK:   -4.49 KCAL/MOL
REMARK 923 INTER-LIGAND FREE ENERGY PREDICTED BY IDOCK:   -4.17 KCAL/MOL
REMARK 924 INTRA-LIGAND FREE ENERGY PREDICTED BY IDOCK:   -0.32 KCAL/MOL
REMARK 927      BINDING AFFINITY PREDICTED BY RF-SCORE:    0.00 PKD
ROOT
HETATM    1  C   UNL     1     -12.254  12.612  63.517  1.00  0.00    -0.638 C  
HETATM    2  C   UNL     1     -11.665  12.300  64.861  1.00  0.00    -0.409 A  
HETATM    3  C   UNL     1     -10.657  11.335  65.011  1.00  0.00    -0.353 A  
HETATM    4  C   UNL     1     -10.092  11.080  66.266  1.00  0.00    -0.235 A  
HETATM    5  C   UNL     1     -12.120  12.992  65.990  1.00  0.00    -0.493 A  
HETATM    6  C   UNL     1     -10.574  11.764  67.384  1.00  0.00    -0.258 A  
HETATM    7  C   UNL     1     -12.098  13.470  68.454  1.00  0.00    -0.293 C  
HETATM    8  C   UNL     1     -11.588  12.725  67.255  1.00  0.00    -0.420 A  
ENDROOT
BRANCH   4   9
HETATM    9  O   UNL     1      -9.107  10.123  66.290  1.00  0.00    -0.149 OA 
BRANCH   9  10
HETATM   10  C   UNL     1      -9.404   8.916  65.583  1.00  0.00    -0.191 C  
BRANCH  10  11
HETATM   11  C   UNL     1      -8.854   7.712  66.336  1.00  0.00    -0.156 C  
HETATM   12  C   UNL     1      -7.358   7.717  66.561  1.00  0.00    -0.087 C  
HETATM   13  N   UNL     1      -7.265   7.000  67.790  1.00  0.00    -0.089 NA 
HETATM   14  C   UNL     1      -8.440   7.121  68.483  1.00  0.00    -0.125 C  
HETATM   15  O   UNL     1      -8.601   6.825  69.652  1.00  0.00    -0.131 OA 
HETATM   16  O   UNL     1      -9.397   7.660  67.672  1.00  0.00    -0.140 OA 
ENDBRANCH  10  11
ENDBRANCH   9  10
ENDBRANCH   4   9
TORSDOF 3
ENDMDL
MODEL      169
REMARK 921   NORMALIZED FREE ENERGY PREDICTED BY IDOCK:   -3.59 KCAL/MOL
REMARK 922        TOTAL FREE ENERGY PREDICTED BY IDOCK:   -4.46 KCAL/MOL
REMARK 923 INTER-LIGAND FREE ENERGY PREDICTED BY IDOCK:   -4.29 KCAL/MOL
REMARK 924 INTRA-LIGAND FREE ENERGY PREDICTED BY IDOCK:   -0.17 KCAL/MOL
REMARK 927      BINDING AFFINITY PREDICTED BY RF-SCORE:    0.00 PKD
ROOT
HETATM    1  C   UNL     1     -13.243  10.436  71.286  1.00  0.00    -0.431 C  
HETATM    2  C   UNL     1     -11.933   9.717  71.420  1.00  0.00    -0.480 A  
HETATM    3  C   UNL     1     -10.858   9.990  70.560  1.00  0.00    -0.380 A  
HETATM    4  C   UNL     1      -9.631   9.336  70.720  1.00  0.00    -0.275 A  
HETATM    5  C   UNL     1     -11.773   8.761  72.430  1.00  0.00    -0.337 A  
HETATM    6  C   UNL     1      -9.497   8.370  71.719  1.00  0.00    -0.302 A  
HETATM    7  C   UNL     1     -10.416   7.047  73.664  1.00  0.00    -0.414 C  
HETATM    8  C   UNL     1     -10.563   8.077  72.582  1.00  0.00    -0.419 A  
ENDROOT
BRANCH   4   9
HETATM    9  O   UNL     1      -8.648   9.691  69.827  1.00  0.00    -0.163 OA 
BRANCH   9  10
HETATM   10  C   UNL     1      -7.633   8.708  69.609  1.00  0.00    -0.080 C  
BRANCH  10  11
HETATM   11  C   UNL     1      -7.985   7.840  68.408  1.00  0.00    -0.122 C  
HETATM   12  C   UNL     1      -8.014   6.351  68.673  1.00  0.00    -0.106 C  
HETATM   13  N   UNL     1      -9.003   5.927  67.736  1.00  0.00    -0.112 NA 
HETATM   14  C   UNL     1      -9.845   6.969  67.454  1.00  0.00    -0.154 C  
HETATM   15  O   UNL     1     -10.913   6.875  66.880  1.00  0.00    -0.377 OA 
HETATM   16  O   UNL     1      -9.322   8.129  67.950  1.00  0.00    -0.134 OA 
ENDBRANCH  10  11
ENDBRANCH   9  10
ENDBRANCH   4   9
TORSDOF 3
ENDMDL
MODEL      170
REMARK 921   NORMALIZED FREE ENERGY PREDICTED BY IDOCK:   -3.59 KCAL/MOL
REMARK 922        TOTAL FREE ENERGY PREDICTED BY IDOCK:   -4.45 KCAL/MOL
REMARK 923 INTER-LIGAND FREE ENERGY PREDICTED BY IDOCK:   -4.09 KCAL/MOL
REMARK 924 INTRA-LIGAND FREE ENERGY PREDICTED BY IDOCK:   -0.36 KCAL/MOL
REMARK 927      BINDING AFFINITY PREDICTED BY RF-SCORE:    0.00 PKD
ROOT
HETATM    1  C   UNL     1     -14.407   8.717  71.776  1.00  0.00    -0.476 C  
HETATM    2  C   UNL     1     -13.096   9.207  71.236  1.00  0.00    -0.297 A  
HETATM    3  C   UNL     1     -11.961   8.382  71.210  1.00  0.00    -0.323 A  
HETATM    4  C   UNL     1     -10.755   8.842  70.671  1.00  0.00    -0.225 A  
HETATM    5  C   UNL     1     -13.002  10.512  70.735  1.00  0.00    -0.413 A  
HETATM    6  C   UNL     1     -10.674  10.153  70.197  1.00  0.00    -0.355 A  
HETATM    7  C   UNL     1     -11.713  12.401  69.702  1.00  0.00    -0.377 C  
HETATM    8  C   UNL     1     -11.795  10.996  70.223  1.00  0.00    -0.456 A  
ENDROOT
BRANCH   4   9
HETATM    9  O   UNL     1      -9.715   7.944  70.689  1.00  0.00    -0.173 OA 
BRANCH   9  10
HETATM   10  C   UNL     1      -9.933   6.735  69.957  1.00  0.00    -0.176 C  
BRANCH  10  11
HETATM   11  C   UNL     1      -9.320   5.551  70.694  1.00  0.00    -0.158 C  
HETATM   12  C   UNL     1      -8.011   5.836  71.398  1.00  0.00    -0.113 C  
HETATM   13  N   UNL     1      -8.087   4.922  72.490  1.00  0.00    -0.113 NA 
HETATM   14  C   UNL     1      -9.398   4.641  72.766  1.00  0.00    -0.128 C  
HETATM   15  O   UNL     1      -9.803   4.087  73.770  1.00  0.00    -0.108 OA 
HETATM   16  O   UNL     1     -10.189   5.113  71.758  1.00  0.00    -0.196 OA 
ENDBRANCH  10  11
ENDBRANCH   9  10
ENDBRANCH   4   9
TORSDOF 3
ENDMDL
MODEL      171
REMARK 921   NORMALIZED FREE ENERGY PREDICTED BY IDOCK:   -3.55 KCAL/MOL
REMARK 922        TOTAL FREE ENERGY PREDICTED BY IDOCK:   -4.41 KCAL/MOL
REMARK 923 INTER-LIGAND FREE ENERGY PREDICTED BY IDOCK:   -4.28 KCAL/MOL
REMARK 924 INTRA-LIGAND FREE ENERGY PREDICTED BY IDOCK:   -0.12 KCAL/MOL
REMARK 927      BINDING AFFINITY PREDICTED BY RF-SCORE:    0.00 PKD
ROOT
HETATM    1  C   UNL     1     -12.364  12.806  63.456  1.00  0.00    -0.559 C  
HETATM    2  C   UNL     1     -11.818  13.389  64.726  1.00  0.00    -0.415 A  
HETATM    3  C   UNL     1     -11.792  12.649  65.918  1.00  0.00    -0.499 A  
HETATM    4  C   UNL     1     -11.248  13.194  67.086  1.00  0.00    -0.294 A  
HETATM    5  C   UNL     1     -11.314  14.695  64.722  1.00  0.00    -0.398 A  
HETATM    6  C   UNL     1     -10.769  14.506  67.069  1.00  0.00    -0.291 A  
HETATM    7  C   UNL     1     -10.271  16.670  65.867  1.00  0.00    -0.358 C  
HETATM    8  C   UNL     1     -10.796  15.264  65.890  1.00  0.00    -0.345 A  
ENDROOT
BRANCH   4   9
HETATM    9  O   UNL     1     -11.266  12.375  68.189  1.00  0.00    -0.229 OA 
BRANCH   9  10
HETATM   10  C   UNL     1     -10.649  11.096  68.016  1.00  0.00    -0.198 C  
BRANCH  10  11
HETATM   11  C   UNL     1      -9.283  11.071  68.688  1.00  0.00    -0.185 C  
HETATM   12  C   UNL     1      -8.287  10.101  68.092  1.00  0.00    -0.117 C  
HETATM   13  N   UNL     1      -7.058  10.776  68.359  1.00  0.00    -0.073 NA 
HETATM   14  C   UNL     1      -7.287  12.120  68.474  1.00  0.00    -0.105 C  
HETATM   15  O   UNL     1      -6.430  12.983  68.470  1.00  0.00    -0.072 OA 
HETATM   16  O   UNL     1      -8.631  12.351  68.556  1.00  0.00    -0.148 OA 
ENDBRANCH  10  11
ENDBRANCH   9  10
ENDBRANCH   4   9
TORSDOF 3
ENDMDL
MODEL      172
REMARK 921   NORMALIZED FREE ENERGY PREDICTED BY IDOCK:   -3.55 KCAL/MOL
REMARK 922        TOTAL FREE ENERGY PREDICTED BY IDOCK:   -4.40 KCAL/MOL
REMARK 923 INTER-LIGAND FREE ENERGY PREDICTED BY IDOCK:   -4.17 KCAL/MOL
REMARK 924 INTRA-LIGAND FREE ENERGY PREDICTED BY IDOCK:   -0.23 KCAL/MOL
REMARK 927      BINDING AFFINITY PREDICTED BY RF-SCORE:    0.00 PKD
ROOT
HETATM    1  C   UNL     1     -10.165  11.710  63.171  1.00  0.00    -0.396 C  
HETATM    2  C   UNL     1     -10.367  11.826  64.653  1.00  0.00    -0.336 A  
HETATM    3  C   UNL     1     -10.954  12.966  65.223  1.00  0.00    -0.310 A  
HETATM    4  C   UNL     1     -11.168  13.046  66.604  1.00  0.00    -0.307 A  
HETATM    5  C   UNL     1      -9.973  10.772  65.486  1.00  0.00    -0.321 A  
HETATM    6  C   UNL     1     -10.748  11.994  67.422  1.00  0.00    -0.266 A  
HETATM    7  C   UNL     1      -9.712   9.714  67.747  1.00  0.00    -0.173 C  
HETATM    8  C   UNL     1     -10.152  10.851  66.871  1.00  0.00    -0.253 A  
ENDROOT
BRANCH   4   9
HETATM    9  O   UNL     1     -11.758  14.204  67.049  1.00  0.00    -0.363 OA 
BRANCH   9  10
HETATM   10  C   UNL     1     -11.345  15.400  66.383  1.00  0.00    -0.087 C  
BRANCH  10  11
HETATM   11  C   UNL     1     -10.112  15.984  67.060  1.00  0.00    -0.271 C  
HETATM   12  C   UNL     1      -9.850  15.486  68.465  1.00  0.00    -0.202 C  
HETATM   13  N   UNL     1      -8.427  15.570  68.521  1.00  0.00    -0.156 NA 
HETATM   14  C   UNL     1      -7.911  15.489  67.255  1.00  0.00    -0.204 C  
HETATM   15  O   UNL     1      -6.741  15.299  66.983  1.00  0.00    -0.251 OA 
HETATM   16  O   UNL     1      -8.917  15.615  66.341  1.00  0.00    -0.275 OA 
ENDBRANCH  10  11
ENDBRANCH   9  10
ENDBRANCH   4   9
TORSDOF 3
ENDMDL
MODEL      173
REMARK 921   NORMALIZED FREE ENERGY PREDICTED BY IDOCK:   -3.54 KCAL/MOL
REMARK 922        TOTAL FREE ENERGY PREDICTED BY IDOCK:   -4.40 KCAL/MOL
REMARK 923 INTER-LIGAND FREE ENERGY PREDICTED BY IDOCK:   -4.18 KCAL/MOL
REMARK 924 INTRA-LIGAND FREE ENERGY PREDICTED BY IDOCK:   -0.21 KCAL/MOL
REMARK 927      BINDING AFFINITY PREDICTED BY RF-SCORE:    0.00 PKD
ROOT
HETATM    1  C   UNL     1     -12.183  14.326  69.646  1.00  0.00    -0.371 C  
HETATM    2  C   UNL     1     -11.857  13.600  68.374  1.00  0.00    -0.407 A  
HETATM    3  C   UNL     1     -11.175  12.373  68.387  1.00  0.00    -0.316 A  
HETATM    4  C   UNL     1     -10.909  11.690  67.195  1.00  0.00    -0.261 A  
HETATM    5  C   UNL     1     -12.251  14.148  67.148  1.00  0.00    -0.348 A  
HETATM    6  C   UNL     1     -11.290  12.263  65.980  1.00  0.00    -0.398 A  
HETATM    7  C   UNL     1     -12.385  14.104  64.641  1.00  0.00    -0.432 C  
HETATM    8  C   UNL     1     -11.964  13.493  65.946  1.00  0.00    -0.444 A  
ENDROOT
BRANCH   4   9
HETATM    9  O   UNL     1     -10.245  10.495  67.330  1.00  0.00    -0.191 OA 
BRANCH   9  10
HETATM   10  C   UNL     1      -9.739   9.932  66.117  1.00  0.00    -0.236 C  
BRANCH  10  11
HETATM   11  C   UNL     1      -8.786   8.784  66.423  1.00  0.00    -0.147 C  
HETATM   12  C   UNL     1      -9.218   7.868  67.548  1.00  0.00    -0.136 C  
HETATM   13  N   UNL     1      -8.640   6.633  67.130  1.00  0.00    -0.112 NA 
HETATM   14  C   UNL     1      -8.481   6.636  65.770  1.00  0.00    -0.148 C  
HETATM   15  O   UNL     1      -8.234   5.660  65.088  1.00  0.00    -0.124 OA 
HETATM   16  O   UNL     1      -8.679   7.899  65.289  1.00  0.00    -0.113 OA 
ENDBRANCH  10  11
ENDBRANCH   9  10
ENDBRANCH   4   9
TORSDOF 3
ENDMDL
MODEL      174
REMARK 921   NORMALIZED FREE ENERGY PREDICTED BY IDOCK:   -3.52 KCAL/MOL
REMARK 922        TOTAL FREE ENERGY PREDICTED BY IDOCK:   -4.36 KCAL/MOL
REMARK 923 INTER-LIGAND FREE ENERGY PREDICTED BY IDOCK:   -3.99 KCAL/MOL
REMARK 924 INTRA-LIGAND FREE ENERGY PREDICTED BY IDOCK:   -0.37 KCAL/MOL
REMARK 927      BINDING AFFINITY PREDICTED BY RF-SCORE:    0.00 PKD
ROOT
HETATM    1  C   UNL     1     -10.143   4.553  67.340  1.00  0.00    -0.117 C  
HETATM    2  C   UNL     1     -10.267   6.010  67.676  1.00  0.00    -0.221 A  
HETATM    3  C   UNL     1     -10.789   6.434  68.908  1.00  0.00    -0.382 A  
HETATM    4  C   UNL     1     -10.866   7.796  69.221  1.00  0.00    -0.080 A  
HETATM    5  C   UNL     1      -9.843   6.969  66.748  1.00  0.00    -0.250 A  
HETATM    6  C   UNL     1     -10.459   8.738  68.274  1.00  0.00    -0.236 A  
HETATM    7  C   UNL     1      -9.493   9.346  66.021  1.00  0.00    -0.304 C  
HETATM    8  C   UNL     1      -9.943   8.334  67.035  1.00  0.00    -0.325 A  
ENDROOT
BRANCH   4   9
HETATM    9  O   UNL     1     -11.384   8.093  70.458  1.00  0.00    -0.268 OA 
BRANCH   9  10
HETATM   10  C   UNL     1     -12.185   7.067  71.052  1.00  0.00    -0.374 C  
BRANCH  10  11
HETATM   11  C   UNL     1     -11.708   6.777  72.469  1.00  0.00    -0.156 C  
HETATM   12  C   UNL     1     -10.937   5.486  72.641  1.00  0.00    -0.270 C  
HETATM   13  N   UNL     1     -10.067   5.831  73.717  1.00  0.00    -0.197 NA 
HETATM   14  C   UNL     1      -9.879   7.187  73.742  1.00  0.00    -0.313 C  
HETATM   15  O   UNL     1      -9.024   7.767  74.383  1.00  0.00    -0.171 OA 
HETATM   16  O   UNL     1     -10.777   7.789  72.906  1.00  0.00    -0.326 OA 
ENDBRANCH  10  11
ENDBRANCH   9  10
ENDBRANCH   4   9
TORSDOF 3
ENDMDL
MODEL      175
REMARK 921   NORMALIZED FREE ENERGY PREDICTED BY IDOCK:   -3.51 KCAL/MOL
REMARK 922        TOTAL FREE ENERGY PREDICTED BY IDOCK:   -4.35 KCAL/MOL
REMARK 923 INTER-LIGAND FREE ENERGY PREDICTED BY IDOCK:   -4.07 KCAL/MOL
REMARK 924 INTRA-LIGAND FREE ENERGY PREDICTED BY IDOCK:   -0.29 KCAL/MOL
REMARK 927      BINDING AFFINITY PREDICTED BY RF-SCORE:    0.00 PKD
ROOT
HETATM    1  C   UNL     1     -14.408   8.704  71.798  1.00  0.00    -0.476 C  
HETATM    2  C   UNL     1     -13.109   9.262  71.295  1.00  0.00    -0.328 A  
HETATM    3  C   UNL     1     -11.919   8.521  71.367  1.00  0.00    -0.345 A  
HETATM    4  C   UNL     1     -10.722   9.040  70.863  1.00  0.00    -0.253 A  
HETATM    5  C   UNL     1     -13.082  10.543  70.732  1.00  0.00    -0.335 A  
HETATM    6  C   UNL     1     -10.709  10.329  70.324  1.00  0.00    -0.310 A  
HETATM    7  C   UNL     1     -11.877  12.468  69.663  1.00  0.00    -0.382 C  
HETATM    8  C   UNL     1     -11.886  11.088  70.252  1.00  0.00    -0.456 A  
ENDROOT
BRANCH   4   9
HETATM    9  O   UNL     1      -9.624   8.222  70.978  1.00  0.00    -0.152 OA 
BRANCH   9  10
HETATM   10  C   UNL     1      -9.191   7.600  69.765  1.00  0.00    -0.147 C  
BRANCH  10  11
HETATM   11  C   UNL     1      -8.881   6.128  70.006  1.00  0.00    -0.144 C  
HETATM   12  C   UNL     1     -10.080   5.258  70.313  1.00  0.00    -0.259 C  
HETATM   13  N   UNL     1      -9.654   4.008  69.773  1.00  0.00    -0.203 NA 
HETATM   14  C   UNL     1      -8.727   4.224  68.789  1.00  0.00    -0.095 C  
HETATM   15  O   UNL     1      -8.346   3.393  67.987  1.00  0.00    -0.081 OA 
HETATM   16  O   UNL     1      -8.322   5.528  68.820  1.00  0.00    -0.101 OA 
ENDBRANCH  10  11
ENDBRANCH   9  10
ENDBRANCH   4   9
TORSDOF 3
ENDMDL
MODEL      176
REMARK 921   NORMALIZED FREE ENERGY PREDICTED BY IDOCK:   -3.50 KCAL/MOL
REMARK 922        TOTAL FREE ENERGY PREDICTED BY IDOCK:   -4.35 KCAL/MOL
REMARK 923 INTER-LIGAND FREE ENERGY PREDICTED BY IDOCK:   -4.09 KCAL/MOL
REMARK 924 INTRA-LIGAND FREE ENERGY PREDICTED BY IDOCK:   -0.26 KCAL/MOL
REMARK 927      BINDING AFFINITY PREDICTED BY RF-SCORE:    0.00 PKD
ROOT
HETATM    1  C   UNL     1     -12.214  14.452  69.565  1.00  0.00    -0.325 C  
HETATM    2  C   UNL     1     -11.920  13.518  68.428  1.00  0.00    -0.378 A  
HETATM    3  C   UNL     1     -11.444  12.217  68.656  1.00  0.00    -0.355 A  
HETATM    4  C   UNL     1     -11.207  11.345  67.587  1.00  0.00    -0.283 A  
HETATM    5  C   UNL     1     -12.135  13.945  67.112  1.00  0.00    -0.422 A  
HETATM    6  C   UNL     1     -11.406  11.796  66.281  1.00  0.00    -0.350 A  
HETATM    7  C   UNL     1     -12.099  13.577  64.630  1.00  0.00    -0.450 C  
HETATM    8  C   UNL     1     -11.873  13.095  66.033  1.00  0.00    -0.457 A  
ENDROOT
BRANCH   4   9
HETATM    9  O   UNL     1     -10.752  10.095  67.930  1.00  0.00    -0.230 OA 
BRANCH   9  10
HETATM   10  C   UNL     1     -10.369   9.259  66.835  1.00  0.00    -0.246 C  
BRANCH  10  11
HETATM   11  C   UNL     1      -8.862   9.038  66.839  1.00  0.00    -0.116 C  
HETATM   12  C   UNL     1      -8.215   8.972  65.473  1.00  0.00    -0.122 C  
HETATM   13  N   UNL     1      -6.918   9.492  65.761  1.00  0.00    -0.092 NA 
HETATM   14  C   UNL     1      -6.981  10.300  66.864  1.00  0.00    -0.091 C  
HETATM   15  O   UNL     1      -6.108  11.067  67.226  1.00  0.00    -0.057 OA 
HETATM   16  O   UNL     1      -8.191  10.144  67.478  1.00  0.00    -0.113 OA 
ENDBRANCH  10  11
ENDBRANCH   9  10
ENDBRANCH   4   9
TORSDOF 3
ENDMDL
MODEL      177
REMARK 921   NORMALIZED FREE ENERGY PREDICTED BY IDOCK:   -3.50 KCAL/MOL
REMARK 922        TOTAL FREE ENERGY PREDICTED BY IDOCK:   -4.35 KCAL/MOL
REMARK 923 INTER-LIGAND FREE ENERGY PREDICTED BY IDOCK:   -4.02 KCAL/MOL
REMARK 924 INTRA-LIGAND FREE ENERGY PREDICTED BY IDOCK:   -0.33 KCAL/MOL
REMARK 927      BINDING AFFINITY PREDICTED BY RF-SCORE:    0.00 PKD
ROOT
HETATM    1  C   UNL     1      -6.473   7.176  67.439  1.00  0.00    -0.058 C  
HETATM    2  C   UNL     1      -7.872   6.733  67.749  1.00  0.00    -0.113 A  
HETATM    3  C   UNL     1      -8.488   7.057  68.967  1.00  0.00    -0.129 A  
HETATM    4  C   UNL     1      -9.806   6.667  69.229  1.00  0.00    -0.149 A  
HETATM    5  C   UNL     1      -8.585   5.990  66.800  1.00  0.00    -0.110 A  
HETATM    6  C   UNL     1     -10.494   5.907  68.280  1.00  0.00    -0.293 A  
HETATM    7  C   UNL     1     -10.635   4.760  66.034  1.00  0.00    -0.300 C  
HETATM    8  C   UNL     1      -9.892   5.566  67.060  1.00  0.00    -0.176 A  
ENDROOT
BRANCH   4   9
HETATM    9  O   UNL     1     -10.308   7.048  70.449  1.00  0.00    -0.199 OA 
BRANCH   9  10
HETATM   10  C   UNL     1      -9.674   8.181  71.048  1.00  0.00    -0.162 C  
BRANCH  10  11
HETATM   11  C   UNL     1     -10.712   9.091  71.692  1.00  0.00    -0.371 C  
HETATM   12  C   UNL     1     -11.300  10.147  70.782  1.00  0.00    -0.354 C  
HETATM   13  N   UNL     1     -12.607  10.287  71.337  1.00  0.00    -0.396 NA 
HETATM   14  C   UNL     1     -12.958   9.132  71.983  1.00  0.00    -0.424 C  
HETATM   15  O   UNL     1     -14.080   8.848  72.357  1.00  0.00    -0.459 OA 
HETATM   16  O   UNL     1     -11.862   8.328  72.113  1.00  0.00    -0.321 OA 
ENDBRANCH  10  11
ENDBRANCH   9  10
ENDBRANCH   4   9
TORSDOF 3
ENDMDL
MODEL      178
REMARK 921   NORMALIZED FREE ENERGY PREDICTED BY IDOCK:   -3.50 KCAL/MOL
REMARK 922        TOTAL FREE ENERGY PREDICTED BY IDOCK:   -4.34 KCAL/MOL
REMARK 923 INTER-LIGAND FREE ENERGY PREDICTED BY IDOCK:   -4.41 KCAL/MOL
REMARK 924 INTRA-LIGAND FREE ENERGY PREDICTED BY IDOCK:    0.07 KCAL/MOL
REMARK 927      BINDING AFFINITY PREDICTED BY RF-SCORE:    0.00 PKD
ROOT
HETATM    1  C   UNL     1      -8.134  18.134  66.477  1.00  0.00    -0.295 C  
HETATM    2  C   UNL     1      -9.160  17.047  66.597  1.00  0.00    -0.278 A  
HETATM    3  C   UNL     1      -9.390  16.391  67.817  1.00  0.00    -0.213 A  
HETATM    4  C   UNL     1     -10.375  15.402  67.922  1.00  0.00    -0.247 A  
HETATM    5  C   UNL     1      -9.914  16.684  65.475  1.00  0.00    -0.090 A  
HETATM    6  C   UNL     1     -11.102  15.039  66.787  1.00  0.00    -0.326 A  
HETATM    7  C   UNL     1     -11.670  15.295  64.339  1.00  0.00    -0.289 C  
HETATM    8  C   UNL     1     -10.880  15.676  65.558  1.00  0.00    -0.356 A  
ENDROOT
BRANCH   4   9
HETATM    9  O   UNL     1     -10.519  14.837  69.166  1.00  0.00    -0.234 OA 
BRANCH   9  10
HETATM   10  C   UNL     1     -11.845  14.855  69.701  1.00  0.00    -0.318 C  
BRANCH  10  11
HETATM   11  C   UNL     1     -12.459  13.463  69.644  1.00  0.00    -0.009 C  
HETATM   12  C   UNL     1     -11.643  12.427  68.901  1.00  0.00    -0.316 C  
HETATM   13  N   UNL     1     -12.012  11.239  69.599  1.00  0.00    -0.334 NA 
HETATM   14  C   UNL     1     -12.415  11.557  70.868  1.00  0.00    -0.366 C  
HETATM   15  O   UNL     1     -12.569  10.764  71.777  1.00  0.00    -0.376 OA 
HETATM   16  O   UNL     1     -12.581  12.909  70.970  1.00  0.00    -0.366 OA 
ENDBRANCH  10  11
ENDBRANCH   9  10
ENDBRANCH   4   9
TORSDOF 3
ENDMDL
MODEL      179
REMARK 921   NORMALIZED FREE ENERGY PREDICTED BY IDOCK:   -3.50 KCAL/MOL
REMARK 922        TOTAL FREE ENERGY PREDICTED BY IDOCK:   -4.34 KCAL/MOL
REMARK 923 INTER-LIGAND FREE ENERGY PREDICTED BY IDOCK:   -4.04 KCAL/MOL
REMARK 924 INTRA-LIGAND FREE ENERGY PREDICTED BY IDOCK:   -0.31 KCAL/MOL
REMARK 927      BINDING AFFINITY PREDICTED BY RF-SCORE:    0.00 PKD
ROOT
HETATM    1  C   UNL     1      -9.501   4.021  67.682  1.00  0.00    -0.231 C  
HETATM    2  C   UNL     1      -9.625   4.724  69.002  1.00  0.00    -0.233 A  
HETATM    3  C   UNL     1      -9.637   6.124  69.087  1.00  0.00    -0.154 A  
HETATM    4  C   UNL     1      -9.789   6.765  70.322  1.00  0.00    -0.174 A  
HETATM    5  C   UNL     1      -9.744   3.968  70.175  1.00  0.00    -0.265 A  
HETATM    6  C   UNL     1      -9.884   5.995  71.483  1.00  0.00    -0.197 A  
HETATM    7  C   UNL     1      -9.980   3.766  72.666  1.00  0.00    -0.220 C  
HETATM    8  C   UNL     1      -9.865   4.594  71.419  1.00  0.00    -0.264 A  
ENDROOT
BRANCH   4   9
HETATM    9  O   UNL     1      -9.796   8.138  70.282  1.00  0.00    -0.182 OA 
BRANCH   9  10
HETATM   10  C   UNL     1      -9.553   8.718  68.997  1.00  0.00    -0.162 C  
BRANCH  10  11
HETATM   11  C   UNL     1     -10.133  10.125  68.933  1.00  0.00    -0.200 C  
HETATM   12  C   UNL     1     -11.235  10.324  67.915  1.00  0.00    -0.220 C  
HETATM   13  N   UNL     1     -12.007  11.344  68.547  1.00  0.00    -0.555 NA 
HETATM   14  C   UNL     1     -11.813  11.294  69.901  1.00  0.00    -0.360 C  
HETATM   15  O   UNL     1     -12.493  11.868  70.731  1.00  0.00    -0.349 OA 
HETATM   16  O   UNL     1     -10.761  10.471  70.185  1.00  0.00    -0.268 OA 
ENDBRANCH  10  11
ENDBRANCH   9  10
ENDBRANCH   4   9
TORSDOF 3
ENDMDL
MODEL      180
REMARK 921   NORMALIZED FREE ENERGY PREDICTED BY IDOCK:   -3.49 KCAL/MOL
REMARK 922        TOTAL FREE ENERGY PREDICTED BY IDOCK:   -4.34 KCAL/MOL
REMARK 923 INTER-LIGAND FREE ENERGY PREDICTED BY IDOCK:   -4.00 KCAL/MOL
REMARK 924 INTRA-LIGAND FREE ENERGY PREDICTED BY IDOCK:   -0.34 KCAL/MOL
REMARK 927      BINDING AFFINITY PREDICTED BY RF-SCORE:    0.00 PKD
ROOT
HETATM    1  C   UNL     1      -8.375   9.537  70.318  1.00  0.00    -0.221 C  
HETATM    2  C   UNL     1      -9.648   9.170  71.023  1.00  0.00    -0.350 A  
HETATM    3  C   UNL     1      -9.664   8.218  72.053  1.00  0.00    -0.322 A  
HETATM    4  C   UNL     1     -10.853   7.912  72.725  1.00  0.00    -0.386 A  
HETATM    5  C   UNL     1     -10.844   9.799  70.656  1.00  0.00    -0.396 A  
HETATM    6  C   UNL     1     -12.040   8.533  72.331  1.00  0.00    -0.436 A  
HETATM    7  C   UNL     1     -13.318  10.158  70.880  1.00  0.00    -0.272 C  
HETATM    8  C   UNL     1     -12.044   9.481  71.297  1.00  0.00    -0.443 A  
ENDROOT
BRANCH   4   9
HETATM    9  O   UNL     1     -10.747   6.972  73.722  1.00  0.00    -0.360 OA 
BRANCH   9  10
HETATM   10  C   UNL     1      -9.435   6.794  74.263  1.00  0.00    -0.252 C  
BRANCH  10  11
HETATM   11  C   UNL     1      -9.050   5.321  74.243  1.00  0.00    -0.117 C  
HETATM   12  C   UNL     1     -10.028   4.406  73.537  1.00  0.00    -0.140 C  
HETATM   13  N   UNL     1      -9.149   3.393  73.051  1.00  0.00    -0.094 NA 
HETATM   14  C   UNL     1      -7.889   3.907  72.908  1.00  0.00    -0.075 C  
HETATM   15  O   UNL     1      -6.976   3.374  72.306  1.00  0.00    -0.032 OA 
HETATM   16  O   UNL     1      -7.820   5.129  73.514  1.00  0.00    -0.104 OA 
ENDBRANCH  10  11
ENDBRANCH   9  10
ENDBRANCH   4   9
TORSDOF 3
ENDMDL
MODEL      181
REMARK 921   NORMALIZED FREE ENERGY PREDICTED BY IDOCK:   -3.48 KCAL/MOL
REMARK 922        TOTAL FREE ENERGY PREDICTED BY IDOCK:   -4.33 KCAL/MOL
REMARK 923 INTER-LIGAND FREE ENERGY PREDICTED BY IDOCK:   -3.97 KCAL/MOL
REMARK 924 INTRA-LIGAND FREE ENERGY PREDICTED BY IDOCK:   -0.35 KCAL/MOL
REMARK 927      BINDING AFFINITY PREDICTED BY RF-SCORE:    0.00 PKD
ROOT
HETATM    1  C   UNL     1     -11.202  10.317  67.433  1.00  0.00    -0.145 C  
HETATM    2  C   UNL     1     -11.308  11.534  68.304  1.00  0.00    -0.352 A  
HETATM    3  C   UNL     1     -10.907  12.798  67.844  1.00  0.00    -0.242 A  
HETATM    4  C   UNL     1     -11.044  13.930  68.655  1.00  0.00    -0.265 A  
HETATM    5  C   UNL     1     -11.828  11.412  69.598  1.00  0.00    -0.431 A  
HETATM    6  C   UNL     1     -11.545  13.786  69.951  1.00  0.00    -0.298 A  
HETATM    7  C   UNL     1     -12.491  12.375  71.819  1.00  0.00     0.069 C  
HETATM    8  C   UNL     1     -11.942  12.529  70.431  1.00  0.00    -0.335 A  
ENDROOT
BRANCH   4   9
HETATM    9  O   UNL     1     -10.629  15.115  68.097  1.00  0.00    -0.238 OA 
BRANCH   9  10
HETATM   10  C   UNL     1     -10.639  15.158  66.667  1.00  0.00    -0.304 C  
BRANCH  10  11
HETATM   11  C   UNL     1      -9.303  15.671  66.144  1.00  0.00    -0.347 C  
HETATM   12  C   UNL     1      -9.090  17.164  66.268  1.00  0.00    -0.228 C  
HETATM   13  N   UNL     1      -7.673  17.224  66.424  1.00  0.00    -0.285 NA 
HETATM   14  C   UNL     1      -7.217  16.042  66.944  1.00  0.00    -0.177 C  
HETATM   15  O   UNL     1      -6.107  15.858  67.405  1.00  0.00    -0.181 OA 
HETATM   16  O   UNL     1      -8.213  15.108  66.902  1.00  0.00    -0.215 OA 
ENDBRANCH  10  11
ENDBRANCH   9  10
ENDBRANCH   4   9
TORSDOF 3
ENDMDL
MODEL      182
REMARK 921   NORMALIZED FREE ENERGY PREDICTED BY IDOCK:   -3.46 KCAL/MOL
REMARK 922        TOTAL FREE ENERGY PREDICTED BY IDOCK:   -4.30 KCAL/MOL
REMARK 923 INTER-LIGAND FREE ENERGY PREDICTED BY IDOCK:   -4.00 KCAL/MOL
REMARK 924 INTRA-LIGAND FREE ENERGY PREDICTED BY IDOCK:   -0.30 KCAL/MOL
REMARK 927      BINDING AFFINITY PREDICTED BY RF-SCORE:    0.00 PKD
ROOT
HETATM    1  C   UNL     1      -8.590   6.318  68.925  1.00  0.00    -0.125 C  
HETATM    2  C   UNL     1      -8.591   7.472  67.966  1.00  0.00    -0.122 A  
HETATM    3  C   UNL     1      -9.615   8.432  67.980  1.00  0.00    -0.168 A  
HETATM    4  C   UNL     1      -9.584   9.522  67.103  1.00  0.00    -0.160 A  
HETATM    5  C   UNL     1      -7.545   7.603  67.045  1.00  0.00    -0.103 A  
HETATM    6  C   UNL     1      -8.544   9.624  66.176  1.00  0.00    -0.138 A  
HETATM    7  C   UNL     1      -6.393   8.785  65.154  1.00  0.00    -0.060 C  
HETATM    8  C   UNL     1      -7.518   8.670  66.141  1.00  0.00    -0.086 A  
ENDROOT
BRANCH   4   9
HETATM    9  O   UNL     1     -10.633  10.403  67.213  1.00  0.00    -0.235 OA 
BRANCH   9  10
HETATM   10  C   UNL     1     -10.269  11.782  67.321  1.00  0.00    -0.203 C  
BRANCH  10  11
HETATM   11  C   UNL     1     -10.887  12.584  66.184  1.00  0.00    -0.272 C  
HETATM   12  C   UNL     1     -10.172  12.478  64.854  1.00  0.00    -0.278 C  
HETATM   13  N   UNL     1     -11.259  12.647  63.947  1.00  0.00    -0.410 NA 
HETATM   14  C   UNL     1     -12.428  12.271  64.553  1.00  0.00    -0.377 C  
HETATM   15  O   UNL     1     -13.486  12.080  63.984  1.00  0.00    -0.655 OA 
HETATM   16  O   UNL     1     -12.217  12.106  65.892  1.00  0.00    -0.604 OA 
ENDBRANCH  10  11
ENDBRANCH   9  10
ENDBRANCH   4   9
TORSDOF 3
ENDMDL
MODEL      183
REMARK 921   NORMALIZED FREE ENERGY PREDICTED BY IDOCK:   -3.44 KCAL/MOL
REMARK 922        TOTAL FREE ENERGY PREDICTED BY IDOCK:   -4.28 KCAL/MOL
REMARK 923 INTER-LIGAND FREE ENERGY PREDICTED BY IDOCK:   -4.01 KCAL/MOL
REMARK 924 INTRA-LIGAND FREE ENERGY PREDICTED BY IDOCK:   -0.26 KCAL/MOL
REMARK 927      BINDING AFFINITY PREDICTED BY RF-SCORE:    0.00 PKD
ROOT
HETATM    1  C   UNL     1     -11.547  12.602  64.242  1.00  0.00    -0.435 C  
HETATM    2  C   UNL     1     -11.315  12.299  65.693  1.00  0.00    -0.394 A  
HETATM    3  C   UNL     1     -10.842  11.046  66.112  1.00  0.00    -0.212 A  
HETATM    4  C   UNL     1     -10.597  10.790  67.465  1.00  0.00    -0.237 A  
HETATM    5  C   UNL     1     -11.565  13.289  66.652  1.00  0.00    -0.408 A  
HETATM    6  C   UNL     1     -10.872  11.782  68.409  1.00  0.00    -0.260 A  
HETATM    7  C   UNL     1     -11.640  14.108  69.023  1.00  0.00    -0.342 C  
HETATM    8  C   UNL     1     -11.355  13.037  68.011  1.00  0.00    -0.327 A  
ENDROOT
BRANCH   4   9
HETATM    9  O   UNL     1     -10.125   9.533  67.757  1.00  0.00    -0.175 OA 
BRANCH   9  10
HETATM   10  C   UNL     1     -10.406   9.061  69.077  1.00  0.00    -0.219 C  
BRANCH  10  11
HETATM   11  C   UNL     1     -10.757   7.579  69.047  1.00  0.00    -0.134 C  
HETATM   12  C   UNL     1     -10.727   6.936  67.678  1.00  0.00    -0.274 C  
HETATM   13  N   UNL     1     -10.359   5.599  68.014  1.00  0.00    -0.199 NA 
HETATM   14  C   UNL     1      -9.676   5.595  69.201  1.00  0.00    -0.145 C  
HETATM   15  O   UNL     1      -9.034   4.660  69.640  1.00  0.00    -0.087 OA 
HETATM   16  O   UNL     1      -9.793   6.816  69.801  1.00  0.00    -0.165 OA 
ENDBRANCH  10  11
ENDBRANCH   9  10
ENDBRANCH   4   9
TORSDOF 3
ENDMDL
MODEL      184
REMARK 921   NORMALIZED FREE ENERGY PREDICTED BY IDOCK:   -3.44 KCAL/MOL
REMARK 922        TOTAL FREE ENERGY PREDICTED BY IDOCK:   -4.28 KCAL/MOL
REMARK 923 INTER-LIGAND FREE ENERGY PREDICTED BY IDOCK:   -3.96 KCAL/MOL
REMARK 924 INTRA-LIGAND FREE ENERGY PREDICTED BY IDOCK:   -0.32 KCAL/MOL
REMARK 927      BINDING AFFINITY PREDICTED BY RF-SCORE:    0.00 PKD
ROOT
HETATM    1  C   UNL     1     -11.746  12.203  69.580  1.00  0.00    -0.402 C  
HETATM    2  C   UNL     1     -11.777  10.890  70.305  1.00  0.00    -0.437 A  
HETATM    3  C   UNL     1     -10.641  10.069  70.379  1.00  0.00    -0.343 A  
HETATM    4  C   UNL     1     -10.675   8.863  71.088  1.00  0.00    -0.263 A  
HETATM    5  C   UNL     1     -12.959  10.478  70.933  1.00  0.00    -0.455 A  
HETATM    6  C   UNL     1     -11.869   8.458  71.689  1.00  0.00    -0.357 A  
HETATM    7  C   UNL     1     -14.297   8.832  72.274  1.00  0.00    -0.468 C  
HETATM    8  C   UNL     1     -13.017   9.260  71.619  1.00  0.00    -0.447 A  
ENDROOT
BRANCH   4   9
HETATM    9  O   UNL     1      -9.503   8.147  71.100  1.00  0.00    -0.149 OA 
BRANCH   9  10
HETATM   10  C   UNL     1      -8.361   8.828  70.573  1.00  0.00    -0.148 C  
BRANCH  10  11
HETATM   11  C   UNL     1      -7.376   7.829  69.980  1.00  0.00    -0.075 C  
HETATM   12  C   UNL     1      -7.545   6.399  70.446  1.00  0.00    -0.096 C  
HETATM   13  N   UNL     1      -7.093   5.684  69.297  1.00  0.00    -0.063 NA 
HETATM   14  C   UNL     1      -7.253   6.459  68.180  1.00  0.00    -0.085 C  
HETATM   15  O   UNL     1      -7.181   6.063  67.032  1.00  0.00    -0.072 OA 
HETATM   16  O   UNL     1      -7.544   7.742  68.550  1.00  0.00    -0.101 OA 
ENDBRANCH  10  11
ENDBRANCH   9  10
ENDBRANCH   4   9
TORSDOF 3
ENDMDL
MODEL      185
REMARK 921   NORMALIZED FREE ENERGY PREDICTED BY IDOCK:   -3.41 KCAL/MOL
REMARK 922        TOTAL FREE ENERGY PREDICTED BY IDOCK:   -4.24 KCAL/MOL
REMARK 923 INTER-LIGAND FREE ENERGY PREDICTED BY IDOCK:   -3.95 KCAL/MOL
REMARK 924 INTRA-LIGAND FREE ENERGY PREDICTED BY IDOCK:   -0.28 KCAL/MOL
REMARK 927      BINDING AFFINITY PREDICTED BY RF-SCORE:    0.00 PKD
ROOT
HETATM    1  C   UNL     1     -10.879  16.426  64.992  1.00  0.00    -0.289 C  
HETATM    2  C   UNL     1     -10.910  14.926  65.022  1.00  0.00    -0.439 A  
HETATM    3  C   UNL     1     -10.047  14.194  65.850  1.00  0.00    -0.337 A  
HETATM    4  C   UNL     1     -10.111  12.797  65.894  1.00  0.00    -0.276 A  
HETATM    5  C   UNL     1     -11.828  14.241  64.216  1.00  0.00    -0.401 A  
HETATM    6  C   UNL     1     -11.017  12.129  65.067  1.00  0.00    -0.355 A  
HETATM    7  C   UNL     1     -12.865  12.128  63.345  1.00  0.00    -0.406 C  
HETATM    8  C   UNL     1     -11.882  12.844  64.225  1.00  0.00    -0.457 A  
ENDROOT
BRANCH   4   9
HETATM    9  O   UNL     1      -9.225  12.186  66.748  1.00  0.00    -0.196 OA 
BRANCH   9  10
HETATM   10  C   UNL     1      -9.358  10.767  66.861  1.00  0.00    -0.160 C  
BRANCH  10  11
HETATM   11  C   UNL     1      -8.157  10.070  66.234  1.00  0.00    -0.117 C  
HETATM   12  C   UNL     1      -7.442   9.083  67.131  1.00  0.00    -0.087 C  
HETATM   13  N   UNL     1      -6.952   8.150  66.170  1.00  0.00    -0.058 NA 
HETATM   14  C   UNL     1      -7.739   8.185  65.051  1.00  0.00    -0.113 C  
HETATM   15  O   UNL     1      -7.728   7.361  64.157  1.00  0.00    -0.110 OA 
HETATM   16  O   UNL     1      -8.569   9.269  65.108  1.00  0.00    -0.151 OA 
ENDBRANCH  10  11
ENDBRANCH   9  10
ENDBRANCH   4   9
TORSDOF 3
ENDMDL
MODEL      186
REMARK 921   NORMALIZED FREE ENERGY PREDICTED BY IDOCK:   -3.40 KCAL/MOL
REMARK 922        TOTAL FREE ENERGY PREDICTED BY IDOCK:   -4.23 KCAL/MOL
REMARK 923 INTER-LIGAND FREE ENERGY PREDICTED BY IDOCK:   -4.00 KCAL/MOL
REMARK 924 INTRA-LIGAND FREE ENERGY PREDICTED BY IDOCK:   -0.23 KCAL/MOL
REMARK 927      BINDING AFFINITY PREDICTED BY RF-SCORE:    0.00 PKD
ROOT
HETATM    1  C   UNL     1      -8.182   4.389  69.309  1.00  0.00    -0.072 C  
HETATM    2  C   UNL     1      -9.072   5.563  69.591  1.00  0.00    -0.152 A  
HETATM    3  C   UNL     1      -8.976   6.748  68.846  1.00  0.00    -0.131 A  
HETATM    4  C   UNL     1      -9.837   7.823  69.098  1.00  0.00    -0.173 A  
HETATM    5  C   UNL     1     -10.026   5.474  70.612  1.00  0.00    -0.270 A  
HETATM    6  C   UNL     1     -10.767   7.724  70.135  1.00  0.00    -0.242 A  
HETATM    7  C   UNL     1     -11.880   6.438  72.003  1.00  0.00    -0.382 C  
HETATM    8  C   UNL     1     -10.871   6.551  70.896  1.00  0.00    -0.302 A  
ENDROOT
BRANCH   4   9
HETATM    9  O   UNL     1      -9.659   8.927  68.300  1.00  0.00    -0.143 OA 
BRANCH   9  10
HETATM   10  C   UNL     1     -10.859   9.538  67.819  1.00  0.00    -0.195 C  
BRANCH  10  11
HETATM   11  C   UNL     1     -10.837  11.036  68.093  1.00  0.00    -0.226 C  
HETATM   12  C   UNL     1      -9.562  11.747  67.696  1.00  0.00    -0.183 C  
HETATM   13  N   UNL     1     -10.063  13.043  67.372  1.00  0.00    -0.229 NA 
HETATM   14  C   UNL     1     -11.379  12.949  67.008  1.00  0.00    -0.309 C  
HETATM   15  O   UNL     1     -12.023  13.824  66.461  1.00  0.00    -0.387 OA 
HETATM   16  O   UNL     1     -11.854  11.706  67.319  1.00  0.00    -0.609 OA 
ENDBRANCH  10  11
ENDBRANCH   9  10
ENDBRANCH   4   9
TORSDOF 3
ENDMDL
MODEL      187
REMARK 921   NORMALIZED FREE ENERGY PREDICTED BY IDOCK:   -3.39 KCAL/MOL
REMARK 922        TOTAL FREE ENERGY PREDICTED BY IDOCK:   -4.22 KCAL/MOL
REMARK 923 INTER-LIGAND FREE ENERGY PREDICTED BY IDOCK:   -3.95 KCAL/MOL
REMARK 924 INTRA-LIGAND FREE ENERGY PREDICTED BY IDOCK:   -0.26 KCAL/MOL
REMARK 927      BINDING AFFINITY PREDICTED BY RF-SCORE:    0.00 PKD
ROOT
HETATM    1  C   UNL     1     -11.561  12.043  69.770  1.00  0.00    -0.348 C  
HETATM    2  C   UNL     1     -11.765  10.629  70.228  1.00  0.00    -0.433 A  
HETATM    3  C   UNL     1     -10.954   9.585  69.760  1.00  0.00    -0.245 A  
HETATM    4  C   UNL     1     -11.134   8.276  70.222  1.00  0.00    -0.219 A  
HETATM    5  C   UNL     1     -12.779  10.344  71.151  1.00  0.00    -0.514 A  
HETATM    6  C   UNL     1     -12.164   8.007  71.126  1.00  0.00    -0.262 A  
HETATM    7  C   UNL     1     -14.091   8.751  72.579  1.00  0.00    -0.421 C  
HETATM    8  C   UNL     1     -12.991   9.037  71.598  1.00  0.00    -0.418 A  
ENDROOT
BRANCH   4   9
HETATM    9  O   UNL     1     -10.275   7.338  69.702  1.00  0.00    -0.199 OA 
BRANCH   9  10
HETATM   10  C   UNL     1     -10.864   6.399  68.798  1.00  0.00    -0.317 C  
BRANCH  10  11
HETATM   11  C   UNL     1      -9.785   5.552  68.138  1.00  0.00    -0.132 C  
HETATM   12  C   UNL     1      -9.142   6.164  66.912  1.00  0.00    -0.127 C  
HETATM   13  N   UNL     1      -7.832   5.604  66.984  1.00  0.00    -0.101 NA 
HETATM   14  C   UNL     1      -7.541   5.279  68.282  1.00  0.00    -0.080 C  
HETATM   15  O   UNL     1      -6.436   5.001  68.707  1.00  0.00    -0.034 OA 
HETATM   16  O   UNL     1      -8.676   5.352  69.038  1.00  0.00    -0.101 OA 
ENDBRANCH  10  11
ENDBRANCH   9  10
ENDBRANCH   4   9
TORSDOF 3
ENDMDL
MODEL      188
REMARK 921   NORMALIZED FREE ENERGY PREDICTED BY IDOCK:   -3.39 KCAL/MOL
REMARK 922        TOTAL FREE ENERGY PREDICTED BY IDOCK:   -4.22 KCAL/MOL
REMARK 923 INTER-LIGAND FREE ENERGY PREDICTED BY IDOCK:   -3.90 KCAL/MOL
REMARK 924 INTRA-LIGAND FREE ENERGY PREDICTED BY IDOCK:   -0.31 KCAL/MOL
REMARK 927      BINDING AFFINITY PREDICTED BY RF-SCORE:    0.00 PKD
ROOT
HETATM    1  C   UNL     1      -9.659   3.917  65.203  1.00  0.00    -0.181 C  
HETATM    2  C   UNL     1      -9.476   5.142  66.050  1.00  0.00    -0.170 A  
HETATM    3  C   UNL     1     -10.417   5.502  67.028  1.00  0.00    -0.336 A  
HETATM    4  C   UNL     1     -10.216   6.627  67.834  1.00  0.00    -0.171 A  
HETATM    5  C   UNL     1      -8.339   5.939  65.872  1.00  0.00    -0.136 A  
HETATM    6  C   UNL     1      -9.086   7.423  67.627  1.00  0.00    -0.126 A  
HETATM    7  C   UNL     1      -6.919   7.931  66.434  1.00  0.00    -0.067 C  
HETATM    8  C   UNL     1      -8.140   7.084  66.649  1.00  0.00    -0.110 A  
ENDROOT
BRANCH   4   9
HETATM    9  O   UNL     1     -11.197   6.876  68.763  1.00  0.00    -0.139 OA 
BRANCH   9  10
HETATM   10  C   UNL     1     -11.153   6.061  69.937  1.00  0.00    -0.399 C  
BRANCH  10  11
HETATM   11  C   UNL     1     -11.419   6.904  71.178  1.00  0.00    -0.304 C  
HETATM   12  C   UNL     1     -10.770   8.271  71.181  1.00  0.00    -0.226 C  
HETATM   13  N   UNL     1     -11.706   9.014  71.960  1.00  0.00    -0.361 NA 
HETATM   14  C   UNL     1     -12.941   8.428  71.877  1.00  0.00    -0.355 C  
HETATM   15  O   UNL     1     -13.987   8.938  72.231  1.00  0.00    -0.442 OA 
HETATM   16  O   UNL     1     -12.826   7.196  71.298  1.00  0.00    -0.380 OA 
ENDBRANCH  10  11
ENDBRANCH   9  10
ENDBRANCH   4   9
TORSDOF 3
ENDMDL
MODEL      189
REMARK 921   NORMALIZED FREE ENERGY PREDICTED BY IDOCK:   -3.38 KCAL/MOL
REMARK 922        TOTAL FREE ENERGY PREDICTED BY IDOCK:   -4.21 KCAL/MOL
REMARK 923 INTER-LIGAND FREE ENERGY PREDICTED BY IDOCK:   -3.95 KCAL/MOL
REMARK 924 INTRA-LIGAND FREE ENERGY PREDICTED BY IDOCK:   -0.26 KCAL/MOL
REMARK 927      BINDING AFFINITY PREDICTED BY RF-SCORE:    0.00 PKD
ROOT
HETATM    1  C   UNL     1     -11.456  12.488  63.679  1.00  0.00    -0.568 C  
HETATM    2  C   UNL     1     -10.587  12.403  64.899  1.00  0.00    -0.326 A  
HETATM    3  C   UNL     1     -10.069  13.556  65.508  1.00  0.00    -0.283 A  
HETATM    4  C   UNL     1      -9.288  13.464  66.666  1.00  0.00    -0.241 A  
HETATM    5  C   UNL     1     -10.293  11.150  65.450  1.00  0.00    -0.331 A  
HETATM    6  C   UNL     1      -8.987  12.204  67.189  1.00  0.00    -0.189 A  
HETATM    7  C   UNL     1      -9.177   9.686  67.156  1.00  0.00    -0.156 C  
HETATM    8  C   UNL     1      -9.488  11.040  66.588  1.00  0.00    -0.207 A  
ENDROOT
BRANCH   4   9
HETATM    9  O   UNL     1      -8.844  14.658  67.180  1.00  0.00    -0.197 OA 
BRANCH   9  10
HETATM   10  C   UNL     1      -8.877  14.764  68.606  1.00  0.00    -0.180 C  
BRANCH  10  11
HETATM   11  C   UNL     1      -8.633  16.204  69.037  1.00  0.00    -0.251 C  
HETATM   12  C   UNL     1      -7.236  16.502  69.535  1.00  0.00    -0.049 C  
HETATM   13  N   UNL     1      -7.098  17.871  69.156  1.00  0.00    -0.225 NA 
HETATM   14  C   UNL     1      -7.925  18.140  68.098  1.00  0.00    -0.283 C  
HETATM   15  O   UNL     1      -7.875  19.136  67.402  1.00  0.00    -0.241 OA 
HETATM   16  O   UNL     1      -8.792  17.100  67.918  1.00  0.00    -0.219 OA 
ENDBRANCH  10  11
ENDBRANCH   9  10
ENDBRANCH   4   9
TORSDOF 3
ENDMDL
MODEL      190
REMARK 921   NORMALIZED FREE ENERGY PREDICTED BY IDOCK:   -3.37 KCAL/MOL
REMARK 922        TOTAL FREE ENERGY PREDICTED BY IDOCK:   -4.19 KCAL/MOL
REMARK 923 INTER-LIGAND FREE ENERGY PREDICTED BY IDOCK:   -4.26 KCAL/MOL
REMARK 924 INTRA-LIGAND FREE ENERGY PREDICTED BY IDOCK:    0.07 KCAL/MOL
REMARK 927      BINDING AFFINITY PREDICTED BY RF-SCORE:    0.00 PKD
ROOT
HETATM    1  C   UNL     1     -11.124  16.180  64.628  1.00  0.00    -0.310 C  
HETATM    2  C   UNL     1     -10.426  15.549  65.797  1.00  0.00    -0.378 A  
HETATM    3  C   UNL     1     -11.082  14.631  66.631  1.00  0.00    -0.334 A  
HETATM    4  C   UNL     1     -10.408  14.025  67.697  1.00  0.00    -0.242 A  
HETATM    5  C   UNL     1      -9.088  15.872  66.057  1.00  0.00    -0.363 A  
HETATM    6  C   UNL     1      -9.080  14.376  67.954  1.00  0.00    -0.187 A  
HETATM    7  C   UNL     1      -6.981  15.667  67.404  1.00  0.00    -0.234 C  
HETATM    8  C   UNL     1      -8.411  15.298  67.137  1.00  0.00    -0.235 A  
ENDROOT
BRANCH   4   9
HETATM    9  O   UNL     1     -11.147  13.136  68.439  1.00  0.00    -0.242 OA 
BRANCH   9  10
HETATM   10  C   UNL     1     -11.435  11.890  67.799  1.00  0.00    -0.319 C  
BRANCH  10  11
HETATM   11  C   UNL     1     -10.232  11.418  66.992  1.00  0.00    -0.213 C  
HETATM   12  C   UNL     1      -9.776  10.004  67.279  1.00  0.00    -0.167 C  
HETATM   13  N   UNL     1      -9.243   9.628  66.010  1.00  0.00    -0.169 NA 
HETATM   14  C   UNL     1      -9.836  10.370  65.024  1.00  0.00    -0.319 C  
HETATM   15  O   UNL     1      -9.773  10.135  63.832  1.00  0.00    -0.297 OA 
HETATM   16  O   UNL     1     -10.544  11.395  65.584  1.00  0.00    -0.255 OA 
ENDBRANCH  10  11
ENDBRANCH   9  10
ENDBRANCH   4   9
TORSDOF 3
ENDMDL
MODEL      191
REMARK 921   NORMALIZED FREE ENERGY PREDICTED BY IDOCK:   -3.36 KCAL/MOL
REMARK 922        TOTAL FREE ENERGY PREDICTED BY IDOCK:   -4.18 KCAL/MOL
REMARK 923 INTER-LIGAND FREE ENERGY PREDICTED BY IDOCK:   -3.97 KCAL/MOL
REMARK 924 INTRA-LIGAND FREE ENERGY PREDICTED BY IDOCK:   -0.21 KCAL/MOL
REMARK 927      BINDING AFFINITY PREDICTED BY RF-SCORE:    0.00 PKD
ROOT
HETATM    1  C   UNL     1     -12.136  15.356  64.101  1.00  0.00    -0.104 C  
HETATM    2  C   UNL     1     -11.347  14.715  65.205  1.00  0.00    -0.375 A  
HETATM    3  C   UNL     1     -10.834  15.470  66.270  1.00  0.00    -0.283 A  
HETATM    4  C   UNL     1     -10.129  14.854  67.310  1.00  0.00    -0.235 A  
HETATM    5  C   UNL     1     -11.125  13.333  65.179  1.00  0.00    -0.315 A  
HETATM    6  C   UNL     1      -9.899  13.477  67.257  1.00  0.00    -0.237 A  
HETATM    7  C   UNL     1     -10.160  11.226  66.143  1.00  0.00    -0.279 C  
HETATM    8  C   UNL     1     -10.396  12.707  66.195  1.00  0.00    -0.273 A  
ENDROOT
BRANCH   4   9
HETATM    9  O   UNL     1      -9.683  15.690  68.305  1.00  0.00    -0.199 OA 
BRANCH   9  10
HETATM   10  C   UNL     1      -8.273  15.928  68.322  1.00  0.00    -0.152 C  
BRANCH  10  11
HETATM   11  C   UNL     1      -7.983  17.409  68.122  1.00  0.00    -0.233 C  
HETATM   12  C   UNL     1      -6.718  17.722  67.351  1.00  0.00    -0.164 C  
HETATM   13  N   UNL     1      -7.080  18.951  66.723  1.00  0.00    -0.206 NA 
HETATM   14  C   UNL     1      -8.441  19.019  66.595  1.00  0.00    -0.304 C  
HETATM   15  O   UNL     1      -9.045  19.818  65.905  1.00  0.00    -0.364 OA 
HETATM   16  O   UNL     1      -9.021  18.026  67.334  1.00  0.00    -0.243 OA 
ENDBRANCH  10  11
ENDBRANCH   9  10
ENDBRANCH   4   9
TORSDOF 3
ENDMDL
MODEL      192
REMARK 921   NORMALIZED FREE ENERGY PREDICTED BY IDOCK:   -3.35 KCAL/MOL
REMARK 922        TOTAL FREE ENERGY PREDICTED BY IDOCK:   -4.17 KCAL/MOL
REMARK 923 INTER-LIGAND FREE ENERGY PREDICTED BY IDOCK:   -3.82 KCAL/MOL
REMARK 924 INTRA-LIGAND FREE ENERGY PREDICTED BY IDOCK:   -0.35 KCAL/MOL
REMARK 927      BINDING AFFINITY PREDICTED BY RF-SCORE:    0.00 PKD
ROOT
HETATM    1  C   UNL     1      -8.523   7.190  67.269  1.00  0.00    -0.122 C  
HETATM    2  C   UNL     1      -8.962   8.558  66.835  1.00  0.00    -0.166 A  
HETATM    3  C   UNL     1      -9.511   9.472  67.747  1.00  0.00    -0.151 A  
HETATM    4  C   UNL     1      -9.884  10.757  67.335  1.00  0.00    -0.177 A  
HETATM    5  C   UNL     1      -8.812   8.936  65.496  1.00  0.00    -0.238 A  
HETATM    6  C   UNL     1      -9.747  11.109  65.991  1.00  0.00    -0.263 A  
HETATM    7  C   UNL     1      -9.050  10.587  63.620  1.00  0.00    -0.259 C  
HETATM    8  C   UNL     1      -9.209  10.205  65.063  1.00  0.00    -0.266 A  
ENDROOT
BRANCH   4   9
HETATM    9  O   UNL     1     -10.400  11.569  68.316  1.00  0.00    -0.183 OA 
BRANCH   9  10
HETATM   10  C   UNL     1     -11.759  11.972  68.129  1.00  0.00    -0.333 C  
BRANCH  10  11
HETATM   11  C   UNL     1     -11.908  13.468  68.373  1.00  0.00    -0.373 C  
HETATM   12  C   UNL     1     -11.812  13.898  69.821  1.00  0.00    -0.329 C  
HETATM   13  N   UNL     1     -11.262  15.207  69.679  1.00  0.00    -0.255 NA 
HETATM   14  C   UNL     1     -10.567  15.288  68.503  1.00  0.00    -0.237 C  
HETATM   15  O   UNL     1      -9.798  16.181  68.200  1.00  0.00    -0.223 OA 
HETATM   16  O   UNL     1     -10.838  14.193  67.733  1.00  0.00    -0.248 OA 
ENDBRANCH  10  11
ENDBRANCH   9  10
ENDBRANCH   4   9
TORSDOF 3
ENDMDL
MODEL      193
REMARK 921   NORMALIZED FREE ENERGY PREDICTED BY IDOCK:   -3.33 KCAL/MOL
REMARK 922        TOTAL FREE ENERGY PREDICTED BY IDOCK:   -4.15 KCAL/MOL
REMARK 923 INTER-LIGAND FREE ENERGY PREDICTED BY IDOCK:   -3.94 KCAL/MOL
REMARK 924 INTRA-LIGAND FREE ENERGY PREDICTED BY IDOCK:   -0.21 KCAL/MOL
REMARK 927      BINDING AFFINITY PREDICTED BY RF-SCORE:    0.00 PKD
ROOT
HETATM    1  C   UNL     1      -6.326   7.718  67.529  1.00  0.00    -0.055 C  
HETATM    2  C   UNL     1      -7.812   7.928  67.515  1.00  0.00    -0.122 A  
HETATM    3  C   UNL     1      -8.379   9.164  67.860  1.00  0.00    -0.117 A  
HETATM    4  C   UNL     1      -9.764   9.356  67.809  1.00  0.00    -0.151 A  
HETATM    5  C   UNL     1      -8.653   6.873  67.140  1.00  0.00    -0.121 A  
HETATM    6  C   UNL     1     -10.588   8.285  67.454  1.00  0.00    -0.324 A  
HETATM    7  C   UNL     1     -10.925   5.892  66.721  1.00  0.00    -0.280 C  
HETATM    8  C   UNL     1     -10.041   7.040  67.115  1.00  0.00    -0.283 A  
ENDROOT
BRANCH   4   9
HETATM    9  O   UNL     1     -10.205  10.609  68.158  1.00  0.00    -0.159 OA 
BRANCH   9  10
HETATM   10  C   UNL     1     -11.318  11.101  67.407  1.00  0.00    -0.255 C  
BRANCH  10  11
HETATM   11  C   UNL     1     -11.056  12.527  66.942  1.00  0.00    -0.278 C  
HETATM   12  C   UNL     1     -12.042  13.068  65.929  1.00  0.00    -0.444 C  
HETATM   13  N   UNL     1     -12.021  14.459  66.247  1.00  0.00    -0.396 NA 
HETATM   14  C   UNL     1     -11.644  14.627  67.552  1.00  0.00    -0.375 C  
HETATM   15  O   UNL     1     -11.750  15.659  68.188  1.00  0.00    -0.331 OA 
HETATM   16  O   UNL     1     -11.165  13.448  68.047  1.00  0.00    -0.246 OA 
ENDBRANCH  10  11
ENDBRANCH   9  10
ENDBRANCH   4   9
TORSDOF 3
ENDMDL
MODEL      194
REMARK 921   NORMALIZED FREE ENERGY PREDICTED BY IDOCK:   -3.30 KCAL/MOL
REMARK 922        TOTAL FREE ENERGY PREDICTED BY IDOCK:   -4.11 KCAL/MOL
REMARK 923 INTER-LIGAND FREE ENERGY PREDICTED BY IDOCK:   -3.95 KCAL/MOL
REMARK 924 INTRA-LIGAND FREE ENERGY PREDICTED BY IDOCK:   -0.16 KCAL/MOL
REMARK 927      BINDING AFFINITY PREDICTED BY RF-SCORE:    0.00 PKD
ROOT
HETATM    1  C   UNL     1     -12.969  11.664  63.224  1.00  0.00     0.071 C  
HETATM    2  C   UNL     1     -12.036  12.572  63.971  1.00  0.00    -0.557 A  
HETATM    3  C   UNL     1     -11.033  12.061  64.808  1.00  0.00    -0.361 A  
HETATM    4  C   UNL     1     -10.148  12.919  65.470  1.00  0.00    -0.257 A  
HETATM    5  C   UNL     1     -12.160  13.959  63.822  1.00  0.00    -0.330 A  
HETATM    6  C   UNL     1     -10.300  14.300  65.328  1.00  0.00    -0.417 A  
HETATM    7  C   UNL     1     -11.460  16.313  64.339  1.00  0.00    -0.114 C  
HETATM    8  C   UNL     1     -11.303  14.830  64.503  1.00  0.00    -0.309 A  
ENDROOT
BRANCH   4   9
HETATM    9  O   UNL     1      -9.200  12.306  66.254  1.00  0.00    -0.225 OA 
BRANCH   9  10
HETATM   10  C   UNL     1      -9.705  11.605  67.394  1.00  0.00    -0.176 C  
BRANCH  10  11
HETATM   11  C   UNL     1      -9.922  12.567  68.554  1.00  0.00    -0.165 C  
HETATM   12  C   UNL     1      -9.067  13.815  68.528  1.00  0.00    -0.133 C  
HETATM   13  N   UNL     1      -9.928  14.748  69.180  1.00  0.00    -0.210 NA 
HETATM   14  C   UNL     1     -11.230  14.354  69.031  1.00  0.00    -0.264 C  
HETATM   15  O   UNL     1     -12.205  15.042  69.267  1.00  0.00    -0.261 OA 
HETATM   16  O   UNL     1     -11.271  13.080  68.541  1.00  0.00    -0.241 OA 
ENDBRANCH  10  11
ENDBRANCH   9  10
ENDBRANCH   4   9
TORSDOF 3
ENDMDL
MODEL      195
REMARK 921   NORMALIZED FREE ENERGY PREDICTED BY IDOCK:   -3.29 KCAL/MOL
REMARK 922        TOTAL FREE ENERGY PREDICTED BY IDOCK:   -4.10 KCAL/MOL
REMARK 923 INTER-LIGAND FREE ENERGY PREDICTED BY IDOCK:   -3.94 KCAL/MOL
REMARK 924 INTRA-LIGAND FREE ENERGY PREDICTED BY IDOCK:   -0.16 KCAL/MOL
REMARK 927      BINDING AFFINITY PREDICTED BY RF-SCORE:    0.00 PKD
ROOT
HETATM    1  C   UNL     1      -8.395   8.076  67.345  1.00  0.00    -0.123 C  
HETATM    2  C   UNL     1      -8.942   9.017  66.312  1.00  0.00    -0.199 A  
HETATM    3  C   UNL     1     -10.025   9.863  66.595  1.00  0.00    -0.277 A  
HETATM    4  C   UNL     1     -10.501  10.760  65.633  1.00  0.00    -0.186 A  
HETATM    5  C   UNL     1      -8.354   9.062  65.042  1.00  0.00    -0.174 A  
HETATM    6  C   UNL     1      -9.917  10.775  64.364  1.00  0.00    -0.400 A  
HETATM    7  C   UNL     1      -8.203   9.954  62.701  1.00  0.00    -0.145 C  
HETATM    8  C   UNL     1      -8.840   9.930  64.060  1.00  0.00    -0.253 A  
ENDROOT
BRANCH   4   9
HETATM    9  O   UNL     1     -11.558  11.546  66.024  1.00  0.00    -0.311 OA 
BRANCH   9  10
HETATM   10  C   UNL     1     -11.213  12.704  66.790  1.00  0.00    -0.300 C  
BRANCH  10  11
HETATM   11  C   UNL     1     -12.007  12.736  68.089  1.00  0.00    -0.246 C  
HETATM   12  C   UNL     1     -11.800  11.547  69.002  1.00  0.00    -0.343 C  
HETATM   13  N   UNL     1     -12.003  12.147  70.280  1.00  0.00    -0.344 NA 
HETATM   14  C   UNL     1     -11.730  13.487  70.208  1.00  0.00    -0.173 C  
HETATM   15  O   UNL     1     -11.585  14.228  71.161  1.00  0.00    -0.198 OA 
HETATM   16  O   UNL     1     -11.606  13.859  68.899  1.00  0.00    -0.270 OA 
ENDBRANCH  10  11
ENDBRANCH   9  10
ENDBRANCH   4   9
TORSDOF 3
ENDMDL
MODEL      196
REMARK 921   NORMALIZED FREE ENERGY PREDICTED BY IDOCK:   -3.27 KCAL/MOL
REMARK 922        TOTAL FREE ENERGY PREDICTED BY IDOCK:   -4.08 KCAL/MOL
REMARK 923 INTER-LIGAND FREE ENERGY PREDICTED BY IDOCK:   -3.72 KCAL/MOL
REMARK 924 INTRA-LIGAND FREE ENERGY PREDICTED BY IDOCK:   -0.36 KCAL/MOL
REMARK 927      BINDING AFFINITY PREDICTED BY RF-SCORE:    0.00 PKD
ROOT
HETATM    1  C   UNL     1      -7.749  13.200  68.383  1.00  0.00    -0.138 C  
HETATM    2  C   UNL     1      -9.010  12.563  67.879  1.00  0.00    -0.188 A  
HETATM    3  C   UNL     1      -9.739  11.660  68.667  1.00  0.00    -0.151 A  
HETATM    4  C   UNL     1     -10.932  11.100  68.196  1.00  0.00    -0.238 A  
HETATM    5  C   UNL     1      -9.479  12.883  66.598  1.00  0.00    -0.255 A  
HETATM    6  C   UNL     1     -11.373  11.414  66.909  1.00  0.00    -0.284 A  
HETATM    7  C   UNL     1     -11.131  12.656  64.723  1.00  0.00    -0.335 C  
HETATM    8  C   UNL     1     -10.653  12.308  66.102  1.00  0.00    -0.281 A  
ENDROOT
BRANCH   4   9
HETATM    9  O   UNL     1     -11.566  10.238  69.058  1.00  0.00    -0.187 OA 
BRANCH   9  10
HETATM   10  C   UNL     1     -10.949  10.086  70.340  1.00  0.00    -0.320 C  
BRANCH  10  11
HETATM   11  C   UNL     1     -10.645   8.618  70.610  1.00  0.00    -0.211 C  
HETATM   12  C   UNL     1     -11.852   7.747  70.881  1.00  0.00    -0.239 C  
HETATM   13  N   UNL     1     -11.401   6.492  70.373  1.00  0.00    -0.356 NA 
HETATM   14  C   UNL     1     -10.437   6.700  69.423  1.00  0.00    -0.219 C  
HETATM   15  O   UNL     1     -10.022   5.861  68.647  1.00  0.00    -0.132 OA 
HETATM   16  O   UNL     1     -10.037   8.006  69.454  1.00  0.00    -0.187 OA 
ENDBRANCH  10  11
ENDBRANCH   9  10
ENDBRANCH   4   9
TORSDOF 3
ENDMDL
MODEL      197
REMARK 921   NORMALIZED FREE ENERGY PREDICTED BY IDOCK:   -3.26 KCAL/MOL
REMARK 922        TOTAL FREE ENERGY PREDICTED BY IDOCK:   -4.06 KCAL/MOL
REMARK 923 INTER-LIGAND FREE ENERGY PREDICTED BY IDOCK:   -3.82 KCAL/MOL
REMARK 924 INTRA-LIGAND FREE ENERGY PREDICTED BY IDOCK:   -0.24 KCAL/MOL
REMARK 927      BINDING AFFINITY PREDICTED BY RF-SCORE:    0.00 PKD
ROOT
HETATM    1  C   UNL     1      -6.227   8.934  66.664  1.00  0.00    -0.061 C  
HETATM    2  C   UNL     1      -7.723   9.047  66.660  1.00  0.00    -0.096 A  
HETATM    3  C   UNL     1      -8.510   8.366  67.601  1.00  0.00    -0.130 A  
HETATM    4  C   UNL     1      -9.902   8.509  67.607  1.00  0.00    -0.174 A  
HETATM    5  C   UNL     1      -8.349   9.858  65.706  1.00  0.00    -0.131 A  
HETATM    6  C   UNL     1     -10.511   9.305  66.634  1.00  0.00    -0.237 A  
HETATM    7  C   UNL     1     -10.393  10.851  64.641  1.00  0.00    -0.407 C  
HETATM    8  C   UNL     1      -9.741   9.986  65.680  1.00  0.00    -0.336 A  
ENDROOT
BRANCH   4   9
HETATM    9  O   UNL     1     -10.568   7.803  68.580  1.00  0.00    -0.189 OA 
BRANCH   9  10
HETATM   10  C   UNL     1      -9.994   7.867  69.888  1.00  0.00    -0.192 C  
BRANCH  10  11
HETATM   11  C   UNL     1     -11.052   7.581  70.946  1.00  0.00    -0.263 C  
HETATM   12  C   UNL     1     -10.570   7.652  72.378  1.00  0.00    -0.260 C  
HETATM   13  N   UNL     1     -11.758   8.075  73.044  1.00  0.00    -0.239 NA 
HETATM   14  C   UNL     1     -12.564   8.746  72.165  1.00  0.00    -0.399 C  
HETATM   15  O   UNL     1     -13.527   9.424  72.470  1.00  0.00    -0.455 OA 
HETATM   16  O   UNL     1     -12.101   8.571  70.892  1.00  0.00    -0.253 OA 
ENDBRANCH  10  11
ENDBRANCH   9  10
ENDBRANCH   4   9
TORSDOF 3
ENDMDL
MODEL      198
REMARK 921   NORMALIZED FREE ENERGY PREDICTED BY IDOCK:   -3.25 KCAL/MOL
REMARK 922        TOTAL FREE ENERGY PREDICTED BY IDOCK:   -4.06 KCAL/MOL
REMARK 923 INTER-LIGAND FREE ENERGY PREDICTED BY IDOCK:   -3.74 KCAL/MOL
REMARK 924 INTRA-LIGAND FREE ENERGY PREDICTED BY IDOCK:   -0.32 KCAL/MOL
REMARK 927      BINDING AFFINITY PREDICTED BY RF-SCORE:    0.00 PKD
ROOT
HETATM    1  C   UNL     1      -9.003  10.437  65.348  1.00  0.00    -0.207 C  
HETATM    2  C   UNL     1      -9.356   9.406  66.380  1.00  0.00    -0.241 A  
HETATM    3  C   UNL     1      -9.996   9.761  67.577  1.00  0.00    -0.230 A  
HETATM    4  C   UNL     1     -10.350   8.785  68.515  1.00  0.00    -0.199 A  
HETATM    5  C   UNL     1      -9.052   8.061  66.141  1.00  0.00    -0.224 A  
HETATM    6  C   UNL     1     -10.019   7.450  68.270  1.00  0.00    -0.182 A  
HETATM    7  C   UNL     1      -9.027   5.642  66.813  1.00  0.00    -0.116 C  
HETATM    8  C   UNL     1      -9.372   7.078  67.083  1.00  0.00    -0.166 A  
ENDROOT
BRANCH   4   9
HETATM    9  O   UNL     1     -10.981   9.247  69.645  1.00  0.00    -0.234 OA 
BRANCH   9  10
HETATM   10  C   UNL     1     -11.640   8.251  70.432  1.00  0.00    -0.060 C  
BRANCH  10  11
HETATM   11  C   UNL     1     -11.250   8.392  71.898  1.00  0.00    -0.311 C  
HETATM   12  C   UNL     1     -11.233   7.102  72.689  1.00  0.00    -0.293 C  
HETATM   13  N   UNL     1     -10.215   7.385  73.648  1.00  0.00    -0.348 NA 
HETATM   14  C   UNL     1      -9.362   8.331  73.147  1.00  0.00    -0.211 C  
HETATM   15  O   UNL     1      -8.276   8.618  73.614  1.00  0.00    -0.395 OA 
HETATM   16  O   UNL     1      -9.899   8.881  72.018  1.00  0.00    -0.325 OA 
ENDBRANCH  10  11
ENDBRANCH   9  10
ENDBRANCH   4   9
TORSDOF 3
ENDMDL
MODEL      199
REMARK 921   NORMALIZED FREE ENERGY PREDICTED BY IDOCK:   -3.20 KCAL/MOL
REMARK 922        TOTAL FREE ENERGY PREDICTED BY IDOCK:   -3.99 KCAL/MOL
REMARK 923 INTER-LIGAND FREE ENERGY PREDICTED BY IDOCK:   -3.97 KCAL/MOL
REMARK 924 INTRA-LIGAND FREE ENERGY PREDICTED BY IDOCK:   -0.02 KCAL/MOL
REMARK 927      BINDING AFFINITY PREDICTED BY RF-SCORE:    0.00 PKD
ROOT
HETATM    1  C   UNL     1      -9.108  15.928  65.481  1.00  0.00     0.240 C  
HETATM    2  C   UNL     1     -10.253  14.980  65.682  1.00  0.00    -0.386 A  
HETATM    3  C   UNL     1     -11.061  15.043  66.827  1.00  0.00    -0.326 A  
HETATM    4  C   UNL     1     -12.147  14.174  66.985  1.00  0.00    -0.414 A  
HETATM    5  C   UNL     1     -10.530  14.018  64.703  1.00  0.00    -0.398 A  
HETATM    6  C   UNL     1     -12.395  13.207  66.008  1.00  0.00    -0.426 A  
HETATM    7  C   UNL     1     -11.866  12.092  63.805  1.00  0.00    -0.592 C  
HETATM    8  C   UNL     1     -11.593  13.123  64.861  1.00  0.00    -0.356 A  
ENDROOT
BRANCH   4   9
HETATM    9  O   UNL     1     -12.873  14.334  68.140  1.00  0.00     0.602 OA 
BRANCH   9  10
HETATM   10  C   UNL     1     -12.121  14.732  69.289  1.00  0.00    -0.261 C  
BRANCH  10  11
HETATM   11  C   UNL     1     -11.693  13.510  70.092  1.00  0.00    -0.210 C  
HETATM   12  C   UNL     1     -12.727  12.978  71.061  1.00  0.00    -0.262 C  
HETATM   13  N   UNL     1     -12.405  11.589  71.067  1.00  0.00    -0.361 NA 
HETATM   14  C   UNL     1     -11.784  11.255  69.893  1.00  0.00    -0.352 C  
HETATM   15  O   UNL     1     -11.593  10.122  69.496  1.00  0.00    -0.206 OA 
HETATM   16  O   UNL     1     -11.444  12.391  69.216  1.00  0.00    -0.266 OA 
ENDBRANCH  10  11
ENDBRANCH   9  10
ENDBRANCH   4   9
TORSDOF 3
ENDMDL
MODEL      200
REMARK 921   NORMALIZED FREE ENERGY PREDICTED BY IDOCK:   -3.19 KCAL/MOL
REMARK 922        TOTAL FREE ENERGY PREDICTED BY IDOCK:   -3.98 KCAL/MOL
REMARK 923 INTER-LIGAND FREE ENERGY PREDICTED BY IDOCK:   -3.69 KCAL/MOL
REMARK 924 INTRA-LIGAND FREE ENERGY PREDICTED BY IDOCK:   -0.29 KCAL/MOL
REMARK 927      BINDING AFFINITY PREDICTED BY RF-SCORE:    0.00 PKD
ROOT
HETATM    1  C   UNL     1      -8.749  15.558  66.807  1.00  0.00    -0.302 C  
HETATM    2  C   UNL     1      -9.666  14.370  66.835  1.00  0.00    -0.266 A  
HETATM    3  C   UNL     1      -9.528  13.363  67.802  1.00  0.00    -0.210 A  
HETATM    4  C   UNL     1     -10.412  12.279  67.836  1.00  0.00    -0.213 A  
HETATM    5  C   UNL     1     -10.688  14.267  65.883  1.00  0.00    -0.304 A  
HETATM    6  C   UNL     1     -11.412  12.182  66.866  1.00  0.00    -0.414 A  
HETATM    7  C   UNL     1     -12.641  13.077  64.850  1.00  0.00    -0.490 C  
HETATM    8  C   UNL     1     -11.559  13.174  65.886  1.00  0.00    -0.391 A  
ENDROOT
BRANCH   4   9
HETATM    9  O   UNL     1     -10.188  11.360  68.833  1.00  0.00    -0.207 OA 
BRANCH   9  10
HETATM   10  C   UNL     1      -8.936  10.671  68.764  1.00  0.00    -0.172 C  
BRANCH  10  11
HETATM   11  C   UNL     1      -9.164   9.168  68.661  1.00  0.00    -0.136 C  
HETATM   12  C   UNL     1      -9.490   8.658  67.274  1.00  0.00    -0.156 C  
HETATM   13  N   UNL     1      -8.936   7.345  67.331  1.00  0.00    -0.122 NA 
HETATM   14  C   UNL     1      -7.935   7.308  68.263  1.00  0.00    -0.124 C  
HETATM   15  O   UNL     1      -7.121   6.412  68.387  1.00  0.00    -0.077 OA 
HETATM   16  O   UNL     1      -7.964   8.450  69.012  1.00  0.00    -0.107 OA 
ENDBRANCH  10  11
ENDBRANCH   9  10
ENDBRANCH   4   9
TORSDOF 3
ENDMDL
MODEL      201
REMARK 921   NORMALIZED FREE ENERGY PREDICTED BY IDOCK:   -3.17 KCAL/MOL
REMARK 922        TOTAL FREE ENERGY PREDICTED BY IDOCK:   -3.96 KCAL/MOL
REMARK 923 INTER-LIGAND FREE ENERGY PREDICTED BY IDOCK:   -3.72 KCAL/MOL
REMARK 924 INTRA-LIGAND FREE ENERGY PREDICTED BY IDOCK:   -0.24 KCAL/MOL
REMARK 927      BINDING AFFINITY PREDICTED BY RF-SCORE:    0.00 PKD
ROOT
HETATM    1  C   UNL     1      -5.846   5.691  69.495  1.00  0.00    -0.016 C  
HETATM    2  C   UNL     1      -7.276   5.334  69.776  1.00  0.00    -0.063 A  
HETATM    3  C   UNL     1      -8.118   6.199  70.490  1.00  0.00    -0.113 A  
HETATM    4  C   UNL     1      -9.459   5.867  70.715  1.00  0.00    -0.165 A  
HETATM    5  C   UNL     1      -7.786   4.117  69.306  1.00  0.00    -0.057 A  
HETATM    6  C   UNL     1      -9.945   4.640  70.258  1.00  0.00    -0.309 A  
HETATM    7  C   UNL     1      -9.640   2.445  69.048  1.00  0.00    -0.049 C  
HETATM    8  C   UNL     1      -9.116   3.759  69.550  1.00  0.00    -0.200 A  
ENDROOT
BRANCH   4   9
HETATM    9  O   UNL     1     -10.192   6.794  71.417  1.00  0.00    -0.197 OA 
BRANCH   9  10
HETATM   10  C   UNL     1     -11.554   6.439  71.667  1.00  0.00    -0.310 C  
BRANCH  10  11
HETATM   11  C   UNL     1     -12.487   7.539  71.176  1.00  0.00    -0.275 C  
HETATM   12  C   UNL     1     -13.924   7.419  71.633  1.00  0.00    -0.403 C  
HETATM   13  N   UNL     1     -14.308   8.792  71.685  1.00  0.00    -0.353 NA 
HETATM   14  C   UNL     1     -13.199   9.572  71.874  1.00  0.00    -0.439 C  
HETATM   15  O   UNL     1     -13.211  10.747  72.188  1.00  0.00    -0.473 OA 
HETATM   16  O   UNL     1     -12.073   8.821  71.691  1.00  0.00    -0.298 OA 
ENDBRANCH  10  11
ENDBRANCH   9  10
ENDBRANCH   4   9
TORSDOF 3
ENDMDL
MODEL      202
REMARK 921   NORMALIZED FREE ENERGY PREDICTED BY IDOCK:   -3.16 KCAL/MOL
REMARK 922        TOTAL FREE ENERGY PREDICTED BY IDOCK:   -3.94 KCAL/MOL
REMARK 923 INTER-LIGAND FREE ENERGY PREDICTED BY IDOCK:   -3.61 KCAL/MOL
REMARK 924 INTRA-LIGAND FREE ENERGY PREDICTED BY IDOCK:   -0.33 KCAL/MOL
REMARK 927      BINDING AFFINITY PREDICTED BY RF-SCORE:    0.00 PKD
ROOT
HETATM    1  C   UNL     1     -10.764  19.753  67.267  1.00  0.00    -0.532 C  
HETATM    2  C   UNL     1      -9.438  19.134  67.599  1.00  0.00    -0.363 A  
HETATM    3  C   UNL     1      -9.183  17.777  67.353  1.00  0.00    -0.248 A  
HETATM    4  C   UNL     1      -7.930  17.222  67.636  1.00  0.00    -0.187 A  
HETATM    5  C   UNL     1      -8.428  19.928  68.156  1.00  0.00    -0.285 A  
HETATM    6  C   UNL     1      -6.942  18.024  68.211  1.00  0.00    -0.228 A  
HETATM    7  C   UNL     1      -6.117  20.247  69.080  1.00  0.00    -0.370 C  
HETATM    8  C   UNL     1      -7.182  19.381  68.473  1.00  0.00    -0.356 A  
ENDROOT
BRANCH   4   9
HETATM    9  O   UNL     1      -7.791  15.886  67.344  1.00  0.00    -0.141 OA 
BRANCH   9  10
HETATM   10  C   UNL     1      -8.910  15.063  67.684  1.00  0.00    -0.179 C  
BRANCH  10  11
HETATM   11  C   UNL     1      -8.446  13.825  68.440  1.00  0.00    -0.154 C  
HETATM   12  C   UNL     1      -7.910  12.704  67.576  1.00  0.00    -0.175 C  
HETATM   13  N   UNL     1      -6.959  12.112  68.459  1.00  0.00    -0.084 NA 
HETATM   14  C   UNL     1      -6.534  13.043  69.369  1.00  0.00    -0.094 C  
HETATM   15  O   UNL     1      -5.570  12.924  70.100  1.00  0.00    -0.110 OA 
HETATM   16  O   UNL     1      -7.338  14.146  69.305  1.00  0.00    -0.101 OA 
ENDBRANCH  10  11
ENDBRANCH   9  10
ENDBRANCH   4   9
TORSDOF 3
ENDMDL
MODEL      203
REMARK 921   NORMALIZED FREE ENERGY PREDICTED BY IDOCK:   -3.09 KCAL/MOL
REMARK 922        TOTAL FREE ENERGY PREDICTED BY IDOCK:   -3.86 KCAL/MOL
REMARK 923 INTER-LIGAND FREE ENERGY PREDICTED BY IDOCK:   -3.58 KCAL/MOL
REMARK 924 INTRA-LIGAND FREE ENERGY PREDICTED BY IDOCK:   -0.28 KCAL/MOL
REMARK 927      BINDING AFFINITY PREDICTED BY RF-SCORE:    0.00 PKD
ROOT
HETATM    1  C   UNL     1     -11.079   6.595  67.084  1.00  0.00    -0.427 C  
HETATM    2  C   UNL     1     -10.116   7.555  67.717  1.00  0.00    -0.235 A  
HETATM    3  C   UNL     1     -10.509   8.853  68.078  1.00  0.00    -0.263 A  
HETATM    4  C   UNL     1      -9.609   9.726  68.700  1.00  0.00    -0.151 A  
HETATM    5  C   UNL     1      -8.800   7.147  67.964  1.00  0.00    -0.129 A  
HETATM    6  C   UNL     1      -8.294   9.309  68.919  1.00  0.00    -0.120 A  
HETATM    7  C   UNL     1      -6.471   7.566  68.802  1.00  0.00    -0.048 C  
HETATM    8  C   UNL     1      -7.881   8.019  68.556  1.00  0.00    -0.115 A  
ENDROOT
BRANCH   4   9
HETATM    9  O   UNL     1     -10.107  10.967  69.017  1.00  0.00    -0.200 OA 
BRANCH   9  10
HETATM   10  C   UNL     1     -10.986  11.543  68.048  1.00  0.00    -0.231 C  
BRANCH  10  11
HETATM   11  C   UNL     1     -11.567  12.851  68.570  1.00  0.00    -0.323 C  
HETATM   12  C   UNL     1     -12.002  12.831  70.020  1.00  0.00    -0.301 C  
HETATM   13  N   UNL     1     -11.779  14.191  70.389  1.00  0.00    -0.272 NA 
HETATM   14  C   UNL     1     -10.818  14.735  69.580  1.00  0.00    -0.250 C  
HETATM   15  O   UNL     1     -10.243  15.788  69.780  1.00  0.00    -0.271 OA 
HETATM   16  O   UNL     1     -10.575  13.897  68.529  1.00  0.00    -0.241 OA 
ENDBRANCH  10  11
ENDBRANCH   9  10
ENDBRANCH   4   9
TORSDOF 3
ENDMDL
MODEL      204
REMARK 921   NORMALIZED FREE ENERGY PREDICTED BY IDOCK:   -3.07 KCAL/MOL
REMARK 922        TOTAL FREE ENERGY PREDICTED BY IDOCK:   -3.84 KCAL/MOL
REMARK 923 INTER-LIGAND FREE ENERGY PREDICTED BY IDOCK:   -3.56 KCAL/MOL
REMARK 924 INTRA-LIGAND FREE ENERGY PREDICTED BY IDOCK:   -0.29 KCAL/MOL
REMARK 927      BINDING AFFINITY PREDICTED BY RF-SCORE:    0.00 PKD
ROOT
HETATM    1  C   UNL     1     -12.135  15.359  64.094  1.00  0.00    -0.104 C  
HETATM    2  C   UNL     1     -11.325  14.741  65.196  1.00  0.00    -0.379 A  
HETATM    3  C   UNL     1     -10.786  15.518  66.232  1.00  0.00    -0.307 A  
HETATM    4  C   UNL     1     -10.062  14.923  67.271  1.00  0.00    -0.235 A  
HETATM    5  C   UNL     1     -11.111  13.357  65.199  1.00  0.00    -0.315 A  
HETATM    6  C   UNL     1      -9.840  13.544  67.245  1.00  0.00    -0.237 A  
HETATM    7  C   UNL     1     -10.136  11.268  66.192  1.00  0.00    -0.279 C  
HETATM    8  C   UNL     1     -10.364  12.752  66.213  1.00  0.00    -0.271 A  
ENDROOT
BRANCH   4   9
HETATM    9  O   UNL     1      -9.590  15.780  68.235  1.00  0.00    -0.198 OA 
BRANCH   9  10
HETATM   10  C   UNL     1      -8.583  15.243  69.096  1.00  0.00    -0.235 C  
BRANCH  10  11
HETATM   11  C   UNL     1      -7.282  16.019  68.938  1.00  0.00    -0.168 C  
HETATM   12  C   UNL     1      -6.019  15.202  69.102  1.00  0.00    -0.099 C  
HETATM   13  N   UNL     1      -5.127  15.904  68.237  1.00  0.00    -0.100 NA 
HETATM   14  C   UNL     1      -5.844  16.563  67.275  1.00  0.00    -0.157 C  
HETATM   15  O   UNL     1      -5.379  17.056  66.265  1.00  0.00    -0.346 OA 
HETATM   16  O   UNL     1      -7.170  16.551  67.602  1.00  0.00    -0.125 OA 
ENDBRANCH  10  11
ENDBRANCH   9  10
ENDBRANCH   4   9
TORSDOF 3
ENDMDL
MODEL      205
REMARK 921   NORMALIZED FREE ENERGY PREDICTED BY IDOCK:   -3.04 KCAL/MOL
REMARK 922        TOTAL FREE ENERGY PREDICTED BY IDOCK:   -3.80 KCAL/MOL
REMARK 923 INTER-LIGAND FREE ENERGY PREDICTED BY IDOCK:   -3.59 KCAL/MOL
REMARK 924 INTRA-LIGAND FREE ENERGY PREDICTED BY IDOCK:   -0.21 KCAL/MOL
REMARK 927      BINDING AFFINITY PREDICTED BY RF-SCORE:    0.00 PKD
ROOT
HETATM    1  C   UNL     1     -11.278   8.533  71.690  1.00  0.00    -0.361 C  
HETATM    2  C   UNL     1     -10.791   7.897  70.421  1.00  0.00    -0.244 A  
HETATM    3  C   UNL     1     -10.948   8.532  69.180  1.00  0.00     0.054 A  
HETATM    4  C   UNL     1     -10.458   7.942  68.009  1.00  0.00    -0.185 A  
HETATM    5  C   UNL     1     -10.158   6.650  70.475  1.00  0.00    -0.209 A  
HETATM    6  C   UNL     1      -9.848   6.688  68.079  1.00  0.00    -0.140 A  
HETATM    7  C   UNL     1      -9.025   4.691  69.389  1.00  0.00    -0.140 C  
HETATM    8  C   UNL     1      -9.691   6.034  69.310  1.00  0.00    -0.174 A  
ENDROOT
BRANCH   4   9
HETATM    9  O   UNL     1     -10.659   8.659  66.853  1.00  0.00    -0.287 OA 
BRANCH   9  10
HETATM   10  C   UNL     1     -10.145   9.993  66.860  1.00  0.00    -0.229 C  
BRANCH  10  11
HETATM   11  C   UNL     1     -10.583  10.736  65.605  1.00  0.00    -0.129 C  
HETATM   12  C   UNL     1     -10.304  12.223  65.603  1.00  0.00    -0.257 C  
HETATM   13  N   UNL     1     -10.111  12.462  64.210  1.00  0.00    -0.303 NA 
HETATM   14  C   UNL     1      -9.702  11.307  63.598  1.00  0.00    -0.321 C  
HETATM   15  O   UNL     1      -9.238  11.231  62.477  1.00  0.00    -0.338 OA 
HETATM   16  O   UNL     1      -9.861  10.254  64.453  1.00  0.00    -0.327 OA 
ENDBRANCH  10  11
ENDBRANCH   9  10
ENDBRANCH   4   9
TORSDOF 3
ENDMDL
MODEL      206
REMARK 921   NORMALIZED FREE ENERGY PREDICTED BY IDOCK:   -3.03 KCAL/MOL
REMARK 922        TOTAL FREE ENERGY PREDICTED BY IDOCK:   -3.79 KCAL/MOL
REMARK 923 INTER-LIGAND FREE ENERGY PREDICTED BY IDOCK:   -3.59 KCAL/MOL
REMARK 924 INTRA-LIGAND FREE ENERGY PREDICTED BY IDOCK:   -0.20 KCAL/MOL
REMARK 927      BINDING AFFINITY PREDICTED BY RF-SCORE:    0.00 PKD
ROOT
HETATM    1  C   UNL     1      -9.877   4.210  65.045  1.00  0.00    -0.207 C  
HETATM    2  C   UNL     1      -9.748   4.863  66.390  1.00  0.00    -0.200 A  
HETATM    3  C   UNL     1      -9.671   6.258  66.520  1.00  0.00    -0.180 A  
HETATM    4  C   UNL     1      -9.586   6.855  67.783  1.00  0.00    -0.122 A  
HETATM    5  C   UNL     1      -9.715   4.067  67.541  1.00  0.00    -0.177 A  
HETATM    6  C   UNL     1      -9.532   6.044  68.919  1.00  0.00    -0.140 A  
HETATM    7  C   UNL     1      -9.554   3.775  70.029  1.00  0.00    -0.259 C  
HETATM    8  C   UNL     1      -9.599   4.648  68.808  1.00  0.00    -0.229 A  
ENDROOT
BRANCH   4   9
HETATM    9  O   UNL     1      -9.526   8.227  67.789  1.00  0.00    -0.145 OA 
BRANCH   9  10
HETATM   10  C   UNL     1     -10.594   8.893  67.110  1.00  0.00    -0.231 C  
BRANCH  10  11
HETATM   11  C   UNL     1     -10.328  10.391  67.045  1.00  0.00    -0.240 C  
HETATM   12  C   UNL     1     -10.380  10.997  65.660  1.00  0.00    -0.251 C  
HETATM   13  N   UNL     1     -10.828  12.318  65.958  1.00  0.00    -0.265 NA 
HETATM   14  C   UNL     1     -11.523  12.313  67.138  1.00  0.00    -0.352 C  
HETATM   15  O   UNL     1     -12.221  13.221  67.547  1.00  0.00    -0.304 OA 
HETATM   16  O   UNL     1     -11.342  11.116  67.771  1.00  0.00    -0.287 OA 
ENDBRANCH  10  11
ENDBRANCH   9  10
ENDBRANCH   4   9
TORSDOF 3
ENDMDL
MODEL      207
REMARK 921   NORMALIZED FREE ENERGY PREDICTED BY IDOCK:   -3.01 KCAL/MOL
REMARK 922        TOTAL FREE ENERGY PREDICTED BY IDOCK:   -3.77 KCAL/MOL
REMARK 923 INTER-LIGAND FREE ENERGY PREDICTED BY IDOCK:   -3.34 KCAL/MOL
REMARK 924 INTRA-LIGAND FREE ENERGY PREDICTED BY IDOCK:   -0.43 KCAL/MOL
REMARK 927      BINDING AFFINITY PREDICTED BY RF-SCORE:    0.00 PKD
ROOT
HETATM    1  C   UNL     1      -9.369   4.039  70.529  1.00  0.00    -0.220 C  
HETATM    2  C   UNL     1      -9.740   4.636  69.203  1.00  0.00    -0.255 A  
HETATM    3  C   UNL     1     -10.282   5.927  69.109  1.00  0.00    -0.275 A  
HETATM    4  C   UNL     1     -10.591   6.484  67.863  1.00  0.00    -0.252 A  
HETATM    5  C   UNL     1      -9.532   3.896  68.033  1.00  0.00    -0.221 A  
HETATM    6  C   UNL     1     -10.397   5.722  66.708  1.00  0.00    -0.312 A  
HETATM    7  C   UNL     1      -9.645   3.612  65.542  1.00  0.00    -0.149 C  
HETATM    8  C   UNL     1      -9.865   4.427  66.783  1.00  0.00    -0.241 A  
ENDROOT
BRANCH   4   9
HETATM    9  O   UNL     1     -11.106   7.757  67.891  1.00  0.00     0.045 OA 
BRANCH   9  10
HETATM   10  C   UNL     1     -10.171   8.805  67.622  1.00  0.00    -0.239 C  
BRANCH  10  11
HETATM   11  C   UNL     1      -9.932   9.637  68.876  1.00  0.00    -0.178 C  
HETATM   12  C   UNL     1     -11.085   9.676  69.854  1.00  0.00    -0.235 C  
HETATM   13  N   UNL     1     -10.388   9.828  71.090  1.00  0.00    -0.158 NA 
HETATM   14  C   UNL     1      -9.121   9.325  70.967  1.00  0.00    -0.183 C  
HETATM   15  O   UNL     1      -8.362   9.096  71.890  1.00  0.00    -0.333 OA 
HETATM   16  O   UNL     1      -8.849   9.083  69.651  1.00  0.00    -0.135 OA 
ENDBRANCH  10  11
ENDBRANCH   9  10
ENDBRANCH   4   9
TORSDOF 3
ENDMDL
MODEL      208
REMARK 921   NORMALIZED FREE ENERGY PREDICTED BY IDOCK:   -3.00 KCAL/MOL
REMARK 922        TOTAL FREE ENERGY PREDICTED BY IDOCK:   -3.76 KCAL/MOL
REMARK 923 INTER-LIGAND FREE ENERGY PREDICTED BY IDOCK:   -3.40 KCAL/MOL
REMARK 924 INTRA-LIGAND FREE ENERGY PREDICTED BY IDOCK:   -0.36 KCAL/MOL
REMARK 927      BINDING AFFINITY PREDICTED BY RF-SCORE:    0.00 PKD
ROOT
HETATM    1  C   UNL     1      -7.667   6.604  70.467  1.00  0.00    -0.104 C  
HETATM    2  C   UNL     1      -8.327   6.986  69.174  1.00  0.00    -0.125 A  
HETATM    3  C   UNL     1      -8.158   8.262  68.617  1.00  0.00    -0.120 A  
HETATM    4  C   UNL     1      -8.752   8.593  67.394  1.00  0.00    -0.134 A  
HETATM    5  C   UNL     1      -9.120   6.047  68.503  1.00  0.00    -0.112 A  
HETATM    6  C   UNL     1      -9.557   7.651  66.749  1.00  0.00    -0.269 A  
HETATM    7  C   UNL     1     -10.600   5.356  66.597  1.00  0.00    -0.359 C  
HETATM    8  C   UNL     1      -9.745   6.373  67.295  1.00  0.00    -0.155 A  
ENDROOT
BRANCH   4   9
HETATM    9  O   UNL     1      -8.509   9.867  66.940  1.00  0.00    -0.124 OA 
BRANCH   9  10
HETATM   10  C   UNL     1      -8.387  10.868  67.954  1.00  0.00    -0.119 C  
BRANCH  10  11
HETATM   11  C   UNL     1      -9.721  11.570  68.168  1.00  0.00    -0.192 C  
HETATM   12  C   UNL     1     -10.633  11.609  66.961  1.00  0.00    -0.237 C  
HETATM   13  N   UNL     1     -11.914  11.605  67.588  1.00  0.00    -0.625 NA 
HETATM   14  C   UNL     1     -11.819  11.025  68.824  1.00  0.00    -0.282 C  
HETATM   15  O   UNL     1     -12.760  10.665  69.507  1.00  0.00    -0.229 OA 
HETATM   16  O   UNL     1     -10.504  10.877  69.162  1.00  0.00    -0.212 OA 
ENDBRANCH  10  11
ENDBRANCH   9  10
ENDBRANCH   4   9
TORSDOF 3
ENDMDL
MODEL      209
REMARK 921   NORMALIZED FREE ENERGY PREDICTED BY IDOCK:   -3.00 KCAL/MOL
REMARK 922        TOTAL FREE ENERGY PREDICTED BY IDOCK:   -3.76 KCAL/MOL
REMARK 923 INTER-LIGAND FREE ENERGY PREDICTED BY IDOCK:   -3.48 KCAL/MOL
REMARK 924 INTRA-LIGAND FREE ENERGY PREDICTED BY IDOCK:   -0.27 KCAL/MOL
REMARK 927      BINDING AFFINITY PREDICTED BY RF-SCORE:    0.00 PKD
ROOT
HETATM    1  C   UNL     1     -10.360   3.008  63.759  1.00  0.00    -0.199 C  
HETATM    2  C   UNL     1      -9.879   4.066  64.708  1.00  0.00    -0.201 A  
HETATM    3  C   UNL     1     -10.749   4.675  65.625  1.00  0.00    -0.193 A  
HETATM    4  C   UNL     1     -10.279   5.635  66.528  1.00  0.00    -0.211 A  
HETATM    5  C   UNL     1      -8.532   4.446  64.690  1.00  0.00    -0.125 A  
HETATM    6  C   UNL     1      -8.936   6.018  66.480  1.00  0.00    -0.137 A  
HETATM    7  C   UNL     1      -6.608   5.828  65.520  1.00  0.00    -0.044 C  
HETATM    8  C   UNL     1      -8.054   5.427  65.565  1.00  0.00    -0.118 A  
ENDROOT
BRANCH   4   9
HETATM    9  O   UNL     1     -11.218   6.156  67.385  1.00  0.00    -0.288 OA 
BRANCH   9  10
HETATM   10  C   UNL     1     -10.698   6.933  68.468  1.00  0.00    -0.207 C  
BRANCH  10  11
HETATM   11  C   UNL     1     -11.186   6.378  69.800  1.00  0.00    -0.419 C  
HETATM   12  C   UNL     1     -10.259   5.382  70.463  1.00  0.00    -0.256 C  
HETATM   13  N   UNL     1     -10.546   5.620  71.840  1.00  0.00    -0.225 NA 
HETATM   14  C   UNL     1     -11.016   6.896  71.998  1.00  0.00    -0.235 C  
HETATM   15  O   UNL     1     -11.131   7.477  73.060  1.00  0.00    -0.360 OA 
HETATM   16  O   UNL     1     -11.304   7.433  70.775  1.00  0.00    -0.269 OA 
ENDBRANCH  10  11
ENDBRANCH   9  10
ENDBRANCH   4   9
TORSDOF 3
ENDMDL
MODEL      210
REMARK 921   NORMALIZED FREE ENERGY PREDICTED BY IDOCK:   -2.99 KCAL/MOL
REMARK 922        TOTAL FREE ENERGY PREDICTED BY IDOCK:   -3.75 KCAL/MOL
REMARK 923 INTER-LIGAND FREE ENERGY PREDICTED BY IDOCK:   -3.40 KCAL/MOL
REMARK 924 INTRA-LIGAND FREE ENERGY PREDICTED BY IDOCK:   -0.35 KCAL/MOL
REMARK 927      BINDING AFFINITY PREDICTED BY RF-SCORE:    0.00 PKD
ROOT
HETATM    1  C   UNL     1      -6.397   6.462  68.435  1.00  0.00    -0.041 C  
HETATM    2  C   UNL     1      -7.897   6.426  68.458  1.00  0.00    -0.105 A  
HETATM    3  C   UNL     1      -8.627   7.048  69.482  1.00  0.00    -0.134 A  
HETATM    4  C   UNL     1     -10.027   7.035  69.472  1.00  0.00    -0.162 A  
HETATM    5  C   UNL     1      -8.586   5.769  67.431  1.00  0.00    -0.105 A  
HETATM    6  C   UNL     1     -10.696   6.356  68.452  1.00  0.00    -0.349 A  
HETATM    7  C   UNL     1     -10.702   5.001  66.321  1.00  0.00    -0.262 C  
HETATM    8  C   UNL     1      -9.983   5.721  67.425  1.00  0.00    -0.172 A  
ENDROOT
BRANCH   4   9
HETATM    9  O   UNL     1     -10.635   7.684  70.520  1.00  0.00    -0.218 OA 
BRANCH   9  10
HETATM   10  C   UNL     1     -10.229   9.041  70.721  1.00  0.00    -0.244 C  
BRANCH  10  11
HETATM   11  C   UNL     1     -10.950   9.960  69.744  1.00  0.00    -0.268 C  
HETATM   12  C   UNL     1     -11.816  11.026  70.378  1.00  0.00    -0.367 C  
HETATM   13  N   UNL     1     -11.725  12.065  69.404  1.00  0.00    -0.320 NA 
HETATM   14  C   UNL     1     -10.562  11.930  68.695  1.00  0.00    -0.234 C  
HETATM   15  O   UNL     1     -10.083  12.773  67.961  1.00  0.00    -0.217 OA 
HETATM   16  O   UNL     1      -9.999  10.715  68.965  1.00  0.00    -0.198 OA 
ENDBRANCH  10  11
ENDBRANCH   9  10
ENDBRANCH   4   9
TORSDOF 3
ENDMDL
MODEL      211
REMARK 921   NORMALIZED FREE ENERGY PREDICTED BY IDOCK:   -2.98 KCAL/MOL
REMARK 922        TOTAL FREE ENERGY PREDICTED BY IDOCK:   -3.73 KCAL/MOL
REMARK 923 INTER-LIGAND FREE ENERGY PREDICTED BY IDOCK:   -3.72 KCAL/MOL
REMARK 924 INTRA-LIGAND FREE ENERGY PREDICTED BY IDOCK:   -0.01 KCAL/MOL
REMARK 927      BINDING AFFINITY PREDICTED BY RF-SCORE:    0.00 PKD
ROOT
HETATM    1  C   UNL     1      -5.769  18.765  70.434  1.00  0.00    -0.202 C  
HETATM    2  C   UNL     1      -6.411  17.569  69.796  1.00  0.00    -0.064 A  
HETATM    3  C   UNL     1      -7.473  17.706  68.889  1.00  0.00    -0.227 A  
HETATM    4  C   UNL     1      -8.040  16.584  68.276  1.00  0.00    -0.179 A  
HETATM    5  C   UNL     1      -5.936  16.288  70.101  1.00  0.00    -0.126 A  
HETATM    6  C   UNL     1      -7.567  15.312  68.609  1.00  0.00    -0.129 A  
HETATM    7  C   UNL     1      -5.996  13.789  69.869  1.00  0.00    -0.132 C  
HETATM    8  C   UNL     1      -6.513  15.154  69.519  1.00  0.00    -0.151 A  
ENDROOT
BRANCH   4   9
HETATM    9  O   UNL     1      -9.066  16.839  67.399  1.00  0.00    -0.213 OA 
BRANCH   9  10
HETATM   10  C   UNL     1     -10.313  16.214  67.712  1.00  0.00    -0.283 C  
BRANCH  10  11
HETATM   11  C   UNL     1     -10.401  14.846  67.048  1.00  0.00    -0.264 C  
HETATM   12  C   UNL     1     -11.449  13.916  67.620  1.00  0.00    -0.324 C  
HETATM   13  N   UNL     1     -11.794  13.153  66.465  1.00  0.00    -0.385 NA 
HETATM   14  C   UNL     1     -11.526  13.880  65.336  1.00  0.00    -0.312 C  
HETATM   15  O   UNL     1     -11.916  13.610  64.216  1.00  0.00    -0.410 OA 
HETATM   16  O   UNL     1     -10.785  14.979  65.664  1.00  0.00    -0.315 OA 
ENDBRANCH  10  11
ENDBRANCH   9  10
ENDBRANCH   4   9
TORSDOF 3
ENDMDL
MODEL      212
REMARK 921   NORMALIZED FREE ENERGY PREDICTED BY IDOCK:   -2.96 KCAL/MOL
REMARK 922        TOTAL FREE ENERGY PREDICTED BY IDOCK:   -3.71 KCAL/MOL
REMARK 923 INTER-LIGAND FREE ENERGY PREDICTED BY IDOCK:   -3.60 KCAL/MOL
REMARK 924 INTRA-LIGAND FREE ENERGY PREDICTED BY IDOCK:   -0.11 KCAL/MOL
REMARK 927      BINDING AFFINITY PREDICTED BY RF-SCORE:    0.00 PKD
ROOT
HETATM    1  C   UNL     1      -9.950   8.978  71.314  1.00  0.00    -0.381 C  
HETATM    2  C   UNL     1     -10.182   8.740  69.851  1.00  0.00    -0.206 A  
HETATM    3  C   UNL     1     -10.275   9.805  68.943  1.00  0.00    -0.213 A  
HETATM    4  C   UNL     1     -10.457   9.567  67.577  1.00  0.00    -0.275 A  
HETATM    5  C   UNL     1     -10.296   7.427  69.377  1.00  0.00    -0.211 A  
HETATM    6  C   UNL     1     -10.591   8.252  67.125  1.00  0.00    -0.340 A  
HETATM    7  C   UNL     1     -10.640   5.760  67.532  1.00  0.00    -0.327 C  
HETATM    8  C   UNL     1     -10.509   7.175  68.018  1.00  0.00    -0.251 A  
ENDROOT
BRANCH   4   9
HETATM    9  O   UNL     1     -10.525  10.686  66.781  1.00  0.00    -0.235 OA 
BRANCH   9  10
HETATM   10  C   UNL     1      -9.284  11.109  66.209  1.00  0.00    -0.195 C  
BRANCH  10  11
HETATM   11  C   UNL     1      -8.937  10.248  65.001  1.00  0.00    -0.196 C  
HETATM   12  C   UNL     1      -9.290  10.848  63.658  1.00  0.00    -0.262 C  
HETATM   13  N   UNL     1      -8.278  10.278  62.831  1.00  0.00    -0.152 NA 
HETATM   14  C   UNL     1      -7.187   9.959  63.594  1.00  0.00    -0.124 C  
HETATM   15  O   UNL     1      -6.085   9.674  63.162  1.00  0.00    -0.098 OA 
HETATM   16  O   UNL     1      -7.512  10.045  64.917  1.00  0.00    -0.131 OA 
ENDBRANCH  10  11
ENDBRANCH   9  10
ENDBRANCH   4   9
TORSDOF 3
ENDMDL
MODEL      213
REMARK 921   NORMALIZED FREE ENERGY PREDICTED BY IDOCK:   -2.93 KCAL/MOL
REMARK 922        TOTAL FREE ENERGY PREDICTED BY IDOCK:   -3.68 KCAL/MOL
REMARK 923 INTER-LIGAND FREE ENERGY PREDICTED BY IDOCK:   -3.44 KCAL/MOL
REMARK 924 INTRA-LIGAND FREE ENERGY PREDICTED BY IDOCK:   -0.24 KCAL/MOL
REMARK 927      BINDING AFFINITY PREDICTED BY RF-SCORE:    0.00 PKD
ROOT
HETATM    1  C   UNL     1      -9.069   9.486  68.272  1.00  0.00    -0.127 C  
HETATM    2  C   UNL     1      -9.742  10.399  67.290  1.00  0.00    -0.195 A  
HETATM    3  C   UNL     1     -10.735  11.304  67.694  1.00  0.00    -0.270 A  
HETATM    4  C   UNL     1     -11.329  12.174  66.773  1.00  0.00    -0.342 A  
HETATM    5  C   UNL     1      -9.365  10.358  65.942  1.00  0.00    -0.224 A  
HETATM    6  C   UNL     1     -10.956  12.103  65.429  1.00  0.00    -0.346 A  
HETATM    7  C   UNL     1      -9.560  11.131  63.562  1.00  0.00    -0.341 C  
HETATM    8  C   UNL     1      -9.971  11.199  65.004  1.00  0.00    -0.325 A  
ENDROOT
BRANCH   4   9
HETATM    9  O   UNL     1     -12.282  13.022  67.284  1.00  0.00    -0.301 OA 
BRANCH   9  10
HETATM   10  C   UNL     1     -11.781  14.224  67.875  1.00  0.00    -0.359 C  
BRANCH  10  11
HETATM   11  C   UNL     1     -12.115  14.263  69.360  1.00  0.00    -0.318 C  
HETATM   12  C   UNL     1     -11.007  13.806  70.284  1.00  0.00     0.575 C  
HETATM   13  N   UNL     1     -11.277  14.594  71.442  1.00  0.00     0.038 NA 
HETATM   14  C   UNL     1     -11.952  15.728  71.080  1.00  0.00    -0.419 C  
HETATM   15  O   UNL     1     -12.124  16.702  71.788  1.00  0.00    -0.156 OA 
HETATM   16  O   UNL     1     -12.374  15.617  69.785  1.00  0.00    -0.333 OA 
ENDBRANCH  10  11
ENDBRANCH   9  10
ENDBRANCH   4   9
TORSDOF 3
ENDMDL
MODEL      214
REMARK 921   NORMALIZED FREE ENERGY PREDICTED BY IDOCK:   -2.93 KCAL/MOL
REMARK 922        TOTAL FREE ENERGY PREDICTED BY IDOCK:   -3.68 KCAL/MOL
REMARK 923 INTER-LIGAND FREE ENERGY PREDICTED BY IDOCK:   -3.31 KCAL/MOL
REMARK 924 INTRA-LIGAND FREE ENERGY PREDICTED BY IDOCK:   -0.37 KCAL/MOL
REMARK 927      BINDING AFFINITY PREDICTED BY RF-SCORE:    0.00 PKD
ROOT
HETATM    1  C   UNL     1     -10.466   9.085  67.888  1.00  0.00    -0.291 C  
HETATM    2  C   UNL     1     -10.951  10.472  68.194  1.00  0.00    -0.330 A  
HETATM    3  C   UNL     1     -11.332  10.843  69.493  1.00  0.00    -0.351 A  
HETATM    4  C   UNL     1     -11.749  12.149  69.771  1.00  0.00    -0.310 A  
HETATM    5  C   UNL     1     -11.016  11.421  67.167  1.00  0.00    -0.340 A  
HETATM    6  C   UNL     1     -11.828  13.077  68.729  1.00  0.00    -0.355 A  
HETATM    7  C   UNL     1     -11.533  13.721  66.305  1.00  0.00    -0.349 C  
HETATM    8  C   UNL     1     -11.461  12.722  67.423  1.00  0.00    -0.396 A  
ENDROOT
BRANCH   4   9
HETATM    9  O   UNL     1     -12.087  12.400  71.078  1.00  0.00    -0.222 OA 
BRANCH   9  10
HETATM   10  C   UNL     1     -13.348  13.045  71.275  1.00  0.00    -0.006 C  
BRANCH  10  11
HETATM   11  C   UNL     1     -13.196  14.231  72.218  1.00  0.00    -0.417 C  
HETATM   12  C   UNL     1     -12.050  14.131  73.201  1.00  0.00     0.449 C  
HETATM   13  N   UNL     1     -11.715  15.508  73.368  1.00  0.00    -0.344 NA 
HETATM   14  C   UNL     1     -12.101  16.213  72.260  1.00  0.00    -0.531 C  
HETATM   15  O   UNL     1     -11.757  17.349  71.994  1.00  0.00     0.843 OA 
HETATM   16  O   UNL     1     -12.903  15.433  71.477  1.00  0.00    -0.362 OA 
ENDBRANCH  10  11
ENDBRANCH   9  10
ENDBRANCH   4   9
TORSDOF 3
ENDMDL
MODEL      215
REMARK 921   NORMALIZED FREE ENERGY PREDICTED BY IDOCK:   -2.90 KCAL/MOL
REMARK 922        TOTAL FREE ENERGY PREDICTED BY IDOCK:   -3.64 KCAL/MOL
REMARK 923 INTER-LIGAND FREE ENERGY PREDICTED BY IDOCK:   -3.43 KCAL/MOL
REMARK 924 INTRA-LIGAND FREE ENERGY PREDICTED BY IDOCK:   -0.21 KCAL/MOL
REMARK 927      BINDING AFFINITY PREDICTED BY RF-SCORE:    0.00 PKD
ROOT
HETATM    1  C   UNL     1      -9.242   6.707  66.706  1.00  0.00    -0.168 C  
HETATM    2  C   UNL     1      -8.661   7.739  65.784  1.00  0.00    -0.160 A  
HETATM    3  C   UNL     1      -9.290   8.977  65.585  1.00  0.00    -0.289 A  
HETATM    4  C   UNL     1      -8.719   9.943  64.750  1.00  0.00    -0.189 A  
HETATM    5  C   UNL     1      -7.461   7.468  65.117  1.00  0.00    -0.085 A  
HETATM    6  C   UNL     1      -7.533   9.647  64.075  1.00  0.00    -0.128 A  
HETATM    7  C   UNL     1      -5.613   8.097  63.539  1.00  0.00    -0.058 C  
HETATM    8  C   UNL     1      -6.894   8.412  64.254  1.00  0.00    -0.066 A  
ENDROOT
BRANCH   4   9
HETATM    9  O   UNL     1      -9.418  11.121  64.639  1.00  0.00    -0.220 OA 
BRANCH   9  10
HETATM   10  C   UNL     1     -10.673  11.030  63.960  1.00  0.00    -0.261 C  
BRANCH  10  11
HETATM   11  C   UNL     1     -11.801  11.505  64.867  1.00  0.00     0.187 C  
HETATM   12  C   UNL     1     -11.399  11.804  66.295  1.00  0.00    -0.287 C  
HETATM   13  N   UNL     1     -12.330  12.832  66.630  1.00  0.00    -0.400 NA 
HETATM   14  C   UNL     1     -12.740  13.470  65.490  1.00  0.00    -0.440 C  
HETATM   15  O   UNL     1     -13.344  14.525  65.452  1.00  0.00    -0.458 OA 
HETATM   16  O   UNL     1     -12.335  12.759  64.396  1.00  0.00    -0.409 OA 
ENDBRANCH  10  11
ENDBRANCH   9  10
ENDBRANCH   4   9
TORSDOF 3
ENDMDL
MODEL      216
REMARK 921   NORMALIZED FREE ENERGY PREDICTED BY IDOCK:   -2.90 KCAL/MOL
REMARK 922        TOTAL FREE ENERGY PREDICTED BY IDOCK:   -3.64 KCAL/MOL
REMARK 923 INTER-LIGAND FREE ENERGY PREDICTED BY IDOCK:   -3.43 KCAL/MOL
REMARK 924 INTRA-LIGAND FREE ENERGY PREDICTED BY IDOCK:   -0.21 KCAL/MOL
REMARK 927      BINDING AFFINITY PREDICTED BY RF-SCORE:    0.00 PKD
ROOT
HETATM    1  C   UNL     1     -10.509  10.574  69.336  1.00  0.00    -0.264 C  
HETATM    2  C   UNL     1     -10.323   9.206  69.925  1.00  0.00    -0.229 A  
HETATM    3  C   UNL     1      -9.851   8.135  69.152  1.00  0.00    -0.182 A  
HETATM    4  C   UNL     1      -9.650   6.874  69.723  1.00  0.00    -0.154 A  
HETATM    5  C   UNL     1     -10.616   8.994  71.278  1.00  0.00    -0.378 A  
HETATM    6  C   UNL     1      -9.968   6.675  71.069  1.00  0.00    -0.200 A  
HETATM    7  C   UNL     1     -10.781   7.522  73.305  1.00  0.00    -0.437 C  
HETATM    8  C   UNL     1     -10.450   7.731  71.855  1.00  0.00    -0.268 A  
ENDROOT
BRANCH   4   9
HETATM    9  O   UNL     1      -9.175   5.904  68.873  1.00  0.00    -0.119 OA 
BRANCH   9  10
HETATM   10  C   UNL     1     -10.172   5.178  68.150  1.00  0.00    -0.111 C  
BRANCH  10  11
HETATM   11  C   UNL     1      -9.777   5.054  66.684  1.00  0.00    -0.177 C  
HETATM   12  C   UNL     1      -8.792   3.948  66.372  1.00  0.00    -0.125 C  
HETATM   13  N   UNL     1      -9.178   3.609  65.041  1.00  0.00    -0.141 NA 
HETATM   14  C   UNL     1     -10.490   3.945  64.842  1.00  0.00    -0.112 C  
HETATM   15  O   UNL     1     -11.175   3.581  63.905  1.00  0.00    -0.286 OA 
HETATM   16  O   UNL     1     -10.926   4.722  65.877  1.00  0.00    -0.247 OA 
ENDBRANCH  10  11
ENDBRANCH   9  10
ENDBRANCH   4   9
TORSDOF 3
ENDMDL
MODEL      217
REMARK 921   NORMALIZED FREE ENERGY PREDICTED BY IDOCK:   -2.88 KCAL/MOL
REMARK 922        TOTAL FREE ENERGY PREDICTED BY IDOCK:   -3.61 KCAL/MOL
REMARK 923 INTER-LIGAND FREE ENERGY PREDICTED BY IDOCK:   -3.34 KCAL/MOL
REMARK 924 INTRA-LIGAND FREE ENERGY PREDICTED BY IDOCK:   -0.28 KCAL/MOL
REMARK 927      BINDING AFFINITY PREDICTED BY RF-SCORE:    0.00 PKD
ROOT
HETATM    1  C   UNL     1      -5.807  14.607  70.493  1.00  0.00    -0.168 C  
HETATM    2  C   UNL     1      -6.621  15.380  69.498  1.00  0.00    -0.166 A  
HETATM    3  C   UNL     1      -7.452  14.732  68.572  1.00  0.00    -0.117 A  
HETATM    4  C   UNL     1      -8.231  15.467  67.672  1.00  0.00    -0.154 A  
HETATM    5  C   UNL     1      -6.561  16.779  69.498  1.00  0.00    -0.207 A  
HETATM    6  C   UNL     1      -8.142  16.861  67.672  1.00  0.00    -0.193 A  
HETATM    7  C   UNL     1      -7.223  19.025  68.594  1.00  0.00    -0.351 C  
HETATM    8  C   UNL     1      -7.311  17.527  68.584  1.00  0.00    -0.256 A  
ENDROOT
BRANCH   4   9
HETATM    9  O   UNL     1      -9.014  14.727  66.819  1.00  0.00    -0.244 OA 
BRANCH   9  10
HETATM   10  C   UNL     1      -9.932  13.830  67.450  1.00  0.00    -0.237 C  
BRANCH  10  11
HETATM   11  C   UNL     1      -9.899  12.470  66.764  1.00  0.00    -0.229 C  
HETATM   12  C   UNL     1      -8.551  11.783  66.756  1.00  0.00    -0.185 C  
HETATM   13  N   UNL     1      -8.946  10.412  66.771  1.00  0.00    -0.139 NA 
HETATM   14  C   UNL     1     -10.189  10.297  67.332  1.00  0.00    -0.218 C  
HETATM   15  O   UNL     1     -10.703   9.256  67.697  1.00  0.00    -0.269 OA 
HETATM   16  O   UNL     1     -10.753  11.535  67.455  1.00  0.00    -0.203 OA 
ENDBRANCH  10  11
ENDBRANCH   9  10
ENDBRANCH   4   9
TORSDOF 3
ENDMDL
MODEL      218
REMARK 921   NORMALIZED FREE ENERGY PREDICTED BY IDOCK:   -2.87 KCAL/MOL
REMARK 922        TOTAL FREE ENERGY PREDICTED BY IDOCK:   -3.60 KCAL/MOL
REMARK 923 INTER-LIGAND FREE ENERGY PREDICTED BY IDOCK:   -3.29 KCAL/MOL
REMARK 924 INTRA-LIGAND FREE ENERGY PREDICTED BY IDOCK:   -0.32 KCAL/MOL
REMARK 927      BINDING AFFINITY PREDICTED BY RF-SCORE:    0.00 PKD
ROOT
HETATM    1  C   UNL     1     -12.575  13.748  65.925  1.00  0.00    -0.494 C  
HETATM    2  C   UNL     1     -11.147  13.724  66.384  1.00  0.00    -0.309 A  
HETATM    3  C   UNL     1     -10.598  12.591  67.004  1.00  0.00    -0.251 A  
HETATM    4  C   UNL     1      -9.254  12.571  67.396  1.00  0.00    -0.186 A  
HETATM    5  C   UNL     1     -10.339  14.849  66.180  1.00  0.00    -0.312 A  
HETATM    6  C   UNL     1      -8.470  13.711  67.204  1.00  0.00    -0.186 A  
HETATM    7  C   UNL     1      -8.158  16.076  66.376  1.00  0.00    -0.255 C  
HETATM    8  C   UNL     1      -9.004  14.855  66.594  1.00  0.00    -0.301 A  
ENDROOT
BRANCH   4   9
HETATM    9  O   UNL     1      -8.823  11.406  67.983  1.00  0.00    -0.143 OA 
BRANCH   9  10
HETATM   10  C   UNL     1      -7.810  10.694  67.268  1.00  0.00    -0.112 C  
BRANCH  10  11
HETATM   11  C   UNL     1      -8.408   9.478  66.573  1.00  0.00    -0.119 C  
HETATM   12  C   UNL     1      -7.433   8.359  66.277  1.00  0.00    -0.089 C  
HETATM   13  N   UNL     1      -8.292   7.223  66.355  1.00  0.00    -0.119 NA 
HETATM   14  C   UNL     1      -9.362   7.510  67.160  1.00  0.00    -0.142 C  
HETATM   15  O   UNL     1     -10.143   6.693  67.609  1.00  0.00    -0.136 OA 
HETATM   16  O   UNL     1      -9.398   8.851  67.413  1.00  0.00    -0.133 OA 
ENDBRANCH  10  11
ENDBRANCH   9  10
ENDBRANCH   4   9
TORSDOF 3
ENDMDL
MODEL      219
REMARK 921   NORMALIZED FREE ENERGY PREDICTED BY IDOCK:   -2.86 KCAL/MOL
REMARK 922        TOTAL FREE ENERGY PREDICTED BY IDOCK:   -3.60 KCAL/MOL
REMARK 923 INTER-LIGAND FREE ENERGY PREDICTED BY IDOCK:   -3.29 KCAL/MOL
REMARK 924 INTRA-LIGAND FREE ENERGY PREDICTED BY IDOCK:   -0.30 KCAL/MOL
REMARK 927      BINDING AFFINITY PREDICTED BY RF-SCORE:    0.00 PKD
ROOT
HETATM    1  C   UNL     1     -12.602  13.735  65.923  1.00  0.00    -0.494 C  
HETATM    2  C   UNL     1     -11.183  13.592  66.389  1.00  0.00    -0.322 A  
HETATM    3  C   UNL     1     -10.649  12.341  66.732  1.00  0.00    -0.251 A  
HETATM    4  C   UNL     1      -9.313  12.218  67.131  1.00  0.00    -0.196 A  
HETATM    5  C   UNL     1     -10.368  14.728  66.472  1.00  0.00    -0.287 A  
HETATM    6  C   UNL     1      -8.522  13.365  67.230  1.00  0.00    -0.205 A  
HETATM    7  C   UNL     1      -8.188  15.857  66.993  1.00  0.00    -0.255 C  
HETATM    8  C   UNL     1      -9.041  14.625  66.900  1.00  0.00    -0.272 A  
ENDROOT
BRANCH   4   9
HETATM    9  O   UNL     1      -8.897  10.944  67.433  1.00  0.00    -0.133 OA 
BRANCH   9  10
HETATM   10  C   UNL     1      -9.706  10.241  68.380  1.00  0.00    -0.156 C  
BRANCH  10  11
HETATM   11  C   UNL     1      -8.984  10.131  69.716  1.00  0.00    -0.132 C  
HETATM   12  C   UNL     1      -9.407   8.967  70.586  1.00  0.00    -0.234 C  
HETATM   13  N   UNL     1      -8.193   8.697  71.285  1.00  0.00    -0.142 NA 
HETATM   14  C   UNL     1      -7.128   9.132  70.544  1.00  0.00    -0.088 C  
HETATM   15  O   UNL     1      -5.963   8.847  70.750  1.00  0.00    -0.032 OA 
HETATM   16  O   UNL     1      -7.574   9.908  69.512  1.00  0.00    -0.096 OA 
ENDBRANCH  10  11
ENDBRANCH   9  10
ENDBRANCH   4   9
TORSDOF 3
ENDMDL
MODEL      220
REMARK 921   NORMALIZED FREE ENERGY PREDICTED BY IDOCK:   -2.76 KCAL/MOL
REMARK 922        TOTAL FREE ENERGY PREDICTED BY IDOCK:   -3.48 KCAL/MOL
REMARK 923 INTER-LIGAND FREE ENERGY PREDICTED BY IDOCK:   -3.27 KCAL/MOL
REMARK 924 INTRA-LIGAND FREE ENERGY PREDICTED BY IDOCK:   -0.21 KCAL/MOL
REMARK 927      BINDING AFFINITY PREDICTED BY RF-SCORE:    0.00 PKD
ROOT
HETATM    1  C   UNL     1      -8.745   4.373  66.536  1.00  0.00    -0.112 C  
HETATM    2  C   UNL     1      -8.851   5.851  66.305  1.00  0.00    -0.143 A  
HETATM    3  C   UNL     1      -9.838   6.621  66.939  1.00  0.00    -0.222 A  
HETATM    4  C   UNL     1      -9.903   8.005  66.741  1.00  0.00    -0.257 A  
HETATM    5  C   UNL     1      -7.940   6.481  65.449  1.00  0.00    -0.120 A  
HETATM    6  C   UNL     1      -8.999   8.612  65.866  1.00  0.00    -0.245 A  
HETATM    7  C   UNL     1      -7.032   8.512  64.285  1.00  0.00    -0.081 C  
HETATM    8  C   UNL     1      -8.012   7.858  65.217  1.00  0.00    -0.126 A  
ENDROOT
BRANCH   4   9
HETATM    9  O   UNL     1     -10.903   8.657  67.420  1.00  0.00    -0.211 OA 
BRANCH   9  10
HETATM   10  C   UNL     1     -10.505   9.301  68.633  1.00  0.00    -0.209 C  
BRANCH  10  11
HETATM   11  C   UNL     1     -11.513   9.019  69.739  1.00  0.00     0.159 C  
HETATM   12  C   UNL     1     -10.917   8.579  71.059  1.00  0.00    -0.249 C  
HETATM   13  N   UNL     1     -11.881   9.093  71.977  1.00  0.00    -0.360 NA 
HETATM   14  C   UNL     1     -12.533  10.156  71.411  1.00  0.00    -0.423 C  
HETATM   15  O   UNL     1     -13.239  10.947  72.008  1.00  0.00    -0.492 OA 
HETATM   16  O   UNL     1     -12.241  10.217  70.079  1.00  0.00    -0.174 OA 
ENDBRANCH  10  11
ENDBRANCH   9  10
ENDBRANCH   4   9
TORSDOF 3
ENDMDL
MODEL      221
REMARK 921   NORMALIZED FREE ENERGY PREDICTED BY IDOCK:   -2.76 KCAL/MOL
REMARK 922        TOTAL FREE ENERGY PREDICTED BY IDOCK:   -3.47 KCAL/MOL
REMARK 923 INTER-LIGAND FREE ENERGY PREDICTED BY IDOCK:   -3.14 KCAL/MOL
REMARK 924 INTRA-LIGAND FREE ENERGY PREDICTED BY IDOCK:   -0.33 KCAL/MOL
REMARK 927      BINDING AFFINITY PREDICTED BY RF-SCORE:    0.00 PKD
ROOT
HETATM    1  C   UNL     1      -5.812   5.696  69.551  1.00  0.00    -0.016 C  
HETATM    2  C   UNL     1      -7.093   5.068  69.087  1.00  0.00    -0.056 A  
HETATM    3  C   UNL     1      -8.318   5.369  69.702  1.00  0.00    -0.100 A  
HETATM    4  C   UNL     1      -9.510   4.802  69.236  1.00  0.00    -0.153 A  
HETATM    5  C   UNL     1      -7.071   4.172  68.012  1.00  0.00    -0.059 A  
HETATM    6  C   UNL     1      -9.466   3.893  68.177  1.00  0.00    -0.219 A  
HETATM    7  C   UNL     1      -8.202   2.606  66.409  1.00  0.00    -0.087 C  
HETATM    8  C   UNL     1      -8.249   3.573  67.556  1.00  0.00    -0.090 A  
ENDROOT
BRANCH   4   9
HETATM    9  O   UNL     1     -10.649   5.176  69.908  1.00  0.00    -0.280 OA 
BRANCH   9  10
HETATM   10  C   UNL     1     -11.172   6.462  69.562  1.00  0.00    -0.412 C  
BRANCH  10  11
HETATM   11  C   UNL     1     -11.236   7.356  70.793  1.00  0.00    -0.271 C  
HETATM   12  C   UNL     1     -11.573   6.649  72.088  1.00  0.00    -0.298 C  
HETATM   13  N   UNL     1     -10.874   7.461  73.030  1.00  0.00    -0.346 NA 
HETATM   14  C   UNL     1      -9.829   8.091  72.409  1.00  0.00    -0.247 C  
HETATM   15  O   UNL     1      -8.916   8.662  72.974  1.00  0.00    -0.326 OA 
HETATM   16  O   UNL     1      -9.947   7.948  71.056  1.00  0.00    -0.180 OA 
ENDBRANCH  10  11
ENDBRANCH   9  10
ENDBRANCH   4   9
TORSDOF 3
ENDMDL
MODEL      222
REMARK 921   NORMALIZED FREE ENERGY PREDICTED BY IDOCK:   -2.73 KCAL/MOL
REMARK 922        TOTAL FREE ENERGY PREDICTED BY IDOCK:   -3.44 KCAL/MOL
REMARK 923 INTER-LIGAND FREE ENERGY PREDICTED BY IDOCK:   -3.87 KCAL/MOL
REMARK 924 INTRA-LIGAND FREE ENERGY PREDICTED BY IDOCK:    0.44 KCAL/MOL
REMARK 927      BINDING AFFINITY PREDICTED BY RF-SCORE:    0.00 PKD
ROOT
HETATM    1  C   UNL     1     -12.805  13.036  64.434  1.00  0.00    -0.171 C  
HETATM    2  C   UNL     1     -11.632  13.690  65.103  1.00  0.00    -0.333 A  
HETATM    3  C   UNL     1     -10.582  12.931  65.643  1.00  0.00    -0.295 A  
HETATM    4  C   UNL     1      -9.478  13.556  66.233  1.00  0.00    -0.184 A  
HETATM    5  C   UNL     1     -11.576  15.087  65.182  1.00  0.00    -0.294 A  
HETATM    6  C   UNL     1      -9.449  14.950  66.322  1.00  0.00    -0.339 A  
HETATM    7  C   UNL     1     -10.458  17.223  65.881  1.00  0.00    -0.267 C  
HETATM    8  C   UNL     1     -10.494  15.724  65.796  1.00  0.00    -0.384 A  
ENDROOT
BRANCH   4   9
HETATM    9  O   UNL     1      -8.507  12.714  66.717  1.00  0.00    -0.154 OA 
BRANCH   9  10
HETATM   10  C   UNL     1      -8.596  11.356  66.279  1.00  0.00    -0.156 C  
BRANCH  10  11
HETATM   11  C   UNL     1      -9.281  10.502  67.338  1.00  0.00    -0.142 C  
HETATM   12  C   UNL     1      -8.966  10.874  68.771  1.00  0.00    -0.164 C  
HETATM   13  N   UNL     1     -10.178  10.496  69.422  1.00  0.00    -0.228 NA 
HETATM   14  C   UNL     1     -11.211  10.524  68.523  1.00  0.00    -0.274 C  
HETATM   15  O   UNL     1     -12.393  10.480  68.808  1.00  0.00    -0.238 OA 
HETATM   16  O   UNL     1     -10.713  10.647  67.257  1.00  0.00    -0.251 OA 
ENDBRANCH  10  11
ENDBRANCH   9  10
ENDBRANCH   4   9
TORSDOF 3
ENDMDL
MODEL      223
REMARK 921   NORMALIZED FREE ENERGY PREDICTED BY IDOCK:   -2.68 KCAL/MOL
REMARK 922        TOTAL FREE ENERGY PREDICTED BY IDOCK:   -3.39 KCAL/MOL
REMARK 923 INTER-LIGAND FREE ENERGY PREDICTED BY IDOCK:   -3.26 KCAL/MOL
REMARK 924 INTRA-LIGAND FREE ENERGY PREDICTED BY IDOCK:   -0.13 KCAL/MOL
REMARK 927      BINDING AFFINITY PREDICTED BY RF-SCORE:    0.00 PKD
ROOT
HETATM    1  C   UNL     1     -12.590  13.721  66.022  1.00  0.00    -0.458 C  
HETATM    2  C   UNL     1     -11.184  14.104  66.380  1.00  0.00    -0.328 A  
HETATM    3  C   UNL     1     -10.295  13.176  66.942  1.00  0.00    -0.247 A  
HETATM    4  C   UNL     1      -8.976  13.538  67.238  1.00  0.00    -0.222 A  
HETATM    5  C   UNL     1     -10.745  15.412  66.139  1.00  0.00    -0.316 A  
HETATM    6  C   UNL     1      -8.561  14.853  67.011  1.00  0.00    -0.265 A  
HETATM    7  C   UNL     1      -8.991  17.206  66.203  1.00  0.00    -0.217 C  
HETATM    8  C   UNL     1      -9.439  15.797  66.459  1.00  0.00    -0.298 A  
ENDROOT
BRANCH   4   9
HETATM    9  O   UNL     1      -8.193  12.545  67.775  1.00  0.00    -0.142 OA 
BRANCH   9  10
HETATM   10  C   UNL     1      -7.023  12.210  67.023  1.00  0.00    -0.068 C  
BRANCH  10  11
HETATM   11  C   UNL     1      -7.161  10.817  66.423  1.00  0.00    -0.134 C  
HETATM   12  C   UNL     1      -8.337  10.629  65.489  1.00  0.00    -0.158 C  
HETATM   13  N   UNL     1      -7.822   9.640  64.600  1.00  0.00    -0.126 NA 
HETATM   14  C   UNL     1      -6.455   9.706  64.580  1.00  0.00    -0.101 C  
HETATM   15  O   UNL     1      -5.736   9.164  63.762  1.00  0.00    -0.073 OA 
HETATM   16  O   UNL     1      -6.020  10.507  65.597  1.00  0.00    -0.106 OA 
ENDBRANCH  10  11
ENDBRANCH   9  10
ENDBRANCH   4   9
TORSDOF 3
ENDMDL
MODEL      224
REMARK 921   NORMALIZED FREE ENERGY PREDICTED BY IDOCK:   -2.68 KCAL/MOL
REMARK 922        TOTAL FREE ENERGY PREDICTED BY IDOCK:   -3.38 KCAL/MOL
REMARK 923 INTER-LIGAND FREE ENERGY PREDICTED BY IDOCK:   -3.06 KCAL/MOL
REMARK 924 INTRA-LIGAND FREE ENERGY PREDICTED BY IDOCK:   -0.32 KCAL/MOL
REMARK 927      BINDING AFFINITY PREDICTED BY RF-SCORE:    0.00 PKD
ROOT
HETATM    1  C   UNL     1      -5.933   5.501  69.633  1.00  0.00    -0.017 C  
HETATM    2  C   UNL     1      -7.119   6.393  69.409  1.00  0.00    -0.073 A  
HETATM    3  C   UNL     1      -6.970   7.697  68.914  1.00  0.00    -0.070 A  
HETATM    4  C   UNL     1      -8.087   8.505  68.677  1.00  0.00    -0.121 A  
HETATM    5  C   UNL     1      -8.404   5.912  69.689  1.00  0.00    -0.117 A  
HETATM    6  C   UNL     1      -9.360   8.016  68.982  1.00  0.00    -0.147 A  
HETATM    7  C   UNL     1     -10.896   6.188  69.804  1.00  0.00    -0.421 C  
HETATM    8  C   UNL     1      -9.528   6.719  69.487  1.00  0.00    -0.148 A  
ENDROOT
BRANCH   4   9
HETATM    9  O   UNL     1      -7.821   9.759  68.182  1.00  0.00    -0.085 OA 
BRANCH   9  10
HETATM   10  C   UNL     1      -7.744   9.854  66.757  1.00  0.00    -0.099 C  
BRANCH  10  11
HETATM   11  C   UNL     1      -8.699  10.924  66.245  1.00  0.00    -0.171 C  
HETATM   12  C   UNL     1      -9.457  10.564  64.986  1.00  0.00    -0.244 C  
HETATM   13  N   UNL     1     -10.665  11.298  65.178  1.00  0.00    -0.274 NA 
HETATM   14  C   UNL     1     -10.872  11.503  66.516  1.00  0.00    -0.288 C  
HETATM   15  O   UNL     1     -11.911  11.887  67.017  1.00  0.00    -0.615 OA 
HETATM   16  O   UNL     1      -9.742  11.174  67.209  1.00  0.00    -0.165 OA 
ENDBRANCH  10  11
ENDBRANCH   9  10
ENDBRANCH   4   9
TORSDOF 3
ENDMDL
MODEL      225
REMARK 921   NORMALIZED FREE ENERGY PREDICTED BY IDOCK:   -2.63 KCAL/MOL
REMARK 922        TOTAL FREE ENERGY PREDICTED BY IDOCK:   -3.32 KCAL/MOL
REMARK 923 INTER-LIGAND FREE ENERGY PREDICTED BY IDOCK:   -3.00 KCAL/MOL
REMARK 924 INTRA-LIGAND FREE ENERGY PREDICTED BY IDOCK:   -0.31 KCAL/MOL
REMARK 927      BINDING AFFINITY PREDICTED BY RF-SCORE:    0.00 PKD
ROOT
HETATM    1  C   UNL     1      -6.274  13.678  68.428  1.00  0.00    -0.095 C  
HETATM    2  C   UNL     1      -6.839  12.310  68.184  1.00  0.00    -0.078 A  
HETATM    3  C   UNL     1      -7.500  11.601  69.199  1.00  0.00     0.003 A  
HETATM    4  C   UNL     1      -8.053  10.341  68.948  1.00  0.00    -0.123 A  
HETATM    5  C   UNL     1      -6.717  11.730  66.916  1.00  0.00    -0.105 A  
HETATM    6  C   UNL     1      -7.902   9.768  67.683  1.00  0.00    -0.095 A  
HETATM    7  C   UNL     1      -7.084   9.849  65.295  1.00  0.00    -0.130 C  
HETATM    8  C   UNL     1      -7.236  10.458  66.659  1.00  0.00    -0.113 A  
ENDROOT
BRANCH   4   9
HETATM    9  O   UNL     1      -8.685   9.745  70.013  1.00  0.00    -0.201 OA 
BRANCH   9  10
HETATM   10  C   UNL     1      -9.551   8.655  69.683  1.00  0.00    -0.170 C  
BRANCH  10  11
HETATM   11  C   UNL     1     -10.964   8.933  70.178  1.00  0.00    -0.227 C  
HETATM   12  C   UNL     1     -11.207   8.635  71.642  1.00  0.00    -0.309 C  
HETATM   13  N   UNL     1     -12.211   9.599  71.953  1.00  0.00    -0.368 NA 
HETATM   14  C   UNL     1     -12.115  10.657  71.090  1.00  0.00    -0.341 C  
HETATM   15  O   UNL     1     -12.666  11.732  71.231  1.00  0.00    -0.387 OA 
HETATM   16  O   UNL     1     -11.274  10.337  70.063  1.00  0.00    -0.266 OA 
ENDBRANCH  10  11
ENDBRANCH   9  10
ENDBRANCH   4   9
TORSDOF 3
ENDMDL
MODEL      226
REMARK 921   NORMALIZED FREE ENERGY PREDICTED BY IDOCK:   -2.59 KCAL/MOL
REMARK 922        TOTAL FREE ENERGY PREDICTED BY IDOCK:   -3.28 KCAL/MOL
REMARK 923 INTER-LIGAND FREE ENERGY PREDICTED BY IDOCK:   -2.99 KCAL/MOL
REMARK 924 INTRA-LIGAND FREE ENERGY PREDICTED BY IDOCK:   -0.29 KCAL/MOL
REMARK 927      BINDING AFFINITY PREDICTED BY RF-SCORE:    0.00 PKD
ROOT
HETATM    1  C   UNL     1      -6.500   7.101  71.422  1.00  0.00    -0.041 C  
HETATM    2  C   UNL     1      -7.877   7.571  71.054  1.00  0.00    -0.091 A  
HETATM    3  C   UNL     1      -8.190   7.958  69.742  1.00  0.00    -0.121 A  
HETATM    4  C   UNL     1      -9.487   8.360  69.405  1.00  0.00    -0.158 A  
HETATM    5  C   UNL     1      -8.875   7.613  72.034  1.00  0.00    -0.149 A  
HETATM    6  C   UNL     1     -10.465   8.418  70.401  1.00  0.00    -0.228 A  
HETATM    7  C   UNL     1     -11.221   8.093  72.789  1.00  0.00    -0.407 C  
HETATM    8  C   UNL     1     -10.168   8.043  71.720  1.00  0.00    -0.260 A  
ENDROOT
BRANCH   4   9
HETATM    9  O   UNL     1      -9.680   8.707  68.090  1.00  0.00    -0.151 OA 
BRANCH   9  10
HETATM   10  C   UNL     1      -8.920   9.829  67.632  1.00  0.00    -0.128 C  
BRANCH  10  11
HETATM   11  C   UNL     1      -9.848  10.958  67.205  1.00  0.00    -0.184 C  
HETATM   12  C   UNL     1     -10.272  11.900  68.311  1.00  0.00    -0.204 C  
HETATM   13  N   UNL     1     -10.442  13.115  67.583  1.00  0.00    -0.220 NA 
HETATM   14  C   UNL     1      -9.667  13.088  66.455  1.00  0.00    -0.268 C  
HETATM   15  O   UNL     1      -9.412  14.048  65.752  1.00  0.00    -0.161 OA 
HETATM   16  O   UNL     1      -9.190  11.823  66.257  1.00  0.00    -0.216 OA 
ENDBRANCH  10  11
ENDBRANCH   9  10
ENDBRANCH   4   9
TORSDOF 3
ENDMDL
MODEL      227
REMARK 921   NORMALIZED FREE ENERGY PREDICTED BY IDOCK:   -2.57 KCAL/MOL
REMARK 922        TOTAL FREE ENERGY PREDICTED BY IDOCK:   -3.25 KCAL/MOL
REMARK 923 INTER-LIGAND FREE ENERGY PREDICTED BY IDOCK:   -2.96 KCAL/MOL
REMARK 924 INTRA-LIGAND FREE ENERGY PREDICTED BY IDOCK:   -0.29 KCAL/MOL
REMARK 927      BINDING AFFINITY PREDICTED BY RF-SCORE:    0.00 PKD
ROOT
HETATM    1  C   UNL     1      -5.835   5.788  69.704  1.00  0.00    -0.023 C  
HETATM    2  C   UNL     1      -7.177   5.253  70.111  1.00  0.00    -0.062 A  
HETATM    3  C   UNL     1      -8.057   6.011  70.899  1.00  0.00    -0.121 A  
HETATM    4  C   UNL     1      -9.318   5.514  71.243  1.00  0.00    -0.147 A  
HETATM    5  C   UNL     1      -7.567   3.977  69.689  1.00  0.00    -0.053 A  
HETATM    6  C   UNL     1      -9.681   4.229  70.831  1.00  0.00    -0.266 A  
HETATM    7  C   UNL     1      -9.206   2.078  69.597  1.00  0.00    -0.174 C  
HETATM    8  C   UNL     1      -8.812   3.454  70.051  1.00  0.00    -0.151 A  
ENDROOT
BRANCH   4   9
HETATM    9  O   UNL     1     -10.098   6.347  72.008  1.00  0.00    -0.178 OA 
BRANCH   9  10
HETATM   10  C   UNL     1     -11.460   6.472  71.589  1.00  0.00    -0.297 C  
BRANCH  10  11
HETATM   11  C   UNL     1     -11.644   7.736  70.758  1.00  0.00    -0.255 C  
HETATM   12  C   UNL     1     -11.134   9.009  71.397  1.00  0.00    -0.329 C  
HETATM   13  N   UNL     1     -10.763   9.762  70.244  1.00  0.00    -0.279 NA 
HETATM   14  C   UNL     1     -10.481   8.911  69.210  1.00  0.00    -0.224 C  
HETATM   15  O   UNL     1      -9.921   9.221  68.176  1.00  0.00    -0.163 OA 
HETATM   16  O   UNL     1     -10.891   7.648  69.531  1.00  0.00    -0.234 OA 
ENDBRANCH  10  11
ENDBRANCH   9  10
ENDBRANCH   4   9
TORSDOF 3
ENDMDL
MODEL      228
REMARK 921   NORMALIZED FREE ENERGY PREDICTED BY IDOCK:   -2.51 KCAL/MOL
REMARK 922        TOTAL FREE ENERGY PREDICTED BY IDOCK:   -3.18 KCAL/MOL
REMARK 923 INTER-LIGAND FREE ENERGY PREDICTED BY IDOCK:   -2.79 KCAL/MOL
REMARK 924 INTRA-LIGAND FREE ENERGY PREDICTED BY IDOCK:   -0.39 KCAL/MOL
REMARK 927      BINDING AFFINITY PREDICTED BY RF-SCORE:    0.00 PKD
ROOT
HETATM    1  C   UNL     1     -10.403   8.067  68.259  1.00  0.00    -0.240 C  
HETATM    2  C   UNL     1      -9.679   8.920  67.259  1.00  0.00    -0.235 A  
HETATM    3  C   UNL     1      -8.293   9.128  67.344  1.00  0.00    -0.115 A  
HETATM    4  C   UNL     1      -7.626   9.897  66.384  1.00  0.00    -0.101 A  
HETATM    5  C   UNL     1     -10.395   9.512  66.212  1.00  0.00    -0.226 A  
HETATM    6  C   UNL     1      -8.360  10.498  65.359  1.00  0.00    -0.165 A  
HETATM    7  C   UNL     1     -10.535  10.944  64.155  1.00  0.00    -0.397 C  
HETATM    8  C   UNL     1      -9.746  10.308  65.263  1.00  0.00    -0.354 A  
ENDROOT
BRANCH   4   9
HETATM    9  O   UNL     1      -6.270  10.024  66.562  1.00  0.00    -0.065 OA 
BRANCH   9  10
HETATM   10  C   UNL     1      -5.761  11.358  66.478  1.00  0.00    -0.142 C  
BRANCH  10  11
HETATM   11  C   UNL     1      -5.405  11.878  67.865  1.00  0.00    -0.055 C  
HETATM   12  C   UNL     1      -6.352  12.915  68.429  1.00  0.00    -0.080 C  
HETATM   13  N   UNL     1      -6.241  12.652  69.826  1.00  0.00    -0.129 NA 
HETATM   14  C   UNL     1      -5.856  11.353  70.021  1.00  0.00    -0.126 C  
HETATM   15  O   UNL     1      -5.895  10.759  71.082  1.00  0.00    -0.317 OA 
HETATM   16  O   UNL     1      -5.455  10.811  68.833  1.00  0.00    -0.041 OA 
ENDBRANCH  10  11
ENDBRANCH   9  10
ENDBRANCH   4   9
TORSDOF 3
ENDMDL
MODEL      229
REMARK 921   NORMALIZED FREE ENERGY PREDICTED BY IDOCK:   -2.45 KCAL/MOL
REMARK 922        TOTAL FREE ENERGY PREDICTED BY IDOCK:   -3.11 KCAL/MOL
REMARK 923 INTER-LIGAND FREE ENERGY PREDICTED BY IDOCK:   -2.79 KCAL/MOL
REMARK 924 INTRA-LIGAND FREE ENERGY PREDICTED BY IDOCK:   -0.32 KCAL/MOL
REMARK 927      BINDING AFFINITY PREDICTED BY RF-SCORE:    0.00 PKD
ROOT
HETATM    1  C   UNL     1      -5.519   6.046  72.138  1.00  0.00    -0.026 C  
HETATM    2  C   UNL     1      -6.966   6.432  72.040  1.00  0.00    -0.073 A  
HETATM    3  C   UNL     1      -7.568   6.704  70.803  1.00  0.00    -0.092 A  
HETATM    4  C   UNL     1      -8.927   7.029  70.724  1.00  0.00    -0.150 A  
HETATM    5  C   UNL     1      -7.737   6.511  73.206  1.00  0.00    -0.092 A  
HETATM    6  C   UNL     1      -9.675   7.125  71.899  1.00  0.00    -0.169 A  
HETATM    7  C   UNL     1      -9.895   6.956  74.410  1.00  0.00    -0.252 C  
HETATM    8  C   UNL     1      -9.089   6.865  73.146  1.00  0.00    -0.154 A  
ENDROOT
BRANCH   4   9
HETATM    9  O   UNL     1      -9.410   7.265  69.460  1.00  0.00    -0.153 OA 
BRANCH   9  10
HETATM   10  C   UNL     1      -8.505   7.924  68.569  1.00  0.00    -0.128 C  
BRANCH  10  11
HETATM   11  C   UNL     1      -8.896   9.387  68.405  1.00  0.00    -0.128 C  
HETATM   12  C   UNL     1      -8.675   9.963  67.023  1.00  0.00    -0.131 C  
HETATM   13  N   UNL     1      -9.716  10.938  66.966  1.00  0.00    -0.173 NA 
HETATM   14  C   UNL     1     -10.729  10.579  67.814  1.00  0.00    -0.272 C  
HETATM   15  O   UNL     1     -11.843  11.068  67.826  1.00  0.00    -0.605 OA 
HETATM   16  O   UNL     1     -10.311   9.560  68.622  1.00  0.00    -0.192 OA 
ENDBRANCH  10  11
ENDBRANCH   9  10
ENDBRANCH   4   9
TORSDOF 3
ENDMDL
MODEL      230
REMARK 921   NORMALIZED FREE ENERGY PREDICTED BY IDOCK:   -2.04 KCAL/MOL
REMARK 922        TOTAL FREE ENERGY PREDICTED BY IDOCK:   -2.64 KCAL/MOL
REMARK 923 INTER-LIGAND FREE ENERGY PREDICTED BY IDOCK:   -3.84 KCAL/MOL
REMARK 924 INTRA-LIGAND FREE ENERGY PREDICTED BY IDOCK:    1.21 KCAL/MOL
REMARK 927      BINDING AFFINITY PREDICTED BY RF-SCORE:    0.00 PKD
ROOT
HETATM    1  C   UNL     1     -10.958  17.409  64.724  1.00  0.00     0.732 C  
HETATM    2  C   UNL     1     -10.690  17.165  66.180  1.00  0.00    -0.094 A  
HETATM    3  C   UNL     1     -10.880  15.900  66.756  1.00  0.00    -0.228 A  
HETATM    4  C   UNL     1     -10.594  15.679  68.108  1.00  0.00    -0.274 A  
HETATM    5  C   UNL     1     -10.231  18.217  66.981  1.00  0.00    -0.392 A  
HETATM    6  C   UNL     1     -10.157  16.745  68.896  1.00  0.00    -0.285 A  
HETATM    7  C   UNL     1      -9.489  19.164  69.185  1.00  0.00    -0.272 C  
HETATM    8  C   UNL     1      -9.970  18.019  68.341  1.00  0.00    -0.382 A  
ENDROOT
BRANCH   4   9
HETATM    9  O   UNL     1     -10.808  14.399  68.560  1.00  0.00    -0.237 OA 
BRANCH   9  10
HETATM   10  C   UNL     1     -11.939  13.729  67.997  1.00  0.00    -0.355 C  
BRANCH  10  11
HETATM   11  C   UNL     1     -11.777  13.590  66.489  1.00  0.00    -0.371 C  
HETATM   12  C   UNL     1     -10.753  12.570  66.041  1.00  0.00    -0.262 C  
HETATM   13  N   UNL     1     -11.313  12.151  64.798  1.00  0.00    -0.319 NA 
HETATM   14  C   UNL     1     -12.667  12.357  64.811  1.00  0.00    -0.236 C  
HETATM   15  O   UNL     1     -13.456  11.899  64.006  1.00  0.00    -0.600 OA 
HETATM   16  O   UNL     1     -13.003  13.126  65.888  1.00  0.00    -0.268 OA 
ENDBRANCH  10  11
ENDBRANCH   9  10
ENDBRANCH   4   9
TORSDOF 3
ENDMDL
MODEL      231
REMARK 921   NORMALIZED FREE ENERGY PREDICTED BY IDOCK:   -1.99 KCAL/MOL
REMARK 922        TOTAL FREE ENERGY PREDICTED BY IDOCK:   -2.57 KCAL/MOL
REMARK 923 INTER-LIGAND FREE ENERGY PREDICTED BY IDOCK:   -2.30 KCAL/MOL
REMARK 924 INTRA-LIGAND FREE ENERGY PREDICTED BY IDOCK:   -0.27 KCAL/MOL
REMARK 927      BINDING AFFINITY PREDICTED BY RF-SCORE:    0.00 PKD
ROOT
HETATM    1  C   UNL     1      -8.437   4.324  69.232  1.00  0.00    -0.093 C  
HETATM    2  C   UNL     1      -8.316   5.766  69.629  1.00  0.00    -0.112 A  
HETATM    3  C   UNL     1      -8.204   6.782  68.667  1.00  0.00    -0.120 A  
HETATM    4  C   UNL     1      -8.126   8.125  69.051  1.00  0.00    -0.115 A  
HETATM    5  C   UNL     1      -8.325   6.110  70.986  1.00  0.00    -0.124 A  
HETATM    6  C   UNL     1      -8.115   8.447  70.410  1.00  0.00    -0.109 A  
HETATM    7  C   UNL     1      -8.216   7.791  72.846  1.00  0.00    -0.179 C  
HETATM    8  C   UNL     1      -8.216   7.445  71.385  1.00  0.00    -0.104 A  
ENDROOT
BRANCH   4   9
HETATM    9  O   UNL     1      -8.030   9.032  68.023  1.00  0.00    -0.100 OA 
BRANCH   9  10
HETATM   10  C   UNL     1      -7.602  10.344  68.400  1.00  0.00    -0.093 C  
BRANCH  10  11
HETATM   11  C   UNL     1      -8.191  11.385  67.457  1.00  0.00    -0.130 C  
HETATM   12  C   UNL     1      -9.291  10.883  66.546  1.00  0.00    -0.173 C  
HETATM   13  N   UNL     1     -10.073  12.065  66.388  1.00  0.00    -0.214 NA 
HETATM   14  C   UNL     1      -9.884  12.889  67.464  1.00  0.00    -0.208 C  
HETATM   15  O   UNL     1     -10.572  13.853  67.742  1.00  0.00    -0.242 OA 
HETATM   16  O   UNL     1      -8.827  12.442  68.204  1.00  0.00    -0.182 OA 
ENDBRANCH  10  11
ENDBRANCH   9  10
ENDBRANCH   4   9
TORSDOF 3
ENDMDL
MODEL      232
REMARK 921   NORMALIZED FREE ENERGY PREDICTED BY IDOCK:   -1.94 KCAL/MOL
REMARK 922        TOTAL FREE ENERGY PREDICTED BY IDOCK:   -2.51 KCAL/MOL
REMARK 923 INTER-LIGAND FREE ENERGY PREDICTED BY IDOCK:   -2.31 KCAL/MOL
REMARK 924 INTRA-LIGAND FREE ENERGY PREDICTED BY IDOCK:   -0.20 KCAL/MOL
REMARK 927      BINDING AFFINITY PREDICTED BY RF-SCORE:    0.00 PKD
ROOT
HETATM    1  C   UNL     1      -7.609   4.035  69.712  1.00  0.00    -0.052 C  
HETATM    2  C   UNL     1      -8.290   5.370  69.634  1.00  0.00    -0.100 A  
HETATM    3  C   UNL     1      -7.815   6.385  68.790  1.00  0.00    -0.109 A  
HETATM    4  C   UNL     1      -8.481   7.612  68.702  1.00  0.00    -0.129 A  
HETATM    5  C   UNL     1      -9.431   5.607  70.412  1.00  0.00    -0.206 A  
HETATM    6  C   UNL     1      -9.604   7.839  69.501  1.00  0.00    -0.160 A  
HETATM    7  C   UNL     1     -11.302   7.078  71.208  1.00  0.00    -0.309 C  
HETATM    8  C   UNL     1     -10.088   6.840  70.358  1.00  0.00    -0.200 A  
ENDROOT
BRANCH   4   9
HETATM    9  O   UNL     1      -7.932   8.526  67.835  1.00  0.00    -0.106 OA 
BRANCH   9  10
HETATM   10  C   UNL     1      -8.193   8.292  66.448  1.00  0.00    -0.107 C  
BRANCH  10  11
HETATM   11  C   UNL     1      -8.352   9.614  65.709  1.00  0.00    -0.128 C  
HETATM   12  C   UNL     1      -7.103  10.126  65.025  1.00  0.00    -0.135 C  
HETATM   13  N   UNL     1      -7.668  10.835  63.923  1.00  0.00     0.181 NA 
HETATM   14  C   UNL     1      -8.901  10.318  63.627  1.00  0.00    -0.222 C  
HETATM   15  O   UNL     1      -9.533  10.543  62.613  1.00  0.00    -0.290 OA 
HETATM   16  O   UNL     1      -9.298   9.480  64.629  1.00  0.00    -0.240 OA 
ENDBRANCH  10  11
ENDBRANCH   9  10
ENDBRANCH   4   9
TORSDOF 3
ENDMDL
MODEL      233
REMARK 921   NORMALIZED FREE ENERGY PREDICTED BY IDOCK:   -1.60 KCAL/MOL
REMARK 922        TOTAL FREE ENERGY PREDICTED BY IDOCK:   -2.11 KCAL/MOL
REMARK 923 INTER-LIGAND FREE ENERGY PREDICTED BY IDOCK:   -1.87 KCAL/MOL
REMARK 924 INTRA-LIGAND FREE ENERGY PREDICTED BY IDOCK:   -0.24 KCAL/MOL
REMARK 927      BINDING AFFINITY PREDICTED BY RF-SCORE:    0.00 PKD
ROOT
HETATM    1  C   UNL     1      -6.806   3.910  71.766  1.00  0.00    -0.026 C  
HETATM    2  C   UNL     1      -7.597   5.149  71.465  1.00  0.00    -0.101 A  
HETATM    3  C   UNL     1      -6.964   6.356  71.127  1.00  0.00    -0.068 A  
HETATM    4  C   UNL     1      -7.716   7.494  70.815  1.00  0.00    -0.083 A  
HETATM    5  C   UNL     1      -8.995   5.101  71.509  1.00  0.00    -0.154 A  
HETATM    6  C   UNL     1      -9.109   7.433  70.886  1.00  0.00    -0.154 A  
HETATM    7  C   UNL     1     -11.257   6.169  71.295  1.00  0.00    -0.348 C  
HETATM    8  C   UNL     1      -9.759   6.239  71.230  1.00  0.00    -0.193 A  
ENDROOT
BRANCH   4   9
HETATM    9  O   UNL     1      -6.990   8.614  70.489  1.00  0.00    -0.037 OA 
BRANCH   9  10
HETATM   10  C   UNL     1      -6.517   8.671  69.141  1.00  0.00    -0.043 C  
BRANCH  10  11
HETATM   11  C   UNL     1      -7.597   9.232  68.224  1.00  0.00    -0.083 C  
HETATM   12  C   UNL     1      -7.337  10.627  67.699  1.00  0.00    -0.090 C  
HETATM   13  N   UNL     1      -8.002  10.571  66.438  1.00  0.00    -0.131 NA 
HETATM   14  C   UNL     1      -8.063   9.272  66.008  1.00  0.00    -0.110 C  
HETATM   15  O   UNL     1      -8.356   8.917  64.882  1.00  0.00    -0.154 OA 
HETATM   16  O   UNL     1      -7.709   8.435  67.027  1.00  0.00    -0.091 OA 
ENDBRANCH  10  11
ENDBRANCH   9  10
ENDBRANCH   4   9
TORSDOF 3
ENDMDL
MODEL      234
REMARK 921   NORMALIZED FREE ENERGY PREDICTED BY IDOCK:   -1.55 KCAL/MOL
REMARK 922        TOTAL FREE ENERGY PREDICTED BY IDOCK:   -2.06 KCAL/MOL
REMARK 923 INTER-LIGAND FREE ENERGY PREDICTED BY IDOCK:   -4.26 KCAL/MOL
REMARK 924 INTRA-LIGAND FREE ENERGY PREDICTED BY IDOCK:    2.20 KCAL/MOL
REMARK 927      BINDING AFFINITY PREDICTED BY RF-SCORE:    0.00 PKD
ROOT
HETATM    1  C   UNL     1     -11.709  14.966  65.096  1.00  0.00    -0.295 C  
HETATM    2  C   UNL     1     -11.400  13.545  65.465  1.00  0.00    -0.310 A  
HETATM    3  C   UNL     1     -11.765  13.018  66.713  1.00  0.00    -0.440 A  
HETATM    4  C   UNL     1     -11.501  11.681  67.030  1.00  0.00    -0.262 A  
HETATM    5  C   UNL     1     -10.744  12.721  64.542  1.00  0.00    -0.380 A  
HETATM    6  C   UNL     1     -10.827  10.880  66.105  1.00  0.00    -0.166 A  
HETATM    7  C   UNL     1      -9.732  10.529  63.857  1.00  0.00    -0.384 C  
HETATM    8  C   UNL     1     -10.446  11.392  64.856  1.00  0.00    -0.363 A  
ENDROOT
BRANCH   4   9
HETATM    9  O   UNL     1     -11.912  11.272  68.276  1.00  0.00    -0.582 OA 
BRANCH   9  10
HETATM   10  C   UNL     1     -11.096  10.276  68.897  1.00  0.00    -0.231 C  
BRANCH  10  11
HETATM   11  C   UNL     1      -9.681  10.801  69.099  1.00  0.00    -0.163 C  
HETATM   12  C   UNL     1      -8.583   9.766  68.979  1.00  0.00    -0.146 C  
HETATM   13  N   UNL     1      -7.509  10.566  68.487  1.00  0.00    -0.087 NA 
HETATM   14  C   UNL     1      -8.011  11.658  67.831  1.00  0.00    -0.132 C  
HETATM   15  O   UNL     1      -7.372  12.400  67.109  1.00  0.00    -0.139 OA 
HETATM   16  O   UNL     1      -9.349  11.767  68.080  1.00  0.00    -0.178 OA 
ENDBRANCH  10  11
ENDBRANCH   9  10
ENDBRANCH   4   9
TORSDOF 3
ENDMDL
MODEL      235
REMARK 921   NORMALIZED FREE ENERGY PREDICTED BY IDOCK:   -1.47 KCAL/MOL
REMARK 922        TOTAL FREE ENERGY PREDICTED BY IDOCK:   -1.96 KCAL/MOL
REMARK 923 INTER-LIGAND FREE ENERGY PREDICTED BY IDOCK:   -1.68 KCAL/MOL
REMARK 924 INTRA-LIGAND FREE ENERGY PREDICTED BY IDOCK:   -0.29 KCAL/MOL
REMARK 927      BINDING AFFINITY PREDICTED BY RF-SCORE:    0.00 PKD
ROOT
HETATM    1  C   UNL     1     -11.062  17.110  64.752  1.00  0.00     0.393 C  
HETATM    2  C   UNL     1     -10.680  17.012  66.200  1.00  0.00    -0.099 A  
HETATM    3  C   UNL     1     -10.750  15.795  66.894  1.00  0.00    -0.299 A  
HETATM    4  C   UNL     1     -10.357  15.713  68.235  1.00  0.00    -0.244 A  
HETATM    5  C   UNL     1     -10.232  18.156  66.872  1.00  0.00    -0.380 A  
HETATM    6  C   UNL     1      -9.933  16.868  68.895  1.00  0.00    -0.279 A  
HETATM    7  C   UNL     1      -9.398  19.336  68.924  1.00  0.00    -0.408 C  
HETATM    8  C   UNL     1      -9.865  18.096  68.220  1.00  0.00    -0.360 A  
ENDROOT
BRANCH   4   9
HETATM    9  O   UNL     1     -10.459  14.468  68.809  1.00  0.00    -0.235 OA 
BRANCH   9  10
HETATM   10  C   UNL     1      -9.688  13.438  68.185  1.00  0.00    -0.226 C  
BRANCH  10  11
HETATM   11  C   UNL     1      -8.200  13.703  68.373  1.00  0.00    -0.146 C  
HETATM   12  C   UNL     1      -7.659  13.400  69.754  1.00  0.00     0.984 C  
HETATM   13  N   UNL     1      -6.317  13.029  69.445  1.00  0.00    -0.111 NA 
HETATM   14  C   UNL     1      -6.252  12.567  68.158  1.00  0.00    -0.072 C  
HETATM   15  O   UNL     1      -5.313  11.966  67.672  1.00  0.00    -0.055 OA 
HETATM   16  O   UNL     1      -7.421  12.849  67.510  1.00  0.00    -0.137 OA 
ENDBRANCH  10  11
ENDBRANCH   9  10
ENDBRANCH   4   9
TORSDOF 3
ENDMDL
MODEL      236
REMARK 921   NORMALIZED FREE ENERGY PREDICTED BY IDOCK:   -1.27 KCAL/MOL
REMARK 922        TOTAL FREE ENERGY PREDICTED BY IDOCK:   -1.73 KCAL/MOL
REMARK 923 INTER-LIGAND FREE ENERGY PREDICTED BY IDOCK:   -2.24 KCAL/MOL
REMARK 924 INTRA-LIGAND FREE ENERGY PREDICTED BY IDOCK:    0.52 KCAL/MOL
REMARK 927      BINDING AFFINITY PREDICTED BY RF-SCORE:    0.00 PKD
ROOT
HETATM    1  C   UNL     1     -10.252  19.955  65.569  1.00  0.00    -0.235 C  
HETATM    2  C   UNL     1     -10.055  18.818  66.528  1.00  0.00    -0.437 A  
HETATM    3  C   UNL     1      -9.394  19.000  67.752  1.00  0.00    -0.347 A  
HETATM    4  C   UNL     1      -9.249  17.938  68.652  1.00  0.00    -0.264 A  
HETATM    5  C   UNL     1     -10.551  17.549  66.203  1.00  0.00    -0.211 A  
HETATM    6  C   UNL     1      -9.731  16.675  68.301  1.00  0.00    -0.244 A  
HETATM    7  C   UNL     1     -10.915  15.117  66.705  1.00  0.00    -0.318 C  
HETATM    8  C   UNL     1     -10.386  16.471  67.078  1.00  0.00    -0.301 A  
ENDROOT
BRANCH   4   9
HETATM    9  O   UNL     1      -8.594  18.236  69.823  1.00  0.00     0.787 OA 
BRANCH   9  10
HETATM   10  C   UNL     1      -8.135  19.585  69.945  1.00  0.00     0.700 C  
BRANCH  10  11
HETATM   11  C   UNL     1      -6.745  19.728  69.339  1.00  0.00    -0.347 C  
HETATM   12  C   UNL     1      -6.010  18.428  69.094  1.00  0.00    -0.228 C  
HETATM   13  N   UNL     1      -5.215  18.775  67.961  1.00  0.00    -0.174 NA 
HETATM   14  C   UNL     1      -5.812  19.799  67.276  1.00  0.00    -0.176 C  
HETATM   15  O   UNL     1      -5.513  20.165  66.155  1.00  0.00    -0.167 OA 
HETATM   16  O   UNL     1      -6.824  20.325  68.028  1.00  0.00    -0.281 OA 
ENDBRANCH  10  11
ENDBRANCH   9  10
ENDBRANCH   4   9
TORSDOF 3
ENDMDL
MODEL      237
REMARK 921   NORMALIZED FREE ENERGY PREDICTED BY IDOCK:    4.20 KCAL/MOL
REMARK 922        TOTAL FREE ENERGY PREDICTED BY IDOCK:    4.70 KCAL/MOL
REMARK 923 INTER-LIGAND FREE ENERGY PREDICTED BY IDOCK:    4.33 KCAL/MOL
REMARK 924 INTRA-LIGAND FREE ENERGY PREDICTED BY IDOCK:    0.38 KCAL/MOL
REMARK 927      BINDING AFFINITY PREDICTED BY RF-SCORE:    0.00 PKD
ROOT
HETATM    1  C   UNL     1      -8.413  19.145  65.007  1.00  0.00     2.363 C  
HETATM    2  C   UNL     1      -9.131  18.256  65.980  1.00  0.00     0.006 A  
HETATM    3  C   UNL     1      -9.126  18.525  67.357  1.00  0.00    -0.283 A  
HETATM    4  C   UNL     1      -9.829  17.707  68.248  1.00  0.00    -0.324 A  
HETATM    5  C   UNL     1      -9.832  17.141  65.505  1.00  0.00     0.169 A  
HETATM    6  C   UNL     1     -10.504  16.586  67.759  1.00  0.00    -0.308 A  
HETATM    7  C   UNL     1     -11.248  15.099  65.859  1.00  0.00    -0.280 C  
HETATM    8  C   UNL     1     -10.513  16.296  66.387  1.00  0.00    -0.297 A  
ENDROOT
BRANCH   4   9
HETATM    9  O   UNL     1      -9.761  18.072  69.571  1.00  0.00     0.089 OA 
BRANCH   9  10
HETATM   10  C   UNL     1      -9.312  19.408  69.818  1.00  0.00     0.466 C  
BRANCH  10  11
HETATM   11  C   UNL     1      -7.792  19.477  69.749  1.00  0.00     0.390 C  
HETATM   12  C   UNL     1      -7.163  20.626  70.507  1.00  0.00     1.560 C  
HETATM   13  N   UNL     1      -5.909  20.054  70.874  1.00  0.00    -0.310 NA 
HETATM   14  C   UNL     1      -6.021  18.691  70.921  1.00  0.00     0.269 C  
HETATM   15  O   UNL     1      -5.209  17.934  71.419  1.00  0.00    -0.422 OA 
HETATM   16  O   UNL     1      -7.204  18.308  70.356  1.00  0.00     1.236 OA 
ENDBRANCH  10  11
ENDBRANCH   9  10
ENDBRANCH   4   9
TORSDOF 3
ENDMDL
MODEL      238
REMARK 921   NORMALIZED FREE ENERGY PREDICTED BY IDOCK:   10.12 KCAL/MOL
REMARK 922        TOTAL FREE ENERGY PREDICTED BY IDOCK:   11.66 KCAL/MOL
REMARK 923 INTER-LIGAND FREE ENERGY PREDICTED BY IDOCK:    5.90 KCAL/MOL
REMARK 924 INTRA-LIGAND FREE ENERGY PREDICTED BY IDOCK:    5.77 KCAL/MOL
REMARK 927      BINDING AFFINITY PREDICTED BY RF-SCORE:    0.00 PKD
ROOT
HETATM    1  C   UNL     1     -11.969  12.073  71.609  1.00  0.00     1.114 C  
HETATM    2  C   UNL     1     -11.539  12.539  70.249  1.00  0.00    -0.052 A  
HETATM    3  C   UNL     1     -11.154  13.869  70.021  1.00  0.00     0.083 A  
HETATM    4  C   UNL     1     -10.722  14.282  68.756  1.00  0.00    -0.254 A  
HETATM    5  C   UNL     1     -11.508  11.628  69.186  1.00  0.00    -0.364 A  
HETATM    6  C   UNL     1     -10.718  13.365  67.703  1.00  0.00    -0.257 A  
HETATM    7  C   UNL     1     -11.094  11.044  66.781  1.00  0.00    -0.240 C  
HETATM    8  C   UNL     1     -11.108  12.034  67.909  1.00  0.00    -0.289 A  
ENDROOT
BRANCH   4   9
HETATM    9  O   UNL     1     -10.360  15.604  68.653  1.00  0.00    -0.208 OA 
BRANCH   9  10
HETATM   10  C   UNL     1      -8.957  15.849  68.523  1.00  0.00    -0.199 C  
BRANCH  10  11
HETATM   11  C   UNL     1      -8.160  14.729  69.178  1.00  0.00    -0.119 C  
HETATM   12  C   UNL     1      -8.822  14.079  70.374  1.00  0.00     3.023 C  
HETATM   13  N   UNL     1      -8.302  12.754  70.286  1.00  0.00     3.621 NA 
HETATM   14  C   UNL     1      -7.956  12.481  68.989  1.00  0.00     0.288 C  
HETATM   15  O   UNL     1      -7.703  11.377  68.546  1.00  0.00    -0.118 OA 
HETATM   16  O   UNL     1      -7.975  13.634  68.258  1.00  0.00    -0.134 OA 
ENDBRANCH  10  11
ENDBRANCH   9  10
ENDBRANCH   4   9
TORSDOF 3
ENDMDL
MODEL      239
REMARK 921   NORMALIZED FREE ENERGY PREDICTED BY IDOCK:   12.98 KCAL/MOL
REMARK 922        TOTAL FREE ENERGY PREDICTED BY IDOCK:   15.02 KCAL/MOL
REMARK 923 INTER-LIGAND FREE ENERGY PREDICTED BY IDOCK:   -0.77 KCAL/MOL
REMARK 924 INTRA-LIGAND FREE ENERGY PREDICTED BY IDOCK:   15.79 KCAL/MOL
REMARK 927      BINDING AFFINITY PREDICTED BY RF-SCORE:    0.00 PKD
ROOT
HETATM    1  C   UNL     1     -11.967  12.068  71.626  1.00  0.00     1.114 C  
HETATM    2  C   UNL     1     -11.464  12.544  70.295  1.00  0.00     0.125 A  
HETATM    3  C   UNL     1     -11.050  13.870  70.101  1.00  0.00     0.164 A  
HETATM    4  C   UNL     1     -10.551  14.291  68.863  1.00  0.00    -0.245 A  
HETATM    5  C   UNL     1     -11.394  11.644  69.224  1.00  0.00    -0.353 A  
HETATM    6  C   UNL     1     -10.509  13.385  67.801  1.00  0.00    -0.246 A  
HETATM    7  C   UNL     1     -10.871  11.080  66.835  1.00  0.00    -0.324 C  
HETATM    8  C   UNL     1     -10.927  12.058  67.973  1.00  0.00    -0.267 A  
ENDROOT
BRANCH   4   9
HETATM    9  O   UNL     1     -10.166  15.608  68.793  1.00  0.00    -0.204 OA 
BRANCH   9  10
HETATM   10  C   UNL     1     -10.795  16.378  67.765  1.00  0.00    -0.306 C  
BRANCH  10  11
HETATM   11  C   UNL     1     -11.180  15.484  66.594  1.00  0.00    -0.118 C  
HETATM   12  C   UNL     1     -10.261  14.305  66.351  1.00  0.00    -0.291 C  
HETATM   13  N   UNL     1     -11.175  13.357  65.804  1.00  0.00    -0.289 NA 
HETATM   14  C   UNL     1     -12.444  13.639  66.235  1.00  0.00    -0.366 C  
HETATM   15  O   UNL     1     -13.402  12.896  66.137  1.00  0.00     0.757 OA 
HETATM   16  O   UNL     1     -12.464  14.870  66.826  1.00  0.00     0.085 OA 
ENDBRANCH  10  11
ENDBRANCH   9  10
ENDBRANCH   4   9
TORSDOF 3
ENDMDL
