MODEL        1
REMARK 921   NORMALIZED FREE ENERGY PREDICTED BY IDOCK:   -7.74 KCAL/MOL
REMARK 922        TOTAL FREE ENERGY PREDICTED BY IDOCK:  -10.13 KCAL/MOL
REMARK 923 INTER-LIGAND FREE ENERGY PREDICTED BY IDOCK:   -9.55 KCAL/MOL
REMARK 924 INTRA-LIGAND FREE ENERGY PREDICTED BY IDOCK:   -0.58 KCAL/MOL
REMARK 927      BINDING AFFINITY PREDICTED BY RF-SCORE:    0.00 PKD
ROOT
HETATM    1  C   UNL     1     -11.333  14.375  66.147  1.00  0.00    -0.350 C  
HETATM    2  C   UNL     1     -11.880  14.010  64.776  1.00  0.00    -0.415 C  
HETATM    3  C   UNL     1     -11.374  12.707  64.500  1.00  0.00    -0.378 A  
HETATM    4  C   UNL     1     -10.903  12.175  63.345  1.00  0.00    -0.414 A  
HETATM    5  N   UNL     1     -10.326  10.988  63.700  1.00  0.00    -0.361 NA 
HETATM    6  C   UNL     1      -9.523  10.257  62.745  1.00  0.00    -0.290 C  
HETATM    7  C   UNL     1     -10.521  10.742  65.060  1.00  0.00    -0.237 A  
HETATM    8  C   UNL     1     -10.206   9.673  65.892  1.00  0.00    -0.219 A  
HETATM    9  C   UNL     1     -10.534   9.839  67.258  1.00  0.00    -0.324 A  
HETATM   10  C   UNL     1     -11.058  11.051  67.821  1.00  0.00    -0.356 A  
HETATM   11  C   UNL     1     -11.317  12.171  67.017  1.00  0.00    -0.398 A  
HETATM   12  C   UNL     1     -11.812  13.666  67.410  1.00  0.00    -0.429 C  
HETATM   13  C   UNL     1     -11.131  11.860  65.600  1.00  0.00    -0.362 A  
HETATM   14  C   UNL     1     -11.467  15.124  68.400  1.00  0.00    -0.347 C  
HETATM   15  C   UNL     1     -10.863  16.460  67.504  1.00  0.00    -0.249 C  
HETATM   16  C   UNL     1      -9.674  16.025  66.642  1.00  0.00    -0.244 C  
HETATM   17  C   UNL     1     -10.737  17.986  67.675  1.00  0.00    -0.344 C  
HETATM   18  N   UNL     1      -9.828  14.637  66.266  1.00  0.00    -0.285 NA 
HETATM   19  C   UNL     1      -9.030  13.849  67.263  1.00  0.00    -0.221 C  
ENDROOT
BRANCH  17  20
HETATM   20  N   UNL     1     -10.061  18.577  68.785  1.00  0.00    -0.384 N  
HETATM   21  H   UNL     1     -10.079  18.184  69.726  1.00  0.00     0.000 HD 
HETATM   22  C   UNL     1      -9.390  19.715  68.466  1.00  0.00    -0.342 C  
HETATM   23  O   UNL     1      -9.786  20.549  67.660  1.00  0.00    -0.416 OA 
BRANCH  22  24
HETATM   24  O   UNL     1      -8.183  19.678  69.037  1.00  0.00    -0.309 OA 
BRANCH  24  25
HETATM   25  C   UNL     1      -7.240  18.819  68.355  1.00  0.00    -0.280 C  
BRANCH  25  26
HETATM   26  C   UNL     1      -6.666  19.529  67.173  1.00  0.00    -0.212 A  
HETATM   27  C   UNL     1      -5.908  20.681  67.370  1.00  0.00    -0.256 A  
HETATM   28  C   UNL     1      -5.304  21.314  66.289  1.00  0.00    -0.271 A  
HETATM   29  C   UNL     1      -5.460  20.800  65.002  1.00  0.00    -0.241 A  
HETATM   30  C   UNL     1      -6.226  19.655  64.794  1.00  0.00    -0.318 A  
HETATM   31  C   UNL     1      -6.830  19.018  65.877  1.00  0.00    -0.296 A  
ENDBRANCH  25  26
ENDBRANCH  24  25
ENDBRANCH  22  24
ENDBRANCH  17  20
TORSDOF 4
ENDMDL
MODEL        2
REMARK 921   NORMALIZED FREE ENERGY PREDICTED BY IDOCK:   -7.61 KCAL/MOL
REMARK 922        TOTAL FREE ENERGY PREDICTED BY IDOCK:   -9.97 KCAL/MOL
REMARK 923 INTER-LIGAND FREE ENERGY PREDICTED BY IDOCK:   -8.92 KCAL/MOL
REMARK 924 INTRA-LIGAND FREE ENERGY PREDICTED BY IDOCK:   -1.05 KCAL/MOL
REMARK 927      BINDING AFFINITY PREDICTED BY RF-SCORE:    0.00 PKD
ROOT
HETATM    1  C   UNL     1     -10.970  14.126  66.027  1.00  0.00    -0.304 C  
HETATM    2  C   UNL     1     -11.277  13.749  64.586  1.00  0.00    -0.383 C  
HETATM    3  C   UNL     1     -10.740  12.440  64.414  1.00  0.00    -0.371 A  
HETATM    4  C   UNL     1     -10.082  11.893  63.363  1.00  0.00    -0.438 A  
HETATM    5  N   UNL     1      -9.582  10.708  63.824  1.00  0.00    -0.280 NA 
HETATM    6  C   UNL     1      -8.632   9.961  63.028  1.00  0.00    -0.197 C  
HETATM    7  C   UNL     1     -10.009  10.477  65.132  1.00  0.00    -0.309 A  
HETATM    8  C   UNL     1      -9.848   9.417  66.017  1.00  0.00    -0.366 A  
HETATM    9  C   UNL     1     -10.404   9.600  67.304  1.00  0.00    -0.310 A  
HETATM   10  C   UNL     1     -11.009  10.820  67.756  1.00  0.00    -0.354 A  
HETATM   11  C   UNL     1     -11.118  11.933  66.909  1.00  0.00    -0.356 A  
HETATM   12  C   UNL     1     -11.664  13.434  67.197  1.00  0.00    -0.424 C  
HETATM   13  C   UNL     1     -10.695  11.604  65.548  1.00  0.00    -0.333 A  
HETATM   14  C   UNL     1     -11.483  14.901  68.216  1.00  0.00    -0.343 C  
HETATM   15  C   UNL     1     -10.726  16.225  67.423  1.00  0.00    -0.287 C  
HETATM   16  C   UNL     1      -9.410  15.774  66.782  1.00  0.00    -0.242 C  
HETATM   17  C   UNL     1     -10.620  17.751  67.597  1.00  0.00    -0.379 C  
HETATM   18  N   UNL     1      -9.506  14.382  66.399  1.00  0.00    -0.290 NA 
HETATM   19  C   UNL     1      -8.897  13.602  67.526  1.00  0.00    -0.205 C  
ENDROOT
BRANCH  17  20
HETATM   20  N   UNL     1     -10.140  18.351  68.801  1.00  0.00    -0.385 N  
HETATM   21  H   UNL     1     -10.249  17.925  69.721  1.00  0.00     0.000 HD 
HETATM   22  C   UNL     1      -9.525  19.547  68.601  1.00  0.00    -0.397 C  
HETATM   23  O   UNL     1      -9.878  20.377  67.772  1.00  0.00    -0.403 OA 
BRANCH  22  24
HETATM   24  O   UNL     1      -8.402  19.579  69.323  1.00  0.00    -0.237 OA 
BRANCH  24  25
HETATM   25  C   UNL     1      -7.200  19.702  68.530  1.00  0.00    -0.328 C  
BRANCH  25  26
HETATM   26  C   UNL     1      -6.637  18.350  68.242  1.00  0.00    -0.224 A  
HETATM   27  C   UNL     1      -6.733  17.350  69.207  1.00  0.00    -0.222 A  
HETATM   28  C   UNL     1      -6.280  16.064  68.930  1.00  0.00    -0.126 A  
HETATM   29  C   UNL     1      -5.723  15.772  67.686  1.00  0.00    -0.148 A  
HETATM   30  C   UNL     1      -5.612  16.770  66.718  1.00  0.00    -0.106 A  
HETATM   31  C   UNL     1      -6.067  18.058  66.993  1.00  0.00    -0.170 A  
ENDBRANCH  25  26
ENDBRANCH  24  25
ENDBRANCH  22  24
ENDBRANCH  17  20
TORSDOF 4
ENDMDL
MODEL        3
REMARK 921   NORMALIZED FREE ENERGY PREDICTED BY IDOCK:   -7.36 KCAL/MOL
REMARK 922        TOTAL FREE ENERGY PREDICTED BY IDOCK:   -9.66 KCAL/MOL
REMARK 923 INTER-LIGAND FREE ENERGY PREDICTED BY IDOCK:   -8.72 KCAL/MOL
REMARK 924 INTRA-LIGAND FREE ENERGY PREDICTED BY IDOCK:   -0.93 KCAL/MOL
REMARK 927      BINDING AFFINITY PREDICTED BY RF-SCORE:    0.00 PKD
ROOT
HETATM    1  C   UNL     1      -7.919  16.308  68.692  1.00  0.00    -0.215 C  
HETATM    2  C   UNL     1      -6.892  17.251  69.298  1.00  0.00    -0.208 C  
HETATM    3  C   UNL     1      -7.099  18.504  68.653  1.00  0.00    -0.298 A  
HETATM    4  C   UNL     1      -6.206  19.424  68.213  1.00  0.00    -0.228 A  
HETATM    5  N   UNL     1      -6.931  20.305  67.461  1.00  0.00    -0.267 NA 
HETATM    6  C   UNL     1      -6.256  21.295  66.651  1.00  0.00    -0.306 C  
HETATM    7  C   UNL     1      -8.288  19.983  67.511  1.00  0.00    -0.334 A  
HETATM    8  C   UNL     1      -9.431  20.582  66.993  1.00  0.00    -0.516 A  
HETATM    9  C   UNL     1     -10.645  19.894  67.227  1.00  0.00    -0.519 A  
HETATM   10  C   UNL     1     -10.736  18.608  67.855  1.00  0.00    -0.347 A  
HETATM   11  C   UNL     1      -9.590  17.945  68.321  1.00  0.00    -0.312 A  
HETATM   12  C   UNL     1      -9.410  16.469  68.972  1.00  0.00    -0.239 C  
HETATM   13  C   UNL     1      -8.407  18.797  68.214  1.00  0.00    -0.360 A  
HETATM   14  C   UNL     1      -9.679  14.709  68.738  1.00  0.00    -0.217 C  
HETATM   15  C   UNL     1      -8.253  13.817  68.387  1.00  0.00    -0.151 C  
HETATM   16  C   UNL     1      -7.494  14.467  67.226  1.00  0.00    -0.097 C  
HETATM   17  C   UNL     1      -7.779  12.352  68.445  1.00  0.00    -0.144 C  
HETATM   18  N   UNL     1      -7.730  15.895  67.230  1.00  0.00    -0.171 NA 
HETATM   19  C   UNL     1      -8.849  16.130  66.258  1.00  0.00    -0.336 C  
ENDROOT
BRANCH  17  20
HETATM   20  N   UNL     1      -8.463  11.301  67.762  1.00  0.00    -0.123 N  
HETATM   21  H   UNL     1      -9.315  10.866  68.114  1.00  0.00     0.000 HD 
HETATM   22  C   UNL     1      -7.867  10.935  66.596  1.00  0.00    -0.145 C  
HETATM   23  O   UNL     1      -6.654  10.897  66.422  1.00  0.00    -0.117 OA 
BRANCH  22  24
HETATM   24  O   UNL     1      -8.805  10.798  65.657  1.00  0.00    -0.180 OA 
BRANCH  24  25
HETATM   25  C   UNL     1     -10.150  10.711  66.182  1.00  0.00    -0.249 C  
BRANCH  25  26
HETATM   26  C   UNL     1     -11.010  11.760  65.558  1.00  0.00    -0.344 A  
HETATM   27  C   UNL     1     -11.542  12.770  66.356  1.00  0.00    -0.435 A  
HETATM   28  C   UNL     1     -12.285  13.797  65.781  1.00  0.00    -0.495 A  
HETATM   29  C   UNL     1     -12.504  13.815  64.404  1.00  0.00    -0.317 A  
HETATM   30  C   UNL     1     -11.985  12.801  63.600  1.00  0.00    -0.616 A  
HETATM   31  C   UNL     1     -11.239  11.774  64.173  1.00  0.00    -0.437 A  
ENDBRANCH  25  26
ENDBRANCH  24  25
ENDBRANCH  22  24
ENDBRANCH  17  20
TORSDOF 4
ENDMDL
MODEL        4
REMARK 921   NORMALIZED FREE ENERGY PREDICTED BY IDOCK:   -7.33 KCAL/MOL
REMARK 922        TOTAL FREE ENERGY PREDICTED BY IDOCK:   -9.62 KCAL/MOL
REMARK 923 INTER-LIGAND FREE ENERGY PREDICTED BY IDOCK:   -9.26 KCAL/MOL
REMARK 924 INTRA-LIGAND FREE ENERGY PREDICTED BY IDOCK:   -0.36 KCAL/MOL
REMARK 927      BINDING AFFINITY PREDICTED BY RF-SCORE:    0.00 PKD
ROOT
HETATM    1  C   UNL     1     -10.852  13.110  66.100  1.00  0.00    -0.279 C  
HETATM    2  C   UNL     1     -10.900  12.107  64.958  1.00  0.00    -0.344 C  
HETATM    3  C   UNL     1     -10.469  10.870  65.520  1.00  0.00    -0.286 A  
HETATM    4  C   UNL     1      -9.670   9.903  65.007  1.00  0.00    -0.288 A  
HETATM    5  N   UNL     1      -9.390   9.068  66.052  1.00  0.00    -0.224 NA 
HETATM    6  C   UNL     1      -8.377   8.045  65.913  1.00  0.00    -0.134 C  
HETATM    7  C   UNL     1     -10.090   9.467  67.191  1.00  0.00    -0.231 A  
HETATM    8  C   UNL     1     -10.214   8.937  68.470  1.00  0.00    -0.223 A  
HETATM    9  C   UNL     1     -10.995   9.691  69.377  1.00  0.00    -0.215 A  
HETATM   10  C   UNL     1     -11.556  10.978  69.081  1.00  0.00    -0.389 A  
HETATM   11  C   UNL     1     -11.386  11.572  67.821  1.00  0.00    -0.364 A  
HETATM   12  C   UNL     1     -11.829  13.033  67.269  1.00  0.00    -0.419 C  
HETATM   13  C   UNL     1     -10.733  10.654  66.888  1.00  0.00    -0.297 A  
HETATM   14  C   UNL     1     -11.715  14.805  67.526  1.00  0.00    -0.370 C  
HETATM   15  C   UNL     1     -10.689  15.617  66.411  1.00  0.00    -0.291 C  
HETATM   16  C   UNL     1      -9.322  14.930  66.353  1.00  0.00    -0.297 C  
HETATM   17  C   UNL     1     -10.473  17.052  65.894  1.00  0.00    -0.274 C  
HETATM   18  N   UNL     1      -9.474  13.518  66.631  1.00  0.00    -0.264 NA 
HETATM   19  C   UNL     1      -9.181  13.352  68.093  1.00  0.00    -0.215 C  
ENDROOT
BRANCH  17  20
HETATM   20  N   UNL     1     -10.187  18.144  66.769  1.00  0.00    -0.354 N  
HETATM   21  H   UNL     1      -9.958  18.026  67.755  1.00  0.00     0.000 HD 
HETATM   22  C   UNL     1     -10.250  19.357  66.159  1.00  0.00    -0.484 C  
HETATM   23  O   UNL     1     -11.062  19.652  65.289  1.00  0.00    -0.409 OA 
BRANCH  22  24
HETATM   24  O   UNL     1      -9.197  20.084  66.537  1.00  0.00    -0.358 OA 
BRANCH  24  25
HETATM   25  C   UNL     1      -7.942  19.368  66.485  1.00  0.00    -0.298 C  
BRANCH  25  26
HETATM   26  C   UNL     1      -7.091  19.746  67.653  1.00  0.00    -0.287 A  
HETATM   27  C   UNL     1      -6.170  20.783  67.520  1.00  0.00    -0.333 A  
HETATM   28  C   UNL     1      -5.421  21.197  68.616  1.00  0.00    -0.325 A  
HETATM   29  C   UNL     1      -5.585  20.572  69.851  1.00  0.00    -0.381 A  
HETATM   30  C   UNL     1      -6.495  19.526  69.990  1.00  0.00    -0.251 A  
HETATM   31  C   UNL     1      -7.249  19.111  68.894  1.00  0.00    -0.376 A  
ENDBRANCH  25  26
ENDBRANCH  24  25
ENDBRANCH  22  24
ENDBRANCH  17  20
TORSDOF 4
ENDMDL
MODEL        5
REMARK 921   NORMALIZED FREE ENERGY PREDICTED BY IDOCK:   -7.23 KCAL/MOL
REMARK 922        TOTAL FREE ENERGY PREDICTED BY IDOCK:   -9.50 KCAL/MOL
REMARK 923 INTER-LIGAND FREE ENERGY PREDICTED BY IDOCK:   -9.15 KCAL/MOL
REMARK 924 INTRA-LIGAND FREE ENERGY PREDICTED BY IDOCK:   -0.36 KCAL/MOL
REMARK 927      BINDING AFFINITY PREDICTED BY RF-SCORE:    0.00 PKD
ROOT
HETATM    1  C   UNL     1     -10.677   9.700  67.576  1.00  0.00    -0.256 C  
HETATM    2  C   UNL     1     -10.519   8.278  67.061  1.00  0.00    -0.384 C  
HETATM    3  C   UNL     1      -9.546   7.673  67.909  1.00  0.00    -0.164 A  
HETATM    4  C   UNL     1      -8.531   6.824  67.615  1.00  0.00    -0.122 A  
HETATM    5  N   UNL     1      -7.771   6.759  68.749  1.00  0.00    -0.108 NA 
HETATM    6  C   UNL     1      -6.476   6.114  68.720  1.00  0.00    -0.046 C  
HETATM    7  C   UNL     1      -8.367   7.494  69.775  1.00  0.00    -0.134 A  
HETATM    8  C   UNL     1      -8.052   7.693  71.114  1.00  0.00    -0.098 A  
HETATM    9  C   UNL     1      -8.901   8.576  71.822  1.00  0.00    -0.278 A  
HETATM   10  C   UNL     1      -9.966   9.326  71.220  1.00  0.00    -0.341 A  
HETATM   11  C   UNL     1     -10.260   9.201  69.854  1.00  0.00    -0.222 A  
HETATM   12  C   UNL     1     -11.331   9.991  68.924  1.00  0.00    -0.123 C  
HETATM   13  C   UNL     1      -9.467   8.138  69.238  1.00  0.00    -0.159 A  
HETATM   14  C   UNL     1     -11.883  11.599  68.347  1.00  0.00    -0.346 C  
HETATM   15  C   UNL     1     -11.466  11.947  66.717  1.00  0.00    -0.384 C  
HETATM   16  C   UNL     1      -9.970  11.710  66.491  1.00  0.00    -0.203 C  
HETATM   17  C   UNL     1     -11.924  12.904  65.601  1.00  0.00    -0.440 C  
HETATM   18  N   UNL     1      -9.504  10.664  67.375  1.00  0.00    -0.153 NA 
HETATM   19  C   UNL     1      -8.925  11.362  68.570  1.00  0.00    -0.158 C  
ENDROOT
BRANCH  17  20
HETATM   20  N   UNL     1     -11.949  14.322  65.772  1.00  0.00    -0.387 N  
HETATM   21  H   UNL     1     -11.942  14.775  66.685  1.00  0.00     0.000 HD 
HETATM   22  C   UNL     1     -11.982  15.008  64.600  1.00  0.00    -0.358 C  
HETATM   23  O   UNL     1     -12.597  14.646  63.603  1.00  0.00    -0.773 OA 
BRANCH  22  24
HETATM   24  O   UNL     1     -11.116  16.021  64.669  1.00  0.00    -0.548 OA 
BRANCH  24  25
HETATM   25  C   UNL     1     -10.239  15.964  65.817  1.00  0.00    -0.365 C  
BRANCH  25  26
HETATM   26  C   UNL     1     -10.307  17.248  66.576  1.00  0.00    -0.308 A  
HETATM   27  C   UNL     1     -10.104  17.239  67.954  1.00  0.00    -0.317 A  
HETATM   28  C   UNL     1     -10.090  18.434  68.667  1.00  0.00    -0.407 A  
HETATM   29  C   UNL     1     -10.286  19.645  68.004  1.00  0.00    -0.579 A  
HETATM   30  C   UNL     1     -10.503  19.662  66.628  1.00  0.00    -0.610 A  
HETATM   31  C   UNL     1     -10.514  18.467  65.911  1.00  0.00    -0.379 A  
ENDBRANCH  25  26
ENDBRANCH  24  25
ENDBRANCH  22  24
ENDBRANCH  17  20
TORSDOF 4
ENDMDL
MODEL        6
REMARK 921   NORMALIZED FREE ENERGY PREDICTED BY IDOCK:   -7.12 KCAL/MOL
REMARK 922        TOTAL FREE ENERGY PREDICTED BY IDOCK:   -9.37 KCAL/MOL
REMARK 923 INTER-LIGAND FREE ENERGY PREDICTED BY IDOCK:   -9.10 KCAL/MOL
REMARK 924 INTRA-LIGAND FREE ENERGY PREDICTED BY IDOCK:   -0.27 KCAL/MOL
REMARK 927      BINDING AFFINITY PREDICTED BY RF-SCORE:    0.00 PKD
ROOT
HETATM    1  C   UNL     1     -11.171   7.352  69.992  1.00  0.00    -0.180 C  
HETATM    2  C   UNL     1     -11.012   6.202  69.009  1.00  0.00    -0.436 C  
HETATM    3  C   UNL     1     -10.323   5.181  69.726  1.00  0.00    -0.332 A  
HETATM    4  C   UNL     1      -9.340   4.337  69.326  1.00  0.00    -0.162 A  
HETATM    5  N   UNL     1      -8.881   3.746  70.469  1.00  0.00    -0.077 NA 
HETATM    6  C   UNL     1      -7.674   2.949  70.439  1.00  0.00    -0.043 C  
HETATM    7  C   UNL     1      -9.641   4.154  71.566  1.00  0.00    -0.168 A  
HETATM    8  C   UNL     1      -9.638   3.807  72.912  1.00  0.00    -0.170 A  
HETATM    9  C   UNL     1     -10.555   4.507  73.730  1.00  0.00    -0.319 A  
HETATM   10  C   UNL     1     -11.380   5.589  73.274  1.00  0.00    -0.210 A  
HETATM   11  C   UNL     1     -11.350   6.011  71.936  1.00  0.00    -0.335 A  
HETATM   12  C   UNL     1     -12.100   7.247  71.197  1.00  0.00    -0.376 C  
HETATM   13  C   UNL     1     -10.524   5.121  71.121  1.00  0.00    -0.240 A  
HETATM   14  C   UNL     1     -12.364   9.022  71.191  1.00  0.00    -0.306 C  
HETATM   15  C   UNL     1     -11.544   9.855  69.931  1.00  0.00    -0.184 C  
HETATM   16  C   UNL     1     -10.062   9.469  69.919  1.00  0.00    -0.232 C  
HETATM   17  C   UNL     1     -11.642  11.209  69.205  1.00  0.00    -0.324 C  
HETATM   18  N   UNL     1      -9.907   8.114  70.403  1.00  0.00    -0.186 NA 
HETATM   19  C   UNL     1      -9.574   8.234  71.861  1.00  0.00    -0.221 C  
ENDROOT
BRANCH  17  20
HETATM   20  N   UNL     1     -11.590  12.455  69.900  1.00  0.00    -0.499 N  
HETATM   21  H   UNL     1     -11.569  12.528  70.917  1.00  0.00     0.000 HD 
HETATM   22  C   UNL     1     -11.569  13.535  69.076  1.00  0.00    -0.311 C  
HETATM   23  O   UNL     1     -12.191  13.613  68.022  1.00  0.00    -0.323 OA 
BRANCH  22  24
HETATM   24  O   UNL     1     -10.648  14.396  69.516  1.00  0.00    -0.179 OA 
BRANCH  24  25
HETATM   25  C   UNL     1     -11.176  15.702  69.841  1.00  0.00    -0.331 C  
BRANCH  25  26
HETATM   26  C   UNL     1     -12.006  15.622  71.080  1.00  0.00    -0.457 A  
HETATM   27  C   UNL     1     -11.380  15.651  72.325  1.00  0.00    -0.337 A  
HETATM   28  C   UNL     1     -12.141  15.652  73.490  1.00  0.00    -0.603 A  
HETATM   29  C   UNL     1     -13.533  15.619  73.416  1.00  0.00    -0.449 A  
HETATM   30  C   UNL     1     -14.167  15.578  72.175  1.00  0.00    -0.617 A  
HETATM   31  C   UNL     1     -13.407  15.580  71.007  1.00  0.00    -0.495 A  
ENDBRANCH  25  26
ENDBRANCH  24  25
ENDBRANCH  22  24
ENDBRANCH  17  20
TORSDOF 4
ENDMDL
MODEL        7
REMARK 921   NORMALIZED FREE ENERGY PREDICTED BY IDOCK:   -7.04 KCAL/MOL
REMARK 922        TOTAL FREE ENERGY PREDICTED BY IDOCK:   -9.27 KCAL/MOL
REMARK 923 INTER-LIGAND FREE ENERGY PREDICTED BY IDOCK:   -8.95 KCAL/MOL
REMARK 924 INTRA-LIGAND FREE ENERGY PREDICTED BY IDOCK:   -0.32 KCAL/MOL
REMARK 927      BINDING AFFINITY PREDICTED BY RF-SCORE:    0.00 PKD
ROOT
HETATM    1  C   UNL     1     -10.990   8.105  69.991  1.00  0.00    -0.199 C  
HETATM    2  C   UNL     1     -11.264   6.824  69.218  1.00  0.00    -0.261 C  
HETATM    3  C   UNL     1     -10.670   5.782  69.988  1.00  0.00    -0.400 A  
HETATM    4  C   UNL     1      -9.977   4.685  69.594  1.00  0.00    -0.211 A  
HETATM    5  N   UNL     1      -9.433   4.169  70.736  1.00  0.00    -0.157 NA 
HETATM    6  C   UNL     1      -8.443   3.117  70.658  1.00  0.00    -0.057 C  
HETATM    7  C   UNL     1      -9.864   4.892  71.849  1.00  0.00    -0.184 A  
HETATM    8  C   UNL     1      -9.669   4.746  73.218  1.00  0.00    -0.156 A  
HETATM    9  C   UNL     1     -10.246   5.748  74.032  1.00  0.00    -0.275 A  
HETATM   10  C   UNL     1     -10.907   6.917  73.527  1.00  0.00    -0.265 A  
HETATM   11  C   UNL     1     -11.055   7.128  72.148  1.00  0.00    -0.282 A  
HETATM   12  C   UNL     1     -11.667   8.389  71.328  1.00  0.00    -0.325 C  
HETATM   13  C   UNL     1     -10.603   5.966  71.384  1.00  0.00    -0.309 A  
HETATM   14  C   UNL     1     -11.561  10.158  71.045  1.00  0.00    -0.462 C  
HETATM   15  C   UNL     1     -10.852  10.592  69.541  1.00  0.00    -0.303 C  
HETATM   16  C   UNL     1      -9.510   9.875  69.362  1.00  0.00    -0.213 C  
HETATM   17  C   UNL     1     -10.813  11.817  68.609  1.00  0.00    -0.220 C  
HETATM   18  N   UNL     1      -9.543   8.603  70.051  1.00  0.00    -0.167 NA 
HETATM   19  C   UNL     1      -8.913   8.844  71.391  1.00  0.00    -0.229 C  
ENDROOT
BRANCH  17  20
HETATM   20  N   UNL     1     -10.373  13.102  69.052  1.00  0.00    -0.436 N  
HETATM   21  H   UNL     1      -9.632  13.233  69.740  1.00  0.00     0.000 HD 
HETATM   22  C   UNL     1     -11.038  14.133  68.467  1.00  0.00    -0.255 C  
HETATM   23  O   UNL     1     -12.232  14.117  68.188  1.00  0.00    -0.306 OA 
BRANCH  22  24
HETATM   24  O   UNL     1     -10.154  15.066  68.106  1.00  0.00    -0.217 OA 
BRANCH  24  25
HETATM   25  C   UNL     1     -10.579  15.871  66.983  1.00  0.00    -0.306 C  
BRANCH  25  26
HETATM   26  C   UNL     1     -10.342  17.316  67.272  1.00  0.00    -0.331 A  
HETATM   27  C   UNL     1     -10.485  18.250  66.248  1.00  0.00    -0.397 A  
HETATM   28  C   UNL     1     -10.341  19.608  66.515  1.00  0.00    -0.601 A  
HETATM   29  C   UNL     1     -10.046  20.039  67.808  1.00  0.00    -0.563 A  
HETATM   30  C   UNL     1      -9.889  19.110  68.836  1.00  0.00    -0.487 A  
HETATM   31  C   UNL     1     -10.037  17.750  68.571  1.00  0.00    -0.377 A  
ENDBRANCH  25  26
ENDBRANCH  24  25
ENDBRANCH  22  24
ENDBRANCH  17  20
TORSDOF 4
ENDMDL
MODEL        8
REMARK 921   NORMALIZED FREE ENERGY PREDICTED BY IDOCK:   -7.03 KCAL/MOL
REMARK 922        TOTAL FREE ENERGY PREDICTED BY IDOCK:   -9.25 KCAL/MOL
REMARK 923 INTER-LIGAND FREE ENERGY PREDICTED BY IDOCK:   -8.25 KCAL/MOL
REMARK 924 INTRA-LIGAND FREE ENERGY PREDICTED BY IDOCK:   -1.00 KCAL/MOL
REMARK 927      BINDING AFFINITY PREDICTED BY RF-SCORE:    0.00 PKD
ROOT
HETATM    1  C   UNL     1      -9.240  10.111  67.318  1.00  0.00    -0.138 C  
HETATM    2  C   UNL     1      -8.920  10.293  65.842  1.00  0.00    -0.181 C  
HETATM    3  C   UNL     1      -9.917  11.181  65.344  1.00  0.00    -0.309 A  
HETATM    4  C   UNL     1     -10.590  11.174  64.167  1.00  0.00    -0.368 A  
HETATM    5  N   UNL     1     -11.589  12.094  64.315  1.00  0.00    -0.354 NA 
HETATM    6  C   UNL     1     -12.642  12.187  63.327  1.00  0.00    -0.368 C  
HETATM    7  C   UNL     1     -11.479  12.737  65.548  1.00  0.00    -0.337 A  
HETATM    8  C   UNL     1     -12.180  13.776  66.150  1.00  0.00    -0.499 A  
HETATM    9  C   UNL     1     -11.781  14.106  67.466  1.00  0.00    -0.418 A  
HETATM   10  C   UNL     1     -10.798  13.380  68.218  1.00  0.00    -0.275 A  
HETATM   11  C   UNL     1     -10.126  12.280  67.662  1.00  0.00    -0.204 A  
HETATM   12  C   UNL     1      -9.059  11.248  68.318  1.00  0.00    -0.173 C  
HETATM   13  C   UNL     1     -10.455  12.121  66.246  1.00  0.00    -0.270 A  
HETATM   14  C   UNL     1      -8.761  10.078  69.646  1.00  0.00    -0.210 C  
HETATM   15  C   UNL     1      -8.792   8.431  69.158  1.00  0.00    -0.142 C  
HETATM   16  C   UNL     1     -10.076   8.136  68.375  1.00  0.00    -0.200 C  
HETATM   17  C   UNL     1      -8.286   7.075  69.683  1.00  0.00    -0.133 C  
HETATM   18  N   UNL     1     -10.506   9.328  67.679  1.00  0.00    -0.253 NA 
HETATM   19  C   UNL     1     -11.531   9.975  68.564  1.00  0.00     0.045 C  
ENDROOT
BRANCH  17  20
HETATM   20  N   UNL     1      -8.638   6.575  70.974  1.00  0.00    -0.134 N  
HETATM   21  H   UNL     1      -8.248   6.942  71.841  1.00  0.00     0.000 HD 
HETATM   22  C   UNL     1      -9.544   5.563  70.934  1.00  0.00    -0.170 C  
HETATM   23  O   UNL     1      -9.572   4.693  70.071  1.00  0.00    -0.150 OA 
BRANCH  22  24
HETATM   24  O   UNL     1     -10.472   5.778  71.869  1.00  0.00    -0.207 OA 
BRANCH  24  25
HETATM   25  C   UNL     1     -10.527   7.145  72.335  1.00  0.00    -0.218 C  
BRANCH  25  26
HETATM   26  C   UNL     1     -11.857   7.742  72.010  1.00  0.00    -0.351 A  
HETATM   27  C   UNL     1     -12.924   6.903  71.695  1.00  0.00    -0.359 A  
HETATM   28  C   UNL     1     -14.188   7.436  71.462  1.00  0.00    -0.571 A  
HETATM   29  C   UNL     1     -14.389   8.813  71.536  1.00  0.00    -0.342 A  
HETATM   30  C   UNL     1     -13.325   9.661  71.838  1.00  0.00    -0.526 A  
HETATM   31  C   UNL     1     -12.059   9.129  72.075  1.00  0.00    -0.431 A  
ENDBRANCH  25  26
ENDBRANCH  24  25
ENDBRANCH  22  24
ENDBRANCH  17  20
TORSDOF 4
ENDMDL
MODEL        9
REMARK 921   NORMALIZED FREE ENERGY PREDICTED BY IDOCK:   -6.99 KCAL/MOL
REMARK 922        TOTAL FREE ENERGY PREDICTED BY IDOCK:   -9.20 KCAL/MOL
REMARK 923 INTER-LIGAND FREE ENERGY PREDICTED BY IDOCK:   -8.65 KCAL/MOL
REMARK 924 INTRA-LIGAND FREE ENERGY PREDICTED BY IDOCK:   -0.55 KCAL/MOL
REMARK 927      BINDING AFFINITY PREDICTED BY RF-SCORE:    0.00 PKD
ROOT
HETATM    1  C   UNL     1     -10.940  14.935  66.967  1.00  0.00    -0.327 C  
HETATM    2  C   UNL     1     -11.445  13.887  65.987  1.00  0.00    -0.345 C  
HETATM    3  C   UNL     1     -11.450  12.660  66.711  1.00  0.00    -0.410 A  
HETATM    4  C   UNL     1     -11.105  11.408  66.321  1.00  0.00    -0.221 A  
HETATM    5  N   UNL     1     -11.064  10.668  67.469  1.00  0.00    -0.312 NA 
HETATM    6  C   UNL     1     -10.510   9.332  67.452  1.00  0.00    -0.273 C  
HETATM    7  C   UNL     1     -11.474  11.438  68.558  1.00  0.00    -0.297 A  
HETATM    8  C   UNL     1     -11.676  11.157  69.905  1.00  0.00    -0.433 A  
HETATM    9  C   UNL     1     -12.050  12.256  70.713  1.00  0.00    -0.259 A  
HETATM   10  C   UNL     1     -12.126  13.611  70.248  1.00  0.00    -0.427 A  
HETATM   11  C   UNL     1     -11.855  13.936  68.910  1.00  0.00    -0.393 A  
HETATM   12  C   UNL     1     -11.778  15.375  68.163  1.00  0.00    -0.276 C  
HETATM   13  C   UNL     1     -11.661  12.732  68.103  1.00  0.00    -0.392 A  
HETATM   14  C   UNL     1     -11.004  16.994  68.153  1.00  0.00    -0.263 C  
HETATM   15  C   UNL     1      -9.848  17.218  66.900  1.00  0.00    -0.287 C  
HETATM   16  C   UNL     1      -8.836  16.069  66.903  1.00  0.00    -0.231 C  
HETATM   17  C   UNL     1      -9.167  18.391  66.172  1.00  0.00    -0.120 C  
HETATM   18  N   UNL     1      -9.470  14.863  67.390  1.00  0.00    -0.203 NA 
HETATM   19  C   UNL     1      -9.138  14.784  68.851  1.00  0.00    -0.168 C  
ENDROOT
BRANCH  17  20
HETATM   20  N   UNL     1      -8.431  19.398  66.868  1.00  0.00    -0.281 N  
HETATM   21  H   UNL     1      -8.704  19.760  67.781  1.00  0.00     0.000 HD 
HETATM   22  C   UNL     1      -7.332  19.829  66.194  1.00  0.00    -0.295 C  
HETATM   23  O   UNL     1      -7.276  19.963  64.977  1.00  0.00    -0.335 OA 
BRANCH  22  24
HETATM   24  O   UNL     1      -6.308  19.908  67.046  1.00  0.00    -0.186 OA 
BRANCH  24  25
HETATM   25  C   UNL     1      -6.633  20.569  68.290  1.00  0.00    -0.280 C  
BRANCH  25  26
HETATM   26  C   UNL     1      -6.085  19.789  69.440  1.00  0.00    -0.338 A  
HETATM   27  C   UNL     1      -5.630  20.466  70.570  1.00  0.00    -0.347 A  
HETATM   28  C   UNL     1      -5.185  19.754  71.679  1.00  0.00    -0.417 A  
HETATM   29  C   UNL     1      -5.187  18.361  71.663  1.00  0.00    -0.098 A  
HETATM   30  C   UNL     1      -5.629  17.675  70.532  1.00  0.00    -0.173 A  
HETATM   31  C   UNL     1      -6.078  18.386  69.421  1.00  0.00    -0.263 A  
ENDBRANCH  25  26
ENDBRANCH  24  25
ENDBRANCH  22  24
ENDBRANCH  17  20
TORSDOF 4
ENDMDL
MODEL       10
REMARK 921   NORMALIZED FREE ENERGY PREDICTED BY IDOCK:   -6.98 KCAL/MOL
REMARK 922        TOTAL FREE ENERGY PREDICTED BY IDOCK:   -9.20 KCAL/MOL
REMARK 923 INTER-LIGAND FREE ENERGY PREDICTED BY IDOCK:   -8.24 KCAL/MOL
REMARK 924 INTRA-LIGAND FREE ENERGY PREDICTED BY IDOCK:   -0.96 KCAL/MOL
REMARK 927      BINDING AFFINITY PREDICTED BY RF-SCORE:    0.00 PKD
ROOT
HETATM    1  C   UNL     1      -9.164  10.074  67.305  1.00  0.00    -0.141 C  
HETATM    2  C   UNL     1      -8.848  10.297  65.834  1.00  0.00    -0.176 C  
HETATM    3  C   UNL     1      -9.862  11.176  65.357  1.00  0.00    -0.289 A  
HETATM    4  C   UNL     1     -10.536  11.184  64.180  1.00  0.00    -0.377 A  
HETATM    5  N   UNL     1     -11.553  12.080  64.349  1.00  0.00    -0.346 NA 
HETATM    6  C   UNL     1     -12.608  12.174  63.363  1.00  0.00    -0.463 C  
HETATM    7  C   UNL     1     -11.455  12.696  65.597  1.00  0.00    -0.350 A  
HETATM    8  C   UNL     1     -12.177  13.706  66.223  1.00  0.00    -0.484 A  
HETATM    9  C   UNL     1     -11.785  14.013  67.546  1.00  0.00    -0.421 A  
HETATM   10  C   UNL     1     -10.787  13.289  68.281  1.00  0.00    -0.276 A  
HETATM   11  C   UNL     1     -10.094  12.217  67.700  1.00  0.00    -0.205 A  
HETATM   12  C   UNL     1      -9.006  11.191  68.332  1.00  0.00    -0.165 C  
HETATM   13  C   UNL     1     -10.420  12.084  66.281  1.00  0.00    -0.273 A  
HETATM   14  C   UNL     1      -8.684   9.996  69.632  1.00  0.00    -0.210 C  
HETATM   15  C   UNL     1      -8.683   8.360  69.105  1.00  0.00    -0.142 C  
HETATM   16  C   UNL     1      -9.960   8.058  68.316  1.00  0.00    -0.185 C  
HETATM   17  C   UNL     1      -8.149   7.003  69.599  1.00  0.00    -0.130 C  
HETATM   18  N   UNL     1     -10.415   9.258  67.648  1.00  0.00    -0.253 NA 
HETATM   19  C   UNL     1     -11.452   9.863  68.548  1.00  0.00     0.125 C  
ENDROOT
BRANCH  17  20
HETATM   20  N   UNL     1      -8.491   6.466  70.877  1.00  0.00    -0.130 N  
HETATM   21  H   UNL     1      -7.991   6.700  71.734  1.00  0.00     0.000 HD 
HETATM   22  C   UNL     1      -9.549   5.613  70.841  1.00  0.00    -0.169 C  
HETATM   23  O   UNL     1      -9.773   4.827  69.927  1.00  0.00    -0.165 OA 
BRANCH  22  24
HETATM   24  O   UNL     1     -10.366   5.897  71.857  1.00  0.00    -0.199 OA 
BRANCH  24  25
HETATM   25  C   UNL     1     -10.429   7.305  72.182  1.00  0.00    -0.203 C  
BRANCH  25  26
HETATM   26  C   UNL     1     -11.828   7.803  72.021  1.00  0.00    -0.351 A  
HETATM   27  C   UNL     1     -12.072   9.174  72.052  1.00  0.00    -0.431 A  
HETATM   28  C   UNL     1     -13.357   9.661  71.831  1.00  0.00    -0.526 A  
HETATM   29  C   UNL     1     -14.406   8.776  71.584  1.00  0.00    -0.387 A  
HETATM   30  C   UNL     1     -14.173   7.402  71.564  1.00  0.00    -0.571 A  
HETATM   31  C   UNL     1     -12.887   6.913  71.782  1.00  0.00    -0.349 A  
ENDBRANCH  25  26
ENDBRANCH  24  25
ENDBRANCH  22  24
ENDBRANCH  17  20
TORSDOF 4
ENDMDL
MODEL       11
REMARK 921   NORMALIZED FREE ENERGY PREDICTED BY IDOCK:   -6.97 KCAL/MOL
REMARK 922        TOTAL FREE ENERGY PREDICTED BY IDOCK:   -9.18 KCAL/MOL
REMARK 923 INTER-LIGAND FREE ENERGY PREDICTED BY IDOCK:   -7.93 KCAL/MOL
REMARK 924 INTRA-LIGAND FREE ENERGY PREDICTED BY IDOCK:   -1.25 KCAL/MOL
REMARK 927      BINDING AFFINITY PREDICTED BY RF-SCORE:    0.00 PKD
ROOT
HETATM    1  C   UNL     1      -8.738  10.423  68.804  1.00  0.00    -0.146 C  
HETATM    2  C   UNL     1      -8.500   9.786  70.165  1.00  0.00    -0.204 C  
HETATM    3  C   UNL     1      -9.406   8.687  70.233  1.00  0.00    -0.180 A  
HETATM    4  C   UNL     1     -10.155   8.230  71.267  1.00  0.00    -0.198 A  
HETATM    5  N   UNL     1     -11.014   7.320  70.719  1.00  0.00    -0.245 NA 
HETATM    6  C   UNL     1     -12.112   6.795  71.501  1.00  0.00    -0.363 C  
HETATM    7  C   UNL     1     -10.735   7.145  69.362  1.00  0.00    -0.231 A  
HETATM    8  C   UNL     1     -11.252   6.307  68.381  1.00  0.00    -0.272 A  
HETATM    9  C   UNL     1     -10.723   6.481  67.081  1.00  0.00    -0.438 A  
HETATM   10  C   UNL     1      -9.792   7.512  66.720  1.00  0.00    -0.295 A  
HETATM   11  C   UNL     1      -9.309   8.420  67.675  1.00  0.00    -0.158 A  
HETATM   12  C   UNL     1      -8.342   9.714  67.513  1.00  0.00    -0.118 C  
HETATM   13  C   UNL     1      -9.754   8.059  69.020  1.00  0.00    -0.159 A  
HETATM   14  C   UNL     1      -8.106  11.287  66.681  1.00  0.00    -0.160 C  
HETATM   15  C   UNL     1      -8.385  12.661  67.675  1.00  0.00    -0.174 C  
HETATM   16  C   UNL     1      -9.747  12.546  68.367  1.00  0.00    -0.189 C  
HETATM   17  C   UNL     1      -8.024  14.158  67.681  1.00  0.00    -0.178 C  
HETATM   18  N   UNL     1     -10.067  11.152  68.583  1.00  0.00    -0.194 NA 
HETATM   19  C   UNL     1     -10.935  10.744  67.429  1.00  0.00    -0.300 C  
ENDROOT
BRANCH  17  20
HETATM   20  N   UNL     1      -8.347  15.027  66.595  1.00  0.00    -0.401 N  
HETATM   21  H   UNL     1      -7.813  15.060  65.727  1.00  0.00     0.000 HD 
HETATM   22  C   UNL     1      -9.437  15.805  66.829  1.00  0.00    -0.240 C  
HETATM   23  O   UNL     1      -9.717  16.292  67.919  1.00  0.00    -0.230 OA 
BRANCH  22  24
HETATM   24  O   UNL     1     -10.212  15.799  65.743  1.00  0.00    -0.320 OA 
BRANCH  24  25
HETATM   25  C   UNL     1     -11.466  15.102  65.922  1.00  0.00    -0.159 C  
BRANCH  25  26
HETATM   26  C   UNL     1     -11.479  13.856  65.098  1.00  0.00    -0.324 A  
HETATM   27  C   UNL     1     -12.656  13.118  64.995  1.00  0.00    -0.499 A  
HETATM   28  C   UNL     1     -12.708  11.996  64.173  1.00  0.00    -0.361 A  
HETATM   29  C   UNL     1     -11.580  11.603  63.455  1.00  0.00    -0.408 A  
HETATM   30  C   UNL     1     -10.394  12.329  63.562  1.00  0.00    -0.443 A  
HETATM   31  C   UNL     1     -10.341  13.454  64.382  1.00  0.00    -0.347 A  
ENDBRANCH  25  26
ENDBRANCH  24  25
ENDBRANCH  22  24
ENDBRANCH  17  20
TORSDOF 4
ENDMDL
MODEL       12
REMARK 921   NORMALIZED FREE ENERGY PREDICTED BY IDOCK:   -6.92 KCAL/MOL
REMARK 922        TOTAL FREE ENERGY PREDICTED BY IDOCK:   -9.12 KCAL/MOL
REMARK 923 INTER-LIGAND FREE ENERGY PREDICTED BY IDOCK:   -8.63 KCAL/MOL
REMARK 924 INTRA-LIGAND FREE ENERGY PREDICTED BY IDOCK:   -0.49 KCAL/MOL
REMARK 927      BINDING AFFINITY PREDICTED BY RF-SCORE:    0.00 PKD
ROOT
HETATM    1  C   UNL     1     -10.788   7.664  70.303  1.00  0.00    -0.246 C  
HETATM    2  C   UNL     1     -11.151   6.317  69.697  1.00  0.00    -0.479 C  
HETATM    3  C   UNL     1     -10.528   5.345  70.532  1.00  0.00    -0.335 A  
HETATM    4  C   UNL     1      -9.894   4.189  70.213  1.00  0.00    -0.169 A  
HETATM    5  N   UNL     1      -9.280   3.781  71.363  1.00  0.00    -0.116 NA 
HETATM    6  C   UNL     1      -8.325   2.695  71.331  1.00  0.00    -0.062 C  
HETATM    7  C   UNL     1      -9.609   4.634  72.418  1.00  0.00    -0.149 A  
HETATM    8  C   UNL     1      -9.317   4.630  73.777  1.00  0.00    -0.121 A  
HETATM    9  C   UNL     1      -9.807   5.731  74.516  1.00  0.00    -0.256 A  
HETATM   10  C   UNL     1     -10.474   6.861  73.934  1.00  0.00    -0.352 A  
HETATM   11  C   UNL     1     -10.718   6.927  72.553  1.00  0.00    -0.263 A  
HETATM   12  C   UNL     1     -11.357   8.112  71.646  1.00  0.00    -0.315 C  
HETATM   13  C   UNL     1     -10.353   5.675  71.891  1.00  0.00    -0.266 A  
HETATM   14  C   UNL     1     -11.227   9.836  71.164  1.00  0.00    -0.444 C  
HETATM   15  C   UNL     1     -10.620  10.082  69.575  1.00  0.00    -0.267 C  
HETATM   16  C   UNL     1      -9.315   9.306  69.381  1.00  0.00    -0.164 C  
HETATM   17  C   UNL     1     -10.620  11.198  68.513  1.00  0.00    -0.191 C  
HETATM   18  N   UNL     1      -9.328   8.117  70.205  1.00  0.00    -0.155 NA 
HETATM   19  C   UNL     1      -8.595   8.480  71.463  1.00  0.00    -0.181 C  
ENDROOT
BRANCH  17  20
HETATM   20  N   UNL     1     -10.116  12.507  68.780  1.00  0.00    -0.412 N  
HETATM   21  H   UNL     1      -9.148  12.692  69.040  1.00  0.00     0.000 HD 
HETATM   22  C   UNL     1     -11.053  13.484  68.654  1.00  0.00    -0.269 C  
HETATM   23  O   UNL     1     -12.229  13.360  68.975  1.00  0.00    -0.295 OA 
BRANCH  22  24
HETATM   24  O   UNL     1     -10.521  14.506  67.981  1.00  0.00    -0.232 OA 
BRANCH  24  25
HETATM   25  C   UNL     1     -11.389  15.050  66.960  1.00  0.00    -0.318 C  
BRANCH  25  26
HETATM   26  C   UNL     1     -11.475  14.105  65.807  1.00  0.00    -0.327 A  
HETATM   27  C   UNL     1     -10.304  13.686  65.179  1.00  0.00    -0.381 A  
HETATM   28  C   UNL     1     -10.359  12.750  64.151  1.00  0.00    -0.401 A  
HETATM   29  C   UNL     1     -11.587  12.232  63.742  1.00  0.00    -0.555 A  
HETATM   30  C   UNL     1     -12.764  12.655  64.357  1.00  0.00    -0.417 A  
HETATM   31  C   UNL     1     -12.711  13.590  65.388  1.00  0.00    -0.495 A  
ENDBRANCH  25  26
ENDBRANCH  24  25
ENDBRANCH  22  24
ENDBRANCH  17  20
TORSDOF 4
ENDMDL
MODEL       13
REMARK 921   NORMALIZED FREE ENERGY PREDICTED BY IDOCK:   -6.90 KCAL/MOL
REMARK 922        TOTAL FREE ENERGY PREDICTED BY IDOCK:   -9.09 KCAL/MOL
REMARK 923 INTER-LIGAND FREE ENERGY PREDICTED BY IDOCK:   -8.75 KCAL/MOL
REMARK 924 INTRA-LIGAND FREE ENERGY PREDICTED BY IDOCK:   -0.34 KCAL/MOL
REMARK 927      BINDING AFFINITY PREDICTED BY RF-SCORE:    0.00 PKD
ROOT
HETATM    1  C   UNL     1     -10.322  14.398  67.157  1.00  0.00    -0.262 C  
HETATM    2  C   UNL     1     -10.937  15.086  65.948  1.00  0.00    -0.343 C  
HETATM    3  C   UNL     1     -10.280  16.347  65.854  1.00  0.00    -0.379 A  
HETATM    4  C   UNL     1     -10.771  17.572  65.544  1.00  0.00    -0.062 A  
HETATM    5  N   UNL     1      -9.769  18.452  65.841  1.00  0.00    -0.494 NA 
HETATM    6  C   UNL     1     -10.028  19.875  65.842  1.00  0.00    -0.393 C  
HETATM    7  C   UNL     1      -8.624  17.764  66.248  1.00  0.00    -0.185 A  
HETATM    8  C   UNL     1      -7.338  18.167  66.587  1.00  0.00    -0.252 A  
HETATM    9  C   UNL     1      -6.462  17.140  67.008  1.00  0.00    -0.225 A  
HETATM   10  C   UNL     1      -6.853  15.772  67.195  1.00  0.00    -0.170 A  
HETATM   11  C   UNL     1      -8.165  15.350  66.931  1.00  0.00    -0.281 A  
HETATM   12  C   UNL     1      -8.878  13.907  67.145  1.00  0.00    -0.236 C  
HETATM   13  C   UNL     1      -8.953  16.422  66.325  1.00  0.00    -0.368 A  
HETATM   14  C   UNL     1      -9.271  12.616  68.329  1.00  0.00    -0.184 C  
HETATM   15  C   UNL     1     -10.923  12.569  68.802  1.00  0.00    -0.294 C  
HETATM   16  C   UNL     1     -11.383  13.958  69.255  1.00  0.00    -0.272 C  
HETATM   17  C   UNL     1     -11.900  11.563  69.437  1.00  0.00    -0.350 C  
HETATM   18  N   UNL     1     -10.640  14.974  68.541  1.00  0.00    -0.230 NA 
HETATM   19  C   UNL     1      -9.506  15.366  69.442  1.00  0.00    -0.267 C  
ENDROOT
BRANCH  17  20
HETATM   20  N   UNL     1     -11.645  10.941  70.697  1.00  0.00    -0.408 N  
HETATM   21  H   UNL     1     -11.717  11.431  71.588  1.00  0.00     0.000 HD 
HETATM   22  C   UNL     1     -11.298   9.631  70.593  1.00  0.00    -0.312 C  
HETATM   23  O   UNL     1     -10.608   9.167  69.693  1.00  0.00    -0.220 OA 
BRANCH  22  24
HETATM   24  O   UNL     1     -11.965   8.934  71.516  1.00  0.00    -0.294 OA 
BRANCH  24  25
HETATM   25  C   UNL     1     -12.076   7.524  71.218  1.00  0.00    -0.323 C  
BRANCH  25  26
HETATM   26  C   UNL     1     -11.438   6.721  72.303  1.00  0.00    -0.314 A  
HETATM   27  C   UNL     1     -10.534   7.336  73.166  1.00  0.00    -0.385 A  
HETATM   28  C   UNL     1      -9.985   6.623  74.228  1.00  0.00    -0.372 A  
HETATM   29  C   UNL     1     -10.333   5.288  74.427  1.00  0.00    -0.302 A  
HETATM   30  C   UNL     1     -11.227   4.662  73.561  1.00  0.00    -0.400 A  
HETATM   31  C   UNL     1     -11.780   5.374  72.499  1.00  0.00    -0.176 A  
ENDBRANCH  25  26
ENDBRANCH  24  25
ENDBRANCH  22  24
ENDBRANCH  17  20
TORSDOF 4
ENDMDL
MODEL       14
REMARK 921   NORMALIZED FREE ENERGY PREDICTED BY IDOCK:   -6.87 KCAL/MOL
REMARK 922        TOTAL FREE ENERGY PREDICTED BY IDOCK:   -9.05 KCAL/MOL
REMARK 923 INTER-LIGAND FREE ENERGY PREDICTED BY IDOCK:   -8.65 KCAL/MOL
REMARK 924 INTRA-LIGAND FREE ENERGY PREDICTED BY IDOCK:   -0.40 KCAL/MOL
REMARK 927      BINDING AFFINITY PREDICTED BY RF-SCORE:    0.00 PKD
ROOT
HETATM    1  C   UNL     1      -9.842   6.758  70.510  1.00  0.00    -0.176 C  
HETATM    2  C   UNL     1      -9.036   5.681  69.800  1.00  0.00    -0.157 C  
HETATM    3  C   UNL     1      -8.609   4.789  70.826  1.00  0.00    -0.122 A  
HETATM    4  C   UNL     1      -7.426   4.151  70.999  1.00  0.00    -0.047 A  
HETATM    5  N   UNL     1      -7.475   3.627  72.260  1.00  0.00    -0.056 NA 
HETATM    6  C   UNL     1      -6.284   3.068  72.860  1.00  0.00    -0.009 C  
HETATM    7  C   UNL     1      -8.725   3.862  72.834  1.00  0.00    -0.098 A  
HETATM    8  C   UNL     1      -9.307   3.489  74.040  1.00  0.00    -0.108 A  
HETATM    9  C   UNL     1     -10.609   3.988  74.276  1.00  0.00    -0.277 A  
HETATM   10  C   UNL     1     -11.289   4.909  73.411  1.00  0.00    -0.379 A  
HETATM   11  C   UNL     1     -10.695   5.361  72.222  1.00  0.00    -0.287 A  
HETATM   12  C   UNL     1     -11.201   6.455  71.134  1.00  0.00    -0.357 C  
HETATM   13  C   UNL     1      -9.440   4.659  71.958  1.00  0.00    -0.191 A  
HETATM   14  C   UNL     1     -11.733   8.151  70.883  1.00  0.00    -0.259 C  
HETATM   15  C   UNL     1     -10.568   9.150  70.109  1.00  0.00    -0.258 C  
HETATM   16  C   UNL     1      -9.220   9.045  70.828  1.00  0.00    -0.245 C  
HETATM   17  C   UNL     1     -10.541  10.480  69.333  1.00  0.00    -0.240 C  
HETATM   18  N   UNL     1      -9.084   7.731  71.418  1.00  0.00    -0.132 NA 
HETATM   19  C   UNL     1      -9.516   7.875  72.848  1.00  0.00    -0.257 C  
ENDROOT
BRANCH  17  20
HETATM   20  N   UNL     1     -11.045  11.697  69.885  1.00  0.00    -0.481 N  
HETATM   21  H   UNL     1     -11.050  11.899  70.884  1.00  0.00     0.000 HD 
HETATM   22  C   UNL     1     -11.516  12.562  68.948  1.00  0.00    -0.307 C  
HETATM   23  O   UNL     1     -12.115  12.223  67.933  1.00  0.00    -0.466 OA 
BRANCH  22  24
HETATM   24  O   UNL     1     -11.073  13.788  69.232  1.00  0.00    -0.251 OA 
BRANCH  24  25
HETATM   25  C   UNL     1     -12.102  14.804  69.201  1.00  0.00    -0.243 C  
BRANCH  25  26
HETATM   26  C   UNL     1     -12.498  15.171  70.594  1.00  0.00    -0.442 A  
HETATM   27  C   UNL     1     -13.712  14.714  71.102  1.00  0.00    -0.374 A  
HETATM   28  C   UNL     1     -14.064  14.984  72.420  1.00  0.00    -0.574 A  
HETATM   29  C   UNL     1     -13.205  15.718  73.237  1.00  0.00    -0.687 A  
HETATM   30  C   UNL     1     -11.994  16.189  72.733  1.00  0.00    -0.638 A  
HETATM   31  C   UNL     1     -11.637  15.917  71.414  1.00  0.00    -0.529 A  
ENDBRANCH  25  26
ENDBRANCH  24  25
ENDBRANCH  22  24
ENDBRANCH  17  20
TORSDOF 4
ENDMDL
MODEL       15
REMARK 921   NORMALIZED FREE ENERGY PREDICTED BY IDOCK:   -6.82 KCAL/MOL
REMARK 922        TOTAL FREE ENERGY PREDICTED BY IDOCK:   -9.00 KCAL/MOL
REMARK 923 INTER-LIGAND FREE ENERGY PREDICTED BY IDOCK:   -8.33 KCAL/MOL
REMARK 924 INTRA-LIGAND FREE ENERGY PREDICTED BY IDOCK:   -0.66 KCAL/MOL
REMARK 927      BINDING AFFINITY PREDICTED BY RF-SCORE:    0.00 PKD
ROOT
HETATM    1  C   UNL     1     -10.192  10.662  66.463  1.00  0.00    -0.233 C  
HETATM    2  C   UNL     1      -9.822   9.895  65.203  1.00  0.00    -0.348 C  
HETATM    3  C   UNL     1      -8.777   9.007  65.592  1.00  0.00    -0.205 A  
HETATM    4  C   UNL     1      -7.646   8.643  64.939  1.00  0.00    -0.100 A  
HETATM    5  N   UNL     1      -6.894   7.972  65.862  1.00  0.00    -0.056 NA 
HETATM    6  C   UNL     1      -5.518   7.634  65.570  1.00  0.00    -0.029 C  
HETATM    7  C   UNL     1      -7.599   7.840  67.059  1.00  0.00    -0.100 A  
HETATM    8  C   UNL     1      -7.327   7.199  68.262  1.00  0.00    -0.100 A  
HETATM    9  C   UNL     1      -8.302   7.351  69.275  1.00  0.00    -0.132 A  
HETATM   10  C   UNL     1      -9.461   8.189  69.160  1.00  0.00    -0.155 A  
HETATM   11  C   UNL     1      -9.723   8.907  67.983  1.00  0.00    -0.181 A  
HETATM   12  C   UNL     1     -10.891   9.979  67.634  1.00  0.00    -0.336 C  
HETATM   13  C   UNL     1      -8.778   8.552  66.926  1.00  0.00    -0.137 A  
HETATM   14  C   UNL     1     -11.669  11.524  68.114  1.00  0.00    -0.357 C  
HETATM   15  C   UNL     1     -11.296  12.852  67.089  1.00  0.00    -0.352 C  
HETATM   16  C   UNL     1      -9.779  12.974  66.913  1.00  0.00    -0.238 C  
HETATM   17  C   UNL     1     -11.882  14.237  66.757  1.00  0.00    -0.426 C  
HETATM   18  N   UNL     1      -9.171  11.665  67.010  1.00  0.00    -0.179 NA 
HETATM   19  C   UNL     1      -8.711  11.529  68.432  1.00  0.00    -0.160 C  
ENDROOT
BRANCH  17  20
HETATM   20  N   UNL     1     -12.115  15.228  67.758  1.00  0.00    -0.349 N  
HETATM   21  H   UNL     1     -12.923  15.215  68.381  1.00  0.00     0.000 HD 
HETATM   22  C   UNL     1     -11.157  16.192  67.800  1.00  0.00    -0.254 C  
HETATM   23  O   UNL     1     -10.590  16.646  66.814  1.00  0.00    -0.293 OA 
BRANCH  22  24
HETATM   24  O   UNL     1     -10.833  16.420  69.075  1.00  0.00    -0.290 OA 
BRANCH  24  25
HETATM   25  C   UNL     1     -10.547  15.221  69.830  1.00  0.00    -0.282 C  
BRANCH  25  26
HETATM   26  C   UNL     1     -11.493  15.104  70.979  1.00  0.00    -0.372 A  
HETATM   27  C   UNL     1     -11.552  16.127  71.923  1.00  0.00    -0.491 A  
HETATM   28  C   UNL     1     -12.479  16.069  72.959  1.00  0.00    -0.614 A  
HETATM   29  C   UNL     1     -13.348  14.984  73.060  1.00  0.00    -0.568 A  
HETATM   30  C   UNL     1     -13.288  13.951  72.127  1.00  0.00    -0.555 A  
HETATM   31  C   UNL     1     -12.362  14.007  71.087  1.00  0.00    -0.443 A  
ENDBRANCH  25  26
ENDBRANCH  24  25
ENDBRANCH  22  24
ENDBRANCH  17  20
TORSDOF 4
ENDMDL
MODEL       16
REMARK 921   NORMALIZED FREE ENERGY PREDICTED BY IDOCK:   -6.74 KCAL/MOL
REMARK 922        TOTAL FREE ENERGY PREDICTED BY IDOCK:   -8.89 KCAL/MOL
REMARK 923 INTER-LIGAND FREE ENERGY PREDICTED BY IDOCK:   -8.44 KCAL/MOL
REMARK 924 INTRA-LIGAND FREE ENERGY PREDICTED BY IDOCK:   -0.45 KCAL/MOL
REMARK 927      BINDING AFFINITY PREDICTED BY RF-SCORE:    0.00 PKD
ROOT
HETATM    1  C   UNL     1     -10.660  12.766  65.267  1.00  0.00    -0.290 C  
HETATM    2  C   UNL     1     -10.520  12.319  63.820  1.00  0.00    -0.476 C  
HETATM    3  C   UNL     1      -9.764  11.112  63.867  1.00  0.00    -0.325 A  
HETATM    4  C   UNL     1      -8.780  10.660  63.051  1.00  0.00    -0.208 A  
HETATM    5  N   UNL     1      -8.244   9.579  63.692  1.00  0.00    -0.152 NA 
HETATM    6  C   UNL     1      -7.017   8.983  63.209  1.00  0.00    -0.089 C  
HETATM    7  C   UNL     1      -8.956   9.306  64.860  1.00  0.00    -0.180 A  
HETATM    8  C   UNL     1      -8.873   8.300  65.817  1.00  0.00    -0.194 A  
HETATM    9  C   UNL     1      -9.765   8.413  66.908  1.00  0.00    -0.292 A  
HETATM   10  C   UNL     1     -10.645   9.526  67.120  1.00  0.00    -0.295 A  
HETATM   11  C   UNL     1     -10.698  10.592  66.208  1.00  0.00    -0.172 A  
HETATM   12  C   UNL     1     -11.521  11.991  66.260  1.00  0.00    -0.408 C  
HETATM   13  C   UNL     1      -9.890  10.314  65.022  1.00  0.00    -0.397 A  
HETATM   14  C   UNL     1     -11.837  13.484  67.204  1.00  0.00    -0.430 C  
HETATM   15  C   UNL     1     -11.109  14.899  66.554  1.00  0.00    -0.341 C  
HETATM   16  C   UNL     1      -9.619  14.657  66.296  1.00  0.00    -0.308 C  
HETATM   17  C   UNL     1     -11.286  16.425  66.660  1.00  0.00     0.305 C  
HETATM   18  N   UNL     1      -9.400  13.261  65.983  1.00  0.00    -0.079 NA 
HETATM   19  C   UNL     1      -8.994  12.609  67.272  1.00  0.00    -0.194 C  
ENDROOT
BRANCH  17  20
HETATM   20  N   UNL     1     -11.233  17.116  67.909  1.00  0.00    -0.085 N  
HETATM   21  H   UNL     1     -12.035  17.594  68.319  1.00  0.00     0.000 HD 
HETATM   22  C   UNL     1     -10.009  17.075  68.499  1.00  0.00    -0.293 C  
HETATM   23  O   UNL     1      -8.946  17.124  67.890  1.00  0.00    -0.223 OA 
BRANCH  22  24
HETATM   24  O   UNL     1     -10.166  16.805  69.797  1.00  0.00    -0.148 OA 
BRANCH  24  25
HETATM   25  C   UNL     1     -10.277  15.394  70.092  1.00  0.00    -0.196 C  
BRANCH  25  26
HETATM   26  C   UNL     1     -11.452  15.150  70.981  1.00  0.00    -0.372 A  
HETATM   27  C   UNL     1     -11.828  16.126  71.900  1.00  0.00    -0.605 A  
HETATM   28  C   UNL     1     -12.963  15.948  72.685  1.00  0.00    -0.553 A  
HETATM   29  C   UNL     1     -13.725  14.788  72.558  1.00  0.00    -0.572 A  
HETATM   30  C   UNL     1     -13.349  13.800  71.649  1.00  0.00    -0.430 A  
HETATM   31  C   UNL     1     -12.215  13.978  70.860  1.00  0.00    -0.436 A  
ENDBRANCH  25  26
ENDBRANCH  24  25
ENDBRANCH  22  24
ENDBRANCH  17  20
TORSDOF 4
ENDMDL
MODEL       17
REMARK 921   NORMALIZED FREE ENERGY PREDICTED BY IDOCK:   -6.73 KCAL/MOL
REMARK 922        TOTAL FREE ENERGY PREDICTED BY IDOCK:   -8.88 KCAL/MOL
REMARK 923 INTER-LIGAND FREE ENERGY PREDICTED BY IDOCK:   -8.52 KCAL/MOL
REMARK 924 INTRA-LIGAND FREE ENERGY PREDICTED BY IDOCK:   -0.36 KCAL/MOL
REMARK 927      BINDING AFFINITY PREDICTED BY RF-SCORE:    0.00 PKD
ROOT
HETATM    1  C   UNL     1     -11.189   7.796  70.520  1.00  0.00    -0.257 C  
HETATM    2  C   UNL     1     -11.409   6.510  69.739  1.00  0.00    -0.456 C  
HETATM    3  C   UNL     1     -10.642   5.518  70.416  1.00  0.00    -0.350 A  
HETATM    4  C   UNL     1      -9.885   4.506  69.925  1.00  0.00    -0.227 A  
HETATM    5  N   UNL     1      -9.184   4.024  70.994  1.00  0.00    -0.123 NA 
HETATM    6  C   UNL     1      -8.107   3.080  70.790  1.00  0.00    -0.053 C  
HETATM    7  C   UNL     1      -9.574   4.677  72.164  1.00  0.00    -0.151 A  
HETATM    8  C   UNL     1      -9.232   4.524  73.503  1.00  0.00    -0.115 A  
HETATM    9  C   UNL     1      -9.823   5.444  74.399  1.00  0.00    -0.223 A  
HETATM   10  C   UNL     1     -10.644   6.550  73.995  1.00  0.00    -0.202 A  
HETATM   11  C   UNL     1     -10.945   6.774  72.643  1.00  0.00    -0.291 A  
HETATM   12  C   UNL     1     -11.757   7.982  71.923  1.00  0.00    -0.351 C  
HETATM   13  C   UNL     1     -10.457   5.680  71.804  1.00  0.00    -0.284 A  
HETATM   14  C   UNL     1     -11.855   9.758  71.685  1.00  0.00    -0.429 C  
HETATM   15  C   UNL     1     -11.343  10.293  70.134  1.00  0.00    -0.388 C  
HETATM   16  C   UNL     1      -9.961   9.720  69.807  1.00  0.00    -0.236 C  
HETATM   17  C   UNL     1     -11.517  11.535  69.240  1.00  0.00    -0.305 C  
HETATM   18  N   UNL     1      -9.799   8.437  70.457  1.00  0.00    -0.182 NA 
HETATM   19  C   UNL     1      -9.069   8.714  71.738  1.00  0.00    -0.247 C  
ENDROOT
BRANCH  17  20
HETATM   20  N   UNL     1     -11.165  12.848  69.677  1.00  0.00    -0.475 N  
HETATM   21  H   UNL     1     -10.237  13.250  69.551  1.00  0.00     0.000 HD 
HETATM   22  C   UNL     1     -12.188  13.510  70.279  1.00  0.00    -0.347 C  
HETATM   23  O   UNL     1     -13.022  12.981  71.006  1.00  0.00    -0.233 OA 
BRANCH  22  24
HETATM   24  O   UNL     1     -12.224  14.761  69.815  1.00  0.00    -0.311 OA 
BRANCH  24  25
HETATM   25  C   UNL     1     -10.940  15.425  69.824  1.00  0.00    -0.287 C  
BRANCH  25  26
HETATM   26  C   UNL     1     -10.725  16.138  68.530  1.00  0.00    -0.300 A  
HETATM   27  C   UNL     1     -10.421  17.497  68.541  1.00  0.00    -0.361 A  
HETATM   28  C   UNL     1     -10.145  18.162  67.350  1.00  0.00    -0.359 A  
HETATM   29  C   UNL     1     -10.178  17.471  66.140  1.00  0.00    -0.339 A  
HETATM   30  C   UNL     1     -10.494  16.113  66.119  1.00  0.00    -0.334 A  
HETATM   31  C   UNL     1     -10.768  15.445  67.310  1.00  0.00    -0.307 A  
ENDBRANCH  25  26
ENDBRANCH  24  25
ENDBRANCH  22  24
ENDBRANCH  17  20
TORSDOF 4
ENDMDL
MODEL       18
REMARK 921   NORMALIZED FREE ENERGY PREDICTED BY IDOCK:   -6.63 KCAL/MOL
REMARK 922        TOTAL FREE ENERGY PREDICTED BY IDOCK:   -8.76 KCAL/MOL
REMARK 923 INTER-LIGAND FREE ENERGY PREDICTED BY IDOCK:   -8.18 KCAL/MOL
REMARK 924 INTRA-LIGAND FREE ENERGY PREDICTED BY IDOCK:   -0.57 KCAL/MOL
REMARK 927      BINDING AFFINITY PREDICTED BY RF-SCORE:    0.00 PKD
ROOT
HETATM    1  C   UNL     1      -8.748  10.060  67.180  1.00  0.00    -0.128 C  
HETATM    2  C   UNL     1      -7.373   9.414  67.125  1.00  0.00    -0.087 C  
HETATM    3  C   UNL     1      -7.461   8.262  67.960  1.00  0.00    -0.097 A  
HETATM    4  C   UNL     1      -6.566   7.742  68.836  1.00  0.00    -0.049 A  
HETATM    5  N   UNL     1      -7.253   6.793  69.538  1.00  0.00    -0.079 NA 
HETATM    6  C   UNL     1      -6.663   6.190  70.714  1.00  0.00    -0.061 C  
HETATM    7  C   UNL     1      -8.548   6.661  69.035  1.00  0.00    -0.130 A  
HETATM    8  C   UNL     1      -9.607   5.811  69.335  1.00  0.00    -0.179 A  
HETATM    9  C   UNL     1     -10.803   6.041  68.616  1.00  0.00    -0.379 A  
HETATM   10  C   UNL     1     -11.000   7.131  67.705  1.00  0.00    -0.226 A  
HETATM   11  C   UNL     1      -9.972   8.049  67.438  1.00  0.00    -0.270 A  
HETATM   12  C   UNL     1      -9.965   9.400  66.538  1.00  0.00    -0.339 C  
HETATM   13  C   UNL     1      -8.720   7.637  68.070  1.00  0.00    -0.125 A  
HETATM   14  C   UNL     1     -10.734  10.999  66.269  1.00  0.00    -0.273 C  
HETATM   15  C   UNL     1      -9.786  12.336  66.788  1.00  0.00    -0.219 C  
HETATM   16  C   UNL     1      -9.325  12.128  68.234  1.00  0.00    -0.198 C  
HETATM   17  C   UNL     1      -9.709  13.851  66.525  1.00  0.00    -0.294 C  
HETATM   18  N   UNL     1      -9.175  10.713  68.498  1.00  0.00    -0.162 NA 
HETATM   19  C   UNL     1     -10.457  10.276  69.143  1.00  0.00    -0.224 C  
ENDROOT
BRANCH  17  20
HETATM   20  N   UNL     1     -10.826  14.719  66.723  1.00  0.00    -0.310 N  
HETATM   21  H   UNL     1     -11.695  14.641  66.196  1.00  0.00     0.000 HD 
HETATM   22  C   UNL     1     -10.618  15.660  67.681  1.00  0.00    -0.294 C  
HETATM   23  O   UNL     1      -9.546  16.222  67.877  1.00  0.00    -0.224 OA 
BRANCH  22  24
HETATM   24  O   UNL     1     -11.702  15.732  68.456  1.00  0.00    -0.383 OA 
BRANCH  24  25
HETATM   25  C   UNL     1     -11.999  14.506  69.162  1.00  0.00    -0.309 C  
BRANCH  25  26
HETATM   26  C   UNL     1     -12.314  14.803  70.591  1.00  0.00    -0.401 A  
HETATM   27  C   UNL     1     -13.257  14.024  71.259  1.00  0.00    -0.373 A  
HETATM   28  C   UNL     1     -13.509  14.238  72.611  1.00  0.00    -0.623 A  
HETATM   29  C   UNL     1     -12.824  15.237  73.300  1.00  0.00    -0.634 A  
HETATM   30  C   UNL     1     -11.888  16.029  72.636  1.00  0.00    -0.611 A  
HETATM   31  C   UNL     1     -11.631  15.814  71.284  1.00  0.00    -0.499 A  
ENDBRANCH  25  26
ENDBRANCH  24  25
ENDBRANCH  22  24
ENDBRANCH  17  20
TORSDOF 4
ENDMDL
MODEL       19
REMARK 921   NORMALIZED FREE ENERGY PREDICTED BY IDOCK:   -6.59 KCAL/MOL
REMARK 922        TOTAL FREE ENERGY PREDICTED BY IDOCK:   -8.71 KCAL/MOL
REMARK 923 INTER-LIGAND FREE ENERGY PREDICTED BY IDOCK:   -8.39 KCAL/MOL
REMARK 924 INTRA-LIGAND FREE ENERGY PREDICTED BY IDOCK:   -0.32 KCAL/MOL
REMARK 927      BINDING AFFINITY PREDICTED BY RF-SCORE:    0.00 PKD
ROOT
HETATM    1  C   UNL     1      -8.939  17.083  67.741  1.00  0.00    -0.224 C  
HETATM    2  C   UNL     1      -9.292  18.385  68.442  1.00  0.00    -0.347 C  
HETATM    3  C   UNL     1      -8.113  19.183  68.380  1.00  0.00    -0.378 A  
HETATM    4  C   UNL     1      -7.556  20.002  69.306  1.00  0.00     0.040 A  
HETATM    5  N   UNL     1      -6.320  20.316  68.817  1.00  0.00    -0.310 NA 
HETATM    6  C   UNL     1      -5.359  20.998  69.657  1.00  0.00    -0.339 C  
HETATM    7  C   UNL     1      -6.146  19.767  67.546  1.00  0.00    -0.189 A  
HETATM    8  C   UNL     1      -5.126  19.841  66.605  1.00  0.00    -0.160 A  
HETATM    9  C   UNL     1      -5.314  19.075  65.431  1.00  0.00    -0.201 A  
HETATM   10  C   UNL     1      -6.415  18.178  65.221  1.00  0.00    -0.042 A  
HETATM   11  C   UNL     1      -7.422  18.027  66.186  1.00  0.00    -0.305 A  
HETATM   12  C   UNL     1      -8.701  17.028  66.236  1.00  0.00    -0.285 C  
HETATM   13  C   UNL     1      -7.255  18.985  67.278  1.00  0.00    -0.228 A  
HETATM   14  C   UNL     1      -9.242  15.317  66.178  1.00  0.00    -0.345 C  
HETATM   15  C   UNL     1      -9.739  14.681  67.696  1.00  0.00    -0.214 C  
HETATM   16  C   UNL     1      -8.661  14.934  68.754  1.00  0.00    -0.177 C  
HETATM   17  C   UNL     1     -10.590  13.509  68.219  1.00  0.00    -0.250 C  
HETATM   18  N   UNL     1      -7.943  16.149  68.436  1.00  0.00    -0.155 NA 
HETATM   19  C   UNL     1      -6.712  15.718  67.694  1.00  0.00    -0.172 C  
ENDROOT
BRANCH  17  20
HETATM   20  N   UNL     1     -10.314  12.151  67.874  1.00  0.00    -0.201 N  
HETATM   21  H   UNL     1      -9.419  11.698  68.057  1.00  0.00     0.000 HD 
HETATM   22  C   UNL     1     -11.360  11.520  67.279  1.00  0.00    -0.290 C  
HETATM   23  O   UNL     1     -12.134  12.056  66.493  1.00  0.00    -0.617 OA 
BRANCH  22  24
HETATM   24  O   UNL     1     -11.494  10.306  67.817  1.00  0.00    -0.351 OA 
BRANCH  24  25
HETATM   25  C   UNL     1     -10.732  10.117  69.030  1.00  0.00    -0.221 C  
BRANCH  25  26
HETATM   26  C   UNL     1     -11.654   9.950  70.192  1.00  0.00    -0.281 A  
HETATM   27  C   UNL     1     -11.647   8.753  70.904  1.00  0.00    -0.320 A  
HETATM   28  C   UNL     1     -12.446   8.606  72.034  1.00  0.00    -0.433 A  
HETATM   29  C   UNL     1     -13.262   9.655  72.454  1.00  0.00    -0.413 A  
HETATM   30  C   UNL     1     -13.285  10.852  71.741  1.00  0.00    -0.513 A  
HETATM   31  C   UNL     1     -12.483  11.003  70.611  1.00  0.00    -0.465 A  
ENDBRANCH  25  26
ENDBRANCH  24  25
ENDBRANCH  22  24
ENDBRANCH  17  20
TORSDOF 4
ENDMDL
MODEL       20
REMARK 921   NORMALIZED FREE ENERGY PREDICTED BY IDOCK:   -6.56 KCAL/MOL
REMARK 922        TOTAL FREE ENERGY PREDICTED BY IDOCK:   -8.68 KCAL/MOL
REMARK 923 INTER-LIGAND FREE ENERGY PREDICTED BY IDOCK:   -8.30 KCAL/MOL
REMARK 924 INTRA-LIGAND FREE ENERGY PREDICTED BY IDOCK:   -0.38 KCAL/MOL
REMARK 927      BINDING AFFINITY PREDICTED BY RF-SCORE:    0.00 PKD
ROOT
HETATM    1  C   UNL     1     -11.033   7.891  69.749  1.00  0.00    -0.148 C  
HETATM    2  C   UNL     1     -11.218   6.464  69.256  1.00  0.00    -0.440 C  
HETATM    3  C   UNL     1     -10.512   5.646  70.185  1.00  0.00    -0.366 A  
HETATM    4  C   UNL     1      -9.739   4.551  69.980  1.00  0.00    -0.213 A  
HETATM    5  N   UNL     1      -9.116   4.317  71.173  1.00  0.00    -0.120 NA 
HETATM    6  C   UNL     1      -8.042   3.352  71.255  1.00  0.00    -0.060 C  
HETATM    7  C   UNL     1      -9.574   5.210  72.143  1.00  0.00    -0.152 A  
HETATM    8  C   UNL     1      -9.325   5.354  73.503  1.00  0.00    -0.134 A  
HETATM    9  C   UNL     1      -9.961   6.448  74.133  1.00  0.00    -0.326 A  
HETATM   10  C   UNL     1     -10.737   7.438  73.442  1.00  0.00    -0.407 A  
HETATM   11  C   UNL     1     -10.945   7.359  72.056  1.00  0.00    -0.273 A  
HETATM   12  C   UNL     1     -11.690   8.379  71.037  1.00  0.00    -0.296 C  
HETATM   13  C   UNL     1     -10.417   6.108  71.513  1.00  0.00    -0.268 A  
HETATM   14  C   UNL     1     -11.747  10.060  70.409  1.00  0.00    -0.365 C  
HETATM   15  C   UNL     1     -11.125  10.242  68.817  1.00  0.00    -0.276 C  
HETATM   16  C   UNL     1      -9.732   9.612  68.718  1.00  0.00    -0.163 C  
HETATM   17  C   UNL     1     -11.222  11.257  67.663  1.00  0.00    -0.292 C  
HETATM   18  N   UNL     1      -9.633   8.504  69.642  1.00  0.00    -0.169 NA 
HETATM   19  C   UNL     1      -8.985   9.055  70.878  1.00  0.00    -0.243 C  
ENDROOT
BRANCH  17  20
HETATM   20  N   UNL     1     -10.882  12.635  67.825  1.00  0.00    -0.216 N  
HETATM   21  H   UNL     1     -10.532  13.025  68.700  1.00  0.00     0.000 HD 
HETATM   22  C   UNL     1     -11.069  13.375  66.701  1.00  0.00    -0.295 C  
HETATM   23  O   UNL     1     -11.990  13.210  65.910  1.00  0.00    -0.383 OA 
BRANCH  22  24
HETATM   24  O   UNL     1     -10.011  14.169  66.527  1.00  0.00    -0.266 OA 
BRANCH  24  25
HETATM   25  C   UNL     1      -9.623  14.895  67.716  1.00  0.00    -0.208 C  
BRANCH  25  26
HETATM   26  C   UNL     1      -9.957  16.343  67.562  1.00  0.00    -0.250 A  
HETATM   27  C   UNL     1      -9.993  17.159  68.690  1.00  0.00    -0.313 A  
HETATM   28  C   UNL     1     -10.230  18.524  68.558  1.00  0.00    -0.389 A  
HETATM   29  C   UNL     1     -10.438  19.078  67.296  1.00  0.00    -0.533 A  
HETATM   30  C   UNL     1     -10.416  18.267  66.163  1.00  0.00    -0.403 A  
HETATM   31  C   UNL     1     -10.176  16.900  66.292  1.00  0.00    -0.337 A  
ENDBRANCH  25  26
ENDBRANCH  24  25
ENDBRANCH  22  24
ENDBRANCH  17  20
TORSDOF 4
ENDMDL
MODEL       21
REMARK 921   NORMALIZED FREE ENERGY PREDICTED BY IDOCK:   -6.54 KCAL/MOL
REMARK 922        TOTAL FREE ENERGY PREDICTED BY IDOCK:   -8.66 KCAL/MOL
REMARK 923 INTER-LIGAND FREE ENERGY PREDICTED BY IDOCK:   -8.33 KCAL/MOL
REMARK 924 INTRA-LIGAND FREE ENERGY PREDICTED BY IDOCK:   -0.33 KCAL/MOL
REMARK 927      BINDING AFFINITY PREDICTED BY RF-SCORE:    0.00 PKD
ROOT
HETATM    1  C   UNL     1     -10.595   9.458  68.049  1.00  0.00    -0.226 C  
HETATM    2  C   UNL     1     -10.892   8.053  67.547  1.00  0.00    -0.132 C  
HETATM    3  C   UNL     1     -10.628   7.192  68.651  1.00  0.00    -0.217 A  
HETATM    4  C   UNL     1     -10.040   5.971  68.691  1.00  0.00    -0.168 A  
HETATM    5  N   UNL     1      -9.823   5.715  70.016  1.00  0.00    -0.174 NA 
HETATM    6  C   UNL     1      -9.004   4.590  70.413  1.00  0.00    -0.094 C  
HETATM    7  C   UNL     1     -10.360   6.735  70.801  1.00  0.00    -0.204 A  
HETATM    8  C   UNL     1     -10.472   6.926  72.174  1.00  0.00    -0.230 A  
HETATM    9  C   UNL     1     -11.048   8.152  72.580  1.00  0.00    -0.450 A  
HETATM   10  C   UNL     1     -11.412   9.210  71.681  1.00  0.00    -0.451 A  
HETATM   11  C   UNL     1     -11.242   9.075  70.295  1.00  0.00    -0.232 A  
HETATM   12  C   UNL     1     -11.480  10.135  69.090  1.00  0.00    -0.155 C  
HETATM   13  C   UNL     1     -10.821   7.719  69.944  1.00  0.00    -0.228 A  
HETATM   14  C   UNL     1     -11.058  11.756  68.444  1.00  0.00    -0.286 C  
HETATM   15  C   UNL     1     -10.000  11.724  67.089  1.00  0.00    -0.221 C  
HETATM   16  C   UNL     1      -8.772  10.862  67.398  1.00  0.00    -0.130 C  
HETATM   17  C   UNL     1      -9.591  12.661  65.938  1.00  0.00    -0.153 C  
HETATM   18  N   UNL     1      -9.133   9.817  68.331  1.00  0.00    -0.123 NA 
HETATM   19  C   UNL     1      -8.761  10.333  69.690  1.00  0.00    -0.105 C  
ENDROOT
BRANCH  17  20
HETATM   20  N   UNL     1      -9.066  13.969  66.167  1.00  0.00    -0.495 N  
HETATM   21  H   UNL     1      -8.072  14.158  66.298  1.00  0.00     0.000 HD 
HETATM   22  C   UNL     1     -10.018  14.938  66.193  1.00  0.00    -0.303 C  
HETATM   23  O   UNL     1     -11.139  14.794  66.667  1.00  0.00    -0.321 OA 
BRANCH  22  24
HETATM   24  O   UNL     1      -9.590  15.982  65.479  1.00  0.00    -0.418 OA 
BRANCH  24  25
HETATM   25  C   UNL     1      -8.504  16.708  66.098  1.00  0.00    -0.273 C  
BRANCH  25  26
HETATM   26  C   UNL     1      -8.964  18.071  66.498  1.00  0.00    -0.280 A  
HETATM   27  C   UNL     1     -10.293  18.432  66.290  1.00  0.00    -0.440 A  
HETATM   28  C   UNL     1     -10.758  19.670  66.723  1.00  0.00    -0.562 A  
HETATM   29  C   UNL     1      -9.892  20.556  67.363  1.00  0.00    -0.574 A  
HETATM   30  C   UNL     1      -8.558  20.208  67.565  1.00  0.00    -0.404 A  
HETATM   31  C   UNL     1      -8.091  18.967  67.134  1.00  0.00    -0.280 A  
ENDBRANCH  25  26
ENDBRANCH  24  25
ENDBRANCH  22  24
ENDBRANCH  17  20
TORSDOF 4
ENDMDL
MODEL       22
REMARK 921   NORMALIZED FREE ENERGY PREDICTED BY IDOCK:   -6.54 KCAL/MOL
REMARK 922        TOTAL FREE ENERGY PREDICTED BY IDOCK:   -8.65 KCAL/MOL
REMARK 923 INTER-LIGAND FREE ENERGY PREDICTED BY IDOCK:   -8.05 KCAL/MOL
REMARK 924 INTRA-LIGAND FREE ENERGY PREDICTED BY IDOCK:   -0.61 KCAL/MOL
REMARK 927      BINDING AFFINITY PREDICTED BY RF-SCORE:    0.00 PKD
ROOT
HETATM    1  C   UNL     1      -9.002   7.766  68.505  1.00  0.00    -0.133 C  
HETATM    2  C   UNL     1      -7.810   7.263  69.303  1.00  0.00    -0.116 C  
HETATM    3  C   UNL     1      -8.217   7.315  70.668  1.00  0.00    -0.116 A  
HETATM    4  C   UNL     1      -7.530   7.684  71.776  1.00  0.00    -0.081 A  
HETATM    5  N   UNL     1      -8.464   7.781  72.769  1.00  0.00    -0.132 NA 
HETATM    6  C   UNL     1      -8.113   8.373  74.041  1.00  0.00    -0.135 C  
HETATM    7  C   UNL     1      -9.715   7.381  72.297  1.00  0.00    -0.155 A  
HETATM    8  C   UNL     1     -10.958   7.227  72.900  1.00  0.00    -0.381 A  
HETATM    9  C   UNL     1     -12.016   6.845  72.043  1.00  0.00    -0.342 A  
HETATM   10  C   UNL     1     -11.893   6.717  70.618  1.00  0.00    -0.442 A  
HETATM   11  C   UNL     1     -10.667   6.939  69.973  1.00  0.00    -0.276 A  
HETATM   12  C   UNL     1     -10.288   6.951  68.395  1.00  0.00    -0.213 C  
HETATM   13  C   UNL     1      -9.590   7.143  70.940  1.00  0.00    -0.167 A  
HETATM   14  C   UNL     1     -10.651   7.678  66.794  1.00  0.00    -0.256 C  
HETATM   15  C   UNL     1      -9.464   8.789  66.235  1.00  0.00    -0.300 C  
HETATM   16  C   UNL     1      -9.168   9.834  67.315  1.00  0.00    -0.134 C  
HETATM   17  C   UNL     1      -9.026   9.414  64.898  1.00  0.00    -0.209 C  
HETATM   18  N   UNL     1      -9.363   9.250  68.624  1.00  0.00    -0.138 NA 
HETATM   19  C   UNL     1     -10.755   9.627  69.040  1.00  0.00    -0.211 C  
ENDROOT
BRANCH  17  20
HETATM   20  N   UNL     1      -9.928  10.141  64.062  1.00  0.00    -0.473 N  
HETATM   21  H   UNL     1     -10.942  10.058  64.128  1.00  0.00     0.000 HD 
HETATM   22  C   UNL     1      -9.303  10.954  63.170  1.00  0.00    -0.324 C  
HETATM   23  O   UNL     1      -8.254  10.678  62.600  1.00  0.00    -0.164 OA 
BRANCH  22  24
HETATM   24  O   UNL     1      -9.922  12.137  63.159  1.00  0.00    -0.393 OA 
BRANCH  24  25
HETATM   25  C   UNL     1     -11.262  12.101  63.698  1.00  0.00    -0.464 C  
BRANCH  25  26
HETATM   26  C   UNL     1     -11.346  12.961  64.916  1.00  0.00    -0.340 A  
HETATM   27  C   UNL     1     -11.672  12.382  66.140  1.00  0.00    -0.460 A  
HETATM   28  C   UNL     1     -11.682  13.153  67.298  1.00  0.00    -0.425 A  
HETATM   29  C   UNL     1     -11.372  14.511  67.236  1.00  0.00    -0.363 A  
HETATM   30  C   UNL     1     -11.056  15.101  66.014  1.00  0.00    -0.312 A  
HETATM   31  C   UNL     1     -11.043  14.330  64.853  1.00  0.00    -0.396 A  
ENDBRANCH  25  26
ENDBRANCH  24  25
ENDBRANCH  22  24
ENDBRANCH  17  20
TORSDOF 4
ENDMDL
MODEL       23
REMARK 921   NORMALIZED FREE ENERGY PREDICTED BY IDOCK:   -6.51 KCAL/MOL
REMARK 922        TOTAL FREE ENERGY PREDICTED BY IDOCK:   -8.62 KCAL/MOL
REMARK 923 INTER-LIGAND FREE ENERGY PREDICTED BY IDOCK:   -8.06 KCAL/MOL
REMARK 924 INTRA-LIGAND FREE ENERGY PREDICTED BY IDOCK:   -0.56 KCAL/MOL
REMARK 927      BINDING AFFINITY PREDICTED BY RF-SCORE:    0.00 PKD
ROOT
HETATM    1  C   UNL     1     -11.319  12.605  68.221  1.00  0.00    -0.295 C  
HETATM    2  C   UNL     1     -12.045  13.609  69.102  1.00  0.00    -0.361 C  
HETATM    3  C   UNL     1     -11.623  14.891  68.643  1.00  0.00    -0.342 A  
HETATM    4  C   UNL     1     -11.319  16.016  69.336  1.00  0.00    -0.355 A  
HETATM    5  N   UNL     1     -10.745  16.859  68.428  1.00  0.00    -0.361 NA 
HETATM    6  C   UNL     1     -10.093  18.071  68.873  1.00  0.00    -0.344 C  
HETATM    7  C   UNL     1     -10.777  16.293  67.153  1.00  0.00    -0.247 A  
HETATM    8  C   UNL     1     -10.399  16.750  65.895  1.00  0.00    -0.341 A  
HETATM    9  C   UNL     1     -10.548  15.826  64.834  1.00  0.00    -0.311 A  
HETATM   10  C   UNL     1     -10.955  14.461  65.005  1.00  0.00    -0.398 A  
HETATM   11  C   UNL     1     -11.272  13.951  66.273  1.00  0.00    -0.310 A  
HETATM   12  C   UNL     1     -11.662  12.447  66.743  1.00  0.00    -0.430 C  
HETATM   13  C   UNL     1     -11.276  15.009  67.282  1.00  0.00    -0.339 A  
HETATM   14  C   UNL     1     -11.145  10.728  66.772  1.00  0.00    -0.153 C  
HETATM   15  C   UNL     1     -10.611  10.176  68.309  1.00  0.00    -0.262 C  
HETATM   16  C   UNL     1      -9.554  11.129  68.876  1.00  0.00    -0.142 C  
HETATM   17  C   UNL     1     -10.410   8.831  69.033  1.00  0.00    -0.213 C  
HETATM   18  N   UNL     1      -9.803  12.471  68.396  1.00  0.00    -0.223 NA 
HETATM   19  C   UNL     1      -8.915  12.652  67.200  1.00  0.00    -0.205 C  
ENDROOT
BRANCH  17  20
HETATM   20  N   UNL     1      -9.581   7.795  68.505  1.00  0.00    -0.148 N  
HETATM   21  H   UNL     1      -8.584   7.913  68.326  1.00  0.00     0.000 HD 
HETATM   22  C   UNL     1     -10.249   6.637  68.263  1.00  0.00    -0.171 C  
HETATM   23  O   UNL     1     -11.399   6.577  67.843  1.00  0.00    -0.245 OA 
BRANCH  22  24
HETATM   24  O   UNL     1      -9.518   5.615  68.714  1.00  0.00    -0.120 OA 
BRANCH  24  25
HETATM   25  C   UNL     1     -10.152   4.865  69.774  1.00  0.00    -0.249 C  
BRANCH  25  26
HETATM   26  C   UNL     1     -10.109   5.644  71.047  1.00  0.00    -0.266 A  
HETATM   27  C   UNL     1      -8.882   5.876  71.666  1.00  0.00    -0.139 A  
HETATM   28  C   UNL     1      -8.814   6.662  72.812  1.00  0.00    -0.129 A  
HETATM   29  C   UNL     1      -9.975   7.216  73.349  1.00  0.00    -0.320 A  
HETATM   30  C   UNL     1     -11.208   6.979  72.744  1.00  0.00    -0.294 A  
HETATM   31  C   UNL     1     -11.278   6.195  71.595  1.00  0.00    -0.342 A  
ENDBRANCH  25  26
ENDBRANCH  24  25
ENDBRANCH  22  24
ENDBRANCH  17  20
TORSDOF 4
ENDMDL
MODEL       24
REMARK 921   NORMALIZED FREE ENERGY PREDICTED BY IDOCK:   -6.49 KCAL/MOL
REMARK 922        TOTAL FREE ENERGY PREDICTED BY IDOCK:   -8.59 KCAL/MOL
REMARK 923 INTER-LIGAND FREE ENERGY PREDICTED BY IDOCK:   -7.90 KCAL/MOL
REMARK 924 INTRA-LIGAND FREE ENERGY PREDICTED BY IDOCK:   -0.69 KCAL/MOL
REMARK 927      BINDING AFFINITY PREDICTED BY RF-SCORE:    0.00 PKD
ROOT
HETATM    1  C   UNL     1     -11.360  15.160  65.854  1.00  0.00    -0.225 C  
HETATM    2  C   UNL     1     -12.122  14.526  64.700  1.00  0.00    -0.486 C  
HETATM    3  C   UNL     1     -11.666  13.178  64.640  1.00  0.00    -0.404 A  
HETATM    4  C   UNL     1     -11.387  12.392  63.570  1.00  0.00    -0.476 A  
HETATM    5  N   UNL     1     -10.759  11.292  64.081  1.00  0.00    -0.366 NA 
HETATM    6  C   UNL     1     -10.120  10.343  63.195  1.00  0.00     0.121 C  
HETATM    7  C   UNL     1     -10.731  11.352  65.475  1.00  0.00    -0.253 A  
HETATM    8  C   UNL     1     -10.285  10.479  66.460  1.00  0.00    -0.288 A  
HETATM    9  C   UNL     1     -10.387  10.948  67.791  1.00  0.00    -0.218 A  
HETATM   10  C   UNL     1     -10.815  12.269  68.150  1.00  0.00    -0.258 A  
HETATM   11  C   UNL     1     -11.202  13.198  67.171  1.00  0.00    -0.326 A  
HETATM   12  C   UNL     1     -11.629  14.759  67.301  1.00  0.00    -0.385 C  
HETATM   13  C   UNL     1     -11.248  12.581  65.846  1.00  0.00    -0.356 A  
HETATM   14  C   UNL     1     -11.130  16.383  67.880  1.00  0.00    -0.249 C  
HETATM   15  C   UNL     1     -10.680  17.472  66.629  1.00  0.00    -0.097 C  
HETATM   16  C   UNL     1      -9.646  16.820  65.706  1.00  0.00    -0.079 C  
HETATM   17  C   UNL     1     -10.529  18.993  66.439  1.00  0.00    -0.446 C  
HETATM   18  N   UNL     1      -9.857  15.390  65.673  1.00  0.00    -0.354 NA 
HETATM   19  C   UNL     1      -8.907  14.809  66.679  1.00  0.00    -0.229 C  
ENDROOT
BRANCH  17  20
HETATM   20  N   UNL     1      -9.683  19.787  67.272  1.00  0.00    -0.347 N  
HETATM   21  H   UNL     1     -10.028  20.336  68.058  1.00  0.00     0.000 HD 
HETATM   22  C   UNL     1      -8.373  19.740  66.914  1.00  0.00    -0.311 C  
HETATM   23  O   UNL     1      -7.974  19.685  65.756  1.00  0.00    -0.393 OA 
BRANCH  22  24
HETATM   24  O   UNL     1      -7.631  19.593  68.014  1.00  0.00    -0.283 OA 
BRANCH  24  25
HETATM   25  C   UNL     1      -6.240  19.303  67.747  1.00  0.00    -0.212 C  
BRANCH  25  26
HETATM   26  C   UNL     1      -5.903  17.931  68.228  1.00  0.00    -0.168 A  
HETATM   27  C   UNL     1      -5.799  16.890  67.308  1.00  0.00    -0.198 A  
HETATM   28  C   UNL     1      -5.414  15.621  67.728  1.00  0.00    -0.141 A  
HETATM   29  C   UNL     1      -5.136  15.384  69.073  1.00  0.00    -0.095 A  
HETATM   30  C   UNL     1      -5.249  16.416  70.003  1.00  0.00    -0.160 A  
HETATM   31  C   UNL     1      -5.632  17.689  69.584  1.00  0.00    -0.222 A  
ENDBRANCH  25  26
ENDBRANCH  24  25
ENDBRANCH  22  24
ENDBRANCH  17  20
TORSDOF 4
ENDMDL
MODEL       25
REMARK 921   NORMALIZED FREE ENERGY PREDICTED BY IDOCK:   -6.48 KCAL/MOL
REMARK 922        TOTAL FREE ENERGY PREDICTED BY IDOCK:   -8.58 KCAL/MOL
REMARK 923 INTER-LIGAND FREE ENERGY PREDICTED BY IDOCK:   -8.17 KCAL/MOL
REMARK 924 INTRA-LIGAND FREE ENERGY PREDICTED BY IDOCK:   -0.42 KCAL/MOL
REMARK 927      BINDING AFFINITY PREDICTED BY RF-SCORE:    0.00 PKD
ROOT
HETATM    1  C   UNL     1      -9.111  15.212  66.927  1.00  0.00    -0.247 C  
HETATM    2  C   UNL     1      -9.489  16.210  65.843  1.00  0.00    -0.337 C  
HETATM    3  C   UNL     1      -9.225  17.494  66.401  1.00  0.00    -0.267 A  
HETATM    4  C   UNL     1      -9.924  18.652  66.309  1.00  0.00    -0.372 A  
HETATM    5  N   UNL     1      -9.360  19.492  67.227  1.00  0.00    -0.308 NA 
HETATM    6  C   UNL     1     -10.004  20.745  67.556  1.00  0.00    -0.197 C  
HETATM    7  C   UNL     1      -8.253  18.886  67.823  1.00  0.00    -0.270 A  
HETATM    8  C   UNL     1      -7.308  19.321  68.745  1.00  0.00    -0.381 A  
HETATM    9  C   UNL     1      -6.351  18.359  69.145  1.00  0.00    -0.258 A  
HETATM   10  C   UNL     1      -6.372  16.983  68.740  1.00  0.00    -0.172 A  
HETATM   11  C   UNL     1      -7.358  16.498  67.867  1.00  0.00    -0.148 A  
HETATM   12  C   UNL     1      -7.658  14.994  67.337  1.00  0.00    -0.233 C  
HETATM   13  C   UNL     1      -8.191  17.586  67.355  1.00  0.00    -0.217 A  
HETATM   14  C   UNL     1      -8.012  13.301  67.819  1.00  0.00    -0.166 C  
HETATM   15  C   UNL     1      -9.643  12.821  67.566  1.00  0.00    -0.192 C  
HETATM   16  C   UNL     1     -10.598  13.837  68.198  1.00  0.00    -0.253 C  
HETATM   17  C   UNL     1     -10.438  11.509  67.429  1.00  0.00    -0.209 C  
HETATM   18  N   UNL     1      -9.994  15.152  68.177  1.00  0.00    -0.219 NA 
HETATM   19  C   UNL     1      -9.359  15.335  69.524  1.00  0.00    -0.195 C  
ENDROOT
BRANCH  17  20
HETATM   20  N   UNL     1     -10.421  10.496  68.435  1.00  0.00    -0.176 N  
HETATM   21  H   UNL     1      -9.744   9.733  68.450  1.00  0.00     0.000 HD 
HETATM   22  C   UNL     1     -11.394  10.646  69.371  1.00  0.00    -0.284 C  
HETATM   23  O   UNL     1     -12.527  11.051  69.133  1.00  0.00    -0.432 OA 
BRANCH  22  24
HETATM   24  O   UNL     1     -10.864  10.447  70.580  1.00  0.00    -0.276 OA 
BRANCH  24  25
HETATM   25  C   UNL     1     -11.623   9.539  71.410  1.00  0.00    -0.395 C  
BRANCH  25  26
HETATM   26  C   UNL     1     -10.697   8.644  72.166  1.00  0.00    -0.417 A  
HETATM   27  C   UNL     1      -9.321   8.832  72.052  1.00  0.00    -0.322 A  
HETATM   28  C   UNL     1      -8.445   8.056  72.806  1.00  0.00    -0.237 A  
HETATM   29  C   UNL     1      -8.941   7.084  73.673  1.00  0.00    -0.188 A  
HETATM   30  C   UNL     1     -10.316   6.882  73.784  1.00  0.00    -0.409 A  
HETATM   31  C   UNL     1     -11.195   7.659  73.033  1.00  0.00    -0.388 A  
ENDBRANCH  25  26
ENDBRANCH  24  25
ENDBRANCH  22  24
ENDBRANCH  17  20
TORSDOF 4
ENDMDL
MODEL       26
REMARK 921   NORMALIZED FREE ENERGY PREDICTED BY IDOCK:   -6.48 KCAL/MOL
REMARK 922        TOTAL FREE ENERGY PREDICTED BY IDOCK:   -8.57 KCAL/MOL
REMARK 923 INTER-LIGAND FREE ENERGY PREDICTED BY IDOCK:   -7.91 KCAL/MOL
REMARK 924 INTRA-LIGAND FREE ENERGY PREDICTED BY IDOCK:   -0.66 KCAL/MOL
REMARK 927      BINDING AFFINITY PREDICTED BY RF-SCORE:    0.00 PKD
ROOT
HETATM    1  C   UNL     1      -8.978   8.952  67.993  1.00  0.00    -0.140 C  
HETATM    2  C   UNL     1      -7.703   8.123  67.955  1.00  0.00    -0.114 C  
HETATM    3  C   UNL     1      -7.751   7.300  69.117  1.00  0.00    -0.108 A  
HETATM    4  C   UNL     1      -6.769   6.938  69.979  1.00  0.00    -0.052 A  
HETATM    5  N   UNL     1      -7.408   6.354  71.035  1.00  0.00    -0.082 NA 
HETATM    6  C   UNL     1      -6.679   6.048  72.247  1.00  0.00    -0.072 C  
HETATM    7  C   UNL     1      -8.779   6.270  70.787  1.00  0.00    -0.136 A  
HETATM    8  C   UNL     1      -9.844   5.714  71.486  1.00  0.00    -0.213 A  
HETATM    9  C   UNL     1     -11.121   5.893  70.906  1.00  0.00    -0.312 A  
HETATM   10  C   UNL     1     -11.372   6.679  69.732  1.00  0.00    -0.412 A  
HETATM   11  C   UNL     1     -10.324   7.313  69.047  1.00  0.00    -0.208 A  
HETATM   12  C   UNL     1     -10.347   8.317  67.772  1.00  0.00    -0.296 C  
HETATM   13  C   UNL     1      -9.025   6.928  69.595  1.00  0.00    -0.144 A  
HETATM   14  C   UNL     1     -10.994   9.859  67.118  1.00  0.00    -0.147 C  
HETATM   15  C   UNL     1      -9.844  11.135  67.047  1.00  0.00    -0.212 C  
HETATM   16  C   UNL     1      -9.154  11.301  68.404  1.00  0.00    -0.170 C  
HETATM   17  C   UNL     1      -9.669  12.474  66.307  1.00  0.00    -0.254 C  
HETATM   18  N   UNL     1      -9.097  10.024  69.081  1.00  0.00    -0.172 NA 
HETATM   19  C   UNL     1     -10.279   9.993  70.004  1.00  0.00    -0.255 C  
ENDROOT
BRANCH  17  20
HETATM   20  N   UNL     1     -10.643  13.516  66.372  1.00  0.00    -0.280 N  
HETATM   21  H   UNL     1     -11.400  13.618  65.696  1.00  0.00     0.000 HD 
HETATM   22  C   UNL     1     -10.465  14.359  67.423  1.00  0.00    -0.261 C  
HETATM   23  O   UNL     1      -9.371  14.713  67.848  1.00  0.00    -0.192 OA 
BRANCH  22  24
HETATM   24  O   UNL     1     -11.648  14.586  67.998  1.00  0.00    -0.303 OA 
BRANCH  24  25
HETATM   25  C   UNL     1     -11.561  15.309  69.247  1.00  0.00    -0.332 C  
BRANCH  25  26
HETATM   26  C   UNL     1     -12.395  14.634  70.287  1.00  0.00    -0.406 A  
HETATM   27  C   UNL     1     -12.252  13.263  70.492  1.00  0.00    -0.416 A  
HETATM   28  C   UNL     1     -12.965  12.630  71.505  1.00  0.00    -0.380 A  
HETATM   29  C   UNL     1     -13.830  13.364  72.315  1.00  0.00    -0.671 A  
HETATM   30  C   UNL     1     -13.988  14.734  72.108  1.00  0.00    -0.590 A  
HETATM   31  C   UNL     1     -13.273  15.371  71.097  1.00  0.00    -0.583 A  
ENDBRANCH  25  26
ENDBRANCH  24  25
ENDBRANCH  22  24
ENDBRANCH  17  20
TORSDOF 4
ENDMDL
MODEL       27
REMARK 921   NORMALIZED FREE ENERGY PREDICTED BY IDOCK:   -6.46 KCAL/MOL
REMARK 922        TOTAL FREE ENERGY PREDICTED BY IDOCK:   -8.55 KCAL/MOL
REMARK 923 INTER-LIGAND FREE ENERGY PREDICTED BY IDOCK:   -8.11 KCAL/MOL
REMARK 924 INTRA-LIGAND FREE ENERGY PREDICTED BY IDOCK:   -0.44 KCAL/MOL
REMARK 927      BINDING AFFINITY PREDICTED BY RF-SCORE:    0.00 PKD
ROOT
HETATM    1  C   UNL     1     -11.277  12.391  68.286  1.00  0.00    -0.263 C  
HETATM    2  C   UNL     1     -12.010  13.389  69.168  1.00  0.00    -0.363 C  
HETATM    3  C   UNL     1     -11.600  14.674  68.709  1.00  0.00    -0.346 A  
HETATM    4  C   UNL     1     -11.304  15.801  69.403  1.00  0.00    -0.348 A  
HETATM    5  N   UNL     1     -10.738  16.649  68.494  1.00  0.00    -0.334 NA 
HETATM    6  C   UNL     1     -10.095  17.867  68.939  1.00  0.00    -0.348 C  
HETATM    7  C   UNL     1     -10.768  16.084  67.219  1.00  0.00    -0.295 A  
HETATM    8  C   UNL     1     -10.396  16.545  65.961  1.00  0.00    -0.358 A  
HETATM    9  C   UNL     1     -10.539  15.620  64.900  1.00  0.00    -0.344 A  
HETATM   10  C   UNL     1     -10.935  14.251  65.070  1.00  0.00    -0.394 A  
HETATM   11  C   UNL     1     -11.246  13.738  66.338  1.00  0.00    -0.321 A  
HETATM   12  C   UNL     1     -11.622  12.231  66.808  1.00  0.00    -0.434 C  
HETATM   13  C   UNL     1     -11.256  14.796  67.348  1.00  0.00    -0.346 A  
HETATM   14  C   UNL     1     -11.091  10.516  66.835  1.00  0.00    -0.124 C  
HETATM   15  C   UNL     1     -10.549   9.967  68.371  1.00  0.00    -0.253 C  
HETATM   16  C   UNL     1      -9.500  10.929  68.937  1.00  0.00    -0.172 C  
HETATM   17  C   UNL     1     -10.336   8.624  69.093  1.00  0.00    -0.217 C  
HETATM   18  N   UNL     1      -9.760  12.269  68.458  1.00  0.00    -0.180 NA 
HETATM   19  C   UNL     1      -8.876  12.458  67.260  1.00  0.00    -0.192 C  
ENDROOT
BRANCH  17  20
HETATM   20  N   UNL     1      -9.499   7.595  68.563  1.00  0.00    -0.146 N  
HETATM   21  H   UNL     1      -8.562   7.768  68.200  1.00  0.00     0.000 HD 
HETATM   22  C   UNL     1     -10.073   6.364  68.589  1.00  0.00    -0.158 C  
HETATM   23  O   UNL     1     -11.263   6.150  68.387  1.00  0.00    -0.330 OA 
BRANCH  22  24
HETATM   24  O   UNL     1      -9.175   5.480  69.031  1.00  0.00    -0.116 OA 
BRANCH  24  25
HETATM   25  C   UNL     1      -8.704   5.744  70.372  1.00  0.00    -0.134 C  
BRANCH  25  26
HETATM   26  C   UNL     1      -9.514   4.969  71.359  1.00  0.00    -0.206 A  
HETATM   27  C   UNL     1      -9.392   3.582  71.403  1.00  0.00    -0.213 A  
HETATM   28  C   UNL     1     -10.082   2.849  72.364  1.00  0.00    -0.231 A  
HETATM   29  C   UNL     1     -10.902   3.501  73.283  1.00  0.00    -0.288 A  
HETATM   30  C   UNL     1     -11.039   4.888  73.239  1.00  0.00    -0.410 A  
HETATM   31  C   UNL     1     -10.347   5.624  72.279  1.00  0.00    -0.250 A  
ENDBRANCH  25  26
ENDBRANCH  24  25
ENDBRANCH  22  24
ENDBRANCH  17  20
TORSDOF 4
ENDMDL
MODEL       28
REMARK 921   NORMALIZED FREE ENERGY PREDICTED BY IDOCK:   -6.44 KCAL/MOL
REMARK 922        TOTAL FREE ENERGY PREDICTED BY IDOCK:   -8.53 KCAL/MOL
REMARK 923 INTER-LIGAND FREE ENERGY PREDICTED BY IDOCK:   -8.12 KCAL/MOL
REMARK 924 INTRA-LIGAND FREE ENERGY PREDICTED BY IDOCK:   -0.41 KCAL/MOL
REMARK 927      BINDING AFFINITY PREDICTED BY RF-SCORE:    0.00 PKD
ROOT
HETATM    1  C   UNL     1     -10.862  12.759  68.624  1.00  0.00    -0.253 C  
HETATM    2  C   UNL     1     -11.085  14.130  69.243  1.00  0.00    -0.286 C  
HETATM    3  C   UNL     1     -10.978  15.056  68.165  1.00  0.00    -0.281 A  
HETATM    4  C   UNL     1     -10.400  16.281  68.114  1.00  0.00    -0.277 A  
HETATM    5  N   UNL     1     -10.371  16.615  66.789  1.00  0.00    -0.299 NA 
HETATM    6  C   UNL     1      -9.616  17.767  66.347  1.00  0.00    -0.283 C  
HETATM    7  C   UNL     1     -11.014  15.637  66.029  1.00  0.00    -0.213 A  
HETATM    8  C   UNL     1     -11.317  15.525  64.676  1.00  0.00    -0.363 A  
HETATM    9  C   UNL     1     -11.946  14.321  64.284  1.00  0.00    -0.449 A  
HETATM   10  C   UNL     1     -12.181  13.210  65.162  1.00  0.00    -0.497 A  
HETATM   11  C   UNL     1     -11.818  13.266  66.516  1.00  0.00    -0.450 A  
HETATM   12  C   UNL     1     -11.886  12.136  67.679  1.00  0.00    -0.316 C  
HETATM   13  C   UNL     1     -11.350  14.603  66.883  1.00  0.00    -0.361 A  
HETATM   14  C   UNL     1     -11.378  10.484  68.165  1.00  0.00    -0.324 C  
HETATM   15  C   UNL     1     -10.141  10.446  69.357  1.00  0.00    -0.251 C  
HETATM   16  C   UNL     1      -8.968  11.333  68.930  1.00  0.00    -0.045 C  
HETATM   17  C   UNL     1      -9.575   9.447  70.384  1.00  0.00    -0.266 C  
HETATM   18  N   UNL     1      -9.455  12.427  68.119  1.00  0.00    -0.210 NA 
HETATM   19  C   UNL     1      -9.278  11.994  66.694  1.00  0.00    -0.211 C  
ENDROOT
BRANCH  17  20
HETATM   20  N   UNL     1      -9.088   8.159  70.008  1.00  0.00    -0.150 N  
HETATM   21  H   UNL     1      -8.153   8.002  69.632  1.00  0.00     0.000 HD 
HETATM   22  C   UNL     1      -9.991   7.161  70.200  1.00  0.00    -0.186 C  
HETATM   23  O   UNL     1     -11.198   7.277  70.020  1.00  0.00    -0.263 OA 
BRANCH  22  24
HETATM   24  O   UNL     1      -9.372   6.123  70.766  1.00  0.00    -0.156 OA 
BRANCH  24  25
HETATM   25  C   UNL     1      -9.749   5.898  72.144  1.00  0.00    -0.155 C  
BRANCH  25  26
HETATM   26  C   UNL     1     -10.080   4.457  72.354  1.00  0.00    -0.243 A  
HETATM   27  C   UNL     1      -9.557   3.503  71.485  1.00  0.00    -0.232 A  
HETATM   28  C   UNL     1      -9.794   2.149  71.707  1.00  0.00    -0.218 A  
HETATM   29  C   UNL     1     -10.560   1.745  72.799  1.00  0.00    -0.235 A  
HETATM   30  C   UNL     1     -11.097   2.694  73.667  1.00  0.00    -0.319 A  
HETATM   31  C   UNL     1     -10.859   4.049  73.448  1.00  0.00    -0.326 A  
ENDBRANCH  25  26
ENDBRANCH  24  25
ENDBRANCH  22  24
ENDBRANCH  17  20
TORSDOF 4
ENDMDL
MODEL       29
REMARK 921   NORMALIZED FREE ENERGY PREDICTED BY IDOCK:   -6.42 KCAL/MOL
REMARK 922        TOTAL FREE ENERGY PREDICTED BY IDOCK:   -8.50 KCAL/MOL
REMARK 923 INTER-LIGAND FREE ENERGY PREDICTED BY IDOCK:   -7.53 KCAL/MOL
REMARK 924 INTRA-LIGAND FREE ENERGY PREDICTED BY IDOCK:   -0.97 KCAL/MOL
REMARK 927      BINDING AFFINITY PREDICTED BY RF-SCORE:    0.00 PKD
ROOT
HETATM    1  C   UNL     1     -10.878  11.543  69.007  1.00  0.00    -0.212 C  
HETATM    2  C   UNL     1     -11.710  12.060  70.170  1.00  0.00    -0.316 C  
HETATM    3  C   UNL     1     -12.096  10.902  70.905  1.00  0.00    -0.455 A  
HETATM    4  C   UNL     1     -13.271  10.595  71.507  1.00  0.00    -0.360 A  
HETATM    5  N   UNL     1     -13.173   9.275  71.846  1.00  0.00    -0.391 NA 
HETATM    6  C   UNL     1     -14.339   8.555  72.309  1.00  0.00    -0.390 C  
HETATM    7  C   UNL     1     -11.902   8.788  71.537  1.00  0.00    -0.311 A  
HETATM    8  C   UNL     1     -11.274   7.564  71.736  1.00  0.00    -0.281 A  
HETATM    9  C   UNL     1      -9.964   7.452  71.215  1.00  0.00    -0.194 A  
HETATM   10  C   UNL     1      -9.319   8.466  70.429  1.00  0.00    -0.170 A  
HETATM   11  C   UNL     1      -9.958   9.683  70.149  1.00  0.00    -0.309 A  
HETATM   12  C   UNL     1      -9.496  10.935  69.224  1.00  0.00    -0.048 C  
HETATM   13  C   UNL     1     -11.222   9.795  70.876  1.00  0.00    -0.429 A  
HETATM   14  C   UNL     1      -8.976  11.446  67.584  1.00  0.00    -0.140 C  
HETATM   15  C   UNL     1     -10.171  12.309  66.700  1.00  0.00    -0.235 C  
HETATM   16  C   UNL     1     -11.490  11.531  66.695  1.00  0.00    -0.129 C  
HETATM   17  C   UNL     1     -10.230  13.265  65.494  1.00  0.00    -0.290 C  
HETATM   18  N   UNL     1     -11.602  10.754  67.911  1.00  0.00    -0.532 NA 
HETATM   19  C   UNL     1     -11.115   9.377  67.567  1.00  0.00     0.150 C  
ENDROOT
BRANCH  17  20
HETATM   20  N   UNL     1      -9.706  12.913  64.213  1.00  0.00    -0.536 N  
HETATM   21  H   UNL     1      -8.719  12.990  63.971  1.00  0.00     0.000 HD 
HETATM   22  C   UNL     1     -10.652  12.464  63.347  1.00  0.00    -0.332 C  
HETATM   23  O   UNL     1     -11.795  12.902  63.282  1.00  0.00    -0.537 OA 
BRANCH  22  24
HETATM   24  O   UNL     1     -10.185  11.381  62.722  1.00  0.00    -0.193 OA 
BRANCH  24  25
HETATM   25  C   UNL     1      -8.743  11.282  62.722  1.00  0.00    -0.127 C  
BRANCH  25  26
HETATM   26  C   UNL     1      -8.320   9.972  63.301  1.00  0.00    -0.168 A  
HETATM   27  C   UNL     1      -7.189   9.335  62.796  1.00  0.00    -0.100 A  
HETATM   28  C   UNL     1      -6.738   8.151  63.371  1.00  0.00    -0.080 A  
HETATM   29  C   UNL     1      -7.420   7.595  64.452  1.00  0.00    -0.099 A  
HETATM   30  C   UNL     1      -8.560   8.220  64.956  1.00  0.00    -0.102 A  
HETATM   31  C   UNL     1      -9.012   9.407  64.384  1.00  0.00    -0.215 A  
ENDBRANCH  25  26
ENDBRANCH  24  25
ENDBRANCH  22  24
ENDBRANCH  17  20
TORSDOF 4
ENDMDL
MODEL       30
REMARK 921   NORMALIZED FREE ENERGY PREDICTED BY IDOCK:   -6.39 KCAL/MOL
REMARK 922        TOTAL FREE ENERGY PREDICTED BY IDOCK:   -8.47 KCAL/MOL
REMARK 923 INTER-LIGAND FREE ENERGY PREDICTED BY IDOCK:   -7.21 KCAL/MOL
REMARK 924 INTRA-LIGAND FREE ENERGY PREDICTED BY IDOCK:   -1.25 KCAL/MOL
REMARK 927      BINDING AFFINITY PREDICTED BY RF-SCORE:    0.00 PKD
ROOT
HETATM    1  C   UNL     1      -8.770   9.965  66.830  1.00  0.00    -0.128 C  
HETATM    2  C   UNL     1      -8.601  10.356  65.370  1.00  0.00    -0.183 C  
HETATM    3  C   UNL     1      -9.746  11.144  65.054  1.00  0.00    -0.298 A  
HETATM    4  C   UNL     1     -10.509  11.175  63.933  1.00  0.00    -0.381 A  
HETATM    5  N   UNL     1     -11.606  11.921  64.260  1.00  0.00    -0.342 NA 
HETATM    6  C   UNL     1     -12.741  11.974  63.365  1.00  0.00    -0.398 C  
HETATM    7  C   UNL     1     -11.479  12.429  65.554  1.00  0.00    -0.361 A  
HETATM    8  C   UNL     1     -12.259  13.283  66.325  1.00  0.00    -0.440 A  
HETATM    9  C   UNL     1     -11.799  13.515  67.642  1.00  0.00    -0.399 A  
HETATM   10  C   UNL     1     -10.669  12.856  68.230  1.00  0.00    -0.261 A  
HETATM   11  C   UNL     1      -9.905  11.933  67.499  1.00  0.00    -0.194 A  
HETATM   12  C   UNL     1      -8.659  10.996  67.949  1.00  0.00    -0.133 C  
HETATM   13  C   UNL     1     -10.328  11.890  66.100  1.00  0.00    -0.261 A  
HETATM   14  C   UNL     1      -8.097   9.737  69.099  1.00  0.00    -0.107 C  
HETATM   15  C   UNL     1      -7.950   8.168  68.413  1.00  0.00    -0.123 C  
HETATM   16  C   UNL     1      -9.243   7.784  67.688  1.00  0.00    -0.136 C  
HETATM   17  C   UNL     1      -7.225   6.847  68.731  1.00  0.00    -0.091 C  
HETATM   18  N   UNL     1      -9.886   8.974  67.176  1.00  0.00    -0.186 NA 
HETATM   19  C   UNL     1     -10.909   9.363  68.201  1.00  0.00    -0.119 C  
ENDROOT
BRANCH  17  20
HETATM   20  N   UNL     1      -7.398   6.159  69.971  1.00  0.00    -0.076 N  
HETATM   21  H   UNL     1      -6.946   6.447  70.838  1.00  0.00     0.000 HD 
HETATM   22  C   UNL     1      -8.224   5.083  69.882  1.00  0.00    -0.074 C  
HETATM   23  O   UNL     1      -8.277   4.330  68.917  1.00  0.00    -0.074 OA 
BRANCH  22  24
HETATM   24  O   UNL     1      -9.060   5.095  70.923  1.00  0.00    -0.135 OA 
BRANCH  24  25
HETATM   25  C   UNL     1     -10.450   5.237  70.555  1.00  0.00    -0.242 C  
BRANCH  25  26
HETATM   26  C   UNL     1     -10.972   6.554  71.028  1.00  0.00    -0.314 A  
HETATM   27  C   UNL     1     -12.344   6.795  71.005  1.00  0.00    -0.370 A  
HETATM   28  C   UNL     1     -12.854   7.987  71.510  1.00  0.00    -0.331 A  
HETATM   29  C   UNL     1     -11.992   8.948  72.036  1.00  0.00    -0.439 A  
HETATM   30  C   UNL     1     -10.617   8.721  72.052  1.00  0.00    -0.414 A  
HETATM   31  C   UNL     1     -10.104   7.527  71.549  1.00  0.00    -0.201 A  
ENDBRANCH  25  26
ENDBRANCH  24  25
ENDBRANCH  22  24
ENDBRANCH  17  20
TORSDOF 4
ENDMDL
MODEL       31
REMARK 921   NORMALIZED FREE ENERGY PREDICTED BY IDOCK:   -6.39 KCAL/MOL
REMARK 922        TOTAL FREE ENERGY PREDICTED BY IDOCK:   -8.46 KCAL/MOL
REMARK 923 INTER-LIGAND FREE ENERGY PREDICTED BY IDOCK:   -8.03 KCAL/MOL
REMARK 924 INTRA-LIGAND FREE ENERGY PREDICTED BY IDOCK:   -0.43 KCAL/MOL
REMARK 927      BINDING AFFINITY PREDICTED BY RF-SCORE:    0.00 PKD
ROOT
HETATM    1  C   UNL     1      -8.481  15.840  68.560  1.00  0.00    -0.181 C  
HETATM    2  C   UNL     1      -7.312  16.559  69.215  1.00  0.00    -0.201 C  
HETATM    3  C   UNL     1      -7.251  17.837  68.587  1.00  0.00    -0.260 A  
HETATM    4  C   UNL     1      -6.183  18.572  68.193  1.00  0.00    -0.195 A  
HETATM    5  N   UNL     1      -6.698  19.586  67.435  1.00  0.00    -0.200 NA 
HETATM    6  C   UNL     1      -5.817  20.437  66.665  1.00  0.00    -0.178 C  
HETATM    7  C   UNL     1      -8.092  19.532  67.436  1.00  0.00    -0.280 A  
HETATM    8  C   UNL     1      -9.080  20.347  66.895  1.00  0.00    -0.412 A  
HETATM    9  C   UNL     1     -10.411  19.905  67.077  1.00  0.00    -0.592 A  
HETATM   10  C   UNL     1     -10.770  18.652  67.679  1.00  0.00    -0.428 A  
HETATM   11  C   UNL     1      -9.790  17.775  68.168  1.00  0.00    -0.326 A  
HETATM   12  C   UNL     1      -9.921  16.284  68.795  1.00  0.00    -0.237 C  
HETATM   13  C   UNL     1      -8.462  18.383  68.113  1.00  0.00    -0.301 A  
HETATM   14  C   UNL     1     -10.516  14.612  68.520  1.00  0.00    -0.247 C  
HETATM   15  C   UNL     1      -9.278  13.465  68.197  1.00  0.00    -0.215 C  
HETATM   16  C   UNL     1      -8.368  13.971  67.073  1.00  0.00    -0.104 C  
HETATM   17  C   UNL     1      -9.098  11.936  68.242  1.00  0.00    -0.183 C  
HETATM   18  N   UNL     1      -8.324  15.417  67.096  1.00  0.00    -0.201 NA 
HETATM   19  C   UNL     1      -9.343  15.876  66.095  1.00  0.00    -0.350 C  
ENDROOT
BRANCH  17  20
HETATM   20  N   UNL     1      -9.948  11.045  67.519  1.00  0.00    -0.172 N  
HETATM   21  H   UNL     1      -9.834  10.845  66.526  1.00  0.00     0.000 HD 
HETATM   22  C   UNL     1     -10.924  10.489  68.283  1.00  0.00    -0.263 C  
HETATM   23  O   UNL     1     -11.516  11.074  69.184  1.00  0.00    -0.248 OA 
BRANCH  22  24
HETATM   24  O   UNL     1     -10.999   9.185  68.004  1.00  0.00    -0.125 OA 
BRANCH  24  25
HETATM   25  C   UNL     1      -9.935   8.400  68.587  1.00  0.00    -0.184 C  
BRANCH  25  26
HETATM   26  C   UNL     1     -10.319   7.959  69.961  1.00  0.00    -0.221 A  
HETATM   27  C   UNL     1      -9.789   8.622  71.065  1.00  0.00    -0.267 A  
HETATM   28  C   UNL     1     -10.192   8.273  72.351  1.00  0.00    -0.397 A  
HETATM   29  C   UNL     1     -11.125   7.254  72.538  1.00  0.00    -0.334 A  
HETATM   30  C   UNL     1     -11.651   6.577  71.440  1.00  0.00    -0.371 A  
HETATM   31  C   UNL     1     -11.251   6.927  70.152  1.00  0.00    -0.361 A  
ENDBRANCH  25  26
ENDBRANCH  24  25
ENDBRANCH  22  24
ENDBRANCH  17  20
TORSDOF 4
ENDMDL
MODEL       32
REMARK 921   NORMALIZED FREE ENERGY PREDICTED BY IDOCK:   -6.33 KCAL/MOL
REMARK 922        TOTAL FREE ENERGY PREDICTED BY IDOCK:   -8.39 KCAL/MOL
REMARK 923 INTER-LIGAND FREE ENERGY PREDICTED BY IDOCK:   -7.71 KCAL/MOL
REMARK 924 INTRA-LIGAND FREE ENERGY PREDICTED BY IDOCK:   -0.68 KCAL/MOL
REMARK 927      BINDING AFFINITY PREDICTED BY RF-SCORE:    0.00 PKD
ROOT
HETATM    1  C   UNL     1      -9.452   6.145  68.795  1.00  0.00    -0.121 C  
HETATM    2  C   UNL     1      -8.932   4.994  69.642  1.00  0.00    -0.133 C  
HETATM    3  C   UNL     1      -9.107   5.408  70.994  1.00  0.00    -0.167 A  
HETATM    4  C   UNL     1      -8.303   5.246  72.074  1.00  0.00    -0.122 A  
HETATM    5  N   UNL     1      -8.835   6.043  73.047  1.00  0.00    -0.123 NA 
HETATM    6  C   UNL     1      -8.099   6.287  74.269  1.00  0.00    -0.115 C  
HETATM    7  C   UNL     1     -10.021   6.628  72.601  1.00  0.00    -0.171 A  
HETATM    8  C   UNL     1     -10.969   7.447  73.205  1.00  0.00    -0.408 A  
HETATM    9  C   UNL     1     -12.027   7.880  72.373  1.00  0.00    -0.373 A  
HETATM   10  C   UNL     1     -12.109   7.612  70.966  1.00  0.00    -0.282 A  
HETATM   11  C   UNL     1     -11.128   6.850  70.314  1.00  0.00    -0.342 A  
HETATM   12  C   UNL     1     -10.938   6.487  68.743  1.00  0.00    -0.371 C  
HETATM   13  C   UNL     1     -10.176   6.285  71.269  1.00  0.00    -0.238 A  
HETATM   14  C   UNL     1     -10.761   7.151  67.085  1.00  0.00    -0.422 C  
HETATM   15  C   UNL     1      -9.169   7.043  66.445  1.00  0.00    -0.186 C  
HETATM   16  C   UNL     1      -8.160   7.629  67.437  1.00  0.00    -0.119 C  
HETATM   17  C   UNL     1      -8.489   7.081  65.064  1.00  0.00     0.028 C  
HETATM   18  N   UNL     1      -8.642   7.445  68.788  1.00  0.00    -0.129 NA 
HETATM   19  C   UNL     1      -9.325   8.728  69.160  1.00  0.00    -0.149 C  
ENDROOT
BRANCH  17  20
HETATM   20  N   UNL     1      -8.648   8.177  64.163  1.00  0.00    -0.389 N  
HETATM   21  H   UNL     1      -9.401   8.234  63.478  1.00  0.00     0.000 HD 
HETATM   22  C   UNL     1      -7.698   9.139  64.308  1.00  0.00    -0.120 C  
HETATM   23  O   UNL     1      -6.522   8.915  64.571  1.00  0.00    -0.070 OA 
BRANCH  22  24
HETATM   24  O   UNL     1      -8.289  10.335  64.286  1.00  0.00    -0.162 OA 
BRANCH  24  25
HETATM   25  C   UNL     1      -9.540  10.356  63.562  1.00  0.00    -0.310 C  
BRANCH  25  26
HETATM   26  C   UNL     1     -10.482  11.324  64.199  1.00  0.00    -0.431 A  
HETATM   27  C   UNL     1     -11.268  12.144  63.393  1.00  0.00    -0.494 A  
HETATM   28  C   UNL     1     -12.204  13.000  63.966  1.00  0.00    -0.489 A  
HETATM   29  C   UNL     1     -12.355  13.042  65.351  1.00  0.00    -0.538 A  
HETATM   30  C   UNL     1     -11.565  12.234  66.166  1.00  0.00    -0.450 A  
HETATM   31  C   UNL     1     -10.629  11.374  65.594  1.00  0.00    -0.314 A  
ENDBRANCH  25  26
ENDBRANCH  24  25
ENDBRANCH  22  24
ENDBRANCH  17  20
TORSDOF 4
ENDMDL
MODEL       33
REMARK 921   NORMALIZED FREE ENERGY PREDICTED BY IDOCK:   -6.29 KCAL/MOL
REMARK 922        TOTAL FREE ENERGY PREDICTED BY IDOCK:   -8.34 KCAL/MOL
REMARK 923 INTER-LIGAND FREE ENERGY PREDICTED BY IDOCK:   -7.92 KCAL/MOL
REMARK 924 INTRA-LIGAND FREE ENERGY PREDICTED BY IDOCK:   -0.42 KCAL/MOL
REMARK 927      BINDING AFFINITY PREDICTED BY RF-SCORE:    0.00 PKD
ROOT
HETATM    1  C   UNL     1      -9.445  17.292  67.940  1.00  0.00    -0.266 C  
HETATM    2  C   UNL     1      -9.618  18.688  68.516  1.00  0.00    -0.399 C  
HETATM    3  C   UNL     1      -8.321  19.278  68.480  1.00  0.00    -0.401 A  
HETATM    4  C   UNL     1      -7.691  20.072  69.380  1.00  0.00     0.178 A  
HETATM    5  N   UNL     1      -6.394  20.142  68.959  1.00  0.00    -0.319 NA 
HETATM    6  C   UNL     1      -5.384  20.729  69.813  1.00  0.00    -0.378 C  
HETATM    7  C   UNL     1      -6.240  19.467  67.748  1.00  0.00    -0.208 A  
HETATM    8  C   UNL     1      -5.168  19.298  66.878  1.00  0.00    -0.157 A  
HETATM    9  C   UNL     1      -5.412  18.476  65.753  1.00  0.00    -0.203 A  
HETATM   10  C   UNL     1      -6.632  17.753  65.531  1.00  0.00    -0.012 A  
HETATM   11  C   UNL     1      -7.705  17.847  66.431  1.00  0.00    -0.311 A  
HETATM   12  C   UNL     1      -9.132  17.074  66.462  1.00  0.00    -0.291 C  
HETATM   13  C   UNL     1      -7.446  18.854  67.459  1.00  0.00    -0.244 A  
HETATM   14  C   UNL     1      -9.944  15.473  66.492  1.00  0.00    -0.283 C  
HETATM   15  C   UNL     1     -10.627  15.055  68.013  1.00  0.00    -0.250 C  
HETATM   16  C   UNL     1      -9.586  15.219  69.123  1.00  0.00    -0.243 C  
HETATM   17  C   UNL     1     -11.689  14.082  68.558  1.00  0.00    -0.352 C  
HETATM   18  N   UNL     1      -8.659  16.272  68.770  1.00  0.00    -0.228 NA 
HETATM   19  C   UNL     1      -7.476  15.589  68.150  1.00  0.00    -0.114 C  
ENDROOT
BRANCH  17  20
HETATM   20  N   UNL     1     -11.622  12.673  68.334  1.00  0.00    -0.306 N  
HETATM   21  H   UNL     1     -11.660  12.251  67.407  1.00  0.00     0.000 HD 
HETATM   22  C   UNL     1     -11.503  11.948  69.478  1.00  0.00    -0.288 C  
HETATM   23  O   UNL     1     -12.055  12.230  70.535  1.00  0.00    -0.364 OA 
BRANCH  22  24
HETATM   24  O   UNL     1     -10.573  11.009  69.297  1.00  0.00    -0.219 OA 
BRANCH  24  25
HETATM   25  C   UNL     1     -10.737   9.851  70.148  1.00  0.00    -0.308 C  
BRANCH  25  26
HETATM   26  C   UNL     1     -10.722   8.606  69.324  1.00  0.00    -0.151 A  
HETATM   27  C   UNL     1     -11.001   7.383  69.929  1.00  0.00    -0.239 A  
HETATM   28  C   UNL     1     -11.064   6.222  69.164  1.00  0.00    -0.457 A  
HETATM   29  C   UNL     1     -10.842   6.279  67.789  1.00  0.00    -0.424 A  
HETATM   30  C   UNL     1     -10.551   7.496  67.177  1.00  0.00    -0.415 A  
HETATM   31  C   UNL     1     -10.490   8.661  67.940  1.00  0.00    -0.269 A  
ENDBRANCH  25  26
ENDBRANCH  24  25
ENDBRANCH  22  24
ENDBRANCH  17  20
TORSDOF 4
ENDMDL
MODEL       34
REMARK 921   NORMALIZED FREE ENERGY PREDICTED BY IDOCK:   -6.27 KCAL/MOL
REMARK 922        TOTAL FREE ENERGY PREDICTED BY IDOCK:   -8.31 KCAL/MOL
REMARK 923 INTER-LIGAND FREE ENERGY PREDICTED BY IDOCK:   -7.90 KCAL/MOL
REMARK 924 INTRA-LIGAND FREE ENERGY PREDICTED BY IDOCK:   -0.42 KCAL/MOL
REMARK 927      BINDING AFFINITY PREDICTED BY RF-SCORE:    0.00 PKD
ROOT
HETATM    1  C   UNL     1      -9.783  14.637  66.509  1.00  0.00    -0.280 C  
HETATM    2  C   UNL     1     -10.152  15.706  65.492  1.00  0.00    -0.395 C  
HETATM    3  C   UNL     1      -9.837  16.948  66.116  1.00  0.00    -0.318 A  
HETATM    4  C   UNL     1     -10.501  18.130  66.105  1.00  0.00    -0.364 A  
HETATM    5  N   UNL     1      -9.892  18.899  67.056  1.00  0.00    -0.310 NA 
HETATM    6  C   UNL     1     -10.488  20.150  67.470  1.00  0.00    -0.282 C  
HETATM    7  C   UNL     1      -8.792  18.227  67.590  1.00  0.00    -0.256 A  
HETATM    8  C   UNL     1      -7.814  18.580  68.514  1.00  0.00    -0.341 A  
HETATM    9  C   UNL     1      -6.879  17.569  68.837  1.00  0.00    -0.246 A  
HETATM   10  C   UNL     1      -6.952  16.219  68.355  1.00  0.00    -0.135 A  
HETATM   11  C   UNL     1      -7.971  15.815  67.479  1.00  0.00    -0.171 A  
HETATM   12  C   UNL     1      -8.329  14.352  66.873  1.00  0.00    -0.109 C  
HETATM   13  C   UNL     1      -8.780  16.954  67.049  1.00  0.00    -0.230 A  
HETATM   14  C   UNL     1      -8.726  12.647  67.267  1.00  0.00    -0.198 C  
HETATM   15  C   UNL     1     -10.376  12.231  67.024  1.00  0.00    -0.237 C  
HETATM   16  C   UNL     1     -11.285  13.238  67.735  1.00  0.00    -0.280 C  
HETATM   17  C   UNL     1     -11.215  10.954  66.832  1.00  0.00    -0.086 C  
HETATM   18  N   UNL     1     -10.641  14.532  67.774  1.00  0.00    -0.249 NA 
HETATM   19  C   UNL     1      -9.972  14.619  69.114  1.00  0.00    -0.143 C  
ENDROOT
BRANCH  17  20
HETATM   20  N   UNL     1     -11.208   9.884  67.779  1.00  0.00    -0.479 N  
HETATM   21  H   UNL     1     -11.787   9.876  68.618  1.00  0.00     0.000 HD 
HETATM   22  C   UNL     1     -10.354   8.878  67.453  1.00  0.00    -0.269 C  
HETATM   23  O   UNL     1      -9.261   9.043  66.923  1.00  0.00    -0.134 OA 
BRANCH  22  24
HETATM   24  O   UNL     1     -10.971   7.711  67.645  1.00  0.00    -0.135 OA 
BRANCH  24  25
HETATM   25  C   UNL     1     -10.310   6.850  68.601  1.00  0.00    -0.186 C  
BRANCH  25  26
HETATM   26  C   UNL     1     -10.764   7.180  69.984  1.00  0.00    -0.268 A  
HETATM   27  C   UNL     1      -9.985   8.019  70.778  1.00  0.00    -0.202 A  
HETATM   28  C   UNL     1     -10.428   8.396  72.042  1.00  0.00    -0.384 A  
HETATM   29  C   UNL     1     -11.651   7.931  72.521  1.00  0.00    -0.443 A  
HETATM   30  C   UNL     1     -12.432   7.082  71.739  1.00  0.00    -0.393 A  
HETATM   31  C   UNL     1     -11.992   6.705  70.472  1.00  0.00    -0.377 A  
ENDBRANCH  25  26
ENDBRANCH  24  25
ENDBRANCH  22  24
ENDBRANCH  17  20
TORSDOF 4
ENDMDL
MODEL       35
REMARK 921   NORMALIZED FREE ENERGY PREDICTED BY IDOCK:   -6.24 KCAL/MOL
REMARK 922        TOTAL FREE ENERGY PREDICTED BY IDOCK:   -8.29 KCAL/MOL
REMARK 923 INTER-LIGAND FREE ENERGY PREDICTED BY IDOCK:   -7.82 KCAL/MOL
REMARK 924 INTRA-LIGAND FREE ENERGY PREDICTED BY IDOCK:   -0.47 KCAL/MOL
REMARK 927      BINDING AFFINITY PREDICTED BY RF-SCORE:    0.00 PKD
ROOT
HETATM    1  C   UNL     1      -9.531   5.621  69.296  1.00  0.00    -0.130 C  
HETATM    2  C   UNL     1      -9.218   4.146  69.098  1.00  0.00    -0.211 C  
HETATM    3  C   UNL     1      -8.998   3.988  67.699  1.00  0.00    -0.149 A  
HETATM    4  C   UNL     1      -9.370   2.991  66.858  1.00  0.00    -0.109 A  
HETATM    5  N   UNL     1      -9.120   3.464  65.601  1.00  0.00    -0.146 NA 
HETATM    6  C   UNL     1      -9.608   2.744  64.445  1.00  0.00    -0.147 C  
HETATM    7  C   UNL     1      -8.507   4.716  65.666  1.00  0.00    -0.118 A  
HETATM    8  C   UNL     1      -7.994   5.579  64.705  1.00  0.00    -0.115 A  
HETATM    9  C   UNL     1      -7.493   6.810  65.188  1.00  0.00    -0.087 A  
HETATM   10  C   UNL     1      -7.581   7.237  66.555  1.00  0.00    -0.092 A  
HETATM   11  C   UNL     1      -8.160   6.416  67.535  1.00  0.00    -0.117 A  
HETATM   12  C   UNL     1      -8.463   6.694  69.106  1.00  0.00    -0.124 C  
HETATM   13  C   UNL     1      -8.481   5.095  66.996  1.00  0.00    -0.106 A  
HETATM   14  C   UNL     1      -9.286   7.769  70.283  1.00  0.00    -0.156 C  
HETATM   15  C   UNL     1     -10.703   7.096  70.986  1.00  0.00    -0.252 C  
HETATM   16  C   UNL     1     -11.640   6.576  69.892  1.00  0.00    -0.368 C  
HETATM   17  C   UNL     1     -11.580   7.326  72.231  1.00  0.00    -0.277 C  
HETATM   18  N   UNL     1     -10.863   6.144  68.751  1.00  0.00    -0.309 NA 
HETATM   19  C   UNL     1     -10.853   7.302  67.797  1.00  0.00    -0.144 C  
ENDROOT
BRANCH  17  20
HETATM   20  N   UNL     1     -12.180   8.589  72.520  1.00  0.00    -0.448 N  
HETATM   21  H   UNL     1     -11.715   9.321  73.057  1.00  0.00     0.000 HD 
HETATM   22  C   UNL     1     -13.433   8.722  72.011  1.00  0.00    -0.418 C  
HETATM   23  O   UNL     1     -14.255   7.815  71.951  1.00  0.00    -0.388 OA 
BRANCH  22  24
HETATM   24  O   UNL     1     -13.544   9.927  71.449  1.00  0.00    -0.324 OA 
BRANCH  24  25
HETATM   25  C   UNL     1     -12.324  10.701  71.479  1.00  0.00    -0.310 C  
BRANCH  25  26
HETATM   26  C   UNL     1     -12.639  12.156  71.361  1.00  0.00    -0.314 A  
HETATM   27  C   UNL     1     -13.436  12.763  72.329  1.00  0.00    -0.591 A  
HETATM   28  C   UNL     1     -13.680  14.132  72.276  1.00  0.00    -0.623 A  
HETATM   29  C   UNL     1     -13.131  14.901  71.250  1.00  0.00    -0.448 A  
HETATM   30  C   UNL     1     -12.342  14.299  70.271  1.00  0.00    -0.418 A  
HETATM   31  C   UNL     1     -12.094  12.929  70.323  1.00  0.00    -0.377 A  
ENDBRANCH  25  26
ENDBRANCH  24  25
ENDBRANCH  22  24
ENDBRANCH  17  20
TORSDOF 4
ENDMDL
MODEL       36
REMARK 921   NORMALIZED FREE ENERGY PREDICTED BY IDOCK:   -6.24 KCAL/MOL
REMARK 922        TOTAL FREE ENERGY PREDICTED BY IDOCK:   -8.28 KCAL/MOL
REMARK 923 INTER-LIGAND FREE ENERGY PREDICTED BY IDOCK:   -7.88 KCAL/MOL
REMARK 924 INTRA-LIGAND FREE ENERGY PREDICTED BY IDOCK:   -0.40 KCAL/MOL
REMARK 927      BINDING AFFINITY PREDICTED BY RF-SCORE:    0.00 PKD
ROOT
HETATM    1  C   UNL     1     -10.692   8.609  68.795  1.00  0.00    -0.064 C  
HETATM    2  C   UNL     1     -10.766   7.533  67.723  1.00  0.00    -0.233 C  
HETATM    3  C   UNL     1     -10.327   6.335  68.357  1.00  0.00    -0.237 A  
HETATM    4  C   UNL     1      -9.542   5.332  67.891  1.00  0.00    -0.134 A  
HETATM    5  N   UNL     1      -9.243   4.567  68.983  1.00  0.00    -0.123 NA 
HETATM    6  C   UNL     1      -8.236   3.533  68.891  1.00  0.00    -0.060 C  
HETATM    7  C   UNL     1      -9.918   5.043  70.108  1.00  0.00    -0.258 A  
HETATM    8  C   UNL     1     -10.016   4.599  71.422  1.00  0.00    -0.267 A  
HETATM    9  C   UNL     1     -10.776   5.414  72.292  1.00  0.00    -0.287 A  
HETATM   10  C   UNL     1     -11.340   6.681  71.924  1.00  0.00    -0.318 A  
HETATM   11  C   UNL     1     -11.194   7.190  70.624  1.00  0.00    -0.311 A  
HETATM   12  C   UNL     1     -11.645   8.613  69.987  1.00  0.00     0.166 C  
HETATM   13  C   UNL     1     -10.564   6.210  69.741  1.00  0.00    -0.343 A  
HETATM   14  C   UNL     1     -11.520  10.399  70.124  1.00  0.00    -0.396 C  
HETATM   15  C   UNL     1     -10.515  11.131  68.936  1.00  0.00    -0.233 C  
HETATM   16  C   UNL     1      -9.151  10.435  68.896  1.00  0.00    -0.173 C  
HETATM   17  C   UNL     1     -10.306  12.527  68.322  1.00  0.00    -0.236 C  
HETATM   18  N   UNL     1      -9.302   9.046  69.269  1.00  0.00    -0.148 NA 
HETATM   19  C   UNL     1      -8.979   8.975  70.733  1.00  0.00    -0.236 C  
ENDROOT
BRANCH  17  20
HETATM   20  N   UNL     1      -9.999  13.674  69.117  1.00  0.00    -0.412 N  
HETATM   21  H   UNL     1      -9.064  13.875  69.472  1.00  0.00     0.000 HD 
HETATM   22  C   UNL     1     -11.073  14.471  69.354  1.00  0.00    -0.268 C  
HETATM   23  O   UNL     1     -12.212  14.059  69.546  1.00  0.00    -0.330 OA 
BRANCH  22  24
HETATM   24  O   UNL     1     -10.713  15.744  69.175  1.00  0.00    -0.218 OA 
BRANCH  24  25
HETATM   25  C   UNL     1     -11.021  16.259  67.859  1.00  0.00    -0.310 C  
BRANCH  25  26
HETATM   26  C   UNL     1     -10.393  17.601  67.677  1.00  0.00    -0.368 A  
HETATM   27  C   UNL     1      -9.655  18.157  68.719  1.00  0.00    -0.304 A  
HETATM   28  C   UNL     1      -9.001  19.373  68.543  1.00  0.00    -0.418 A  
HETATM   29  C   UNL     1      -9.087  20.041  67.323  1.00  0.00    -0.459 A  
HETATM   30  C   UNL     1      -9.833  19.498  66.278  1.00  0.00    -0.513 A  
HETATM   31  C   UNL     1     -10.486  18.280  66.452  1.00  0.00    -0.387 A  
ENDBRANCH  25  26
ENDBRANCH  24  25
ENDBRANCH  22  24
ENDBRANCH  17  20
TORSDOF 4
ENDMDL
MODEL       37
REMARK 921   NORMALIZED FREE ENERGY PREDICTED BY IDOCK:   -6.24 KCAL/MOL
REMARK 922        TOTAL FREE ENERGY PREDICTED BY IDOCK:   -8.28 KCAL/MOL
REMARK 923 INTER-LIGAND FREE ENERGY PREDICTED BY IDOCK:   -7.81 KCAL/MOL
REMARK 924 INTRA-LIGAND FREE ENERGY PREDICTED BY IDOCK:   -0.46 KCAL/MOL
REMARK 927      BINDING AFFINITY PREDICTED BY RF-SCORE:    0.00 PKD
ROOT
HETATM    1  C   UNL     1     -10.934   7.872  69.623  1.00  0.00    -0.110 C  
HETATM    2  C   UNL     1     -10.921   6.418  69.176  1.00  0.00    -0.416 C  
HETATM    3  C   UNL     1     -10.175   5.722  70.171  1.00  0.00    -0.301 A  
HETATM    4  C   UNL     1      -9.267   4.722  70.049  1.00  0.00    -0.119 A  
HETATM    5  N   UNL     1      -8.690   4.603  71.281  1.00  0.00    -0.115 NA 
HETATM    6  C   UNL     1      -7.514   3.778  71.455  1.00  0.00    -0.052 C  
HETATM    7  C   UNL     1      -9.304   5.465  72.190  1.00  0.00    -0.143 A  
HETATM    8  C   UNL     1      -9.150   5.682  73.555  1.00  0.00    -0.131 A  
HETATM    9  C   UNL     1      -9.946   6.711  74.109  1.00  0.00    -0.361 A  
HETATM   10  C   UNL     1     -10.794   7.577  73.340  1.00  0.00    -0.339 A  
HETATM   11  C   UNL     1     -10.913   7.429  71.950  1.00  0.00    -0.267 A  
HETATM   12  C   UNL     1     -11.715   8.319  70.855  1.00  0.00    -0.256 C  
HETATM   13  C   UNL     1     -10.211   6.234  71.484  1.00  0.00    -0.233 A  
HETATM   14  C   UNL     1     -11.936   9.959  70.161  1.00  0.00    -0.146 C  
HETATM   15  C   UNL     1     -11.252  10.164  68.597  1.00  0.00    -0.223 C  
HETATM   16  C   UNL     1      -9.792   9.704  68.594  1.00  0.00    -0.161 C  
HETATM   17  C   UNL     1     -11.405  11.122  67.401  1.00  0.00    -0.255 C  
HETATM   18  N   UNL     1      -9.613   8.645  69.565  1.00  0.00    -0.168 NA 
HETATM   19  C   UNL     1      -9.106   9.310  70.811  1.00  0.00    -0.244 C  
ENDROOT
BRANCH  17  20
HETATM   20  N   UNL     1     -11.240  12.535  67.528  1.00  0.00    -0.274 N  
HETATM   21  H   UNL     1     -12.021  13.191  67.532  1.00  0.00     0.000 HD 
HETATM   22  C   UNL     1      -9.942  12.921  67.642  1.00  0.00    -0.218 C  
HETATM   23  O   UNL     1      -9.008  12.391  67.050  1.00  0.00    -0.196 OA 
BRANCH  22  24
HETATM   24  O   UNL     1      -9.847  13.832  68.612  1.00  0.00    -0.220 OA 
BRANCH  24  25
HETATM   25  C   UNL     1     -10.976  14.732  68.681  1.00  0.00    -0.255 C  
BRANCH  25  26
HETATM   26  C   UNL     1     -11.508  14.777  70.076  1.00  0.00    -0.321 A  
HETATM   27  C   UNL     1     -11.405  15.958  70.809  1.00  0.00    -0.424 A  
HETATM   28  C   UNL     1     -11.960  16.041  72.082  1.00  0.00    -0.629 A  
HETATM   29  C   UNL     1     -12.617  14.942  72.631  1.00  0.00    -0.456 A  
HETATM   30  C   UNL     1     -12.715  13.753  71.910  1.00  0.00    -0.347 A  
HETATM   31  C   UNL     1     -12.162  13.668  70.634  1.00  0.00    -0.434 A  
ENDBRANCH  25  26
ENDBRANCH  24  25
ENDBRANCH  22  24
ENDBRANCH  17  20
TORSDOF 4
ENDMDL
MODEL       38
REMARK 921   NORMALIZED FREE ENERGY PREDICTED BY IDOCK:   -6.11 KCAL/MOL
REMARK 922        TOTAL FREE ENERGY PREDICTED BY IDOCK:   -8.12 KCAL/MOL
REMARK 923 INTER-LIGAND FREE ENERGY PREDICTED BY IDOCK:   -7.74 KCAL/MOL
REMARK 924 INTRA-LIGAND FREE ENERGY PREDICTED BY IDOCK:   -0.39 KCAL/MOL
REMARK 927      BINDING AFFINITY PREDICTED BY RF-SCORE:    0.00 PKD
ROOT
HETATM    1  C   UNL     1      -8.984   8.765  67.988  1.00  0.00    -0.140 C  
HETATM    2  C   UNL     1      -7.857   7.773  67.748  1.00  0.00    -0.123 C  
HETATM    3  C   UNL     1      -7.903   6.872  68.851  1.00  0.00    -0.111 A  
HETATM    4  C   UNL     1      -6.899   6.307  69.566  1.00  0.00    -0.065 A  
HETATM    5  N   UNL     1      -7.502   5.733  70.649  1.00  0.00    -0.084 NA 
HETATM    6  C   UNL     1      -6.702   5.231  71.744  1.00  0.00    -0.052 C  
HETATM    7  C   UNL     1      -8.889   5.862  70.557  1.00  0.00    -0.144 A  
HETATM    8  C   UNL     1      -9.945   5.404  71.338  1.00  0.00    -0.241 A  
HETATM    9  C   UNL     1     -11.236   5.806  70.924  1.00  0.00    -0.200 A  
HETATM   10  C   UNL     1     -11.490   6.713  69.841  1.00  0.00    -0.414 A  
HETATM   11  C   UNL     1     -10.439   7.249  69.081  1.00  0.00    -0.222 A  
HETATM   12  C   UNL     1     -10.448   8.348  67.887  1.00  0.00    -0.255 C  
HETATM   13  C   UNL     1      -9.160   6.643  69.448  1.00  0.00    -0.143 A  
HETATM   14  C   UNL     1     -10.925  10.013  67.416  1.00  0.00    -0.258 C  
HETATM   15  C   UNL     1      -9.614  11.118  67.295  1.00  0.00    -0.182 C  
HETATM   16  C   UNL     1      -8.767  11.074  68.571  1.00  0.00    -0.159 C  
HETATM   17  C   UNL     1      -9.322  12.476  66.630  1.00  0.00    -0.236 C  
HETATM   18  N   UNL     1      -8.828   9.750  69.151  1.00  0.00    -0.150 NA 
HETATM   19  C   UNL     1      -9.898   9.810  70.201  1.00  0.00    -0.255 C  
ENDROOT
BRANCH  17  20
HETATM   20  N   UNL     1     -10.120  13.634  66.877  1.00  0.00    -0.255 N  
HETATM   21  H   UNL     1     -10.353  13.964  67.813  1.00  0.00     0.000 HD 
HETATM   22  C   UNL     1     -10.538  14.255  65.742  1.00  0.00    -0.309 C  
HETATM   23  O   UNL     1     -10.864  13.671  64.714  1.00  0.00    -0.349 OA 
BRANCH  22  24
HETATM   24  O   UNL     1     -10.370  15.571  65.884  1.00  0.00    -0.302 OA 
BRANCH  24  25
HETATM   25  C   UNL     1     -10.396  16.019  67.259  1.00  0.00    -0.295 C  
BRANCH  25  26
HETATM   26  C   UNL     1     -10.278  17.507  67.313  1.00  0.00    -0.335 A  
HETATM   27  C   UNL     1     -10.221  18.143  68.551  1.00  0.00    -0.399 A  
HETATM   28  C   UNL     1     -10.037  19.521  68.621  1.00  0.00    -0.535 A  
HETATM   29  C   UNL     1      -9.914  20.270  67.452  1.00  0.00    -0.567 A  
HETATM   30  C   UNL     1      -9.982  19.643  66.209  1.00  0.00    -0.563 A  
HETATM   31  C   UNL     1     -10.164  18.264  66.136  1.00  0.00    -0.393 A  
ENDBRANCH  25  26
ENDBRANCH  24  25
ENDBRANCH  22  24
ENDBRANCH  17  20
TORSDOF 4
ENDMDL
MODEL       39
REMARK 921   NORMALIZED FREE ENERGY PREDICTED BY IDOCK:   -6.11 KCAL/MOL
REMARK 922        TOTAL FREE ENERGY PREDICTED BY IDOCK:   -8.12 KCAL/MOL
REMARK 923 INTER-LIGAND FREE ENERGY PREDICTED BY IDOCK:   -7.96 KCAL/MOL
REMARK 924 INTRA-LIGAND FREE ENERGY PREDICTED BY IDOCK:   -0.16 KCAL/MOL
REMARK 927      BINDING AFFINITY PREDICTED BY RF-SCORE:    0.00 PKD
ROOT
HETATM    1  C   UNL     1     -10.193  11.105  65.116  1.00  0.00    -0.289 C  
HETATM    2  C   UNL     1      -9.945  10.684  63.676  1.00  0.00    -0.364 C  
HETATM    3  C   UNL     1      -8.789   9.852  63.717  1.00  0.00    -0.254 A  
HETATM    4  C   UNL     1      -7.736   9.768  62.868  1.00  0.00    -0.127 A  
HETATM    5  N   UNL     1      -6.810   8.995  63.510  1.00  0.00    -0.089 NA 
HETATM    6  C   UNL     1      -5.467   8.883  62.984  1.00  0.00    -0.069 C  
HETATM    7  C   UNL     1      -7.327   8.523  64.717  1.00  0.00    -0.091 A  
HETATM    8  C   UNL     1      -6.838   7.663  65.694  1.00  0.00    -0.049 A  
HETATM    9  C   UNL     1      -7.669   7.478  66.823  1.00  0.00    -0.102 A  
HETATM   10  C   UNL     1      -8.895   8.188  67.048  1.00  0.00    -0.143 A  
HETATM   11  C   UNL     1      -9.377   9.118  66.113  1.00  0.00    -0.288 A  
HETATM   12  C   UNL     1     -10.663  10.106  66.168  1.00  0.00    -0.008 C  
HETATM   13  C   UNL     1      -8.565   9.113  64.897  1.00  0.00    -0.208 A  
HETATM   14  C   UNL     1     -11.486  11.410  67.088  1.00  0.00    -0.268 C  
HETATM   15  C   UNL     1     -11.367  12.966  66.368  1.00  0.00    -0.361 C  
HETATM   16  C   UNL     1      -9.905  13.290  66.046  1.00  0.00    -0.263 C  
HETATM   17  C   UNL     1     -12.101  14.318  66.443  1.00  0.00    -0.419 C  
HETATM   18  N   UNL     1      -9.188  12.067  65.759  1.00  0.00    -0.127 NA 
HETATM   19  C   UNL     1      -8.522  11.669  67.043  1.00  0.00    -0.168 C  
ENDROOT
BRANCH  17  20
HETATM   20  N   UNL     1     -12.269  15.029  67.670  1.00  0.00    -0.399 N  
HETATM   21  H   UNL     1     -13.144  15.045  68.193  1.00  0.00     0.000 HD 
HETATM   22  C   UNL     1     -11.148  15.683  68.074  1.00  0.00    -0.335 C  
HETATM   23  O   UNL     1     -10.358  16.235  67.317  1.00  0.00    -0.276 OA 
BRANCH  22  24
HETATM   24  O   UNL     1     -10.976  15.475  69.381  1.00  0.00    -0.240 OA 
BRANCH  24  25
HETATM   25  C   UNL     1     -12.152  15.747  70.177  1.00  0.00    -0.333 C  
BRANCH  25  26
HETATM   26  C   UNL     1     -12.630  14.490  70.827  1.00  0.00    -0.418 A  
HETATM   27  C   UNL     1     -12.177  13.261  70.353  1.00  0.00    -0.404 A  
HETATM   28  C   UNL     1     -12.553  12.083  70.991  1.00  0.00    -0.370 A  
HETATM   29  C   UNL     1     -13.391  12.129  72.105  1.00  0.00    -0.438 A  
HETATM   30  C   UNL     1     -13.859  13.353  72.578  1.00  0.00    -0.595 A  
HETATM   31  C   UNL     1     -13.481  14.534  71.942  1.00  0.00    -0.466 A  
ENDBRANCH  25  26
ENDBRANCH  24  25
ENDBRANCH  22  24
ENDBRANCH  17  20
TORSDOF 4
ENDMDL
MODEL       40
REMARK 921   NORMALIZED FREE ENERGY PREDICTED BY IDOCK:   -6.11 KCAL/MOL
REMARK 922        TOTAL FREE ENERGY PREDICTED BY IDOCK:   -8.12 KCAL/MOL
REMARK 923 INTER-LIGAND FREE ENERGY PREDICTED BY IDOCK:   -7.21 KCAL/MOL
REMARK 924 INTRA-LIGAND FREE ENERGY PREDICTED BY IDOCK:   -0.91 KCAL/MOL
REMARK 927      BINDING AFFINITY PREDICTED BY RF-SCORE:    0.00 PKD
ROOT
HETATM    1  C   UNL     1     -11.076  13.153  68.668  1.00  0.00    -0.269 C  
HETATM    2  C   UNL     1     -11.392  14.316  69.595  1.00  0.00    -0.292 C  
HETATM    3  C   UNL     1     -11.044  15.489  68.864  1.00  0.00    -0.282 A  
HETATM    4  C   UNL     1     -10.441  16.632  69.273  1.00  0.00    -0.333 A  
HETATM    5  N   UNL     1     -10.131  17.310  68.129  1.00  0.00    -0.306 NA 
HETATM    6  C   UNL     1      -9.275  18.476  68.184  1.00  0.00    -0.309 C  
HETATM    7  C   UNL     1     -10.624  16.631  67.014  1.00  0.00    -0.247 A  
HETATM    8  C   UNL     1     -10.643  16.916  65.653  1.00  0.00    -0.231 A  
HETATM    9  C   UNL     1     -11.203  15.917  64.823  1.00  0.00    -0.364 A  
HETATM   10  C   UNL     1     -11.639  14.632  65.289  1.00  0.00    -0.354 A  
HETATM   11  C   UNL     1     -11.564  14.288  66.647  1.00  0.00    -0.397 A  
HETATM   12  C   UNL     1     -11.896  12.893  67.408  1.00  0.00    -0.418 C  
HETATM   13  C   UNL     1     -11.153  15.433  67.459  1.00  0.00    -0.315 A  
HETATM   14  C   UNL     1     -11.536  11.137  67.494  1.00  0.00    -0.296 C  
HETATM   15  C   UNL     1     -10.574  10.678  68.843  1.00  0.00    -0.241 C  
HETATM   16  C   UNL     1      -9.318  11.551  68.918  1.00  0.00     0.007 C  
HETATM   17  C   UNL     1     -10.255   9.395  69.634  1.00  0.00    -0.212 C  
HETATM   18  N   UNL     1      -9.602  12.860  68.371  1.00  0.00    -0.208 NA 
HETATM   19  C   UNL     1      -9.144  12.818  66.943  1.00  0.00    -0.221 C  
ENDROOT
BRANCH  17  20
HETATM   20  N   UNL     1      -9.729   8.223  69.010  1.00  0.00    -0.164 N  
HETATM   21  H   UNL     1     -10.313   7.517  68.563  1.00  0.00     0.000 HD 
HETATM   22  C   UNL     1      -8.374   8.140  69.071  1.00  0.00    -0.128 C  
HETATM   23  O   UNL     1      -7.700   8.504  70.028  1.00  0.00    -0.081 OA 
BRANCH  22  24
HETATM   24  O   UNL     1      -7.911   7.766  67.876  1.00  0.00    -0.121 OA 
BRANCH  24  25
HETATM   25  C   UNL     1      -8.942   7.338  66.957  1.00  0.00    -0.130 C  
BRANCH  25  26
HETATM   26  C   UNL     1      -8.831   8.097  65.675  1.00  0.00    -0.160 A  
HETATM   27  C   UNL     1      -9.504   9.309  65.538  1.00  0.00    -0.309 A  
HETATM   28  C   UNL     1      -9.353  10.065  64.380  1.00  0.00    -0.348 A  
HETATM   29  C   UNL     1      -8.533   9.609  63.350  1.00  0.00    -0.188 A  
HETATM   30  C   UNL     1      -7.865   8.392  63.474  1.00  0.00    -0.152 A  
HETATM   31  C   UNL     1      -8.012   7.634  64.634  1.00  0.00    -0.136 A  
ENDBRANCH  25  26
ENDBRANCH  24  25
ENDBRANCH  22  24
ENDBRANCH  17  20
TORSDOF 4
ENDMDL
MODEL       41
REMARK 921   NORMALIZED FREE ENERGY PREDICTED BY IDOCK:   -6.11 KCAL/MOL
REMARK 922        TOTAL FREE ENERGY PREDICTED BY IDOCK:   -8.12 KCAL/MOL
REMARK 923 INTER-LIGAND FREE ENERGY PREDICTED BY IDOCK:   -8.01 KCAL/MOL
REMARK 924 INTRA-LIGAND FREE ENERGY PREDICTED BY IDOCK:   -0.11 KCAL/MOL
REMARK 927      BINDING AFFINITY PREDICTED BY RF-SCORE:    0.00 PKD
ROOT
HETATM    1  C   UNL     1      -9.739  15.300  66.715  1.00  0.00    -0.236 C  
HETATM    2  C   UNL     1     -10.321  16.296  65.725  1.00  0.00    -0.393 C  
HETATM    3  C   UNL     1      -9.789  17.563  66.103  1.00  0.00    -0.256 A  
HETATM    4  C   UNL     1     -10.375  18.785  66.142  1.00  0.00    -0.448 A  
HETATM    5  N   UNL     1      -9.493  19.590  66.807  1.00  0.00    -0.333 NA 
HETATM    6  C   UNL     1      -9.895  20.914  67.227  1.00  0.00    -0.160 C  
HETATM    7  C   UNL     1      -8.322  18.889  67.098  1.00  0.00    -0.274 A  
HETATM    8  C   UNL     1      -7.114  19.251  67.684  1.00  0.00    -0.251 A  
HETATM    9  C   UNL     1      -6.175  18.207  67.853  1.00  0.00    -0.174 A  
HETATM   10  C   UNL     1      -6.440  16.828  67.557  1.00  0.00    -0.178 A  
HETATM   11  C   UNL     1      -7.677  16.422  67.034  1.00  0.00    -0.250 A  
HETATM   12  C   UNL     1      -8.256  14.942  66.706  1.00  0.00    -0.086 C  
HETATM   13  C   UNL     1      -8.518  17.575  66.714  1.00  0.00    -0.275 A  
HETATM   14  C   UNL     1      -8.610  13.313  67.374  1.00  0.00    -0.204 C  
HETATM   15  C   UNL     1     -10.281  13.001  67.628  1.00  0.00    -0.216 C  
HETATM   16  C   UNL     1     -10.913  14.134  68.442  1.00  0.00    -0.254 C  
HETATM   17  C   UNL     1     -11.200  11.778  67.805  1.00  0.00    -0.266 C  
HETATM   18  N   UNL     1     -10.222  15.375  68.167  1.00  0.00    -0.228 NA 
HETATM   19  C   UNL     1      -9.209  15.534  69.262  1.00  0.00    -0.268 C  
ENDROOT
BRANCH  17  20
HETATM   20  N   UNL     1     -10.985  10.802  68.826  1.00  0.00    -0.228 N  
HETATM   21  H   UNL     1     -11.393  10.868  69.758  1.00  0.00     0.000 HD 
HETATM   22  C   UNL     1     -10.183   9.777  68.434  1.00  0.00    -0.185 C  
HETATM   23  O   UNL     1      -9.215   9.901  67.692  1.00  0.00    -0.133 OA 
BRANCH  22  24
HETATM   24  O   UNL     1     -10.721   8.628  68.846  1.00  0.00    -0.187 OA 
BRANCH  24  25
HETATM   25  C   UNL     1     -10.517   8.357  70.252  1.00  0.00    -0.218 C  
BRANCH  25  26
HETATM   26  C   UNL     1     -11.834   8.287  70.954  1.00  0.00    -0.232 A  
HETATM   27  C   UNL     1     -12.466   9.468  71.338  1.00  0.00    -0.450 A  
HETATM   28  C   UNL     1     -13.726   9.426  71.927  1.00  0.00    -0.440 A  
HETATM   29  C   UNL     1     -14.358   8.202  72.140  1.00  0.00    -0.469 A  
HETATM   30  C   UNL     1     -13.727   7.015  71.770  1.00  0.00    -0.309 A  
HETATM   31  C   UNL     1     -12.466   7.055  71.177  1.00  0.00    -0.407 A  
ENDBRANCH  25  26
ENDBRANCH  24  25
ENDBRANCH  22  24
ENDBRANCH  17  20
TORSDOF 4
ENDMDL
MODEL       42
REMARK 921   NORMALIZED FREE ENERGY PREDICTED BY IDOCK:   -6.10 KCAL/MOL
REMARK 922        TOTAL FREE ENERGY PREDICTED BY IDOCK:   -8.11 KCAL/MOL
REMARK 923 INTER-LIGAND FREE ENERGY PREDICTED BY IDOCK:   -7.17 KCAL/MOL
REMARK 924 INTRA-LIGAND FREE ENERGY PREDICTED BY IDOCK:   -0.94 KCAL/MOL
REMARK 927      BINDING AFFINITY PREDICTED BY RF-SCORE:    0.00 PKD
ROOT
HETATM    1  C   UNL     1     -10.249  10.594  68.919  1.00  0.00    -0.201 C  
HETATM    2  C   UNL     1     -11.339  11.394  69.616  1.00  0.00    -0.347 C  
HETATM    3  C   UNL     1     -11.866  10.526  70.615  1.00  0.00    -0.458 A  
HETATM    4  C   UNL     1     -13.145  10.329  71.022  1.00  0.00    -0.373 A  
HETATM    5  N   UNL     1     -13.107   9.222  71.821  1.00  0.00    -0.371 NA 
HETATM    6  C   UNL     1     -14.337   8.594  72.251  1.00  0.00    -0.396 C  
HETATM    7  C   UNL     1     -11.791   8.787  71.985  1.00  0.00    -0.372 A  
HETATM    8  C   UNL     1     -11.206   7.774  72.736  1.00  0.00    -0.456 A  
HETATM    9  C   UNL     1      -9.809   7.620  72.580  1.00  0.00    -0.262 A  
HETATM   10  C   UNL     1      -9.015   8.360  71.642  1.00  0.00    -0.261 A  
HETATM   11  C   UNL     1      -9.591   9.339  70.817  1.00  0.00    -0.341 A  
HETATM   12  C   UNL     1      -8.947  10.236  69.628  1.00  0.00    -0.140 C  
HETATM   13  C   UNL     1     -10.992   9.568  71.169  1.00  0.00    -0.438 A  
HETATM   14  C   UNL     1      -8.065  10.202  68.064  1.00  0.00    -0.112 C  
HETATM   15  C   UNL     1      -9.034  10.587  66.698  1.00  0.00    -0.155 C  
HETATM   16  C   UNL     1     -10.303   9.729  66.690  1.00  0.00    -0.206 C  
HETATM   17  C   UNL     1      -8.825  11.061  65.247  1.00  0.00    -0.129 C  
HETATM   18  N   UNL     1     -10.683   9.410  68.049  1.00  0.00    -0.220 NA 
HETATM   19  C   UNL     1     -10.107   8.053  68.330  1.00  0.00    -0.196 C  
ENDROOT
BRANCH  17  20
HETATM   20  N   UNL     1      -8.011  10.344  64.319  1.00  0.00    -0.290 N  
HETATM   21  H   UNL     1      -6.998  10.266  64.407  1.00  0.00     0.000 HD 
HETATM   22  C   UNL     1      -8.717   9.775  63.306  1.00  0.00    -0.226 C  
HETATM   23  O   UNL     1      -9.697  10.285  62.775  1.00  0.00    -0.294 OA 
BRANCH  22  24
HETATM   24  O   UNL     1      -8.275   8.530  63.120  1.00  0.00    -0.173 OA 
BRANCH  24  25
HETATM   25  C   UNL     1      -7.221   8.140  64.030  1.00  0.00    -0.091 C  
BRANCH  25  26
HETATM   26  C   UNL     1      -7.587   6.867  64.720  1.00  0.00    -0.108 A  
HETATM   27  C   UNL     1      -7.433   6.769  66.101  1.00  0.00    -0.081 A  
HETATM   28  C   UNL     1      -7.837   5.618  66.770  1.00  0.00    -0.101 A  
HETATM   29  C   UNL     1      -8.393   4.556  66.059  1.00  0.00    -0.113 A  
HETATM   30  C   UNL     1      -8.540   4.640  64.675  1.00  0.00    -0.144 A  
HETATM   31  C   UNL     1      -8.138   5.793  64.003  1.00  0.00    -0.116 A  
ENDBRANCH  25  26
ENDBRANCH  24  25
ENDBRANCH  22  24
ENDBRANCH  17  20
TORSDOF 4
ENDMDL
MODEL       43
REMARK 921   NORMALIZED FREE ENERGY PREDICTED BY IDOCK:   -6.10 KCAL/MOL
REMARK 922        TOTAL FREE ENERGY PREDICTED BY IDOCK:   -8.11 KCAL/MOL
REMARK 923 INTER-LIGAND FREE ENERGY PREDICTED BY IDOCK:   -7.51 KCAL/MOL
REMARK 924 INTRA-LIGAND FREE ENERGY PREDICTED BY IDOCK:   -0.60 KCAL/MOL
REMARK 927      BINDING AFFINITY PREDICTED BY RF-SCORE:    0.00 PKD
ROOT
HETATM    1  C   UNL     1     -11.229   7.683  70.541  1.00  0.00    -0.261 C  
HETATM    2  C   UNL     1     -11.464   6.378  69.796  1.00  0.00    -0.468 C  
HETATM    3  C   UNL     1     -10.655   5.411  70.460  1.00  0.00    -0.312 A  
HETATM    4  C   UNL     1      -9.907   4.398  69.958  1.00  0.00    -0.223 A  
HETATM    5  N   UNL     1      -9.154   3.948  71.006  1.00  0.00    -0.108 NA 
HETATM    6  C   UNL     1      -8.074   3.013  70.775  1.00  0.00    -0.053 C  
HETATM    7  C   UNL     1      -9.503   4.619  72.178  1.00  0.00    -0.140 A  
HETATM    8  C   UNL     1      -9.103   4.498  73.504  1.00  0.00    -0.106 A  
HETATM    9  C   UNL     1      -9.668   5.429  74.405  1.00  0.00    -0.191 A  
HETATM   10  C   UNL     1     -10.520   6.516  74.014  1.00  0.00    -0.306 A  
HETATM   11  C   UNL     1     -10.882   6.708  72.672  1.00  0.00    -0.279 A  
HETATM   12  C   UNL     1     -11.739   7.890  71.964  1.00  0.00    -0.360 C  
HETATM   13  C   UNL     1     -10.414   5.603  71.836  1.00  0.00    -0.279 A  
HETATM   14  C   UNL     1     -11.871   9.660  71.694  1.00  0.00    -0.457 C  
HETATM   15  C   UNL     1     -11.432  10.169  70.112  1.00  0.00    -0.368 C  
HETATM   16  C   UNL     1     -10.058   9.607  69.738  1.00  0.00    -0.233 C  
HETATM   17  C   UNL     1     -11.661  11.390  69.201  1.00  0.00    -0.342 C  
HETATM   18  N   UNL     1      -9.852   8.340  70.406  1.00  0.00    -0.185 NA 
HETATM   19  C   UNL     1      -9.072   8.653  71.649  1.00  0.00    -0.247 C  
ENDROOT
BRANCH  17  20
HETATM   20  N   UNL     1     -11.310  12.716  69.597  1.00  0.00    -0.479 N  
HETATM   21  H   UNL     1     -11.011  12.957  70.542  1.00  0.00     0.000 HD 
HETATM   22  C   UNL     1     -11.411  13.626  68.593  1.00  0.00    -0.307 C  
HETATM   23  O   UNL     1     -12.282  13.609  67.730  1.00  0.00    -0.321 OA 
BRANCH  22  24
HETATM   24  O   UNL     1     -10.331  14.409  68.610  1.00  0.00    -0.234 OA 
BRANCH  24  25
HETATM   25  C   UNL     1      -9.643  14.486  67.341  1.00  0.00    -0.212 C  
BRANCH  25  26
HETATM   26  C   UNL     1      -8.677  13.354  67.215  1.00  0.00    -0.219 A  
HETATM   27  C   UNL     1      -9.076  12.184  66.572  1.00  0.00    -0.199 A  
HETATM   28  C   UNL     1      -8.168  11.148  66.379  1.00  0.00    -0.164 A  
HETATM   29  C   UNL     1      -6.857  11.273  66.836  1.00  0.00    -0.134 A  
HETATM   30  C   UNL     1      -6.453  12.435  67.491  1.00  0.00    -0.146 A  
HETATM   31  C   UNL     1      -7.359  13.476  67.682  1.00  0.00    -0.180 A  
ENDBRANCH  25  26
ENDBRANCH  24  25
ENDBRANCH  22  24
ENDBRANCH  17  20
TORSDOF 4
ENDMDL
MODEL       44
REMARK 921   NORMALIZED FREE ENERGY PREDICTED BY IDOCK:   -6.02 KCAL/MOL
REMARK 922        TOTAL FREE ENERGY PREDICTED BY IDOCK:   -8.01 KCAL/MOL
REMARK 923 INTER-LIGAND FREE ENERGY PREDICTED BY IDOCK:   -6.67 KCAL/MOL
REMARK 924 INTRA-LIGAND FREE ENERGY PREDICTED BY IDOCK:   -1.34 KCAL/MOL
REMARK 927      BINDING AFFINITY PREDICTED BY RF-SCORE:    0.00 PKD
ROOT
HETATM    1  C   UNL     1     -10.650  12.268  68.434  1.00  0.00    -0.235 C  
HETATM    2  C   UNL     1     -11.086  13.584  69.060  1.00  0.00    -0.293 C  
HETATM    3  C   UNL     1     -11.172  14.508  67.979  1.00  0.00    -0.308 A  
HETATM    4  C   UNL     1     -10.814  15.814  67.910  1.00  0.00    -0.314 A  
HETATM    5  N   UNL     1     -10.882  16.141  66.586  1.00  0.00    -0.217 NA 
HETATM    6  C   UNL     1     -10.349  17.403  66.121  1.00  0.00    -0.327 C  
HETATM    7  C   UNL     1     -11.370  15.064  65.845  1.00  0.00    -0.273 A  
HETATM    8  C   UNL     1     -11.689  14.894  64.502  1.00  0.00    -0.388 A  
HETATM    9  C   UNL     1     -12.113  13.598  64.129  1.00  0.00    -0.484 A  
HETATM   10  C   UNL     1     -12.128  12.468  65.014  1.00  0.00    -0.504 A  
HETATM   11  C   UNL     1     -11.740  12.593  66.357  1.00  0.00    -0.466 A  
HETATM   12  C   UNL     1     -11.579  11.474  67.522  1.00  0.00    -0.322 C  
HETATM   13  C   UNL     1     -11.498  13.991  66.709  1.00  0.00    -0.379 A  
HETATM   14  C   UNL     1     -10.781   9.936  67.992  1.00  0.00    -0.296 C  
HETATM   15  C   UNL     1      -9.521  10.117  69.146  1.00  0.00    -0.215 C  
HETATM   16  C   UNL     1      -8.530  11.190  68.684  1.00  0.00    -0.153 C  
HETATM   17  C   UNL     1      -8.762   9.235  70.156  1.00  0.00    -0.204 C  
HETATM   18  N   UNL     1      -9.221  12.180  67.888  1.00  0.00    -0.182 NA 
HETATM   19  C   UNL     1      -9.015  11.776  66.458  1.00  0.00    -0.196 C  
ENDROOT
BRANCH  17  20
HETATM   20  N   UNL     1      -8.072   8.047  69.765  1.00  0.00    -0.113 N  
HETATM   21  H   UNL     1      -8.532   7.145  69.651  1.00  0.00     0.000 HD 
HETATM   22  C   UNL     1      -6.741   8.236  69.561  1.00  0.00    -0.038 C  
HETATM   23  O   UNL     1      -6.040   8.989  70.227  1.00  0.00    -0.036 OA 
BRANCH  22  24
HETATM   24  O   UNL     1      -6.385   7.612  68.437  1.00  0.00    -0.038 OA 
BRANCH  24  25
HETATM   25  C   UNL     1      -5.717   8.465  67.480  1.00  0.00    -0.039 C  
BRANCH  25  26
HETATM   26  C   UNL     1      -6.609   8.718  66.310  1.00  0.00    -0.066 A  
HETATM   27  C   UNL     1      -6.162   9.534  65.273  1.00  0.00    -0.068 A  
HETATM   28  C   UNL     1      -6.950   9.721  64.142  1.00  0.00    -0.123 A  
HETATM   29  C   UNL     1      -8.192   9.098  64.044  1.00  0.00    -0.168 A  
HETATM   30  C   UNL     1      -8.653   8.289  65.082  1.00  0.00    -0.132 A  
HETATM   31  C   UNL     1      -7.865   8.097  66.215  1.00  0.00    -0.095 A  
ENDBRANCH  25  26
ENDBRANCH  24  25
ENDBRANCH  22  24
ENDBRANCH  17  20
TORSDOF 4
ENDMDL
MODEL       45
REMARK 921   NORMALIZED FREE ENERGY PREDICTED BY IDOCK:   -6.01 KCAL/MOL
REMARK 922        TOTAL FREE ENERGY PREDICTED BY IDOCK:   -7.99 KCAL/MOL
REMARK 923 INTER-LIGAND FREE ENERGY PREDICTED BY IDOCK:   -7.64 KCAL/MOL
REMARK 924 INTRA-LIGAND FREE ENERGY PREDICTED BY IDOCK:   -0.35 KCAL/MOL
REMARK 927      BINDING AFFINITY PREDICTED BY RF-SCORE:    0.00 PKD
ROOT
HETATM    1  C   UNL     1      -8.537  15.587  67.934  1.00  0.00    -0.155 C  
HETATM    2  C   UNL     1      -7.170  16.240  68.059  1.00  0.00    -0.141 C  
HETATM    3  C   UNL     1      -7.261  17.456  67.321  1.00  0.00    -0.192 A  
HETATM    4  C   UNL     1      -6.362  18.056  66.503  1.00  0.00    -0.204 A  
HETATM    5  N   UNL     1      -7.052  19.053  65.873  1.00  0.00    -0.272 NA 
HETATM    6  C   UNL     1      -6.455  19.758  64.760  1.00  0.00    -0.202 C  
HETATM    7  C   UNL     1      -8.354  19.130  66.370  1.00  0.00    -0.318 A  
HETATM    8  C   UNL     1      -9.419  19.991  66.128  1.00  0.00    -0.447 A  
HETATM    9  C   UNL     1     -10.620  19.690  66.811  1.00  0.00    -0.602 A  
HETATM   10  C   UNL     1     -10.815  18.526  67.626  1.00  0.00    -0.319 A  
HETATM   11  C   UNL     1      -9.780  17.600  67.829  1.00  0.00    -0.280 A  
HETATM   12  C   UNL     1      -9.768  16.179  68.613  1.00  0.00    -0.227 C  
HETATM   13  C   UNL     1      -8.525  18.076  67.248  1.00  0.00    -0.237 A  
HETATM   14  C   UNL     1     -10.522  14.555  68.739  1.00  0.00    -0.246 C  
HETATM   15  C   UNL     1      -9.553  13.276  68.123  1.00  0.00    -0.227 C  
HETATM   16  C   UNL     1      -9.078  13.608  66.705  1.00  0.00    -0.217 C  
HETATM   17  C   UNL     1      -9.462  11.744  68.260  1.00  0.00    -0.193 C  
HETATM   18  N   UNL     1      -8.941  15.041  66.561  1.00  0.00    -0.281 NA 
HETATM   19  C   UNL     1     -10.221  15.517  65.939  1.00  0.00    -0.345 C  
ENDROOT
BRANCH  17  20
HETATM   20  N   UNL     1     -10.567  10.885  67.978  1.00  0.00    -0.188 N  
HETATM   21  H   UNL     1     -11.036  10.855  67.073  1.00  0.00     0.000 HD 
HETATM   22  C   UNL     1     -10.933  10.109  69.032  1.00  0.00    -0.226 C  
HETATM   23  O   UNL     1     -10.911  10.476  70.201  1.00  0.00    -0.287 OA 
BRANCH  22  24
HETATM   24  O   UNL     1     -11.145   8.865  68.598  1.00  0.00     0.040 OA 
BRANCH  24  25
HETATM   25  C   UNL     1     -10.772   7.842  69.550  1.00  0.00    -0.198 C  
BRANCH  25  26
HETATM   26  C   UNL     1     -10.485   6.562  68.837  1.00  0.00    -0.249 A  
HETATM   27  C   UNL     1     -10.791   6.450  67.482  1.00  0.00    -0.438 A  
HETATM   28  C   UNL     1     -10.463   5.292  66.784  1.00  0.00    -0.330 A  
HETATM   29  C   UNL     1      -9.831   4.237  67.439  1.00  0.00    -0.176 A  
HETATM   30  C   UNL     1      -9.532   4.335  68.797  1.00  0.00    -0.230 A  
HETATM   31  C   UNL     1      -9.856   5.494  69.497  1.00  0.00    -0.253 A  
ENDBRANCH  25  26
ENDBRANCH  24  25
ENDBRANCH  22  24
ENDBRANCH  17  20
TORSDOF 4
ENDMDL
MODEL       46
REMARK 921   NORMALIZED FREE ENERGY PREDICTED BY IDOCK:   -5.98 KCAL/MOL
REMARK 922        TOTAL FREE ENERGY PREDICTED BY IDOCK:   -7.96 KCAL/MOL
REMARK 923 INTER-LIGAND FREE ENERGY PREDICTED BY IDOCK:   -7.52 KCAL/MOL
REMARK 924 INTRA-LIGAND FREE ENERGY PREDICTED BY IDOCK:   -0.44 KCAL/MOL
REMARK 927      BINDING AFFINITY PREDICTED BY RF-SCORE:    0.00 PKD
ROOT
HETATM    1  C   UNL     1      -9.452  10.942  68.846  1.00  0.00    -0.172 C  
HETATM    2  C   UNL     1      -8.594  10.264  69.903  1.00  0.00     0.004 C  
HETATM    3  C   UNL     1      -9.160   8.967  70.076  1.00  0.00    -0.187 A  
HETATM    4  C   UNL     1      -9.354   8.237  71.202  1.00  0.00    -0.165 A  
HETATM    5  N   UNL     1     -10.148   7.191  70.825  1.00  0.00    -0.190 NA 
HETATM    6  C   UNL     1     -10.738   6.329  71.826  1.00  0.00    -0.236 C  
HETATM    7  C   UNL     1     -10.369   7.222  69.447  1.00  0.00    -0.208 A  
HETATM    8  C   UNL     1     -11.032   6.374  68.567  1.00  0.00    -0.396 A  
HETATM    9  C   UNL     1     -11.079   6.800  67.219  1.00  0.00    -0.394 A  
HETATM   10  C   UNL     1     -10.586   8.066  66.756  1.00  0.00    -0.225 A  
HETATM   11  C   UNL     1      -9.979   8.975  67.636  1.00  0.00    -0.252 A  
HETATM   12  C   UNL     1      -9.432  10.483  67.391  1.00  0.00    -0.172 C  
HETATM   13  C   UNL     1      -9.800   8.386  68.963  1.00  0.00    -0.184 A  
HETATM   14  C   UNL     1      -9.857  12.135  66.829  1.00  0.00    -0.218 C  
HETATM   15  C   UNL     1     -10.019  13.291  68.091  1.00  0.00    -0.234 C  
HETATM   16  C   UNL     1     -10.966  12.763  69.173  1.00  0.00    -0.133 C  
HETATM   17  C   UNL     1      -9.999  14.823  68.245  1.00  0.00    -0.222 C  
HETATM   18  N   UNL     1     -10.886  11.320  69.228  1.00  0.00    -0.227 NA 
HETATM   19  C   UNL     1     -12.019  10.812  68.387  1.00  0.00     0.078 C  
ENDROOT
BRANCH  17  20
HETATM   20  N   UNL     1     -10.879  15.676  67.511  1.00  0.00    -0.313 N  
HETATM   21  H   UNL     1     -11.826  15.899  67.817  1.00  0.00     0.000 HD 
HETATM   22  C   UNL     1     -10.331  16.163  66.367  1.00  0.00    -0.315 C  
HETATM   23  O   UNL     1      -9.576  15.530  65.638  1.00  0.00    -0.336 OA 
BRANCH  22  24
HETATM   24  O   UNL     1     -10.613  17.464  66.274  1.00  0.00    -0.297 OA 
BRANCH  24  25
HETATM   25  C   UNL     1     -10.569  18.164  67.538  1.00  0.00    -0.401 C  
BRANCH  25  26
HETATM   26  C   UNL     1      -9.250  18.844  67.699  1.00  0.00    -0.318 A  
HETATM   27  C   UNL     1      -8.963  19.971  66.932  1.00  0.00    -0.449 A  
HETATM   28  C   UNL     1      -7.769  20.660  67.121  1.00  0.00    -0.348 A  
HETATM   29  C   UNL     1      -6.853  20.222  68.075  1.00  0.00    -0.335 A  
HETATM   30  C   UNL     1      -7.126  19.088  68.839  1.00  0.00    -0.363 A  
HETATM   31  C   UNL     1      -8.322  18.398  68.653  1.00  0.00    -0.319 A  
ENDBRANCH  25  26
ENDBRANCH  24  25
ENDBRANCH  22  24
ENDBRANCH  17  20
TORSDOF 4
ENDMDL
MODEL       47
REMARK 921   NORMALIZED FREE ENERGY PREDICTED BY IDOCK:   -5.98 KCAL/MOL
REMARK 922        TOTAL FREE ENERGY PREDICTED BY IDOCK:   -7.96 KCAL/MOL
REMARK 923 INTER-LIGAND FREE ENERGY PREDICTED BY IDOCK:   -7.38 KCAL/MOL
REMARK 924 INTRA-LIGAND FREE ENERGY PREDICTED BY IDOCK:   -0.58 KCAL/MOL
REMARK 927      BINDING AFFINITY PREDICTED BY RF-SCORE:    0.00 PKD
ROOT
HETATM    1  C   UNL     1      -9.735  17.014  67.315  1.00  0.00    -0.253 C  
HETATM    2  C   UNL     1     -10.025  18.377  67.925  1.00  0.00    -0.370 C  
HETATM    3  C   UNL     1      -8.755  18.902  68.302  1.00  0.00    -0.367 A  
HETATM    4  C   UNL     1      -8.386  19.603  69.402  1.00  0.00     0.192 A  
HETATM    5  N   UNL     1      -7.020  19.635  69.373  1.00  0.00    -0.350 NA 
HETATM    6  C   UNL     1      -6.280  20.113  70.520  1.00  0.00    -0.313 C  
HETATM    7  C   UNL     1      -6.546  19.034  68.206  1.00  0.00    -0.243 A  
HETATM    8  C   UNL     1      -5.276  18.868  67.665  1.00  0.00    -0.169 A  
HETATM    9  C   UNL     1      -5.213  18.134  66.457  1.00  0.00    -0.179 A  
HETATM   10  C   UNL     1      -6.339  17.490  65.844  1.00  0.00    -0.145 A  
HETATM   11  C   UNL     1      -7.621  17.578  66.408  1.00  0.00    -0.329 A  
HETATM   12  C   UNL     1      -9.020  16.877  65.975  1.00  0.00    -0.198 C  
HETATM   13  C   UNL     1      -7.637  18.502  67.541  1.00  0.00    -0.234 A  
HETATM   14  C   UNL     1      -9.854  15.321  65.650  1.00  0.00    -0.383 C  
HETATM   15  C   UNL     1     -10.955  14.839  66.878  1.00  0.00    -0.328 C  
HETATM   16  C   UNL     1     -10.270  14.878  68.248  1.00  0.00    -0.225 C  
HETATM   17  C   UNL     1     -12.157  13.888  67.024  1.00  0.00    -0.415 C  
HETATM   18  N   UNL     1      -9.250  15.905  68.253  1.00  0.00    -0.187 NA 
HETATM   19  C   UNL     1      -7.960  15.204  67.943  1.00  0.00    -0.135 C  
ENDROOT
BRANCH  17  20
HETATM   20  N   UNL     1     -12.071  12.495  66.721  1.00  0.00    -0.239 N  
HETATM   21  H   UNL     1     -12.285  12.108  65.803  1.00  0.00     0.000 HD 
HETATM   22  C   UNL     1     -11.675  11.735  67.776  1.00  0.00    -0.267 C  
HETATM   23  O   UNL     1     -12.001  11.942  68.939  1.00  0.00    -0.299 OA 
BRANCH  22  24
HETATM   24  O   UNL     1     -10.759  10.859  67.356  1.00  0.00    -0.223 OA 
BRANCH  24  25
HETATM   25  C   UNL     1      -9.656  11.462  66.642  1.00  0.00    -0.191 C  
BRANCH  25  26
HETATM   26  C   UNL     1      -9.437  10.753  65.347  1.00  0.00    -0.258 A  
HETATM   27  C   UNL     1     -10.050  11.234  64.192  1.00  0.00    -0.373 A  
HETATM   28  C   UNL     1      -9.800  10.630  62.964  1.00  0.00    -0.318 A  
HETATM   29  C   UNL     1      -8.938   9.537  62.885  1.00  0.00    -0.230 A  
HETATM   30  C   UNL     1      -8.329   9.042  64.037  1.00  0.00    -0.180 A  
HETATM   31  C   UNL     1      -8.577   9.647  65.268  1.00  0.00    -0.169 A  
ENDBRANCH  25  26
ENDBRANCH  24  25
ENDBRANCH  22  24
ENDBRANCH  17  20
TORSDOF 4
ENDMDL
MODEL       48
REMARK 921   NORMALIZED FREE ENERGY PREDICTED BY IDOCK:   -5.98 KCAL/MOL
REMARK 922        TOTAL FREE ENERGY PREDICTED BY IDOCK:   -7.95 KCAL/MOL
REMARK 923 INTER-LIGAND FREE ENERGY PREDICTED BY IDOCK:   -7.40 KCAL/MOL
REMARK 924 INTRA-LIGAND FREE ENERGY PREDICTED BY IDOCK:   -0.56 KCAL/MOL
REMARK 927      BINDING AFFINITY PREDICTED BY RF-SCORE:    0.00 PKD
ROOT
HETATM    1  C   UNL     1     -10.505   7.059  68.207  1.00  0.00    -0.202 C  
HETATM    2  C   UNL     1     -10.904   6.098  67.098  1.00  0.00    -0.442 C  
HETATM    3  C   UNL     1     -10.184   4.897  67.360  1.00  0.00    -0.173 A  
HETATM    4  C   UNL     1      -9.566   4.040  66.509  1.00  0.00    -0.205 A  
HETATM    5  N   UNL     1      -8.832   3.205  67.304  1.00  0.00    -0.124 NA 
HETATM    6  C   UNL     1      -7.867   2.303  66.713  1.00  0.00    -0.071 C  
HETATM    7  C   UNL     1      -9.068   3.485  68.650  1.00  0.00    -0.146 A  
HETATM    8  C   UNL     1      -8.640   2.899  69.837  1.00  0.00    -0.108 A  
HETATM    9  C   UNL     1      -9.072   3.532  71.026  1.00  0.00    -0.180 A  
HETATM   10  C   UNL     1      -9.814   4.760  71.063  1.00  0.00    -0.267 A  
HETATM   11  C   UNL     1     -10.196   5.413  69.881  1.00  0.00    -0.351 A  
HETATM   12  C   UNL     1     -10.943   6.835  69.651  1.00  0.00    -0.336 C  
HETATM   13  C   UNL     1      -9.878   4.605  68.705  1.00  0.00    -0.190 A  
HETATM   14  C   UNL     1     -10.892   8.600  69.976  1.00  0.00    -0.226 C  
HETATM   15  C   UNL     1     -10.453   9.557  68.618  1.00  0.00    -0.237 C  
HETATM   16  C   UNL     1      -9.160   9.025  67.992  1.00  0.00    -0.136 C  
HETATM   17  C   UNL     1     -10.578  11.024  68.166  1.00  0.00    -0.191 C  
HETATM   18  N   UNL     1      -9.070   7.596  68.201  1.00  0.00    -0.133 NA 
HETATM   19  C   UNL     1      -8.221   7.411  69.423  1.00  0.00    -0.131 C  
ENDROOT
BRANCH  17  20
HETATM   20  N   UNL     1     -10.072  12.109  68.944  1.00  0.00    -0.418 N  
HETATM   21  H   UNL     1      -9.079  12.325  69.025  1.00  0.00     0.000 HD 
HETATM   22  C   UNL     1     -11.043  12.827  69.568  1.00  0.00     0.022 C  
HETATM   23  O   UNL     1     -12.063  12.343  70.046  1.00  0.00    -0.309 OA 
BRANCH  22  24
HETATM   24  O   UNL     1     -10.781  14.127  69.417  1.00  0.00    -0.198 OA 
BRANCH  24  25
HETATM   25  C   UNL     1     -11.823  14.859  68.732  1.00  0.00    -0.296 C  
BRANCH  25  26
HETATM   26  C   UNL     1     -11.655  14.723  67.254  1.00  0.00    -0.385 A  
HETATM   27  C   UNL     1     -12.529  13.907  66.540  1.00  0.00    -0.364 A  
HETATM   28  C   UNL     1     -12.434  13.826  65.154  1.00  0.00    -0.483 A  
HETATM   29  C   UNL     1     -11.459  14.556  64.476  1.00  0.00    -0.349 A  
HETATM   30  C   UNL     1     -10.572  15.365  65.184  1.00  0.00    -0.458 A  
HETATM   31  C   UNL     1     -10.667  15.450  66.572  1.00  0.00    -0.308 A  
ENDBRANCH  25  26
ENDBRANCH  24  25
ENDBRANCH  22  24
ENDBRANCH  17  20
TORSDOF 4
ENDMDL
MODEL       49
REMARK 921   NORMALIZED FREE ENERGY PREDICTED BY IDOCK:   -5.95 KCAL/MOL
REMARK 922        TOTAL FREE ENERGY PREDICTED BY IDOCK:   -7.93 KCAL/MOL
REMARK 923 INTER-LIGAND FREE ENERGY PREDICTED BY IDOCK:   -7.60 KCAL/MOL
REMARK 924 INTRA-LIGAND FREE ENERGY PREDICTED BY IDOCK:   -0.33 KCAL/MOL
REMARK 927      BINDING AFFINITY PREDICTED BY RF-SCORE:    0.00 PKD
ROOT
HETATM    1  C   UNL     1     -10.836  12.871  68.642  1.00  0.00    -0.258 C  
HETATM    2  C   UNL     1     -10.947  14.259  69.253  1.00  0.00    -0.271 C  
HETATM    3  C   UNL     1     -10.909  15.163  68.152  1.00  0.00    -0.266 A  
HETATM    4  C   UNL     1     -10.293  16.364  68.022  1.00  0.00    -0.288 A  
HETATM    5  N   UNL     1     -10.377  16.675  66.695  1.00  0.00    -0.301 NA 
HETATM    6  C   UNL     1      -9.625  17.789  66.161  1.00  0.00    -0.187 C  
HETATM    7  C   UNL     1     -11.126  15.712  66.018  1.00  0.00    -0.136 A  
HETATM    8  C   UNL     1     -11.561  15.591  64.703  1.00  0.00    -0.281 A  
HETATM    9  C   UNL     1     -12.270  14.406  64.395  1.00  0.00    -0.481 A  
HETATM   10  C   UNL     1     -12.461  13.319  65.313  1.00  0.00    -0.543 A  
HETATM   11  C   UNL     1     -11.969  13.382  66.625  1.00  0.00    -0.452 A  
HETATM   12  C   UNL     1     -11.968  12.274  67.811  1.00  0.00    -0.229 C  
HETATM   13  C   UNL     1     -11.419  14.705  66.920  1.00  0.00    -0.372 A  
HETATM   14  C   UNL     1     -11.479  10.611  68.278  1.00  0.00    -0.318 C  
HETATM   15  C   UNL     1     -10.136  10.543  69.348  1.00  0.00    -0.233 C  
HETATM   16  C   UNL     1      -8.976  11.376  68.795  1.00  0.00    -0.080 C  
HETATM   17  C   UNL     1      -9.512   9.539  70.335  1.00  0.00    -0.262 C  
HETATM   18  N   UNL     1      -9.496  12.476  68.012  1.00  0.00    -0.203 NA 
HETATM   19  C   UNL     1      -9.473  12.014  66.585  1.00  0.00    -0.217 C  
ENDROOT
BRANCH  17  20
HETATM   20  N   UNL     1      -9.112   8.226  69.940  1.00  0.00    -0.146 N  
HETATM   21  H   UNL     1      -8.244   8.032  69.442  1.00  0.00     0.000 HD 
HETATM   22  C   UNL     1     -10.001   7.260  70.292  1.00  0.00    -0.187 C  
HETATM   23  O   UNL     1     -11.218   7.403  70.279  1.00  0.00    -0.269 OA 
BRANCH  22  24
HETATM   24  O   UNL     1      -9.331   6.224  70.801  1.00  0.00    -0.157 OA 
BRANCH  24  25
HETATM   25  C   UNL     1     -10.141   5.042  70.993  1.00  0.00    -0.227 C  
BRANCH  25  26
HETATM   26  C   UNL     1      -9.703   3.965  70.055  1.00  0.00    -0.242 A  
HETATM   27  C   UNL     1      -9.398   2.703  70.558  1.00  0.00    -0.213 A  
HETATM   28  C   UNL     1      -9.059   1.668  69.692  1.00  0.00    -0.152 A  
HETATM   29  C   UNL     1      -9.018   1.892  68.317  1.00  0.00    -0.177 A  
HETATM   30  C   UNL     1      -9.310   3.156  67.806  1.00  0.00    -0.252 A  
HETATM   31  C   UNL     1      -9.652   4.193  68.671  1.00  0.00    -0.199 A  
ENDBRANCH  25  26
ENDBRANCH  24  25
ENDBRANCH  22  24
ENDBRANCH  17  20
TORSDOF 4
ENDMDL
MODEL       50
REMARK 921   NORMALIZED FREE ENERGY PREDICTED BY IDOCK:   -5.94 KCAL/MOL
REMARK 922        TOTAL FREE ENERGY PREDICTED BY IDOCK:   -7.91 KCAL/MOL
REMARK 923 INTER-LIGAND FREE ENERGY PREDICTED BY IDOCK:   -7.44 KCAL/MOL
REMARK 924 INTRA-LIGAND FREE ENERGY PREDICTED BY IDOCK:   -0.46 KCAL/MOL
REMARK 927      BINDING AFFINITY PREDICTED BY RF-SCORE:    0.00 PKD
ROOT
HETATM    1  C   UNL     1     -10.688   9.767  67.636  1.00  0.00    -0.274 C  
HETATM    2  C   UNL     1     -10.520   8.378  67.041  1.00  0.00    -0.375 C  
HETATM    3  C   UNL     1      -9.464   7.773  67.783  1.00  0.00    -0.163 A  
HETATM    4  C   UNL     1      -8.444   6.979  67.372  1.00  0.00    -0.122 A  
HETATM    5  N   UNL     1      -7.598   6.890  68.441  1.00  0.00    -0.108 NA 
HETATM    6  C   UNL     1      -6.288   6.299  68.282  1.00  0.00    -0.047 C  
HETATM    7  C   UNL     1      -8.139   7.552  69.544  1.00  0.00    -0.128 A  
HETATM    8  C   UNL     1      -7.729   7.702  70.864  1.00  0.00    -0.088 A  
HETATM    9  C   UNL     1      -8.552   8.516  71.676  1.00  0.00    -0.247 A  
HETATM   10  C   UNL     1      -9.686   9.252  71.194  1.00  0.00    -0.327 A  
HETATM   11  C   UNL     1     -10.080   9.179  69.849  1.00  0.00    -0.219 A  
HETATM   12  C   UNL     1     -11.246   9.969  69.042  1.00  0.00    -0.180 C  
HETATM   13  C   UNL     1      -9.300   8.178  69.123  1.00  0.00    -0.151 A  
HETATM   14  C   UNL     1     -11.897  11.579  68.589  1.00  0.00    -0.382 C  
HETATM   15  C   UNL     1     -11.620  12.019  66.951  1.00  0.00    -0.389 C  
HETATM   16  C   UNL     1     -10.138  11.852  66.602  1.00  0.00    -0.200 C  
HETATM   17  C   UNL     1     -12.196  13.009  65.921  1.00  0.00    -0.432 C  
HETATM   18  N   UNL     1      -9.569  10.785  67.395  1.00  0.00    -0.158 NA 
HETATM   19  C   UNL     1      -8.925  11.449  68.577  1.00  0.00    -0.158 C  
ENDROOT
BRANCH  17  20
HETATM   20  N   UNL     1     -12.258  14.415  66.164  1.00  0.00    -0.380 N  
HETATM   21  H   UNL     1     -13.099  14.891  66.489  1.00  0.00     0.000 HD 
HETATM   22  C   UNL     1     -11.085  15.058  65.920  1.00  0.00    -0.334 C  
HETATM   23  O   UNL     1     -10.316  14.772  65.009  1.00  0.00    -0.400 OA 
BRANCH  22  24
HETATM   24  O   UNL     1     -10.846  15.910  66.918  1.00  0.00    -0.314 OA 
BRANCH  24  25
HETATM   25  C   UNL     1      -9.645  15.613  67.666  1.00  0.00    -0.220 C  
BRANCH  25  26
HETATM   26  C   UNL     1      -8.640  16.701  67.471  1.00  0.00    -0.199 A  
HETATM   27  C   UNL     1      -8.531  17.709  68.427  1.00  0.00    -0.287 A  
HETATM   28  C   UNL     1      -7.552  18.689  68.300  1.00  0.00    -0.307 A  
HETATM   29  C   UNL     1      -6.679  18.669  67.213  1.00  0.00    -0.207 A  
HETATM   30  C   UNL     1      -6.789  17.671  66.246  1.00  0.00    -0.322 A  
HETATM   31  C   UNL     1      -7.767  16.687  66.373  1.00  0.00    -0.328 A  
ENDBRANCH  25  26
ENDBRANCH  24  25
ENDBRANCH  22  24
ENDBRANCH  17  20
TORSDOF 4
ENDMDL
MODEL       51
REMARK 921   NORMALIZED FREE ENERGY PREDICTED BY IDOCK:   -5.92 KCAL/MOL
REMARK 922        TOTAL FREE ENERGY PREDICTED BY IDOCK:   -7.89 KCAL/MOL
REMARK 923 INTER-LIGAND FREE ENERGY PREDICTED BY IDOCK:   -7.12 KCAL/MOL
REMARK 924 INTRA-LIGAND FREE ENERGY PREDICTED BY IDOCK:   -0.77 KCAL/MOL
REMARK 927      BINDING AFFINITY PREDICTED BY RF-SCORE:    0.00 PKD
ROOT
HETATM    1  C   UNL     1     -10.723  12.305  68.594  1.00  0.00    -0.233 C  
HETATM    2  C   UNL     1     -11.068  13.667  69.175  1.00  0.00    -0.275 C  
HETATM    3  C   UNL     1     -11.063  14.565  68.068  1.00  0.00    -0.289 A  
HETATM    4  C   UNL     1     -10.605  15.837  67.971  1.00  0.00    -0.279 A  
HETATM    5  N   UNL     1     -10.624  16.130  66.636  1.00  0.00    -0.302 NA 
HETATM    6  C   UNL     1      -9.987  17.334  66.148  1.00  0.00    -0.275 C  
HETATM    7  C   UNL     1     -11.179  15.072  65.915  1.00  0.00    -0.313 A  
HETATM    8  C   UNL     1     -11.487  14.889  64.572  1.00  0.00    -0.328 A  
HETATM    9  C   UNL     1     -12.002  13.619  64.226  1.00  0.00    -0.488 A  
HETATM   10  C   UNL     1     -12.119  12.519  65.140  1.00  0.00    -0.503 A  
HETATM   11  C   UNL     1     -11.748  12.652  66.487  1.00  0.00    -0.463 A  
HETATM   12  C   UNL     1     -11.693  11.558  67.684  1.00  0.00    -0.283 C  
HETATM   13  C   UNL     1     -11.405  14.038  66.806  1.00  0.00    -0.346 A  
HETATM   14  C   UNL     1     -11.024   9.978  68.212  1.00  0.00    -0.278 C  
HETATM   15  C   UNL     1      -9.775  10.095  69.387  1.00  0.00    -0.247 C  
HETATM   16  C   UNL     1      -8.697  11.076  68.916  1.00  0.00    -0.117 C  
HETATM   17  C   UNL     1      -9.105   9.188  70.435  1.00  0.00    -0.233 C  
HETATM   18  N   UNL     1      -9.296  12.093  68.079  1.00  0.00    -0.192 NA 
HETATM   19  C   UNL     1      -9.095  11.633  66.665  1.00  0.00    -0.194 C  
ENDROOT
BRANCH  17  20
HETATM   20  N   UNL     1      -8.501   7.940  70.091  1.00  0.00    -0.128 N  
HETATM   21  H   UNL     1      -8.974   7.043  70.193  1.00  0.00     0.000 HD 
HETATM   22  C   UNL     1      -7.234   8.065  69.614  1.00  0.00    -0.066 C  
HETATM   23  O   UNL     1      -6.419   8.884  70.023  1.00  0.00    -0.040 OA 
BRANCH  22  24
HETATM   24  O   UNL     1      -7.099   7.283  68.541  1.00  0.00    -0.079 OA 
BRANCH  24  25
HETATM   25  C   UNL     1      -7.764   7.788  67.361  1.00  0.00    -0.113 C  
BRANCH  25  26
HETATM   26  C   UNL     1      -8.681   6.748  66.806  1.00  0.00    -0.122 A  
HETATM   27  C   UNL     1     -10.006   6.706  67.234  1.00  0.00    -0.199 A  
HETATM   28  C   UNL     1     -10.893   5.791  66.675  1.00  0.00    -0.290 A  
HETATM   29  C   UNL     1     -10.457   4.909  65.687  1.00  0.00    -0.161 A  
HETATM   30  C   UNL     1      -9.130   4.936  65.262  1.00  0.00    -0.154 A  
HETATM   31  C   UNL     1      -8.240   5.853  65.818  1.00  0.00    -0.130 A  
ENDBRANCH  25  26
ENDBRANCH  24  25
ENDBRANCH  22  24
ENDBRANCH  17  20
TORSDOF 4
ENDMDL
MODEL       52
REMARK 921   NORMALIZED FREE ENERGY PREDICTED BY IDOCK:   -5.90 KCAL/MOL
REMARK 922        TOTAL FREE ENERGY PREDICTED BY IDOCK:   -7.86 KCAL/MOL
REMARK 923 INTER-LIGAND FREE ENERGY PREDICTED BY IDOCK:   -7.37 KCAL/MOL
REMARK 924 INTRA-LIGAND FREE ENERGY PREDICTED BY IDOCK:   -0.48 KCAL/MOL
REMARK 927      BINDING AFFINITY PREDICTED BY RF-SCORE:    0.00 PKD
ROOT
HETATM    1  C   UNL     1     -11.058  11.312  68.469  1.00  0.00    -0.235 C  
HETATM    2  C   UNL     1     -11.987  12.317  69.132  1.00  0.00    -0.303 C  
HETATM    3  C   UNL     1     -11.676  13.573  68.534  1.00  0.00    -0.392 A  
HETATM    4  C   UNL     1     -11.582  14.808  69.084  1.00  0.00    -0.303 A  
HETATM    5  N   UNL     1     -11.021  15.595  68.118  1.00  0.00    -0.301 NA 
HETATM    6  C   UNL     1     -10.569  16.931  68.442  1.00  0.00    -0.365 C  
HETATM    7  C   UNL     1     -10.853  14.869  66.939  1.00  0.00    -0.319 A  
HETATM    8  C   UNL     1     -10.402  15.204  65.667  1.00  0.00    -0.379 A  
HETATM    9  C   UNL     1     -10.328  14.139  64.739  1.00  0.00    -0.387 A  
HETATM   10  C   UNL     1     -10.585  12.766  65.065  1.00  0.00    -0.330 A  
HETATM   11  C   UNL     1     -10.970  12.388  66.361  1.00  0.00    -0.315 A  
HETATM   12  C   UNL     1     -11.224  10.919  67.005  1.00  0.00    -0.211 C  
HETATM   13  C   UNL     1     -11.205  13.558  67.205  1.00  0.00    -0.319 A  
HETATM   14  C   UNL     1     -10.511   9.302  67.322  1.00  0.00    -0.334 C  
HETATM   15  C   UNL     1     -10.078   9.030  68.963  1.00  0.00    -0.204 C  
HETATM   16  C   UNL     1      -9.208  10.181  69.478  1.00  0.00    -0.204 C  
HETATM   17  C   UNL     1      -9.795   7.830  69.885  1.00  0.00    -0.177 C  
HETATM   18  N   UNL     1      -9.564  11.404  68.793  1.00  0.00    -0.169 NA 
HETATM   19  C   UNL     1      -8.584  11.544  67.665  1.00  0.00    -0.135 C  
ENDROOT
BRANCH  17  20
HETATM   20  N   UNL     1      -8.798   6.853  69.584  1.00  0.00    -0.141 N  
HETATM   21  H   UNL     1      -7.798   7.026  69.683  1.00  0.00     0.000 HD 
HETATM   22  C   UNL     1      -9.310   5.671  69.151  1.00  0.00    -0.124 C  
HETATM   23  O   UNL     1     -10.299   5.567  68.435  1.00  0.00    -0.184 OA 
BRANCH  22  24
HETATM   24  O   UNL     1      -8.671   4.674  69.766  1.00  0.00    -0.079 OA 
BRANCH  24  25
HETATM   25  C   UNL     1      -9.551   3.712  70.390  1.00  0.00    -0.184 C  
BRANCH  25  26
HETATM   26  C   UNL     1      -9.749   4.060  71.829  1.00  0.00    -0.241 A  
HETATM   27  C   UNL     1      -8.922   3.485  72.791  1.00  0.00    -0.113 A  
HETATM   28  C   UNL     1      -9.042   3.853  74.128  1.00  0.00    -0.099 A  
HETATM   29  C   UNL     1      -9.996   4.795  74.510  1.00  0.00    -0.239 A  
HETATM   30  C   UNL     1     -10.836   5.366  73.555  1.00  0.00    -0.342 A  
HETATM   31  C   UNL     1     -10.715   5.001  72.216  1.00  0.00    -0.246 A  
ENDBRANCH  25  26
ENDBRANCH  24  25
ENDBRANCH  22  24
ENDBRANCH  17  20
TORSDOF 4
ENDMDL
MODEL       53
REMARK 921   NORMALIZED FREE ENERGY PREDICTED BY IDOCK:   -5.89 KCAL/MOL
REMARK 922        TOTAL FREE ENERGY PREDICTED BY IDOCK:   -7.84 KCAL/MOL
REMARK 923 INTER-LIGAND FREE ENERGY PREDICTED BY IDOCK:   -6.90 KCAL/MOL
REMARK 924 INTRA-LIGAND FREE ENERGY PREDICTED BY IDOCK:   -0.94 KCAL/MOL
REMARK 927      BINDING AFFINITY PREDICTED BY RF-SCORE:    0.00 PKD
ROOT
HETATM    1  C   UNL     1     -10.917  13.445  64.843  1.00  0.00    -0.342 C  
HETATM    2  C   UNL     1     -10.977  12.691  63.524  1.00  0.00    -0.413 C  
HETATM    3  C   UNL     1     -10.400  11.416  63.789  1.00  0.00    -0.447 A  
HETATM    4  C   UNL     1      -9.570  10.654  63.035  1.00  0.00    -0.348 A  
HETATM    5  N   UNL     1      -9.135   9.659  63.864  1.00  0.00    -0.227 NA 
HETATM    6  C   UNL     1      -8.056   8.788  63.450  1.00  0.00    -0.170 C  
HETATM    7  C   UNL     1      -9.767   9.751  65.104  1.00  0.00    -0.268 A  
HETATM    8  C   UNL     1      -9.738   8.966  66.252  1.00  0.00    -0.345 A  
HETATM    9  C   UNL     1     -10.500   9.443  67.343  1.00  0.00    -0.343 A  
HETATM   10  C   UNL     1     -11.189  10.702  67.358  1.00  0.00    -0.280 A  
HETATM   11  C   UNL     1     -11.175  11.550  66.240  1.00  0.00    -0.286 A  
HETATM   12  C   UNL     1     -11.782  13.040  66.032  1.00  0.00    -0.442 C  
HETATM   13  C   UNL     1     -10.529  10.905  65.097  1.00  0.00    -0.316 A  
HETATM   14  C   UNL     1     -11.794  14.729  66.642  1.00  0.00    -0.255 C  
HETATM   15  C   UNL     1     -10.936  15.843  65.654  1.00  0.00    -0.207 C  
HETATM   16  C   UNL     1      -9.526  15.319  65.367  1.00  0.00     0.020 C  
HETATM   17  C   UNL     1     -10.883  17.367  65.433  1.00  0.00     0.020 C  
HETATM   18  N   UNL     1      -9.538  13.873  65.355  1.00  0.00    -0.029 NA 
HETATM   19  C   UNL     1      -9.110  13.447  66.729  1.00  0.00    -0.212 C  
ENDROOT
BRANCH  17  20
HETATM   20  N   UNL     1     -10.617  18.284  66.494  1.00  0.00    -0.338 N  
HETATM   21  H   UNL     1     -11.338  18.640  67.121  1.00  0.00     0.000 HD 
HETATM   22  C   UNL     1      -9.308  18.639  66.587  1.00  0.00    -0.315 C  
HETATM   23  O   UNL     1      -8.566  18.805  65.626  1.00  0.00    -0.323 OA 
BRANCH  22  24
HETATM   24  O   UNL     1      -8.942  18.603  67.870  1.00  0.00    -0.278 OA 
BRANCH  24  25
HETATM   25  C   UNL     1     -10.049  18.466  68.790  1.00  0.00    -0.363 C  
BRANCH  25  26
HETATM   26  C   UNL     1     -10.139  17.057  69.275  1.00  0.00    -0.208 A  
HETATM   27  C   UNL     1     -11.346  16.586  69.788  1.00  0.00    -0.059 A  
HETATM   28  C   UNL     1     -11.470  15.256  70.176  1.00  0.00    -0.319 A  
HETATM   29  C   UNL     1     -10.384  14.390  70.058  1.00  0.00     0.411 A  
HETATM   30  C   UNL     1      -9.169  14.855  69.557  1.00  0.00     0.023 A  
HETATM   31  C   UNL     1      -9.044  16.186  69.166  1.00  0.00    -0.243 A  
ENDBRANCH  25  26
ENDBRANCH  24  25
ENDBRANCH  22  24
ENDBRANCH  17  20
TORSDOF 4
ENDMDL
MODEL       54
REMARK 921   NORMALIZED FREE ENERGY PREDICTED BY IDOCK:   -5.88 KCAL/MOL
REMARK 922        TOTAL FREE ENERGY PREDICTED BY IDOCK:   -7.84 KCAL/MOL
REMARK 923 INTER-LIGAND FREE ENERGY PREDICTED BY IDOCK:   -7.52 KCAL/MOL
REMARK 924 INTRA-LIGAND FREE ENERGY PREDICTED BY IDOCK:   -0.32 KCAL/MOL
REMARK 927      BINDING AFFINITY PREDICTED BY RF-SCORE:    0.00 PKD
ROOT
HETATM    1  C   UNL     1     -10.404   7.818  67.463  1.00  0.00    -0.264 C  
HETATM    2  C   UNL     1     -11.259   6.632  67.046  1.00  0.00    -0.265 C  
HETATM    3  C   UNL     1     -10.343   5.562  66.825  1.00  0.00    -0.321 A  
HETATM    4  C   UNL     1     -10.325   4.606  65.864  1.00  0.00    -0.283 A  
HETATM    5  N   UNL     1      -9.107   3.999  65.977  1.00  0.00    -0.136 NA 
HETATM    6  C   UNL     1      -8.658   3.075  64.959  1.00  0.00    -0.101 C  
HETATM    7  C   UNL     1      -8.406   4.517  67.068  1.00  0.00    -0.105 A  
HETATM    8  C   UNL     1      -7.183   4.208  67.651  1.00  0.00    -0.067 A  
HETATM    9  C   UNL     1      -6.795   5.025  68.738  1.00  0.00    -0.051 A  
HETATM   10  C   UNL     1      -7.527   6.178  69.182  1.00  0.00    -0.090 A  
HETATM   11  C   UNL     1      -8.728   6.557  68.565  1.00  0.00    -0.122 A  
HETATM   12  C   UNL     1      -9.683   7.847  68.807  1.00  0.00    -0.159 C  
HETATM   13  C   UNL     1      -9.154   5.562  67.582  1.00  0.00    -0.107 A  
HETATM   14  C   UNL     1      -9.761   9.640  68.849  1.00  0.00    -0.163 C  
HETATM   15  C   UNL     1     -10.562  10.344  67.501  1.00  0.00    -0.312 C  
HETATM   16  C   UNL     1      -9.977   9.800  66.194  1.00  0.00    -0.268 C  
HETATM   17  C   UNL     1     -11.238  11.681  67.146  1.00  0.00    -0.309 C  
HETATM   18  N   UNL     1      -9.499   8.450  66.401  1.00  0.00    -0.212 NA 
HETATM   19  C   UNL     1      -8.029   8.571  66.678  1.00  0.00    -0.100 C  
ENDROOT
BRANCH  17  20
HETATM   20  N   UNL     1     -10.557  12.932  67.244  1.00  0.00    -0.233 N  
HETATM   21  H   UNL     1      -9.580  13.060  66.980  1.00  0.00     0.000 HD 
HETATM   22  C   UNL     1     -11.336  13.938  67.722  1.00  0.00    -0.308 C  
HETATM   23  O   UNL     1     -12.188  13.798  68.593  1.00  0.00    -0.347 OA 
BRANCH  22  24
HETATM   24  O   UNL     1     -11.138  15.028  66.979  1.00  0.00    -0.324 OA 
BRANCH  24  25
HETATM   25  C   UNL     1      -9.882  15.694  67.240  1.00  0.00    -0.225 C  
BRANCH  25  26
HETATM   26  C   UNL     1     -10.105  17.162  67.394  1.00  0.00    -0.301 A  
HETATM   27  C   UNL     1      -9.979  17.744  68.654  1.00  0.00    -0.379 A  
HETATM   28  C   UNL     1     -10.111  19.121  68.805  1.00  0.00    -0.445 A  
HETATM   29  C   UNL     1     -10.374  19.923  67.695  1.00  0.00    -0.557 A  
HETATM   30  C   UNL     1     -10.513  19.348  66.433  1.00  0.00    -0.581 A  
HETATM   31  C   UNL     1     -10.379  17.970  66.279  1.00  0.00    -0.384 A  
ENDBRANCH  25  26
ENDBRANCH  24  25
ENDBRANCH  22  24
ENDBRANCH  17  20
TORSDOF 4
ENDMDL
MODEL       55
REMARK 921   NORMALIZED FREE ENERGY PREDICTED BY IDOCK:   -5.88 KCAL/MOL
REMARK 922        TOTAL FREE ENERGY PREDICTED BY IDOCK:   -7.83 KCAL/MOL
REMARK 923 INTER-LIGAND FREE ENERGY PREDICTED BY IDOCK:   -7.32 KCAL/MOL
REMARK 924 INTRA-LIGAND FREE ENERGY PREDICTED BY IDOCK:   -0.52 KCAL/MOL
REMARK 927      BINDING AFFINITY PREDICTED BY RF-SCORE:    0.00 PKD
ROOT
HETATM    1  C   UNL     1     -10.870  12.654  68.661  1.00  0.00    -0.249 C  
HETATM    2  C   UNL     1     -11.061  14.040  69.255  1.00  0.00    -0.271 C  
HETATM    3  C   UNL     1     -10.929  14.944  68.161  1.00  0.00    -0.276 A  
HETATM    4  C   UNL     1     -10.321  16.154  68.090  1.00  0.00    -0.269 A  
HETATM    5  N   UNL     1     -10.281  16.463  66.760  1.00  0.00    -0.279 NA 
HETATM    6  C   UNL     1      -9.497  17.588  66.299  1.00  0.00    -0.219 C  
HETATM    7  C   UNL     1     -10.946  15.488  66.015  1.00  0.00    -0.251 A  
HETATM    8  C   UNL     1     -11.249  15.360  64.664  1.00  0.00    -0.374 A  
HETATM    9  C   UNL     1     -11.907  14.164  64.292  1.00  0.00    -0.420 A  
HETATM   10  C   UNL     1     -12.170  13.075  65.189  1.00  0.00    -0.507 A  
HETATM   11  C   UNL     1     -11.809  13.147  66.543  1.00  0.00    -0.456 A  
HETATM   12  C   UNL     1     -11.907  12.039  67.725  1.00  0.00    -0.308 C  
HETATM   13  C   UNL     1     -11.310  14.477  66.887  1.00  0.00    -0.355 A  
HETATM   14  C   UNL     1     -11.440  10.384  68.241  1.00  0.00    -0.218 C  
HETATM   15  C   UNL     1     -10.207  10.337  69.437  1.00  0.00    -0.255 C  
HETATM   16  C   UNL     1      -9.011  11.187  68.997  1.00  0.00    -0.015 C  
HETATM   17  C   UNL     1      -9.668   9.343  70.482  1.00  0.00    -0.271 C  
HETATM   18  N   UNL     1      -9.470  12.279  68.166  1.00  0.00    -0.209 NA 
HETATM   19  C   UNL     1      -9.301  11.816  66.749  1.00  0.00    -0.194 C  
ENDROOT
BRANCH  17  20
HETATM   20  N   UNL     1      -9.211   8.036  70.130  1.00  0.00    -0.152 N  
HETATM   21  H   UNL     1      -8.293   7.854  69.726  1.00  0.00     0.000 HD 
HETATM   22  C   UNL     1     -10.120   7.058  70.387  1.00  0.00    -0.187 C  
HETATM   23  O   UNL     1     -11.331   7.185  70.247  1.00  0.00    -0.281 OA 
BRANCH  22  24
HETATM   24  O   UNL     1      -9.494   6.030  70.963  1.00  0.00    -0.166 OA 
BRANCH  24  25
HETATM   25  C   UNL     1      -9.663   5.972  72.398  1.00  0.00    -0.158 C  
BRANCH  25  26
HETATM   26  C   UNL     1      -8.517   6.650  73.075  1.00  0.00    -0.123 A  
HETATM   27  C   UNL     1      -7.223   6.182  72.859  1.00  0.00    -0.092 A  
HETATM   28  C   UNL     1      -6.136   6.845  73.422  1.00  0.00    -0.058 A  
HETATM   29  C   UNL     1      -6.340   7.978  74.208  1.00  0.00    -0.121 A  
HETATM   30  C   UNL     1      -7.633   8.446  74.439  1.00  0.00    -0.260 A  
HETATM   31  C   UNL     1      -8.722   7.785  73.874  1.00  0.00    -0.322 A  
ENDBRANCH  25  26
ENDBRANCH  24  25
ENDBRANCH  22  24
ENDBRANCH  17  20
TORSDOF 4
ENDMDL
MODEL       56
REMARK 921   NORMALIZED FREE ENERGY PREDICTED BY IDOCK:   -5.88 KCAL/MOL
REMARK 922        TOTAL FREE ENERGY PREDICTED BY IDOCK:   -7.83 KCAL/MOL
REMARK 923 INTER-LIGAND FREE ENERGY PREDICTED BY IDOCK:   -7.31 KCAL/MOL
REMARK 924 INTRA-LIGAND FREE ENERGY PREDICTED BY IDOCK:   -0.52 KCAL/MOL
REMARK 927      BINDING AFFINITY PREDICTED BY RF-SCORE:    0.00 PKD
ROOT
HETATM    1  C   UNL     1      -8.521   7.469  68.422  1.00  0.00    -0.125 C  
HETATM    2  C   UNL     1      -7.837   6.168  68.031  1.00  0.00    -0.106 C  
HETATM    3  C   UNL     1      -7.749   6.198  66.609  1.00  0.00    -0.103 A  
HETATM    4  C   UNL     1      -7.927   5.210  65.697  1.00  0.00    -0.108 A  
HETATM    5  N   UNL     1      -7.968   5.838  64.485  1.00  0.00    -0.120 NA 
HETATM    6  C   UNL     1      -8.371   5.107  63.302  1.00  0.00    -0.114 C  
HETATM    7  C   UNL     1      -7.723   7.203  64.637  1.00  0.00    -0.112 A  
HETATM    8  C   UNL     1      -7.586   8.255  63.738  1.00  0.00    -0.134 A  
HETATM    9  C   UNL     1      -7.392   9.533  64.310  1.00  0.00    -0.118 A  
HETATM   10  C   UNL     1      -7.432   9.800  65.720  1.00  0.00    -0.105 A  
HETATM   11  C   UNL     1      -7.642   8.769  66.648  1.00  0.00    -0.089 A  
HETATM   12  C   UNL     1      -7.822   8.815  68.261  1.00  0.00    -0.101 C  
HETATM   13  C   UNL     1      -7.646   7.461  65.993  1.00  0.00    -0.088 A  
HETATM   14  C   UNL     1      -8.766   9.507  69.622  1.00  0.00    -0.189 C  
HETATM   15  C   UNL     1      -9.848   8.398  70.368  1.00  0.00    -0.194 C  
HETATM   16  C   UNL     1     -10.727   7.724  69.310  1.00  0.00    -0.147 C  
HETATM   17  C   UNL     1     -10.600   8.262  71.704  1.00  0.00    -0.242 C  
HETATM   18  N   UNL     1     -10.001   7.630  68.062  1.00  0.00    -0.168 NA 
HETATM   19  C   UNL     1     -10.424   8.818  67.249  1.00  0.00    -0.283 C  
ENDROOT
BRANCH  17  20
HETATM   20  N   UNL     1     -11.488   9.270  72.188  1.00  0.00    -0.205 N  
HETATM   21  H   UNL     1     -11.188  10.041  72.783  1.00  0.00     0.000 HD 
HETATM   22  C   UNL     1     -12.773   9.102  71.777  1.00  0.00    -0.373 C  
HETATM   23  O   UNL     1     -13.323   8.014  71.653  1.00  0.00    -0.335 OA 
BRANCH  22  24
HETATM   24  O   UNL     1     -13.256  10.281  71.380  1.00  0.00    -0.376 OA 
BRANCH  24  25
HETATM   25  C   UNL     1     -12.263  11.153  70.793  1.00  0.00    -0.385 C  
BRANCH  25  26
HETATM   26  C   UNL     1     -12.613  12.579  71.062  1.00  0.00    -0.350 A  
HETATM   27  C   UNL     1     -12.153  13.570  70.197  1.00  0.00    -0.425 A  
HETATM   28  C   UNL     1     -12.529  14.896  70.389  1.00  0.00    -0.403 A  
HETATM   29  C   UNL     1     -13.363  15.238  71.452  1.00  0.00    -0.573 A  
HETATM   30  C   UNL     1     -13.818  14.255  72.329  1.00  0.00    -0.622 A  
HETATM   31  C   UNL     1     -13.445  12.927  72.137  1.00  0.00    -0.619 A  
ENDBRANCH  25  26
ENDBRANCH  24  25
ENDBRANCH  22  24
ENDBRANCH  17  20
TORSDOF 4
ENDMDL
MODEL       57
REMARK 921   NORMALIZED FREE ENERGY PREDICTED BY IDOCK:   -5.87 KCAL/MOL
REMARK 922        TOTAL FREE ENERGY PREDICTED BY IDOCK:   -7.82 KCAL/MOL
REMARK 923 INTER-LIGAND FREE ENERGY PREDICTED BY IDOCK:   -7.78 KCAL/MOL
REMARK 924 INTRA-LIGAND FREE ENERGY PREDICTED BY IDOCK:   -0.04 KCAL/MOL
REMARK 927      BINDING AFFINITY PREDICTED BY RF-SCORE:    0.00 PKD
ROOT
HETATM    1  C   UNL     1     -11.223   7.943  70.248  1.00  0.00    -0.200 C  
HETATM    2  C   UNL     1     -11.518   6.516  69.812  1.00  0.00    -0.443 C  
HETATM    3  C   UNL     1     -10.627   5.697  70.565  1.00  0.00    -0.354 A  
HETATM    4  C   UNL     1      -9.922   4.598  70.199  1.00  0.00    -0.233 A  
HETATM    5  N   UNL     1      -9.053   4.364  71.226  1.00  0.00    -0.122 NA 
HETATM    6  C   UNL     1      -7.991   3.394  71.072  1.00  0.00    -0.057 C  
HETATM    7  C   UNL     1      -9.283   5.261  72.270  1.00  0.00    -0.138 A  
HETATM    8  C   UNL     1      -8.739   5.408  73.541  1.00  0.00    -0.114 A  
HETATM    9  C   UNL     1      -9.217   6.506  74.293  1.00  0.00    -0.210 A  
HETATM   10  C   UNL     1     -10.122   7.498  73.786  1.00  0.00    -0.265 A  
HETATM   11  C   UNL     1     -10.631   7.416  72.481  1.00  0.00    -0.304 A  
HETATM   12  C   UNL     1     -11.578   8.437  71.647  1.00  0.00    -0.348 C  
HETATM   13  C   UNL     1     -10.241   6.162  71.839  1.00  0.00    -0.231 A  
HETATM   14  C   UNL     1     -11.766  10.117  71.042  1.00  0.00    -0.470 C  
HETATM   15  C   UNL     1     -11.510  10.293  69.352  1.00  0.00    -0.248 C  
HETATM   16  C   UNL     1     -10.176   9.656  68.950  1.00  0.00    -0.201 C  
HETATM   17  C   UNL     1     -11.855  11.305  68.244  1.00  0.00    -0.229 C  
HETATM   18  N   UNL     1      -9.879   8.549  69.833  1.00  0.00    -0.183 NA 
HETATM   19  C   UNL     1      -8.973   9.101  70.895  1.00  0.00    -0.237 C  
ENDROOT
BRANCH  17  20
HETATM   20  N   UNL     1     -11.482  12.681  68.323  1.00  0.00    -0.289 N  
HETATM   21  H   UNL     1     -10.993  13.084  69.122  1.00  0.00     0.000 HD 
HETATM   22  C   UNL     1     -11.843  13.404  67.229  1.00  0.00    -0.376 C  
HETATM   23  O   UNL     1     -12.881  13.234  66.600  1.00  0.00    -0.021 OA 
BRANCH  22  24
HETATM   24  O   UNL     1     -10.820  14.184  66.872  1.00  0.00    -0.290 OA 
BRANCH  24  25
HETATM   25  C   UNL     1      -9.586  13.465  66.650  1.00  0.00    -0.270 C  
BRANCH  25  26
HETATM   26  C   UNL     1      -9.777  12.441  65.580  1.00  0.00    -0.150 A  
HETATM   27  C   UNL     1     -10.468  12.786  64.420  1.00  0.00    -0.410 A  
HETATM   28  C   UNL     1     -10.592  11.869  63.381  1.00  0.00    -0.485 A  
HETATM   29  C   UNL     1     -10.029  10.599  63.499  1.00  0.00    -0.347 A  
HETATM   30  C   UNL     1      -9.346  10.242  64.660  1.00  0.00    -0.320 A  
HETATM   31  C   UNL     1      -9.218  11.159  65.701  1.00  0.00    -0.238 A  
ENDBRANCH  25  26
ENDBRANCH  24  25
ENDBRANCH  22  24
ENDBRANCH  17  20
TORSDOF 4
ENDMDL
MODEL       58
REMARK 921   NORMALIZED FREE ENERGY PREDICTED BY IDOCK:   -5.86 KCAL/MOL
REMARK 922        TOTAL FREE ENERGY PREDICTED BY IDOCK:   -7.81 KCAL/MOL
REMARK 923 INTER-LIGAND FREE ENERGY PREDICTED BY IDOCK:   -7.39 KCAL/MOL
REMARK 924 INTRA-LIGAND FREE ENERGY PREDICTED BY IDOCK:   -0.42 KCAL/MOL
REMARK 927      BINDING AFFINITY PREDICTED BY RF-SCORE:    0.00 PKD
ROOT
HETATM    1  C   UNL     1      -9.570   9.429  67.082  1.00  0.00    -0.154 C  
HETATM    2  C   UNL     1      -9.254   8.711  65.780  1.00  0.00    -0.245 C  
HETATM    3  C   UNL     1      -8.958   7.367  66.150  1.00  0.00    -0.182 A  
HETATM    4  C   UNL     1      -8.012   6.515  65.682  1.00  0.00    -0.114 A  
HETATM    5  N   UNL     1      -8.012   5.459  66.549  1.00  0.00    -0.104 NA 
HETATM    6  C   UNL     1      -6.966   4.462  66.480  1.00  0.00    -0.059 C  
HETATM    7  C   UNL     1      -9.022   5.613  67.500  1.00  0.00    -0.107 A  
HETATM    8  C   UNL     1      -9.486   4.813  68.538  1.00  0.00    -0.200 A  
HETATM    9  C   UNL     1     -10.519   5.367  69.328  1.00  0.00    -0.309 A  
HETATM   10  C   UNL     1     -11.019   6.704  69.180  1.00  0.00    -0.338 A  
HETATM   11  C   UNL     1     -10.517   7.561  68.188  1.00  0.00    -0.233 A  
HETATM   12  C   UNL     1     -10.837   9.121  67.875  1.00  0.00    -0.147 C  
HETATM   13  C   UNL     1      -9.593   6.857  67.300  1.00  0.00    -0.173 A  
HETATM   14  C   UNL     1     -10.863  10.786  68.544  1.00  0.00    -0.270 C  
HETATM   15  C   UNL     1      -9.592  11.796  67.980  1.00  0.00    -0.187 C  
HETATM   16  C   UNL     1      -8.241  11.098  68.163  1.00  0.00    -0.131 C  
HETATM   17  C   UNL     1      -9.288  13.303  67.882  1.00  0.00    -0.214 C  
HETATM   18  N   UNL     1      -8.416   9.665  68.062  1.00  0.00    -0.118 NA 
HETATM   19  C   UNL     1      -8.546   9.165  69.470  1.00  0.00    -0.138 C  
ENDROOT
BRANCH  17  20
HETATM   20  N   UNL     1      -9.303  14.161  69.023  1.00  0.00    -0.397 N  
HETATM   21  H   UNL     1      -8.518  14.248  69.668  1.00  0.00     0.000 HD 
HETATM   22  C   UNL     1     -10.466  14.851  69.167  1.00  0.00    -0.244 C  
HETATM   23  O   UNL     1     -11.575  14.399  68.905  1.00  0.00    -0.271 OA 
BRANCH  22  24
HETATM   24  O   UNL     1     -10.180  16.119  69.466  1.00  0.00    -0.248 OA 
BRANCH  24  25
HETATM   25  C   UNL     1     -10.935  17.086  68.702  1.00  0.00    -0.217 C  
BRANCH  25  26
HETATM   26  C   UNL     1     -10.034  18.178  68.226  1.00  0.00    -0.380 A  
HETATM   27  C   UNL     1     -10.582  19.279  67.572  1.00  0.00    -0.581 A  
HETATM   28  C   UNL     1      -9.768  20.340  67.186  1.00  0.00    -0.592 A  
HETATM   29  C   UNL     1      -8.399  20.301  67.449  1.00  0.00    -0.396 A  
HETATM   30  C   UNL     1      -7.841  19.198  68.093  1.00  0.00    -0.336 A  
HETATM   31  C   UNL     1      -8.655  18.136  68.482  1.00  0.00    -0.307 A  
ENDBRANCH  25  26
ENDBRANCH  24  25
ENDBRANCH  22  24
ENDBRANCH  17  20
TORSDOF 4
ENDMDL
MODEL       59
REMARK 921   NORMALIZED FREE ENERGY PREDICTED BY IDOCK:   -5.83 KCAL/MOL
REMARK 922        TOTAL FREE ENERGY PREDICTED BY IDOCK:   -7.77 KCAL/MOL
REMARK 923 INTER-LIGAND FREE ENERGY PREDICTED BY IDOCK:   -6.53 KCAL/MOL
REMARK 924 INTRA-LIGAND FREE ENERGY PREDICTED BY IDOCK:   -1.25 KCAL/MOL
REMARK 927      BINDING AFFINITY PREDICTED BY RF-SCORE:    0.00 PKD
ROOT
HETATM    1  C   UNL     1     -11.179  10.655  69.129  1.00  0.00    -0.265 C  
HETATM    2  C   UNL     1     -12.153  11.199  70.162  1.00  0.00    -0.443 C  
HETATM    3  C   UNL     1     -12.128  12.615  69.999  1.00  0.00    -0.339 A  
HETATM    4  C   UNL     1     -12.153  13.606  70.923  1.00  0.00    -0.248 A  
HETATM    5  N   UNL     1     -11.861  14.751  70.237  1.00  0.00    -0.283 NA 
HETATM    6  C   UNL     1     -11.583  15.976  70.955  1.00  0.00    -0.418 C  
HETATM    7  C   UNL     1     -11.746  14.483  68.873  1.00  0.00    -0.319 A  
HETATM    8  C   UNL     1     -11.535  15.284  67.756  1.00  0.00    -0.312 A  
HETATM    9  C   UNL     1     -11.424  14.603  66.522  1.00  0.00    -0.354 A  
HETATM   10  C   UNL     1     -11.415  13.174  66.386  1.00  0.00    -0.374 A  
HETATM   11  C   UNL     1     -11.553  12.339  67.505  1.00  0.00    -0.422 A  
HETATM   12  C   UNL     1     -11.482  10.722  67.636  1.00  0.00    -0.234 C  
HETATM   13  C   UNL     1     -11.849  13.113  68.710  1.00  0.00    -0.361 A  
HETATM   14  C   UNL     1     -10.488   9.258  67.333  1.00  0.00    -0.340 C  
HETATM   15  C   UNL     1      -9.795   8.570  68.747  1.00  0.00    -0.180 C  
HETATM   16  C   UNL     1      -9.053   9.643  69.549  1.00  0.00    -0.199 C  
HETATM   17  C   UNL     1      -9.203   7.217  69.186  1.00  0.00    -0.139 C  
HETATM   18  N   UNL     1      -9.687  10.928  69.346  1.00  0.00    -0.070 NA 
HETATM   19  C   UNL     1      -8.907  11.604  68.257  1.00  0.00    -0.167 C  
ENDROOT
BRANCH  17  20
HETATM   20  N   UNL     1      -8.116   6.599  68.496  1.00  0.00    -0.118 N  
HETATM   21  H   UNL     1      -8.238   5.841  67.825  1.00  0.00     0.000 HD 
HETATM   22  C   UNL     1      -6.903   7.119  68.821  1.00  0.00    -0.076 C  
HETATM   23  O   UNL     1      -6.591   7.497  69.945  1.00  0.00    -0.038 OA 
BRANCH  22  24
HETATM   24  O   UNL     1      -6.198   7.299  67.702  1.00  0.00    -0.043 OA 
BRANCH  24  25
HETATM   25  C   UNL     1      -6.137   8.675  67.265  1.00  0.00    -0.055 C  
BRANCH  25  26
HETATM   26  C   UNL     1      -6.933   8.849  66.013  1.00  0.00    -0.084 A  
HETATM   27  C   UNL     1      -7.314   7.724  65.284  1.00  0.00    -0.078 A  
HETATM   28  C   UNL     1      -8.117   7.860  64.156  1.00  0.00    -0.093 A  
HETATM   29  C   UNL     1      -8.539   9.124  63.748  1.00  0.00    -0.185 A  
HETATM   30  C   UNL     1      -8.152  10.256  64.464  1.00  0.00    -0.150 A  
HETATM   31  C   UNL     1      -7.350  10.122  65.595  1.00  0.00    -0.144 A  
ENDBRANCH  25  26
ENDBRANCH  24  25
ENDBRANCH  22  24
ENDBRANCH  17  20
TORSDOF 4
ENDMDL
MODEL       60
REMARK 921   NORMALIZED FREE ENERGY PREDICTED BY IDOCK:   -5.81 KCAL/MOL
REMARK 922        TOTAL FREE ENERGY PREDICTED BY IDOCK:   -7.75 KCAL/MOL
REMARK 923 INTER-LIGAND FREE ENERGY PREDICTED BY IDOCK:   -6.68 KCAL/MOL
REMARK 924 INTRA-LIGAND FREE ENERGY PREDICTED BY IDOCK:   -1.07 KCAL/MOL
REMARK 927      BINDING AFFINITY PREDICTED BY RF-SCORE:    0.00 PKD
ROOT
HETATM    1  C   UNL     1      -9.153  10.126  65.814  1.00  0.00    -0.171 C  
HETATM    2  C   UNL     1      -9.450  10.710  64.442  1.00  0.00    -0.317 C  
HETATM    3  C   UNL     1     -10.051  11.978  64.691  1.00  0.00    -0.291 A  
HETATM    4  C   UNL     1     -11.087  12.596  64.072  1.00  0.00    -0.405 A  
HETATM    5  N   UNL     1     -11.401  13.664  64.864  1.00  0.00    -0.331 NA 
HETATM    6  C   UNL     1     -12.610  14.420  64.619  1.00  0.00    -0.235 C  
HETATM    7  C   UNL     1     -10.500  13.761  65.925  1.00  0.00    -0.297 A  
HETATM    8  C   UNL     1     -10.332  14.681  66.954  1.00  0.00    -0.264 A  
HETATM    9  C   UNL     1      -9.309  14.385  67.884  1.00  0.00    -0.203 A  
HETATM   10  C   UNL     1      -8.537  13.175  67.877  1.00  0.00    -0.185 A  
HETATM   11  C   UNL     1      -8.736  12.193  66.894  1.00  0.00    -0.194 A  
HETATM   12  C   UNL     1      -8.076  10.721  66.717  1.00  0.00    -0.137 C  
HETATM   13  C   UNL     1      -9.671  12.655  65.868  1.00  0.00    -0.212 A  
HETATM   14  C   UNL     1      -7.795   9.126  67.491  1.00  0.00    -0.100 C  
HETATM   15  C   UNL     1      -8.763   7.853  66.859  1.00  0.00    -0.136 C  
HETATM   16  C   UNL     1     -10.238   8.265  66.851  1.00  0.00    -0.318 C  
HETATM   17  C   UNL     1      -8.745   6.314  66.826  1.00  0.00    -0.117 C  
HETATM   18  N   UNL     1     -10.343   9.697  66.678  1.00  0.00    -0.230 NA 
HETATM   19  C   UNL     1     -10.483  10.270  68.057  1.00  0.00    -0.196 C  
ENDROOT
BRANCH  17  20
HETATM   20  N   UNL     1      -8.693   5.524  68.015  1.00  0.00    -0.107 N  
HETATM   21  H   UNL     1      -7.897   5.525  68.653  1.00  0.00     0.000 HD 
HETATM   22  C   UNL     1      -9.807   4.772  68.214  1.00  0.00    -0.118 C  
HETATM   23  O   UNL     1     -10.445   4.230  67.318  1.00  0.00     0.144 OA 
BRANCH  22  24
HETATM   24  O   UNL     1     -10.170   4.870  69.495  1.00  0.00    -0.234 OA 
BRANCH  24  25
HETATM   25  C   UNL     1     -11.032   5.997  69.774  1.00  0.00    -0.401 C  
BRANCH  25  26
HETATM   26  C   UNL     1     -10.475   6.798  70.904  1.00  0.00    -0.239 A  
HETATM   27  C   UNL     1      -9.663   7.896  70.628  1.00  0.00    -0.175 A  
HETATM   28  C   UNL     1      -9.195   8.698  71.665  1.00  0.00    -0.326 A  
HETATM   29  C   UNL     1      -9.532   8.402  72.984  1.00  0.00    -0.237 A  
HETATM   30  C   UNL     1     -10.333   7.298  73.271  1.00  0.00    -0.389 A  
HETATM   31  C   UNL     1     -10.806   6.495  72.234  1.00  0.00    -0.262 A  
ENDBRANCH  25  26
ENDBRANCH  24  25
ENDBRANCH  22  24
ENDBRANCH  17  20
TORSDOF 4
ENDMDL
MODEL       61
REMARK 921   NORMALIZED FREE ENERGY PREDICTED BY IDOCK:   -5.79 KCAL/MOL
REMARK 922        TOTAL FREE ENERGY PREDICTED BY IDOCK:   -7.72 KCAL/MOL
REMARK 923 INTER-LIGAND FREE ENERGY PREDICTED BY IDOCK:   -7.37 KCAL/MOL
REMARK 924 INTRA-LIGAND FREE ENERGY PREDICTED BY IDOCK:   -0.35 KCAL/MOL
REMARK 927      BINDING AFFINITY PREDICTED BY RF-SCORE:    0.00 PKD
ROOT
HETATM    1  C   UNL     1      -8.732   9.673  67.004  1.00  0.00    -0.128 C  
HETATM    2  C   UNL     1      -7.440   9.114  66.428  1.00  0.00    -0.092 C  
HETATM    3  C   UNL     1      -7.406   7.747  66.829  1.00  0.00    -0.089 A  
HETATM    4  C   UNL     1      -6.370   6.983  67.255  1.00  0.00    -0.052 A  
HETATM    5  N   UNL     1      -6.938   5.837  67.738  1.00  0.00    -0.064 NA 
HETATM    6  C   UNL     1      -6.138   4.887  68.479  1.00  0.00    -0.030 C  
HETATM    7  C   UNL     1      -8.317   5.853  67.526  1.00  0.00    -0.105 A  
HETATM    8  C   UNL     1      -9.329   4.928  67.757  1.00  0.00    -0.154 A  
HETATM    9  C   UNL     1     -10.639   5.359  67.445  1.00  0.00    -0.228 A  
HETATM   10  C   UNL     1     -10.972   6.689  67.018  1.00  0.00    -0.463 A  
HETATM   11  C   UNL     1      -9.978   7.665  66.847  1.00  0.00    -0.325 A  
HETATM   12  C   UNL     1     -10.094   9.240  66.472  1.00  0.00    -0.343 C  
HETATM   13  C   UNL     1      -8.642   7.093  67.006  1.00  0.00    -0.122 A  
HETATM   14  C   UNL     1     -10.814  10.819  66.932  1.00  0.00    -0.288 C  
HETATM   15  C   UNL     1      -9.702  11.924  67.638  1.00  0.00    -0.186 C  
HETATM   16  C   UNL     1      -8.946  11.251  68.788  1.00  0.00    -0.111 C  
HETATM   17  C   UNL     1      -9.601  13.441  67.884  1.00  0.00    -0.216 C  
HETATM   18  N   UNL     1      -8.821   9.834  68.525  1.00  0.00    -0.119 NA 
HETATM   19  C   UNL     1      -9.952   9.177  69.259  1.00  0.00    -0.187 C  
ENDROOT
BRANCH  17  20
HETATM   20  N   UNL     1     -10.597  14.166  68.606  1.00  0.00    -0.244 N  
HETATM   21  H   UNL     1     -10.843  13.966  69.575  1.00  0.00     0.000 HD 
HETATM   22  C   UNL     1     -11.187  15.149  67.875  1.00  0.00    -0.329 C  
HETATM   23  O   UNL     1     -11.444  15.063  66.680  1.00  0.00    -0.336 OA 
BRANCH  22  24
HETATM   24  O   UNL     1     -11.274  16.249  68.626  1.00  0.00    -0.341 OA 
BRANCH  24  25
HETATM   25  C   UNL     1      -9.994  16.786  69.028  1.00  0.00    -0.272 C  
BRANCH  25  26
HETATM   26  C   UNL     1      -9.734  18.074  68.319  1.00  0.00    -0.332 A  
HETATM   27  C   UNL     1      -8.481  18.673  68.429  1.00  0.00    -0.366 A  
HETATM   28  C   UNL     1      -8.197  19.835  67.717  1.00  0.00    -0.340 A  
HETATM   29  C   UNL     1      -9.167  20.406  66.895  1.00  0.00    -0.450 A  
HETATM   30  C   UNL     1     -10.427  19.819  66.789  1.00  0.00    -0.610 A  
HETATM   31  C   UNL     1     -10.713  18.655  67.499  1.00  0.00    -0.447 A  
ENDBRANCH  25  26
ENDBRANCH  24  25
ENDBRANCH  22  24
ENDBRANCH  17  20
TORSDOF 4
ENDMDL
MODEL       62
REMARK 921   NORMALIZED FREE ENERGY PREDICTED BY IDOCK:   -5.78 KCAL/MOL
REMARK 922        TOTAL FREE ENERGY PREDICTED BY IDOCK:   -7.72 KCAL/MOL
REMARK 923 INTER-LIGAND FREE ENERGY PREDICTED BY IDOCK:   -7.39 KCAL/MOL
REMARK 924 INTRA-LIGAND FREE ENERGY PREDICTED BY IDOCK:   -0.33 KCAL/MOL
REMARK 927      BINDING AFFINITY PREDICTED BY RF-SCORE:    0.00 PKD
ROOT
HETATM    1  C   UNL     1     -10.738   7.695  70.039  1.00  0.00    -0.241 C  
HETATM    2  C   UNL     1     -11.054   6.432  69.253  1.00  0.00    -0.437 C  
HETATM    3  C   UNL     1     -10.086   5.473  69.671  1.00  0.00    -0.309 A  
HETATM    4  C   UNL     1      -9.403   4.544  68.957  1.00  0.00    -0.148 A  
HETATM    5  N   UNL     1      -8.439   4.072  69.801  1.00  0.00    -0.060 NA 
HETATM    6  C   UNL     1      -7.383   3.223  69.294  1.00  0.00    -0.048 C  
HETATM    7  C   UNL     1      -8.582   4.640  71.067  1.00  0.00    -0.110 A  
HETATM    8  C   UNL     1      -7.924   4.454  72.278  1.00  0.00    -0.096 A  
HETATM    9  C   UNL     1      -8.344   5.285  73.341  1.00  0.00    -0.114 A  
HETATM   10  C   UNL     1      -9.306   6.342  73.208  1.00  0.00    -0.136 A  
HETATM   11  C   UNL     1      -9.934   6.601  71.980  1.00  0.00    -0.176 A  
HETATM   12  C   UNL     1     -10.968   7.774  71.545  1.00  0.00    -0.267 C  
HETATM   13  C   UNL     1      -9.588   5.586  70.986  1.00  0.00    -0.217 A  
HETATM   14  C   UNL     1     -11.234   9.547  71.445  1.00  0.00    -0.452 C  
HETATM   15  C   UNL     1     -11.139  10.188  69.854  1.00  0.00    -0.346 C  
HETATM   16  C   UNL     1      -9.840   9.737  69.179  1.00  0.00    -0.188 C  
HETATM   17  C   UNL     1     -11.600  11.450  69.102  1.00  0.00    -0.314 C  
HETATM   18  N   UNL     1      -9.447   8.443  69.693  1.00  0.00    -0.165 NA 
HETATM   19  C   UNL     1      -8.454   8.718  70.783  1.00  0.00    -0.173 C  
ENDROOT
BRANCH  17  20
HETATM   20  N   UNL     1     -11.240  12.766  69.525  1.00  0.00    -0.464 N  
HETATM   21  H   UNL     1     -10.942  12.986  70.476  1.00  0.00     0.000 HD 
HETATM   22  C   UNL     1     -11.332  13.696  68.539  1.00  0.00    -0.290 C  
HETATM   23  O   UNL     1     -12.200  13.703  67.674  1.00  0.00    -0.326 OA 
BRANCH  22  24
HETATM   24  O   UNL     1     -10.246  14.472  68.575  1.00  0.00    -0.227 OA 
BRANCH  24  25
HETATM   25  C   UNL     1      -9.841  14.972  67.281  1.00  0.00    -0.228 C  
BRANCH  25  26
HETATM   26  C   UNL     1      -9.723  16.460  67.323  1.00  0.00    -0.239 A  
HETATM   27  C   UNL     1      -9.107  17.127  66.266  1.00  0.00    -0.260 A  
HETATM   28  C   UNL     1      -9.054  18.517  66.253  1.00  0.00    -0.216 A  
HETATM   29  C   UNL     1      -9.611  19.248  67.301  1.00  0.00    -0.394 A  
HETATM   30  C   UNL     1     -10.218  18.589  68.368  1.00  0.00    -0.409 A  
HETATM   31  C   UNL     1     -10.276  17.197  68.382  1.00  0.00    -0.340 A  
ENDBRANCH  25  26
ENDBRANCH  24  25
ENDBRANCH  22  24
ENDBRANCH  17  20
TORSDOF 4
ENDMDL
MODEL       63
REMARK 921   NORMALIZED FREE ENERGY PREDICTED BY IDOCK:   -5.76 KCAL/MOL
REMARK 922        TOTAL FREE ENERGY PREDICTED BY IDOCK:   -7.68 KCAL/MOL
REMARK 923 INTER-LIGAND FREE ENERGY PREDICTED BY IDOCK:   -7.39 KCAL/MOL
REMARK 924 INTRA-LIGAND FREE ENERGY PREDICTED BY IDOCK:   -0.29 KCAL/MOL
REMARK 927      BINDING AFFINITY PREDICTED BY RF-SCORE:    0.00 PKD
ROOT
HETATM    1  C   UNL     1     -10.514   9.822  67.562  1.00  0.00    -0.251 C  
HETATM    2  C   UNL     1     -10.770   8.477  66.900  1.00  0.00    -0.156 C  
HETATM    3  C   UNL     1     -10.395   7.500  67.867  1.00  0.00    -0.266 A  
HETATM    4  C   UNL     1      -9.744   6.320  67.717  1.00  0.00    -0.118 A  
HETATM    5  N   UNL     1      -9.433   5.913  68.983  1.00  0.00    -0.125 NA 
HETATM    6  C   UNL     1      -8.536   4.796  69.187  1.00  0.00    -0.080 C  
HETATM    7  C   UNL     1      -9.972   6.793  69.922  1.00  0.00    -0.172 A  
HETATM    8  C   UNL     1     -10.008   6.803  71.312  1.00  0.00    -0.189 A  
HETATM    9  C   UNL     1     -10.619   7.932  71.905  1.00  0.00    -0.285 A  
HETATM   10  C   UNL     1     -11.091   9.072  71.171  1.00  0.00    -0.371 A  
HETATM   11  C   UNL     1     -11.001   9.122  69.772  1.00  0.00    -0.195 A  
HETATM   12  C   UNL     1     -11.367  10.311  68.728  1.00  0.00    -0.226 C  
HETATM   13  C   UNL     1     -10.534   7.848  69.226  1.00  0.00    -0.221 A  
HETATM   14  C   UNL     1     -11.068  12.021  68.274  1.00  0.00    -0.290 C  
HETATM   15  C   UNL     1     -10.096  12.221  66.871  1.00  0.00    -0.224 C  
HETATM   16  C   UNL     1      -8.809  11.401  66.998  1.00  0.00    -0.168 C  
HETATM   17  C   UNL     1      -9.807  13.318  65.829  1.00  0.00    -0.197 C  
HETATM   18  N   UNL     1      -9.057  10.228  67.807  1.00  0.00    -0.134 NA 
HETATM   19  C   UNL     1      -8.629  10.589  69.199  1.00  0.00    -0.150 C  
ENDROOT
BRANCH  17  20
HETATM   20  N   UNL     1      -9.335  14.615  66.196  1.00  0.00    -0.456 N  
HETATM   21  H   UNL     1      -8.348  14.869  66.207  1.00  0.00     0.000 HD 
HETATM   22  C   UNL     1     -10.330  15.479  66.529  1.00  0.00    -0.288 C  
HETATM   23  O   UNL     1     -11.348  15.162  67.134  1.00  0.00    -0.338 OA 
BRANCH  22  24
HETATM   24  O   UNL     1     -10.091  16.656  65.947  1.00  0.00    -0.367 OA 
BRANCH  24  25
HETATM   25  C   UNL     1     -10.225  17.787  66.838  1.00  0.00    -0.346 C  
BRANCH  25  26
HETATM   26  C   UNL     1      -8.878  18.233  67.303  1.00  0.00    -0.255 A  
HETATM   27  C   UNL     1      -7.758  17.951  66.523  1.00  0.00    -0.292 A  
HETATM   28  C   UNL     1      -6.505  18.422  66.903  1.00  0.00    -0.204 A  
HETATM   29  C   UNL     1      -6.365  19.173  68.069  1.00  0.00    -0.234 A  
HETATM   30  C   UNL     1      -7.478  19.450  68.861  1.00  0.00    -0.399 A  
HETATM   31  C   UNL     1      -8.734  18.982  68.481  1.00  0.00    -0.392 A  
ENDBRANCH  25  26
ENDBRANCH  24  25
ENDBRANCH  22  24
ENDBRANCH  17  20
TORSDOF 4
ENDMDL
MODEL       64
REMARK 921   NORMALIZED FREE ENERGY PREDICTED BY IDOCK:   -5.70 KCAL/MOL
REMARK 922        TOTAL FREE ENERGY PREDICTED BY IDOCK:   -7.61 KCAL/MOL
REMARK 923 INTER-LIGAND FREE ENERGY PREDICTED BY IDOCK:   -7.61 KCAL/MOL
REMARK 924 INTRA-LIGAND FREE ENERGY PREDICTED BY IDOCK:    0.00 KCAL/MOL
REMARK 927      BINDING AFFINITY PREDICTED BY RF-SCORE:    0.00 PKD
ROOT
HETATM    1  C   UNL     1     -10.788  14.144  67.997  1.00  0.00    -0.246 C  
HETATM    2  C   UNL     1     -11.398  12.781  67.709  1.00  0.00    -0.342 C  
HETATM    3  C   UNL     1     -11.892  12.315  68.962  1.00  0.00    -0.358 A  
HETATM    4  C   UNL     1     -11.869  11.074  69.508  1.00  0.00    -0.333 A  
HETATM    5  N   UNL     1     -12.250  11.242  70.809  1.00  0.00    -0.377 NA 
HETATM    6  C   UNL     1     -12.121  10.152  71.751  1.00  0.00    -0.174 C  
HETATM    7  C   UNL     1     -12.600  12.573  71.044  1.00  0.00    -0.256 A  
HETATM    8  C   UNL     1     -13.110  13.246  72.149  1.00  0.00    -0.486 A  
HETATM    9  C   UNL     1     -13.280  14.641  71.995  1.00  0.00    -0.439 A  
HETATM   10  C   UNL     1     -12.869  15.381  70.836  1.00  0.00    -0.536 A  
HETATM   11  C   UNL     1     -12.283  14.739  69.735  1.00  0.00    -0.337 A  
HETATM   12  C   UNL     1     -11.655  15.344  68.366  1.00  0.00    -0.368 C  
HETATM   13  C   UNL     1     -12.315  13.285  69.893  1.00  0.00    -0.228 A  
HETATM   14  C   UNL     1     -10.448  16.474  67.668  1.00  0.00    -0.305 C  
HETATM   15  C   UNL     1      -9.077  15.705  66.974  1.00  0.00    -0.239 C  
HETATM   16  C   UNL     1      -8.465  14.715  67.970  1.00  0.00    -0.154 C  
HETATM   17  C   UNL     1      -7.963  16.049  65.968  1.00  0.00     0.495 C  
HETATM   18  N   UNL     1      -9.502  14.187  68.829  1.00  0.00    -0.153 NA 
HETATM   19  C   UNL     1      -9.471  15.023  70.074  1.00  0.00     0.281 C  
ENDROOT
BRANCH  17  20
HETATM   20  N   UNL     1      -7.097  17.172  66.140  1.00  0.00    -0.246 N  
HETATM   21  H   UNL     1      -7.258  18.076  65.697  1.00  0.00     0.000 HD 
HETATM   22  C   UNL     1      -6.037  16.919  66.953  1.00  0.00    -0.188 C  
HETATM   23  O   UNL     1      -5.435  15.852  66.992  1.00  0.00    -0.332 OA 
BRANCH  22  24
HETATM   24  O   UNL     1      -5.886  17.943  67.795  1.00  0.00    -0.148 OA 
BRANCH  24  25
HETATM   25  C   UNL     1      -6.889  17.999  68.835  1.00  0.00    -0.254 C  
BRANCH  25  26
HETATM   26  C   UNL     1      -7.949  18.984  68.469  1.00  0.00    -0.381 A  
HETATM   27  C   UNL     1      -7.656  19.998  67.560  1.00  0.00    -0.327 A  
HETATM   28  C   UNL     1      -8.651  20.881  67.152  1.00  0.00    -0.109 A  
HETATM   29  C   UNL     1      -9.945  20.757  67.655  1.00  0.00    -0.297 A  
HETATM   30  C   UNL     1     -10.244  19.752  68.574  1.00  0.00    -0.547 A  
HETATM   31  C   UNL     1      -9.250  18.866  68.983  1.00  0.00    -0.224 A  
ENDBRANCH  25  26
ENDBRANCH  24  25
ENDBRANCH  22  24
ENDBRANCH  17  20
TORSDOF 4
ENDMDL
MODEL       65
REMARK 921   NORMALIZED FREE ENERGY PREDICTED BY IDOCK:   -5.69 KCAL/MOL
REMARK 922        TOTAL FREE ENERGY PREDICTED BY IDOCK:   -7.60 KCAL/MOL
REMARK 923 INTER-LIGAND FREE ENERGY PREDICTED BY IDOCK:   -7.05 KCAL/MOL
REMARK 924 INTRA-LIGAND FREE ENERGY PREDICTED BY IDOCK:   -0.55 KCAL/MOL
REMARK 927      BINDING AFFINITY PREDICTED BY RF-SCORE:    0.00 PKD
ROOT
HETATM    1  C   UNL     1      -8.936  15.615  68.528  1.00  0.00    -0.192 C  
HETATM    2  C   UNL     1      -7.761  16.274  69.234  1.00  0.00    -0.186 C  
HETATM    3  C   UNL     1      -7.547  17.504  68.547  1.00  0.00    -0.266 A  
HETATM    4  C   UNL     1      -6.394  18.126  68.198  1.00  0.00    -0.190 A  
HETATM    5  N   UNL     1      -6.765  19.132  67.351  1.00  0.00    -0.198 NA 
HETATM    6  C   UNL     1      -5.762  19.863  66.608  1.00  0.00    -0.171 C  
HETATM    7  C   UNL     1      -8.156  19.191  67.248  1.00  0.00    -0.263 A  
HETATM    8  C   UNL     1      -9.029  20.050  66.590  1.00  0.00    -0.446 A  
HETATM    9  C   UNL     1     -10.402  19.728  66.692  1.00  0.00    -0.614 A  
HETATM   10  C   UNL     1     -10.909  18.546  67.328  1.00  0.00    -0.330 A  
HETATM   11  C   UNL     1     -10.045  17.622  67.936  1.00  0.00    -0.345 A  
HETATM   12  C   UNL     1     -10.347  16.185  68.629  1.00  0.00    -0.252 C  
HETATM   13  C   UNL     1      -8.669  18.117  67.953  1.00  0.00    -0.266 A  
HETATM   14  C   UNL     1     -11.060  14.555  68.396  1.00  0.00    -0.271 C  
HETATM   15  C   UNL     1      -9.903  13.294  68.229  1.00  0.00    -0.231 C  
HETATM   16  C   UNL     1      -8.875  13.659  67.154  1.00  0.00    -0.230 C  
HETATM   17  C   UNL     1      -9.857  11.761  68.368  1.00  0.00    -0.199 C  
HETATM   18  N   UNL     1      -8.710  15.095  67.105  1.00  0.00    -0.201 NA 
HETATM   19  C   UNL     1      -9.611  15.576  66.006  1.00  0.00    -0.345 C  
ENDROOT
BRANCH  17  20
HETATM   20  N   UNL     1     -10.725  10.901  67.628  1.00  0.00    -0.223 N  
HETATM   21  H   UNL     1     -11.352  11.233  66.896  1.00  0.00     0.000 HD 
HETATM   22  C   UNL     1     -10.634   9.595  67.995  1.00  0.00    -0.243 C  
HETATM   23  O   UNL     1     -10.461   9.210  69.146  1.00  0.00    -0.212 OA 
BRANCH  22  24
HETATM   24  O   UNL     1     -10.592   8.841  66.894  1.00  0.00    -0.276 OA 
BRANCH  24  25
HETATM   25  C   UNL     1      -9.411   8.013  66.796  1.00  0.00    -0.180 C  
BRANCH  25  26
HETATM   26  C   UNL     1      -8.423   8.641  65.869  1.00  0.00    -0.158 A  
HETATM   27  C   UNL     1      -8.402   8.256  64.531  1.00  0.00    -0.097 A  
HETATM   28  C   UNL     1      -7.539   8.883  63.636  1.00  0.00    -0.118 A  
HETATM   29  C   UNL     1      -6.688   9.894  64.079  1.00  0.00    -0.126 A  
HETATM   30  C   UNL     1      -6.693  10.277  65.419  1.00  0.00    -0.123 A  
HETATM   31  C   UNL     1      -7.559   9.653  66.316  1.00  0.00    -0.101 A  
ENDBRANCH  25  26
ENDBRANCH  24  25
ENDBRANCH  22  24
ENDBRANCH  17  20
TORSDOF 4
ENDMDL
MODEL       66
REMARK 921   NORMALIZED FREE ENERGY PREDICTED BY IDOCK:   -5.68 KCAL/MOL
REMARK 922        TOTAL FREE ENERGY PREDICTED BY IDOCK:   -7.59 KCAL/MOL
REMARK 923 INTER-LIGAND FREE ENERGY PREDICTED BY IDOCK:   -7.38 KCAL/MOL
REMARK 924 INTRA-LIGAND FREE ENERGY PREDICTED BY IDOCK:   -0.21 KCAL/MOL
REMARK 927      BINDING AFFINITY PREDICTED BY RF-SCORE:    0.00 PKD
ROOT
HETATM    1  C   UNL     1      -9.724   9.654  70.247  1.00  0.00    -0.259 C  
HETATM    2  C   UNL     1      -9.883   9.166  71.679  1.00  0.00    -0.295 C  
HETATM    3  C   UNL     1      -9.622   7.765  71.634  1.00  0.00    -0.191 A  
HETATM    4  C   UNL     1     -10.229   6.738  72.277  1.00  0.00    -0.189 A  
HETATM    5  N   UNL     1      -9.750   5.604  71.686  1.00  0.00    -0.157 NA 
HETATM    6  C   UNL     1     -10.354   4.322  71.976  1.00  0.00    -0.099 C  
HETATM    7  C   UNL     1      -8.777   5.925  70.738  1.00  0.00    -0.134 A  
HETATM    8  C   UNL     1      -7.946   5.162  69.925  1.00  0.00    -0.078 A  
HETATM    9  C   UNL     1      -7.116   5.888  69.039  1.00  0.00    -0.069 A  
HETATM   10  C   UNL     1      -7.165   7.312  68.873  1.00  0.00    -0.090 A  
HETATM   11  C   UNL     1      -8.046   8.102  69.627  1.00  0.00    -0.118 A  
HETATM   12  C   UNL     1      -8.360   9.693  69.566  1.00  0.00    -0.154 C  
HETATM   13  C   UNL     1      -8.729   7.305  70.645  1.00  0.00    -0.147 A  
HETATM   14  C   UNL     1      -8.882  11.056  68.522  1.00  0.00    -0.159 C  
HETATM   15  C   UNL     1     -10.488  11.597  68.815  1.00  0.00    -0.226 C  
HETATM   16  C   UNL     1     -11.458  10.412  68.785  1.00  0.00    -0.175 C  
HETATM   17  C   UNL     1     -11.335  12.855  68.550  1.00  0.00    -0.289 C  
HETATM   18  N   UNL     1     -10.777   9.214  69.225  1.00  0.00    -0.213 NA 
HETATM   19  C   UNL     1     -10.328   8.513  67.977  1.00  0.00    -0.217 C  
ENDROOT
BRANCH  17  20
HETATM   20  N   UNL     1     -11.522  13.388  67.238  1.00  0.00    -0.322 N  
HETATM   21  H   UNL     1     -12.310  13.140  66.640  1.00  0.00     0.000 HD 
HETATM   22  C   UNL     1     -10.547  14.257  66.862  1.00  0.00    -0.273 C  
HETATM   23  O   UNL     1      -9.362  14.136  67.155  1.00  0.00    -0.218 OA 
BRANCH  22  24
HETATM   24  O   UNL     1     -11.115  15.319  66.287  1.00  0.00    -0.330 OA 
BRANCH  24  25
HETATM   25  C   UNL     1     -10.167  16.267  65.745  1.00  0.00    -0.367 C  
BRANCH  25  26
HETATM   26  C   UNL     1     -10.201  17.532  66.538  1.00  0.00    -0.342 A  
HETATM   27  C   UNL     1      -9.808  17.512  67.874  1.00  0.00    -0.293 A  
HETATM   28  C   UNL     1      -9.762  18.694  68.608  1.00  0.00    -0.418 A  
HETATM   29  C   UNL     1     -10.116  19.902  68.009  1.00  0.00    -0.572 A  
HETATM   30  C   UNL     1     -10.522  19.929  66.676  1.00  0.00    -0.580 A  
HETATM   31  C   UNL     1     -10.566  18.748  65.939  1.00  0.00    -0.405 A  
ENDBRANCH  25  26
ENDBRANCH  24  25
ENDBRANCH  22  24
ENDBRANCH  17  20
TORSDOF 4
ENDMDL
MODEL       67
REMARK 921   NORMALIZED FREE ENERGY PREDICTED BY IDOCK:   -5.68 KCAL/MOL
REMARK 922        TOTAL FREE ENERGY PREDICTED BY IDOCK:   -7.59 KCAL/MOL
REMARK 923 INTER-LIGAND FREE ENERGY PREDICTED BY IDOCK:   -7.14 KCAL/MOL
REMARK 924 INTRA-LIGAND FREE ENERGY PREDICTED BY IDOCK:   -0.44 KCAL/MOL
REMARK 927      BINDING AFFINITY PREDICTED BY RF-SCORE:    0.00 PKD
ROOT
HETATM    1  C   UNL     1      -7.634  16.464  68.224  1.00  0.00    -0.163 C  
HETATM    2  C   UNL     1      -6.545  17.521  68.313  1.00  0.00    -0.188 C  
HETATM    3  C   UNL     1      -6.935  18.546  67.403  1.00  0.00    -0.208 A  
HETATM    4  C   UNL     1      -6.193  19.290  66.546  1.00  0.00    -0.176 A  
HETATM    5  N   UNL     1      -7.095  19.936  65.750  1.00  0.00    -0.292 NA 
HETATM    6  C   UNL     1      -6.645  20.648  64.573  1.00  0.00    -0.218 C  
HETATM    7  C   UNL     1      -8.397  19.665  66.172  1.00  0.00    -0.335 A  
HETATM    8  C   UNL     1      -9.647  20.115  65.762  1.00  0.00    -0.185 A  
HETATM    9  C   UNL     1     -10.756  19.542  66.428  1.00  0.00    -0.528 A  
HETATM   10  C   UNL     1     -10.659  18.485  67.394  1.00  0.00    -0.463 A  
HETATM   11  C   UNL     1      -9.414  17.961  67.773  1.00  0.00    -0.263 A  
HETATM   12  C   UNL     1      -9.041  16.723  68.755  1.00  0.00    -0.259 C  
HETATM   13  C   UNL     1      -8.316  18.727  67.186  1.00  0.00    -0.281 A  
HETATM   14  C   UNL     1      -9.276  14.974  69.082  1.00  0.00    -0.183 C  
HETATM   15  C   UNL     1      -7.917  13.994  68.700  1.00  0.00    -0.122 C  
HETATM   16  C   UNL     1      -7.443  14.279  67.272  1.00  0.00    -0.055 C  
HETATM   17  C   UNL     1      -7.379  12.597  69.062  1.00  0.00     0.055 C  
HETATM   18  N   UNL     1      -7.734  15.653  66.928  1.00  0.00    -0.226 NA 
HETATM   19  C   UNL     1      -9.039  15.626  66.188  1.00  0.00    -0.342 C  
ENDROOT
BRANCH  17  20
HETATM   20  N   UNL     1      -8.144  11.408  68.859  1.00  0.00    -0.303 N  
HETATM   21  H   UNL     1      -9.022  11.217  69.342  1.00  0.00     0.000 HD 
HETATM   22  C   UNL     1      -7.587  10.553  67.960  1.00  0.00    -0.091 C  
HETATM   23  O   UNL     1      -6.382  10.362  67.841  1.00  0.00    -0.059 OA 
BRANCH  22  24
HETATM   24  O   UNL     1      -8.543  10.108  67.141  1.00  0.00    -0.125 OA 
BRANCH  24  25
HETATM   25  C   UNL     1      -9.879  10.233  67.679  1.00  0.00    -0.171 C  
BRANCH  25  26
HETATM   26  C   UNL     1     -10.348   8.913  68.195  1.00  0.00    -0.261 A  
HETATM   27  C   UNL     1     -10.480   7.843  67.312  1.00  0.00    -0.390 A  
HETATM   28  C   UNL     1     -10.845   6.586  67.786  1.00  0.00    -0.395 A  
HETATM   29  C   UNL     1     -11.085   6.395  69.146  1.00  0.00    -0.428 A  
HETATM   30  C   UNL     1     -10.967   7.463  70.034  1.00  0.00    -0.264 A  
HETATM   31  C   UNL     1     -10.599   8.721  69.562  1.00  0.00    -0.224 A  
ENDBRANCH  25  26
ENDBRANCH  24  25
ENDBRANCH  22  24
ENDBRANCH  17  20
TORSDOF 4
ENDMDL
MODEL       68
REMARK 921   NORMALIZED FREE ENERGY PREDICTED BY IDOCK:   -5.67 KCAL/MOL
REMARK 922        TOTAL FREE ENERGY PREDICTED BY IDOCK:   -7.58 KCAL/MOL
REMARK 923 INTER-LIGAND FREE ENERGY PREDICTED BY IDOCK:   -6.29 KCAL/MOL
REMARK 924 INTRA-LIGAND FREE ENERGY PREDICTED BY IDOCK:   -1.28 KCAL/MOL
REMARK 927      BINDING AFFINITY PREDICTED BY RF-SCORE:    0.00 PKD
ROOT
HETATM    1  C   UNL     1     -10.999  11.673  68.601  1.00  0.00    -0.220 C  
HETATM    2  C   UNL     1     -11.838  12.670  69.387  1.00  0.00    -0.356 C  
HETATM    3  C   UNL     1     -11.611  13.931  68.764  1.00  0.00    -0.370 A  
HETATM    4  C   UNL     1     -11.449  15.163  69.307  1.00  0.00    -0.311 A  
HETATM    5  N   UNL     1     -11.020  15.959  68.284  1.00  0.00    -0.314 NA 
HETATM    6  C   UNL     1     -10.534  17.294  68.557  1.00  0.00    -0.375 C  
HETATM    7  C   UNL     1     -11.004  15.243  67.086  1.00  0.00    -0.331 A  
HETATM    8  C   UNL     1     -10.724  15.590  65.769  1.00  0.00    -0.362 A  
HETATM    9  C   UNL     1     -10.767  14.533  64.831  1.00  0.00    -0.448 A  
HETATM   10  C   UNL     1     -10.976  13.155  65.177  1.00  0.00    -0.317 A  
HETATM   11  C   UNL     1     -11.188  12.766  66.508  1.00  0.00    -0.349 A  
HETATM   12  C   UNL     1     -11.352  11.291  67.167  1.00  0.00    -0.295 C  
HETATM   13  C   UNL     1     -11.315  13.929  67.385  1.00  0.00    -0.349 A  
HETATM   14  C   UNL     1     -10.600   9.675  67.376  1.00  0.00    -0.333 C  
HETATM   15  C   UNL     1      -9.957   9.392  68.945  1.00  0.00    -0.188 C  
HETATM   16  C   UNL     1      -9.031  10.542  69.353  1.00  0.00    -0.093 C  
HETATM   17  C   UNL     1      -9.554   8.185  69.812  1.00  0.00    -0.171 C  
HETATM   18  N   UNL     1      -9.476  11.769  68.729  1.00  0.00    -0.092 NA 
HETATM   19  C   UNL     1      -8.651  11.921  67.485  1.00  0.00    -0.160 C  
ENDROOT
BRANCH  17  20
HETATM   20  N   UNL     1      -8.601   7.215  69.376  1.00  0.00    -0.133 N  
HETATM   21  H   UNL     1      -8.825   6.464  68.723  1.00  0.00     0.000 HD 
HETATM   22  C   UNL     1      -7.366   7.389  69.916  1.00  0.00    -0.083 C  
HETATM   23  O   UNL     1      -7.159   7.766  71.064  1.00  0.00    -0.052 OA 
BRANCH  22  24
HETATM   24  O   UNL     1      -6.451   7.249  68.954  1.00  0.00    -0.037 OA 
BRANCH  24  25
HETATM   25  C   UNL     1      -5.731   8.465  68.650  1.00  0.00    -0.037 C  
BRANCH  25  26
HETATM   26  C   UNL     1      -6.095   8.945  67.283  1.00  0.00    -0.058 A  
HETATM   27  C   UNL     1      -7.107   8.298  66.579  1.00  0.00    -0.072 A  
HETATM   28  C   UNL     1      -7.510   8.776  65.335  1.00  0.00    -0.086 A  
HETATM   29  C   UNL     1      -6.898   9.902  64.788  1.00  0.00    -0.129 A  
HETATM   30  C   UNL     1      -5.876  10.549  65.481  1.00  0.00    -0.131 A  
HETATM   31  C   UNL     1      -5.473  10.074  66.727  1.00  0.00    -0.045 A  
ENDBRANCH  25  26
ENDBRANCH  24  25
ENDBRANCH  22  24
ENDBRANCH  17  20
TORSDOF 4
ENDMDL
MODEL       69
REMARK 921   NORMALIZED FREE ENERGY PREDICTED BY IDOCK:   -5.66 KCAL/MOL
REMARK 922        TOTAL FREE ENERGY PREDICTED BY IDOCK:   -7.57 KCAL/MOL
REMARK 923 INTER-LIGAND FREE ENERGY PREDICTED BY IDOCK:   -7.19 KCAL/MOL
REMARK 924 INTRA-LIGAND FREE ENERGY PREDICTED BY IDOCK:   -0.38 KCAL/MOL
REMARK 927      BINDING AFFINITY PREDICTED BY RF-SCORE:    0.00 PKD
ROOT
HETATM    1  C   UNL     1      -9.813  16.978  67.366  1.00  0.00    -0.262 C  
HETATM    2  C   UNL     1     -10.145  18.284  68.072  1.00  0.00    -0.381 C  
HETATM    3  C   UNL     1      -8.888  18.878  68.382  1.00  0.00    -0.379 A  
HETATM    4  C   UNL     1      -8.482  19.546  69.490  1.00  0.00     0.305 A  
HETATM    5  N   UNL     1      -7.128  19.677  69.360  1.00  0.00    -0.342 NA 
HETATM    6  C   UNL     1      -6.334  20.148  70.474  1.00  0.00    -0.252 C  
HETATM    7  C   UNL     1      -6.707  19.172  68.129  1.00  0.00    -0.239 A  
HETATM    8  C   UNL     1      -5.476  19.125  67.486  1.00  0.00    -0.170 A  
HETATM    9  C   UNL     1      -5.457  18.461  66.238  1.00  0.00    -0.184 A  
HETATM   10  C   UNL     1      -6.582  17.769  65.675  1.00  0.00    -0.137 A  
HETATM   11  C   UNL     1      -7.819  17.737  66.337  1.00  0.00    -0.312 A  
HETATM   12  C   UNL     1      -9.197  16.961  65.971  1.00  0.00    -0.205 C  
HETATM   13  C   UNL     1      -7.809  18.598  67.519  1.00  0.00    -0.242 A  
HETATM   14  C   UNL     1      -9.947  15.368  65.621  1.00  0.00    -0.396 C  
HETATM   15  C   UNL     1     -10.914  14.747  66.899  1.00  0.00    -0.328 C  
HETATM   16  C   UNL     1     -10.128  14.764  68.214  1.00  0.00    -0.221 C  
HETATM   17  C   UNL     1     -12.034  13.705  67.081  1.00  0.00    -0.393 C  
HETATM   18  N   UNL     1      -9.183  15.859  68.201  1.00  0.00    -0.189 NA 
HETATM   19  C   UNL     1      -7.876  15.270  67.756  1.00  0.00    -0.147 C  
ENDROOT
BRANCH  17  20
HETATM   20  N   UNL     1     -11.878  12.340  66.694  1.00  0.00    -0.346 N  
HETATM   21  H   UNL     1     -12.025  12.008  65.741  1.00  0.00     0.000 HD 
HETATM   22  C   UNL     1     -11.514  11.525  67.719  1.00  0.00    -0.286 C  
HETATM   23  O   UNL     1     -11.914  11.643  68.871  1.00  0.00    -0.328 OA 
BRANCH  22  24
HETATM   24  O   UNL     1     -10.544  10.710  67.298  1.00  0.00    -0.230 OA 
BRANCH  24  25
HETATM   25  C   UNL     1     -10.750   9.324  67.651  1.00  0.00    -0.209 C  
BRANCH  25  26
HETATM   26  C   UNL     1     -10.123   9.035  68.975  1.00  0.00    -0.204 A  
HETATM   27  C   UNL     1      -8.780   9.346  69.176  1.00  0.00    -0.142 A  
HETATM   28  C   UNL     1      -8.197   9.153  70.425  1.00  0.00    -0.188 A  
HETATM   29  C   UNL     1      -8.954   8.642  71.478  1.00  0.00    -0.302 A  
HETATM   30  C   UNL     1     -10.295   8.317  71.282  1.00  0.00    -0.256 A  
HETATM   31  C   UNL     1     -10.882   8.512  70.033  1.00  0.00    -0.225 A  
ENDBRANCH  25  26
ENDBRANCH  24  25
ENDBRANCH  22  24
ENDBRANCH  17  20
TORSDOF 4
ENDMDL
MODEL       70
REMARK 921   NORMALIZED FREE ENERGY PREDICTED BY IDOCK:   -5.64 KCAL/MOL
REMARK 922        TOTAL FREE ENERGY PREDICTED BY IDOCK:   -7.54 KCAL/MOL
REMARK 923 INTER-LIGAND FREE ENERGY PREDICTED BY IDOCK:   -6.77 KCAL/MOL
REMARK 924 INTRA-LIGAND FREE ENERGY PREDICTED BY IDOCK:   -0.77 KCAL/MOL
REMARK 927      BINDING AFFINITY PREDICTED BY RF-SCORE:    0.00 PKD
ROOT
HETATM    1  C   UNL     1      -8.507  10.302  68.743  1.00  0.00    -0.130 C  
HETATM    2  C   UNL     1      -8.440   9.616  70.099  1.00  0.00    -0.231 C  
HETATM    3  C   UNL     1      -9.425   8.587  70.052  1.00  0.00    -0.165 A  
HETATM    4  C   UNL     1     -10.295   8.161  71.001  1.00  0.00    -0.195 A  
HETATM    5  N   UNL     1     -11.164   7.331  70.351  1.00  0.00    -0.275 NA 
HETATM    6  C   UNL     1     -12.363   6.870  71.016  1.00  0.00    -0.351 C  
HETATM    7  C   UNL     1     -10.777   7.170  69.020  1.00  0.00    -0.184 A  
HETATM    8  C   UNL     1     -11.262   6.396  67.971  1.00  0.00    -0.260 A  
HETATM    9  C   UNL     1     -10.606   6.563  66.729  1.00  0.00    -0.323 A  
HETATM   10  C   UNL     1      -9.575   7.530  66.484  1.00  0.00    -0.239 A  
HETATM   11  C   UNL     1      -9.116   8.376  67.506  1.00  0.00    -0.145 A  
HETATM   12  C   UNL     1      -8.048   9.597  67.470  1.00  0.00    -0.114 C  
HETATM   13  C   UNL     1      -9.706   8.016  68.794  1.00  0.00    -0.157 A  
HETATM   14  C   UNL     1      -7.625  11.169  66.712  1.00  0.00    -0.146 C  
HETATM   15  C   UNL     1      -7.894  12.535  67.720  1.00  0.00    -0.151 C  
HETATM   16  C   UNL     1      -9.317  12.505  68.284  1.00  0.00    -0.193 C  
HETATM   17  C   UNL     1      -7.428  14.000  67.804  1.00  0.00    -0.161 C  
HETATM   18  N   UNL     1      -9.755  11.133  68.428  1.00  0.00    -0.184 NA 
HETATM   19  C   UNL     1     -10.542  10.820  67.189  1.00  0.00    -0.256 C  
ENDROOT
BRANCH  17  20
HETATM   20  N   UNL     1      -7.588  14.917  66.721  1.00  0.00    -0.190 N  
HETATM   21  H   UNL     1      -7.637  14.627  65.745  1.00  0.00     0.000 HD 
HETATM   22  C   UNL     1      -7.669  16.215  67.117  1.00  0.00    -0.194 C  
HETATM   23  O   UNL     1      -7.031  16.695  68.047  1.00  0.00    -0.141 OA 
BRANCH  22  24
HETATM   24  O   UNL     1      -8.661  16.808  66.449  1.00  0.00    -0.254 OA 
BRANCH  24  25
HETATM   25  C   UNL     1      -9.665  17.404  67.301  1.00  0.00    -0.267 C  
BRANCH  25  26
HETATM   26  C   UNL     1     -10.484  16.336  67.948  1.00  0.00    -0.295 A  
HETATM   27  C   UNL     1     -10.604  16.314  69.336  1.00  0.00    -0.301 A  
HETATM   28  C   UNL     1     -11.422  15.372  69.953  1.00  0.00    -0.329 A  
HETATM   29  C   UNL     1     -12.120  14.443  69.184  1.00  0.00    -0.316 A  
HETATM   30  C   UNL     1     -11.997  14.450  67.795  1.00  0.00    -0.368 A  
HETATM   31  C   UNL     1     -11.181  15.394  67.175  1.00  0.00    -0.256 A  
ENDBRANCH  25  26
ENDBRANCH  24  25
ENDBRANCH  22  24
ENDBRANCH  17  20
TORSDOF 4
ENDMDL
MODEL       71
REMARK 921   NORMALIZED FREE ENERGY PREDICTED BY IDOCK:   -5.63 KCAL/MOL
REMARK 922        TOTAL FREE ENERGY PREDICTED BY IDOCK:   -7.53 KCAL/MOL
REMARK 923 INTER-LIGAND FREE ENERGY PREDICTED BY IDOCK:   -7.00 KCAL/MOL
REMARK 924 INTRA-LIGAND FREE ENERGY PREDICTED BY IDOCK:   -0.53 KCAL/MOL
REMARK 927      BINDING AFFINITY PREDICTED BY RF-SCORE:    0.00 PKD
ROOT
HETATM    1  C   UNL     1     -10.966  11.543  67.816  1.00  0.00    -0.236 C  
HETATM    2  C   UNL     1     -11.908  12.327  68.716  1.00  0.00    -0.356 C  
HETATM    3  C   UNL     1     -11.598  13.699  68.487  1.00  0.00    -0.371 A  
HETATM    4  C   UNL     1     -11.517  14.738  69.355  1.00  0.00    -0.301 A  
HETATM    5  N   UNL     1     -10.949  15.759  68.647  1.00  0.00    -0.288 NA 
HETATM    6  C   UNL     1     -10.509  16.957  69.328  1.00  0.00    -0.319 C  
HETATM    7  C   UNL     1     -10.764  15.383  67.316  1.00  0.00    -0.307 A  
HETATM    8  C   UNL     1     -10.302  16.054  66.189  1.00  0.00    -0.340 A  
HETATM    9  C   UNL     1     -10.212  15.283  65.008  1.00  0.00    -0.324 A  
HETATM   10  C   UNL     1     -10.464  13.871  64.944  1.00  0.00    -0.446 A  
HETATM   11  C   UNL     1     -10.861  13.153  66.082  1.00  0.00    -0.293 A  
HETATM   12  C   UNL     1     -11.113  11.564  66.298  1.00  0.00    -0.321 C  
HETATM   13  C   UNL     1     -11.112  14.048  67.211  1.00  0.00    -0.314 A  
HETATM   14  C   UNL     1     -10.395   9.924  66.171  1.00  0.00    -0.223 C  
HETATM   15  C   UNL     1      -9.978   9.215  67.680  1.00  0.00    -0.245 C  
HETATM   16  C   UNL     1      -9.121  10.184  68.500  1.00  0.00    -0.134 C  
HETATM   17  C   UNL     1      -9.699   7.809  68.243  1.00  0.00    -0.159 C  
HETATM   18  N   UNL     1      -9.476  11.547  68.170  1.00  0.00    -0.178 NA 
HETATM   19  C   UNL     1      -8.485  11.992  67.135  1.00  0.00    -0.180 C  
ENDROOT
BRANCH  17  20
HETATM   20  N   UNL     1      -8.692   6.955  67.699  1.00  0.00    -0.121 N  
HETATM   21  H   UNL     1      -7.693   7.114  67.828  1.00  0.00     0.000 HD 
HETATM   22  C   UNL     1      -9.195   5.908  66.992  1.00  0.00    -0.119 C  
HETATM   23  O   UNL     1     -10.193   5.968  66.283  1.00  0.00    -0.105 OA 
BRANCH  22  24
HETATM   24  O   UNL     1      -8.533   4.801  67.335  1.00  0.00    -0.105 OA 
BRANCH  24  25
HETATM   25  C   UNL     1      -9.367   3.782  67.933  1.00  0.00    -0.186 C  
BRANCH  25  26
HETATM   26  C   UNL     1      -9.233   3.822  69.420  1.00  0.00    -0.226 A  
HETATM   27  C   UNL     1      -8.192   3.128  70.031  1.00  0.00    -0.067 A  
HETATM   28  C   UNL     1      -8.007   3.212  71.407  1.00  0.00    -0.059 A  
HETATM   29  C   UNL     1      -8.869   3.989  72.181  1.00  0.00    -0.129 A  
HETATM   30  C   UNL     1      -9.921   4.677  71.579  1.00  0.00    -0.265 A  
HETATM   31  C   UNL     1     -10.106   4.596  70.201  1.00  0.00    -0.283 A  
ENDBRANCH  25  26
ENDBRANCH  24  25
ENDBRANCH  22  24
ENDBRANCH  17  20
TORSDOF 4
ENDMDL
MODEL       72
REMARK 921   NORMALIZED FREE ENERGY PREDICTED BY IDOCK:   -5.61 KCAL/MOL
REMARK 922        TOTAL FREE ENERGY PREDICTED BY IDOCK:   -7.51 KCAL/MOL
REMARK 923 INTER-LIGAND FREE ENERGY PREDICTED BY IDOCK:   -7.28 KCAL/MOL
REMARK 924 INTRA-LIGAND FREE ENERGY PREDICTED BY IDOCK:   -0.23 KCAL/MOL
REMARK 927      BINDING AFFINITY PREDICTED BY RF-SCORE:    0.00 PKD
ROOT
HETATM    1  C   UNL     1      -8.549   9.241  67.063  1.00  0.00    -0.124 C  
HETATM    2  C   UNL     1      -7.107   8.905  66.717  1.00  0.00    -0.081 C  
HETATM    3  C   UNL     1      -6.955   7.521  67.024  1.00  0.00    -0.083 A  
HETATM    4  C   UNL     1      -5.920   6.856  67.593  1.00  0.00    -0.028 A  
HETATM    5  N   UNL     1      -6.399   5.609  67.875  1.00  0.00    -0.040 NA 
HETATM    6  C   UNL     1      -5.626   4.701  68.694  1.00  0.00    -0.016 C  
HETATM    7  C   UNL     1      -7.703   5.471  67.397  1.00  0.00    -0.100 A  
HETATM    8  C   UNL     1      -8.600   4.409  67.360  1.00  0.00    -0.105 A  
HETATM    9  C   UNL     1      -9.876   4.699  66.826  1.00  0.00    -0.237 A  
HETATM   10  C   UNL     1     -10.307   6.011  66.433  1.00  0.00    -0.134 A  
HETATM   11  C   UNL     1      -9.448   7.116  66.528  1.00  0.00    -0.208 A  
HETATM   12  C   UNL     1      -9.713   8.692  66.245  1.00  0.00    -0.322 C  
HETATM   13  C   UNL     1      -8.097   6.703  66.908  1.00  0.00    -0.113 A  
HETATM   14  C   UNL     1     -10.721  10.118  66.660  1.00  0.00    -0.156 C  
HETATM   15  C   UNL     1      -9.928  11.282  67.644  1.00  0.00    -0.197 C  
HETATM   16  C   UNL     1      -9.313  10.605  68.872  1.00  0.00    -0.184 C  
HETATM   17  C   UNL     1     -10.090  12.770  68.008  1.00  0.00    -0.230 C  
HETATM   18  N   UNL     1      -8.942   9.246  68.544  1.00  0.00    -0.129 NA 
HETATM   19  C   UNL     1     -10.085   8.386  68.995  1.00  0.00    -0.203 C  
ENDROOT
BRANCH  17  20
HETATM   20  N   UNL     1     -11.296  13.294  68.566  1.00  0.00    -0.264 N  
HETATM   21  H   UNL     1     -11.679  12.985  69.459  1.00  0.00     0.000 HD 
HETATM   22  C   UNL     1     -11.883  14.244  67.792  1.00  0.00    -0.379 C  
HETATM   23  O   UNL     1     -11.905  14.221  66.567  1.00  0.00    -0.385 OA 
BRANCH  22  24
HETATM   24  O   UNL     1     -12.265  15.258  68.571  1.00  0.00    -0.163 OA 
BRANCH  24  25
HETATM   25  C   UNL     1     -11.383  15.501  69.690  1.00  0.00    -0.315 C  
BRANCH  25  26
HETATM   26  C   UNL     1     -12.160  15.486  70.965  1.00  0.00    -0.438 A  
HETATM   27  C   UNL     1     -11.681  16.193  72.066  1.00  0.00    -0.574 A  
HETATM   28  C   UNL     1     -12.428  16.251  73.239  1.00  0.00    -0.591 A  
HETATM   29  C   UNL     1     -13.656  15.597  73.318  1.00  0.00    -0.452 A  
HETATM   30  C   UNL     1     -14.138  14.878  72.226  1.00  0.00    -0.600 A  
HETATM   31  C   UNL     1     -13.393  14.820  71.050  1.00  0.00    -0.427 A  
ENDBRANCH  25  26
ENDBRANCH  24  25
ENDBRANCH  22  24
ENDBRANCH  17  20
TORSDOF 4
ENDMDL
MODEL       73
REMARK 921   NORMALIZED FREE ENERGY PREDICTED BY IDOCK:   -5.61 KCAL/MOL
REMARK 922        TOTAL FREE ENERGY PREDICTED BY IDOCK:   -7.51 KCAL/MOL
REMARK 923 INTER-LIGAND FREE ENERGY PREDICTED BY IDOCK:   -6.76 KCAL/MOL
REMARK 924 INTRA-LIGAND FREE ENERGY PREDICTED BY IDOCK:   -0.74 KCAL/MOL
REMARK 927      BINDING AFFINITY PREDICTED BY RF-SCORE:    0.00 PKD
ROOT
HETATM    1  C   UNL     1      -8.696   7.493  69.454  1.00  0.00    -0.137 C  
HETATM    2  C   UNL     1      -7.660   6.410  69.713  1.00  0.00    -0.093 C  
HETATM    3  C   UNL     1      -7.971   5.888  71.002  1.00  0.00    -0.116 A  
HETATM    4  C   UNL     1      -7.154   5.508  72.015  1.00  0.00    -0.086 A  
HETATM    5  N   UNL     1      -7.973   5.324  73.093  1.00  0.00    -0.101 NA 
HETATM    6  C   UNL     1      -7.407   5.130  74.411  1.00  0.00    -0.086 C  
HETATM    7  C   UNL     1      -9.307   5.500  72.724  1.00  0.00    -0.138 A  
HETATM    8  C   UNL     1     -10.513   5.364  73.404  1.00  0.00    -0.269 A  
HETATM    9  C   UNL     1     -11.674   5.697  72.670  1.00  0.00    -0.256 A  
HETATM   10  C   UNL     1     -11.662   6.248  71.345  1.00  0.00    -0.316 A  
HETATM   11  C   UNL     1     -10.456   6.466  70.661  1.00  0.00    -0.269 A  
HETATM   12  C   UNL     1     -10.164   7.152  69.219  1.00  0.00    -0.193 C  
HETATM   13  C   UNL     1      -9.320   5.925  71.408  1.00  0.00    -0.165 A  
HETATM   14  C   UNL     1     -10.380   8.622  68.212  1.00  0.00    -0.252 C  
HETATM   15  C   UNL     1      -8.953   9.559  68.013  1.00  0.00    -0.123 C  
HETATM   16  C   UNL     1      -8.319   9.853  69.376  1.00  0.00    -0.156 C  
HETATM   17  C   UNL     1      -8.418  10.633  67.048  1.00  0.00    -0.129 C  
HETATM   18  N   UNL     1      -8.611   8.772  70.292  1.00  0.00    -0.140 NA 
HETATM   19  C   UNL     1      -9.815   9.209  71.074  1.00  0.00    -0.296 C  
ENDROOT
BRANCH  17  20
HETATM   20  N   UNL     1      -9.113  11.857  66.805  1.00  0.00    -0.192 N  
HETATM   21  H   UNL     1      -9.705  12.012  65.990  1.00  0.00     0.000 HD 
HETATM   22  C   UNL     1      -8.908  12.795  67.767  1.00  0.00    -0.187 C  
HETATM   23  O   UNL     1      -7.844  12.968  68.350  1.00  0.00    -0.133 OA 
BRANCH  22  24
HETATM   24  O   UNL     1     -10.079  13.357  68.076  1.00  0.00    -0.228 OA 
BRANCH  24  25
HETATM   25  C   UNL     1     -11.181  12.424  68.126  1.00  0.00    -0.265 C  
BRANCH  25  26
HETATM   26  C   UNL     1     -11.812  12.450  69.479  1.00  0.00    -0.368 A  
HETATM   27  C   UNL     1     -11.968  13.669  70.136  1.00  0.00    -0.407 A  
HETATM   28  C   UNL     1     -12.619  13.723  71.365  1.00  0.00    -0.433 A  
HETATM   29  C   UNL     1     -13.112  12.555  71.946  1.00  0.00    -0.473 A  
HETATM   30  C   UNL     1     -12.949  11.330  71.301  1.00  0.00    -0.427 A  
HETATM   31  C   UNL     1     -12.300  11.275  70.070  1.00  0.00    -0.330 A  
ENDBRANCH  25  26
ENDBRANCH  24  25
ENDBRANCH  22  24
ENDBRANCH  17  20
TORSDOF 4
ENDMDL
MODEL       74
REMARK 921   NORMALIZED FREE ENERGY PREDICTED BY IDOCK:   -5.57 KCAL/MOL
REMARK 922        TOTAL FREE ENERGY PREDICTED BY IDOCK:   -7.45 KCAL/MOL
REMARK 923 INTER-LIGAND FREE ENERGY PREDICTED BY IDOCK:   -6.87 KCAL/MOL
REMARK 924 INTRA-LIGAND FREE ENERGY PREDICTED BY IDOCK:   -0.58 KCAL/MOL
REMARK 927      BINDING AFFINITY PREDICTED BY RF-SCORE:    0.00 PKD
ROOT
HETATM    1  C   UNL     1      -8.520  10.225  67.854  1.00  0.00    -0.118 C  
HETATM    2  C   UNL     1      -7.164  10.395  67.187  1.00  0.00    -0.091 C  
HETATM    3  C   UNL     1      -7.418  10.317  65.786  1.00  0.00    -0.144 A  
HETATM    4  C   UNL     1      -6.709   9.719  64.797  1.00  0.00    -0.114 A  
HETATM    5  N   UNL     1      -7.525   9.740  63.701  1.00  0.00    -0.125 NA 
HETATM    6  C   UNL     1      -7.173   8.983  62.520  1.00  0.00    -0.098 C  
HETATM    7  C   UNL     1      -8.701  10.434  63.986  1.00  0.00    -0.194 A  
HETATM    8  C   UNL     1      -9.804  10.798  63.221  1.00  0.00    -0.394 A  
HETATM    9  C   UNL     1     -10.840  11.466  63.915  1.00  0.00    -0.463 A  
HETATM   10  C   UNL     1     -10.853  11.684  65.333  1.00  0.00    -0.336 A  
HETATM   11  C   UNL     1      -9.786  11.261  66.141  1.00  0.00    -0.262 A  
HETATM   12  C   UNL     1      -9.598  11.300  67.753  1.00  0.00    -0.181 C  
HETATM   13  C   UNL     1      -8.679  10.753  65.332  1.00  0.00    -0.190 A  
HETATM   14  C   UNL     1     -10.290  10.803  69.333  1.00  0.00    -0.207 C  
HETATM   15  C   UNL     1      -9.448   9.516  70.101  1.00  0.00    -0.287 C  
HETATM   16  C   UNL     1      -9.271   8.346  69.129  1.00  0.00    -0.150 C  
HETATM   17  C   UNL     1      -9.311   8.926  71.516  1.00  0.00    -0.265 C  
HETATM   18  N   UNL     1      -9.184   8.847  67.774  1.00  0.00    -0.140 NA 
HETATM   19  C   UNL     1     -10.569   8.740  67.207  1.00  0.00    -0.233 C  
ENDROOT
BRANCH  17  20
HETATM   20  N   UNL     1     -10.438   8.480  72.271  1.00  0.00    -0.332 N  
HETATM   21  H   UNL     1     -11.395   8.772  72.073  1.00  0.00     0.000 HD 
HETATM   22  C   UNL     1     -10.113   7.628  73.278  1.00  0.00    -0.334 C  
HETATM   23  O   UNL     1      -9.098   7.719  73.961  1.00  0.00    -0.263 OA 
BRANCH  22  24
HETATM   24  O   UNL     1     -10.976   6.610  73.277  1.00  0.00    -0.267 OA 
BRANCH  24  25
HETATM   25  C   UNL     1     -11.425   6.225  71.958  1.00  0.00    -0.310 C  
BRANCH  25  26
HETATM   26  C   UNL     1     -10.657   5.035  71.484  1.00  0.00    -0.175 A  
HETATM   27  C   UNL     1     -10.236   4.979  70.157  1.00  0.00    -0.329 A  
HETATM   28  C   UNL     1      -9.457   3.914  69.716  1.00  0.00    -0.264 A  
HETATM   29  C   UNL     1      -9.099   2.896  70.599  1.00  0.00    -0.192 A  
HETATM   30  C   UNL     1      -9.526   2.939  71.925  1.00  0.00    -0.203 A  
HETATM   31  C   UNL     1     -10.304   4.006  72.370  1.00  0.00    -0.207 A  
ENDBRANCH  25  26
ENDBRANCH  24  25
ENDBRANCH  22  24
ENDBRANCH  17  20
TORSDOF 4
ENDMDL
MODEL       75
REMARK 921   NORMALIZED FREE ENERGY PREDICTED BY IDOCK:   -5.53 KCAL/MOL
REMARK 922        TOTAL FREE ENERGY PREDICTED BY IDOCK:   -7.40 KCAL/MOL
REMARK 923 INTER-LIGAND FREE ENERGY PREDICTED BY IDOCK:   -6.97 KCAL/MOL
REMARK 924 INTRA-LIGAND FREE ENERGY PREDICTED BY IDOCK:   -0.43 KCAL/MOL
REMARK 927      BINDING AFFINITY PREDICTED BY RF-SCORE:    0.00 PKD
ROOT
HETATM    1  C   UNL     1      -8.697  10.746  66.036  1.00  0.00    -0.183 C  
HETATM    2  C   UNL     1      -7.447  10.122  65.435  1.00  0.00    -0.144 C  
HETATM    3  C   UNL     1      -7.247   8.907  66.152  1.00  0.00    -0.090 A  
HETATM    4  C   UNL     1      -6.105   8.329  66.600  1.00  0.00    -0.053 A  
HETATM    5  N   UNL     1      -6.508   7.318  67.426  1.00  0.00    -0.057 NA 
HETATM    6  C   UNL     1      -5.543   6.630  68.256  1.00  0.00    -0.016 C  
HETATM    7  C   UNL     1      -7.899   7.211  67.418  1.00  0.00    -0.112 A  
HETATM    8  C   UNL     1      -8.793   6.328  68.014  1.00  0.00    -0.112 A  
HETATM    9  C   UNL     1     -10.164   6.600  67.798  1.00  0.00    -0.207 A  
HETATM   10  C   UNL     1     -10.658   7.758  67.109  1.00  0.00    -0.401 A  
HETATM   11  C   UNL     1      -9.780   8.706  66.561  1.00  0.00    -0.325 A  
HETATM   12  C   UNL     1     -10.075  10.125  65.830  1.00  0.00    -0.324 C  
HETATM   13  C   UNL     1      -8.391   8.260  66.661  1.00  0.00    -0.111 A  
HETATM   14  C   UNL     1     -10.860  11.732  65.985  1.00  0.00    -0.343 C  
HETATM   15  C   UNL     1      -9.764  13.033  66.228  1.00  0.00    -0.265 C  
HETATM   16  C   UNL     1      -8.814  12.716  67.387  1.00  0.00    -0.189 C  
HETATM   17  C   UNL     1      -9.760  14.566  66.075  1.00  0.00    -0.303 C  
HETATM   18  N   UNL     1      -8.604  11.286  67.466  1.00  0.00    -0.132 NA 
HETATM   19  C   UNL     1      -9.574  10.784  68.496  1.00  0.00    -0.183 C  
ENDROOT
BRANCH  17  20
HETATM   20  N   UNL     1     -10.714  15.402  66.732  1.00  0.00    -0.308 N  
HETATM   21  H   UNL     1     -11.301  15.083  67.502  1.00  0.00     0.000 HD 
HETATM   22  C   UNL     1     -10.763  16.664  66.230  1.00  0.00    -0.119 C  
HETATM   23  O   UNL     1     -10.634  16.942  65.044  1.00  0.00    -0.700 OA 
BRANCH  22  24
HETATM   24  O   UNL     1     -10.801  17.530  67.246  1.00  0.00    -0.269 OA 
BRANCH  24  25
HETATM   25  C   UNL     1     -10.143  17.056  68.443  1.00  0.00    -0.302 C  
BRANCH  25  26
HETATM   26  C   UNL     1      -8.769  17.634  68.533  1.00  0.00    -0.285 A  
HETATM   27  C   UNL     1      -8.611  19.017  68.583  1.00  0.00    -0.389 A  
HETATM   28  C   UNL     1      -7.345  19.571  68.741  1.00  0.00    -0.393 A  
HETATM   29  C   UNL     1      -6.228  18.743  68.845  1.00  0.00    -0.250 A  
HETATM   30  C   UNL     1      -6.375  17.359  68.784  1.00  0.00    -0.188 A  
HETATM   31  C   UNL     1      -7.643  16.801  68.629  1.00  0.00    -0.222 A  
ENDBRANCH  25  26
ENDBRANCH  24  25
ENDBRANCH  22  24
ENDBRANCH  17  20
TORSDOF 4
ENDMDL
MODEL       76
REMARK 921   NORMALIZED FREE ENERGY PREDICTED BY IDOCK:   -5.51 KCAL/MOL
REMARK 922        TOTAL FREE ENERGY PREDICTED BY IDOCK:   -7.38 KCAL/MOL
REMARK 923 INTER-LIGAND FREE ENERGY PREDICTED BY IDOCK:   -8.01 KCAL/MOL
REMARK 924 INTRA-LIGAND FREE ENERGY PREDICTED BY IDOCK:    0.63 KCAL/MOL
REMARK 927      BINDING AFFINITY PREDICTED BY RF-SCORE:    0.00 PKD
ROOT
HETATM    1  C   UNL     1     -10.212   9.933  68.528  1.00  0.00    -0.177 C  
HETATM    2  C   UNL     1     -10.587   8.638  69.231  1.00  0.00    -0.204 C  
HETATM    3  C   UNL     1     -10.095   7.595  68.393  1.00  0.00    -0.208 A  
HETATM    4  C   UNL     1     -10.646   6.402  68.061  1.00  0.00    -0.254 A  
HETATM    5  N   UNL     1      -9.872   5.913  67.047  1.00  0.00    -0.138 NA 
HETATM    6  C   UNL     1     -10.305   4.754  66.297  1.00  0.00    -0.291 C  
HETATM    7  C   UNL     1      -8.788   6.759  66.813  1.00  0.00    -0.124 A  
HETATM    8  C   UNL     1      -7.690   6.693  65.963  1.00  0.00    -0.089 A  
HETATM    9  C   UNL     1      -6.823   7.810  65.989  1.00  0.00    -0.057 A  
HETATM   10  C   UNL     1      -7.069   9.005  66.743  1.00  0.00    -0.082 A  
HETATM   11  C   UNL     1      -8.207   9.130  67.554  1.00  0.00    -0.108 A  
HETATM   12  C   UNL     1      -8.759  10.388  68.419  1.00  0.00    -0.129 C  
HETATM   13  C   UNL     1      -8.950   7.872  67.619  1.00  0.00    -0.133 A  
HETATM   14  C   UNL     1      -9.267  12.109  68.364  1.00  0.00    -0.154 C  
HETATM   15  C   UNL     1     -10.964  12.350  68.487  1.00  0.00    -0.277 C  
HETATM   16  C   UNL     1     -11.698  11.476  67.465  1.00  0.00    -0.184 C  
HETATM   17  C   UNL     1     -11.932  13.491  68.851  1.00  0.00    -0.341 C  
HETATM   18  N   UNL     1     -10.937  10.269  67.222  1.00  0.00    -0.253 NA 
HETATM   19  C   UNL     1     -10.125  10.536  65.989  1.00  0.00    -0.256 C  
ENDROOT
BRANCH  17  20
HETATM   20  N   UNL     1     -11.922  14.747  68.171  1.00  0.00    -0.541 N  
HETATM   21  H   UNL     1     -11.921  15.645  68.655  1.00  0.00     0.000 HD 
HETATM   22  C   UNL     1     -11.915  14.630  66.817  1.00  0.00    -0.276 C  
HETATM   23  O   UNL     1     -12.519  13.764  66.195  1.00  0.00    -0.446 OA 
BRANCH  22  24
HETATM   24  O   UNL     1     -11.023  15.488  66.316  1.00  0.00    -0.314 OA 
BRANCH  24  25
HETATM   25  C   UNL     1     -10.050  15.950  67.280  1.00  0.00    -0.260 C  
BRANCH  25  26
HETATM   26  C   UNL     1     -10.105  17.439  67.386  1.00  0.00    -0.321 A  
HETATM   27  C   UNL     1      -9.723  18.053  68.577  1.00  0.00    -0.357 A  
HETATM   28  C   UNL     1      -9.697  19.441  68.670  1.00  0.00    -0.504 A  
HETATM   29  C   UNL     1     -10.058  20.222  67.574  1.00  0.00    -0.519 A  
HETATM   30  C   UNL     1     -10.453  19.616  66.383  1.00  0.00    -0.618 A  
HETATM   31  C   UNL     1     -10.477  18.226  66.285  1.00  0.00    -0.397 A  
ENDBRANCH  25  26
ENDBRANCH  24  25
ENDBRANCH  22  24
ENDBRANCH  17  20
TORSDOF 4
ENDMDL
MODEL       77
REMARK 921   NORMALIZED FREE ENERGY PREDICTED BY IDOCK:   -5.49 KCAL/MOL
REMARK 922        TOTAL FREE ENERGY PREDICTED BY IDOCK:   -7.35 KCAL/MOL
REMARK 923 INTER-LIGAND FREE ENERGY PREDICTED BY IDOCK:   -6.37 KCAL/MOL
REMARK 924 INTRA-LIGAND FREE ENERGY PREDICTED BY IDOCK:   -0.98 KCAL/MOL
REMARK 927      BINDING AFFINITY PREDICTED BY RF-SCORE:    0.00 PKD
ROOT
HETATM    1  C   UNL     1      -8.495   9.118  70.056  1.00  0.00    -0.157 C  
HETATM    2  C   UNL     1      -8.334   8.757  71.525  1.00  0.00    -0.212 C  
HETATM    3  C   UNL     1      -8.943   7.477  71.670  1.00  0.00    -0.137 A  
HETATM    4  C   UNL     1      -9.716   6.980  72.667  1.00  0.00    -0.150 A  
HETATM    5  N   UNL     1     -10.226   5.809  72.182  1.00  0.00    -0.194 NA 
HETATM    6  C   UNL     1     -11.275   5.121  72.902  1.00  0.00    -0.294 C  
HETATM    7  C   UNL     1      -9.695   5.534  70.921  1.00  0.00    -0.176 A  
HETATM    8  C   UNL     1      -9.825   4.463  70.043  1.00  0.00    -0.294 A  
HETATM    9  C   UNL     1      -9.150   4.596  68.808  1.00  0.00    -0.158 A  
HETATM   10  C   UNL     1      -8.453   5.779  68.391  1.00  0.00    -0.110 A  
HETATM   11  C   UNL     1      -8.368   6.903  69.227  1.00  0.00    -0.129 A  
HETATM   12  C   UNL     1      -7.732   8.373  68.965  1.00  0.00    -0.097 C  
HETATM   13  C   UNL     1      -8.925   6.621  70.550  1.00  0.00    -0.152 A  
HETATM   14  C   UNL     1      -7.755   9.826  67.910  1.00  0.00    -0.087 C  
HETATM   15  C   UNL     1      -8.519  11.197  68.611  1.00  0.00    -0.153 C  
HETATM   16  C   UNL     1      -9.906  10.817  69.139  1.00  0.00    -0.175 C  
HETATM   17  C   UNL     1      -8.540  12.722  68.403  1.00  0.00    -0.123 C  
HETATM   18  N   UNL     1      -9.907   9.430  69.551  1.00  0.00    -0.174 NA 
HETATM   19  C   UNL     1     -10.449   8.655  68.387  1.00  0.00    -0.176 C  
ENDROOT
BRANCH  17  20
HETATM   20  N   UNL     1      -8.884  13.319  67.152  1.00  0.00    -0.216 N  
HETATM   21  H   UNL     1      -8.213  13.460  66.396  1.00  0.00     0.000 HD 
HETATM   22  C   UNL     1     -10.191  13.680  67.065  1.00  0.00    -0.250 C  
HETATM   23  O   UNL     1     -10.847  14.133  67.996  1.00  0.00    -0.240 OA 
BRANCH  22  24
HETATM   24  O   UNL     1     -10.664  13.303  65.875  1.00  0.00    -0.271 OA 
BRANCH  24  25
HETATM   25  C   UNL     1     -11.188  11.955  65.854  1.00  0.00    -0.322 C  
BRANCH  25  26
HETATM   26  C   UNL     1     -10.444  11.134  64.852  1.00  0.00    -0.372 A  
HETATM   27  C   UNL     1     -10.366  11.574  63.532  1.00  0.00    -0.484 A  
HETATM   28  C   UNL     1      -9.617  10.861  62.601  1.00  0.00    -0.290 A  
HETATM   29  C   UNL     1      -8.946   9.701  62.985  1.00  0.00    -0.257 A  
HETATM   30  C   UNL     1      -9.028   9.248  64.301  1.00  0.00    -0.142 A  
HETATM   31  C   UNL     1      -9.776   9.961  65.235  1.00  0.00    -0.383 A  
ENDBRANCH  25  26
ENDBRANCH  24  25
ENDBRANCH  22  24
ENDBRANCH  17  20
TORSDOF 4
ENDMDL
MODEL       78
REMARK 921   NORMALIZED FREE ENERGY PREDICTED BY IDOCK:   -5.47 KCAL/MOL
REMARK 922        TOTAL FREE ENERGY PREDICTED BY IDOCK:   -7.32 KCAL/MOL
REMARK 923 INTER-LIGAND FREE ENERGY PREDICTED BY IDOCK:   -6.65 KCAL/MOL
REMARK 924 INTRA-LIGAND FREE ENERGY PREDICTED BY IDOCK:   -0.67 KCAL/MOL
REMARK 927      BINDING AFFINITY PREDICTED BY RF-SCORE:    0.00 PKD
ROOT
HETATM    1  C   UNL     1     -10.240   9.938  69.883  1.00  0.00    -0.257 C  
HETATM    2  C   UNL     1     -10.973   9.855  71.213  1.00  0.00    -0.225 C  
HETATM    3  C   UNL     1     -10.743   8.532  71.691  1.00  0.00    -0.351 A  
HETATM    4  C   UNL     1     -11.578   7.668  72.319  1.00  0.00    -0.322 A  
HETATM    5  N   UNL     1     -10.923   6.469  72.327  1.00  0.00    -0.238 NA 
HETATM    6  C   UNL     1     -11.619   5.264  72.723  1.00  0.00    -0.197 C  
HETATM    7  C   UNL     1      -9.645   6.612  71.786  1.00  0.00    -0.158 A  
HETATM    8  C   UNL     1      -8.572   5.742  71.628  1.00  0.00    -0.132 A  
HETATM    9  C   UNL     1      -7.441   6.272  70.965  1.00  0.00    -0.085 A  
HETATM   10  C   UNL     1      -7.390   7.581  70.379  1.00  0.00    -0.072 A  
HETATM   11  C   UNL     1      -8.485   8.455  70.458  1.00  0.00    -0.133 A  
HETATM   12  C   UNL     1      -8.716   9.926  69.811  1.00  0.00    -0.229 C  
HETATM   13  C   UNL     1      -9.537   7.908  71.314  1.00  0.00    -0.186 A  
HETATM   14  C   UNL     1      -8.746  10.883  68.292  1.00  0.00    -0.140 C  
HETATM   15  C   UNL     1     -10.322  11.316  67.760  1.00  0.00    -0.208 C  
HETATM   16  C   UNL     1     -11.221  10.077  67.706  1.00  0.00    -0.065 C  
HETATM   17  C   UNL     1     -10.966  12.357  66.825  1.00  0.00    -0.263 C  
HETATM   18  N   UNL     1     -10.800   9.125  68.711  1.00  0.00    -0.123 NA 
HETATM   19  C   UNL     1      -9.899   8.154  68.006  1.00  0.00    -0.168 C  
ENDROOT
BRANCH  17  20
HETATM   20  N   UNL     1     -10.597  12.480  65.451  1.00  0.00    -0.274 N  
HETATM   21  H   UNL     1      -9.661  12.746  65.144  1.00  0.00     0.000 HD 
HETATM   22  C   UNL     1     -11.614  12.209  64.591  1.00  0.00    -0.328 C  
HETATM   23  O   UNL     1     -12.786  12.507  64.791  1.00  0.00    -0.755 OA 
BRANCH  22  24
HETATM   24  O   UNL     1     -11.152  11.435  63.607  1.00  0.00    -0.399 OA 
BRANCH  24  25
HETATM   25  C   UNL     1      -9.829  11.797  63.151  1.00  0.00    -0.336 C  
BRANCH  25  26
HETATM   26  C   UNL     1      -8.911  10.624  63.264  1.00  0.00    -0.229 A  
HETATM   27  C   UNL     1      -9.135   9.675  64.259  1.00  0.00    -0.267 A  
HETATM   28  C   UNL     1      -8.336   8.539  64.334  1.00  0.00    -0.125 A  
HETATM   29  C   UNL     1      -7.304   8.348  63.417  1.00  0.00    -0.104 A  
HETATM   30  C   UNL     1      -7.065   9.298  62.425  1.00  0.00    -0.099 A  
HETATM   31  C   UNL     1      -7.866  10.436  62.346  1.00  0.00    -0.182 A  
ENDBRANCH  25  26
ENDBRANCH  24  25
ENDBRANCH  22  24
ENDBRANCH  17  20
TORSDOF 4
ENDMDL
MODEL       79
REMARK 921   NORMALIZED FREE ENERGY PREDICTED BY IDOCK:   -5.46 KCAL/MOL
REMARK 922        TOTAL FREE ENERGY PREDICTED BY IDOCK:   -7.32 KCAL/MOL
REMARK 923 INTER-LIGAND FREE ENERGY PREDICTED BY IDOCK:   -6.98 KCAL/MOL
REMARK 924 INTRA-LIGAND FREE ENERGY PREDICTED BY IDOCK:   -0.34 KCAL/MOL
REMARK 927      BINDING AFFINITY PREDICTED BY RF-SCORE:    0.00 PKD
ROOT
HETATM    1  C   UNL     1      -9.048   7.182  70.638  1.00  0.00    -0.158 C  
HETATM    2  C   UNL     1      -8.259   6.874  71.902  1.00  0.00    -0.104 C  
HETATM    3  C   UNL     1      -8.553   5.515  72.211  1.00  0.00    -0.126 A  
HETATM    4  C   UNL     1      -8.775   4.914  73.406  1.00  0.00    -0.104 A  
HETATM    5  N   UNL     1      -9.248   3.668  73.105  1.00  0.00    -0.101 NA 
HETATM    6  C   UNL     1      -9.802   2.830  74.146  1.00  0.00    -0.102 C  
HETATM    7  C   UNL     1      -9.231   3.464  71.725  1.00  0.00    -0.120 A  
HETATM    8  C   UNL     1      -9.534   2.373  70.917  1.00  0.00    -0.214 A  
HETATM    9  C   UNL     1      -9.439   2.594  69.524  1.00  0.00    -0.134 A  
HETATM   10  C   UNL     1      -9.159   3.868  68.926  1.00  0.00    -0.196 A  
HETATM   11  C   UNL     1      -8.922   5.004  69.715  1.00  0.00    -0.141 A  
HETATM   12  C   UNL     1      -8.680   6.554  69.297  1.00  0.00    -0.130 C  
HETATM   13  C   UNL     1      -8.852   4.656  71.134  1.00  0.00    -0.149 A  
HETATM   14  C   UNL     1      -9.348   7.966  68.414  1.00  0.00    -0.140 C  
HETATM   15  C   UNL     1      -9.970   9.206  69.429  1.00  0.00    -0.192 C  
HETATM   16  C   UNL     1     -10.953   8.614  70.444  1.00  0.00    -0.235 C  
HETATM   17  C   UNL     1     -10.308  10.705  69.324  1.00  0.00    -0.218 C  
HETATM   18  N   UNL     1     -10.574   7.252  70.752  1.00  0.00    -0.220 NA 
HETATM   19  C   UNL     1     -11.409   6.381  69.861  1.00  0.00    -0.434 C  
ENDROOT
BRANCH  17  20
HETATM   20  N   UNL     1     -11.212  11.218  68.345  1.00  0.00    -0.237 N  
HETATM   21  H   UNL     1     -12.074  10.745  68.076  1.00  0.00     0.000 HD 
HETATM   22  C   UNL     1     -10.810  12.398  67.804  1.00  0.00    -0.225 C  
HETATM   23  O   UNL     1      -9.644  12.688  67.564  1.00  0.00    -0.178 OA 
BRANCH  22  24
HETATM   24  O   UNL     1     -11.858  13.224  67.746  1.00  0.00    -0.342 OA 
BRANCH  24  25
HETATM   25  C   UNL     1     -11.546  14.591  68.099  1.00  0.00    -0.331 C  
BRANCH  25  26
HETATM   26  C   UNL     1     -11.861  14.831  69.538  1.00  0.00    -0.366 A  
HETATM   27  C   UNL     1     -12.618  13.894  70.238  1.00  0.00    -0.328 A  
HETATM   28  C   UNL     1     -12.860  14.064  71.597  1.00  0.00    -0.433 A  
HETATM   29  C   UNL     1     -12.350  15.177  72.264  1.00  0.00    -0.443 A  
HETATM   30  C   UNL     1     -11.602  16.126  71.569  1.00  0.00    -0.502 A  
HETATM   31  C   UNL     1     -11.356  15.956  70.208  1.00  0.00    -0.381 A  
ENDBRANCH  25  26
ENDBRANCH  24  25
ENDBRANCH  22  24
ENDBRANCH  17  20
TORSDOF 4
ENDMDL
MODEL       80
REMARK 921   NORMALIZED FREE ENERGY PREDICTED BY IDOCK:   -5.46 KCAL/MOL
REMARK 922        TOTAL FREE ENERGY PREDICTED BY IDOCK:   -7.31 KCAL/MOL
REMARK 923 INTER-LIGAND FREE ENERGY PREDICTED BY IDOCK:   -6.89 KCAL/MOL
REMARK 924 INTRA-LIGAND FREE ENERGY PREDICTED BY IDOCK:   -0.42 KCAL/MOL
REMARK 927      BINDING AFFINITY PREDICTED BY RF-SCORE:    0.00 PKD
ROOT
HETATM    1  C   UNL     1      -8.913   8.351  68.703  1.00  0.00    -0.140 C  
HETATM    2  C   UNL     1      -7.845   7.297  68.949  1.00  0.00    -0.118 C  
HETATM    3  C   UNL     1      -8.188   6.693  70.193  1.00  0.00    -0.133 A  
HETATM    4  C   UNL     1      -7.400   6.290  71.220  1.00  0.00    -0.081 A  
HETATM    5  N   UNL     1      -8.255   6.014  72.249  1.00  0.00    -0.110 NA 
HETATM    6  C   UNL     1      -7.738   5.770  73.578  1.00  0.00    -0.101 C  
HETATM    7  C   UNL     1      -9.579   6.158  71.831  1.00  0.00    -0.153 A  
HETATM    8  C   UNL     1     -10.805   5.936  72.448  1.00  0.00    -0.288 A  
HETATM    9  C   UNL     1     -11.948   6.263  71.682  1.00  0.00    -0.272 A  
HETATM   10  C   UNL     1     -11.902   6.886  70.391  1.00  0.00    -0.351 A  
HETATM   11  C   UNL     1     -10.678   7.190  69.774  1.00  0.00    -0.257 A  
HETATM   12  C   UNL     1     -10.355   7.965  68.386  1.00  0.00    -0.235 C  
HETATM   13  C   UNL     1      -9.554   6.654  70.540  1.00  0.00    -0.177 A  
HETATM   14  C   UNL     1     -10.590   9.479  67.450  1.00  0.00    -0.337 C  
HETATM   15  C   UNL     1      -9.196  10.482  67.365  1.00  0.00    -0.154 C  
HETATM   16  C   UNL     1      -8.633  10.725  68.769  1.00  0.00    -0.156 C  
HETATM   17  C   UNL     1      -8.666  11.628  66.483  1.00  0.00    -0.182 C  
HETATM   18  N   UNL     1      -8.918   9.584  69.612  1.00  0.00    -0.173 NA 
HETATM   19  C   UNL     1     -10.171   9.929  70.362  1.00  0.00    -0.236 C  
ENDROOT
BRANCH  17  20
HETATM   20  N   UNL     1      -9.401  12.835  66.276  1.00  0.00    -0.391 N  
HETATM   21  H   UNL     1     -10.235  12.889  65.692  1.00  0.00     0.000 HD 
HETATM   22  C   UNL     1      -8.881  13.905  66.934  1.00  0.00    -0.193 C  
HETATM   23  O   UNL     1      -7.681  14.106  67.087  1.00  0.00    -0.147 OA 
BRANCH  22  24
HETATM   24  O   UNL     1      -9.876  14.580  67.512  1.00  0.00    -0.220 OA 
BRANCH  24  25
HETATM   25  C   UNL     1      -9.437  15.526  68.514  1.00  0.00    -0.200 C  
BRANCH  25  26
HETATM   26  C   UNL     1      -9.539  16.917  67.982  1.00  0.00    -0.247 A  
HETATM   27  C   UNL     1      -8.723  17.913  68.514  1.00  0.00    -0.297 A  
HETATM   28  C   UNL     1      -8.751  19.199  67.981  1.00  0.00    -0.347 A  
HETATM   29  C   UNL     1      -9.601  19.496  66.917  1.00  0.00    -0.440 A  
HETATM   30  C   UNL     1     -10.429  18.508  66.386  1.00  0.00    -0.443 A  
HETATM   31  C   UNL     1     -10.400  17.219  66.916  1.00  0.00    -0.310 A  
ENDBRANCH  25  26
ENDBRANCH  24  25
ENDBRANCH  22  24
ENDBRANCH  17  20
TORSDOF 4
ENDMDL
MODEL       81
REMARK 921   NORMALIZED FREE ENERGY PREDICTED BY IDOCK:   -5.42 KCAL/MOL
REMARK 922        TOTAL FREE ENERGY PREDICTED BY IDOCK:   -7.27 KCAL/MOL
REMARK 923 INTER-LIGAND FREE ENERGY PREDICTED BY IDOCK:   -6.14 KCAL/MOL
REMARK 924 INTRA-LIGAND FREE ENERGY PREDICTED BY IDOCK:   -1.13 KCAL/MOL
REMARK 927      BINDING AFFINITY PREDICTED BY RF-SCORE:    0.00 PKD
ROOT
HETATM    1  C   UNL     1     -11.128  12.837  68.718  1.00  0.00    -0.260 C  
HETATM    2  C   UNL     1     -11.654  13.938  69.626  1.00  0.00    -0.347 C  
HETATM    3  C   UNL     1     -11.294  15.160  68.987  1.00  0.00    -0.307 A  
HETATM    4  C   UNL     1     -10.840  16.325  69.512  1.00  0.00    -0.342 A  
HETATM    5  N   UNL     1     -10.424  17.067  68.444  1.00  0.00    -0.348 NA 
HETATM    6  C   UNL     1      -9.672  18.285  68.655  1.00  0.00    -0.361 C  
HETATM    7  C   UNL     1     -10.706  16.402  67.251  1.00  0.00    -0.257 A  
HETATM    8  C   UNL     1     -10.557  16.739  65.910  1.00  0.00    -0.255 A  
HETATM    9  C   UNL     1     -10.922  15.739  64.979  1.00  0.00    -0.431 A  
HETATM   10  C   UNL     1     -11.323  14.409  65.340  1.00  0.00    -0.339 A  
HETATM   11  C   UNL     1     -11.412  14.017  66.684  1.00  0.00    -0.377 A  
HETATM   12  C   UNL     1     -11.743  12.573  67.347  1.00  0.00    -0.432 C  
HETATM   13  C   UNL     1     -11.203  15.153  67.580  1.00  0.00    -0.329 A  
HETATM   14  C   UNL     1     -11.271  10.843  67.431  1.00  0.00    -0.345 C  
HETATM   15  C   UNL     1     -10.474  10.397  68.887  1.00  0.00    -0.232 C  
HETATM   16  C   UNL     1      -9.309  11.350  69.166  1.00  0.00     0.161 C  
HETATM   17  C   UNL     1     -10.175   9.108  69.676  1.00  0.00    -0.203 C  
HETATM   18  N   UNL     1      -9.609  12.658  68.624  1.00  0.00    -0.091 NA 
HETATM   19  C   UNL     1      -8.955  12.705  67.275  1.00  0.00    -0.194 C  
ENDROOT
BRANCH  17  20
HETATM   20  N   UNL     1      -9.483   8.001  69.098  1.00  0.00    -0.155 N  
HETATM   21  H   UNL     1      -9.601   7.712  68.127  1.00  0.00     0.000 HD 
HETATM   22  C   UNL     1      -8.651   7.369  69.967  1.00  0.00    -0.140 C  
HETATM   23  O   UNL     1      -8.891   7.202  71.158  1.00  0.00    -0.142 OA 
BRANCH  22  24
HETATM   24  O   UNL     1      -7.491   7.127  69.354  1.00  0.00    -0.091 OA 
BRANCH  24  25
HETATM   25  C   UNL     1      -6.361   7.807  69.947  1.00  0.00    -0.030 C  
BRANCH  25  26
HETATM   26  C   UNL     1      -6.141   9.118  69.267  1.00  0.00    -0.041 A  
HETATM   27  C   UNL     1      -5.820  10.238  70.030  1.00  0.00    -0.057 A  
HETATM   28  C   UNL     1      -5.539  11.451  69.409  1.00  0.00    -0.051 A  
HETATM   29  C   UNL     1      -5.582  11.551  68.019  1.00  0.00    -0.043 A  
HETATM   30  C   UNL     1      -5.914  10.438  67.248  1.00  0.00    -0.053 A  
HETATM   31  C   UNL     1      -6.193   9.222  67.868  1.00  0.00    -0.050 A  
ENDBRANCH  25  26
ENDBRANCH  24  25
ENDBRANCH  22  24
ENDBRANCH  17  20
TORSDOF 4
ENDMDL
MODEL       82
REMARK 921   NORMALIZED FREE ENERGY PREDICTED BY IDOCK:   -5.41 KCAL/MOL
REMARK 922        TOTAL FREE ENERGY PREDICTED BY IDOCK:   -7.26 KCAL/MOL
REMARK 923 INTER-LIGAND FREE ENERGY PREDICTED BY IDOCK:   -6.23 KCAL/MOL
REMARK 924 INTRA-LIGAND FREE ENERGY PREDICTED BY IDOCK:   -1.03 KCAL/MOL
REMARK 927      BINDING AFFINITY PREDICTED BY RF-SCORE:    0.00 PKD
ROOT
HETATM    1  C   UNL     1      -7.671   8.795  68.003  1.00  0.00    -0.101 C  
HETATM    2  C   UNL     1      -6.630   8.739  66.896  1.00  0.00    -0.061 C  
HETATM    3  C   UNL     1      -7.346   8.990  65.689  1.00  0.00    -0.086 A  
HETATM    4  C   UNL     1      -7.223   8.428  64.461  1.00  0.00    -0.087 A  
HETATM    5  N   UNL     1      -8.309   8.859  63.753  1.00  0.00    -0.176 NA 
HETATM    6  C   UNL     1      -8.616   8.272  62.467  1.00  0.00    -0.026 C  
HETATM    7  C   UNL     1      -9.055   9.762  64.512  1.00  0.00    -0.249 A  
HETATM    8  C   UNL     1     -10.184  10.528  64.246  1.00  0.00    -0.314 A  
HETATM    9  C   UNL     1     -10.677  11.294  65.327  1.00  0.00    -0.302 A  
HETATM   10  C   UNL     1     -10.151  11.239  66.661  1.00  0.00    -0.251 A  
HETATM   11  C   UNL     1      -9.057  10.418  66.976  1.00  0.00    -0.153 A  
HETATM   12  C   UNL     1      -8.342  10.107  68.400  1.00  0.00    -0.113 C  
HETATM   13  C   UNL     1      -8.492   9.807  65.774  1.00  0.00    -0.141 A  
HETATM   14  C   UNL     1      -8.585   9.515  70.077  1.00  0.00    -0.234 C  
HETATM   15  C   UNL     1      -7.967   7.937  70.366  1.00  0.00    -0.097 C  
HETATM   16  C   UNL     1      -8.487   6.963  69.305  1.00  0.00    -0.129 C  
HETATM   17  C   UNL     1      -7.553   7.078  71.575  1.00  0.00    -0.089 C  
HETATM   18  N   UNL     1      -8.708   7.669  68.062  1.00  0.00    -0.126 NA 
HETATM   19  C   UNL     1     -10.166   8.023  68.044  1.00  0.00    -0.210 C  
ENDROOT
BRANCH  17  20
HETATM   20  N   UNL     1      -8.445   6.798  72.655  1.00  0.00    -0.121 N  
HETATM   21  H   UNL     1      -8.587   7.430  73.442  1.00  0.00     0.000 HD 
HETATM   22  C   UNL     1      -9.087   5.606  72.532  1.00  0.00    -0.136 C  
HETATM   23  O   UNL     1      -8.578   4.591  72.069  1.00  0.00    -0.110 OA 
BRANCH  22  24
HETATM   24  O   UNL     1     -10.375   5.778  72.834  1.00  0.00    -0.184 OA 
BRANCH  24  25
HETATM   25  C   UNL     1     -11.242   5.849  71.679  1.00  0.00    -0.237 C  
BRANCH  25  26
HETATM   26  C   UNL     1     -12.146   7.033  71.792  1.00  0.00    -0.371 A  
HETATM   27  C   UNL     1     -11.605   8.279  72.101  1.00  0.00    -0.428 A  
HETATM   28  C   UNL     1     -12.421   9.405  72.138  1.00  0.00    -0.396 A  
HETATM   29  C   UNL     1     -13.784   9.290  71.871  1.00  0.00    -0.464 A  
HETATM   30  C   UNL     1     -14.336   8.045  71.573  1.00  0.00    -0.546 A  
HETATM   31  C   UNL     1     -13.521   6.916  71.533  1.00  0.00    -0.290 A  
ENDBRANCH  25  26
ENDBRANCH  24  25
ENDBRANCH  22  24
ENDBRANCH  17  20
TORSDOF 4
ENDMDL
MODEL       83
REMARK 921   NORMALIZED FREE ENERGY PREDICTED BY IDOCK:   -5.41 KCAL/MOL
REMARK 922        TOTAL FREE ENERGY PREDICTED BY IDOCK:   -7.25 KCAL/MOL
REMARK 923 INTER-LIGAND FREE ENERGY PREDICTED BY IDOCK:   -6.91 KCAL/MOL
REMARK 924 INTRA-LIGAND FREE ENERGY PREDICTED BY IDOCK:   -0.35 KCAL/MOL
REMARK 927      BINDING AFFINITY PREDICTED BY RF-SCORE:    0.00 PKD
ROOT
HETATM    1  C   UNL     1     -11.095  12.829  66.914  1.00  0.00    -0.270 C  
HETATM    2  C   UNL     1     -12.268  12.921  67.877  1.00  0.00    -0.029 C  
HETATM    3  C   UNL     1     -12.043  14.104  68.638  1.00  0.00    -0.320 A  
HETATM    4  C   UNL     1     -12.236  14.350  69.958  1.00  0.00    -0.351 A  
HETATM    5  N   UNL     1     -11.630  15.551  70.197  1.00  0.00    -0.307 NA 
HETATM    6  C   UNL     1     -11.448  16.015  71.555  1.00  0.00    -0.385 C  
HETATM    7  C   UNL     1     -11.144  16.094  69.007  1.00  0.00    -0.336 A  
HETATM    8  C   UNL     1     -10.523  17.297  68.689  1.00  0.00    -0.356 A  
HETATM    9  C   UNL     1     -10.123  17.446  67.341  1.00  0.00    -0.321 A  
HETATM   10  C   UNL     1     -10.229  16.414  66.349  1.00  0.00    -0.325 A  
HETATM   11  C   UNL     1     -10.784  15.163  66.659  1.00  0.00    -0.310 A  
HETATM   12  C   UNL     1     -10.930  13.817  65.764  1.00  0.00    -0.280 C  
HETATM   13  C   UNL     1     -11.340  15.153  68.012  1.00  0.00    -0.346 A  
HETATM   14  C   UNL     1     -10.056  12.590  64.789  1.00  0.00    -0.251 C  
HETATM   15  C   UNL     1      -9.895  11.061  65.557  1.00  0.00    -0.292 C  
HETATM   16  C   UNL     1      -9.314  11.234  66.964  1.00  0.00    -0.172 C  
HETATM   17  C   UNL     1      -9.610   9.603  65.150  1.00  0.00    -0.254 C  
HETATM   18  N   UNL     1      -9.716  12.516  67.502  1.00  0.00    -0.193 NA 
HETATM   19  C   UNL     1      -8.578  13.454  67.223  1.00  0.00    -0.213 C  
ENDROOT
BRANCH  17  20
HETATM   20  N   UNL     1      -8.441   9.227  64.422  1.00  0.00    -0.178 N  
HETATM   21  H   UNL     1      -7.540   9.046  64.865  1.00  0.00     0.000 HD 
HETATM   22  C   UNL     1      -8.644   9.134  63.082  1.00  0.00    -0.181 C  
HETATM   23  O   UNL     1      -9.377   9.878  62.440  1.00  0.00    -0.292 OA 
BRANCH  22  24
HETATM   24  O   UNL     1      -8.061   8.020  62.634  1.00  0.00    -0.158 OA 
BRANCH  24  25
HETATM   25  C   UNL     1      -7.433   7.231  63.670  1.00  0.00    -0.097 C  
BRANCH  25  26
HETATM   26  C   UNL     1      -8.128   5.916  63.803  1.00  0.00    -0.095 A  
HETATM   27  C   UNL     1      -8.631   5.291  62.665  1.00  0.00    -0.089 A  
HETATM   28  C   UNL     1      -9.216   4.032  62.759  1.00  0.00    -0.116 A  
HETATM   29  C   UNL     1      -9.306   3.394  63.995  1.00  0.00    -0.129 A  
HETATM   30  C   UNL     1      -8.816   4.017  65.141  1.00  0.00    -0.127 A  
HETATM   31  C   UNL     1      -8.227   5.277  65.049  1.00  0.00    -0.134 A  
ENDBRANCH  25  26
ENDBRANCH  24  25
ENDBRANCH  22  24
ENDBRANCH  17  20
TORSDOF 4
ENDMDL
MODEL       84
REMARK 921   NORMALIZED FREE ENERGY PREDICTED BY IDOCK:   -5.40 KCAL/MOL
REMARK 922        TOTAL FREE ENERGY PREDICTED BY IDOCK:   -7.24 KCAL/MOL
REMARK 923 INTER-LIGAND FREE ENERGY PREDICTED BY IDOCK:   -6.24 KCAL/MOL
REMARK 924 INTRA-LIGAND FREE ENERGY PREDICTED BY IDOCK:   -1.00 KCAL/MOL
REMARK 927      BINDING AFFINITY PREDICTED BY RF-SCORE:    0.00 PKD
ROOT
HETATM    1  C   UNL     1     -10.120  11.168  66.942  1.00  0.00    -0.214 C  
HETATM    2  C   UNL     1     -11.327  12.040  66.636  1.00  0.00    -0.399 C  
HETATM    3  C   UNL     1     -11.177  13.197  67.455  1.00  0.00    -0.319 A  
HETATM    4  C   UNL     1     -12.100  13.906  68.151  1.00  0.00    -0.282 A  
HETATM    5  N   UNL     1     -11.383  14.753  68.947  1.00  0.00    -0.267 NA 
HETATM    6  C   UNL     1     -12.046  15.505  69.990  1.00  0.00    -0.368 C  
HETATM    7  C   UNL     1     -10.019  14.635  68.677  1.00  0.00    -0.234 A  
HETATM    8  C   UNL     1      -8.891  15.301  69.144  1.00  0.00    -0.238 A  
HETATM    9  C   UNL     1      -7.652  14.833  68.650  1.00  0.00    -0.126 A  
HETATM   10  C   UNL     1      -7.502  13.682  67.806  1.00  0.00    -0.172 A  
HETATM   11  C   UNL     1      -8.617  12.946  67.378  1.00  0.00    -0.195 A  
HETATM   12  C   UNL     1      -8.714  11.575  66.514  1.00  0.00    -0.183 C  
HETATM   13  C   UNL     1      -9.864  13.599  67.774  1.00  0.00    -0.232 A  
HETATM   14  C   UNL     1      -8.210   9.856  66.411  1.00  0.00    -0.117 C  
HETATM   15  C   UNL     1      -9.456   8.730  66.777  1.00  0.00    -0.249 C  
HETATM   16  C   UNL     1     -10.111   9.084  68.116  1.00  0.00    -0.191 C  
HETATM   17  C   UNL     1      -9.758   7.241  66.530  1.00  0.00    -0.140 C  
HETATM   18  N   UNL     1     -10.048  10.514  68.326  1.00  0.00    -0.156 NA 
HETATM   19  C   UNL     1      -8.836  10.752  69.178  1.00  0.00    -0.086 C  
ENDROOT
BRANCH  17  20
HETATM   20  N   UNL     1      -8.865   6.202  66.935  1.00  0.00    -0.116 N  
HETATM   21  H   UNL     1      -7.850   6.289  66.892  1.00  0.00     0.000 HD 
HETATM   22  C   UNL     1      -9.499   5.087  67.382  1.00  0.00    -0.137 C  
HETATM   23  O   UNL     1     -10.544   4.650  66.913  1.00  0.00    -0.110 OA 
BRANCH  22  24
HETATM   24  O   UNL     1      -8.896   4.666  68.496  1.00  0.00    -0.097 OA 
BRANCH  24  25
HETATM   25  C   UNL     1      -9.791   4.498  69.619  1.00  0.00    -0.218 C  
BRANCH  25  26
HETATM   26  C   UNL     1      -9.789   5.731  70.462  1.00  0.00    -0.240 A  
HETATM   27  C   UNL     1      -8.632   6.502  70.542  1.00  0.00    -0.143 A  
HETATM   28  C   UNL     1      -8.633   7.692  71.263  1.00  0.00    -0.124 A  
HETATM   29  C   UNL     1      -9.792   8.114  71.913  1.00  0.00    -0.276 A  
HETATM   30  C   UNL     1     -10.951   7.343  71.848  1.00  0.00    -0.267 A  
HETATM   31  C   UNL     1     -10.953   6.152  71.124  1.00  0.00    -0.343 A  
ENDBRANCH  25  26
ENDBRANCH  24  25
ENDBRANCH  22  24
ENDBRANCH  17  20
TORSDOF 4
ENDMDL
MODEL       85
REMARK 921   NORMALIZED FREE ENERGY PREDICTED BY IDOCK:   -5.39 KCAL/MOL
REMARK 922        TOTAL FREE ENERGY PREDICTED BY IDOCK:   -7.23 KCAL/MOL
REMARK 923 INTER-LIGAND FREE ENERGY PREDICTED BY IDOCK:   -6.89 KCAL/MOL
REMARK 924 INTRA-LIGAND FREE ENERGY PREDICTED BY IDOCK:   -0.34 KCAL/MOL
REMARK 927      BINDING AFFINITY PREDICTED BY RF-SCORE:    0.00 PKD
ROOT
HETATM    1  C   UNL     1     -10.101   6.408  69.632  1.00  0.00    -0.175 C  
HETATM    2  C   UNL     1      -9.919   5.030  69.015  1.00  0.00    -0.251 C  
HETATM    3  C   UNL     1      -9.548   4.177  70.095  1.00  0.00    -0.272 A  
HETATM    4  C   UNL     1      -8.641   3.170  70.147  1.00  0.00    -0.060 A  
HETATM    5  N   UNL     1      -8.516   2.862  71.472  1.00  0.00    -0.063 NA 
HETATM    6  C   UNL     1      -7.460   1.978  71.915  1.00  0.00    -0.040 C  
HETATM    7  C   UNL     1      -9.413   3.614  72.232  1.00  0.00    -0.129 A  
HETATM    8  C   UNL     1      -9.734   3.637  73.585  1.00  0.00    -0.143 A  
HETATM    9  C   UNL     1     -10.683   4.609  73.976  1.00  0.00    -0.352 A  
HETATM   10  C   UNL     1     -11.230   5.603  73.097  1.00  0.00    -0.285 A  
HETATM   11  C   UNL     1     -10.867   5.651  71.742  1.00  0.00    -0.301 A  
HETATM   12  C   UNL     1     -11.260   6.711  70.577  1.00  0.00    -0.388 C  
HETATM   13  C   UNL     1     -10.034   4.506  71.377  1.00  0.00    -0.259 A  
HETATM   14  C   UNL     1     -11.251   8.439  70.088  1.00  0.00    -0.136 C  
HETATM   15  C   UNL     1     -10.078   8.830  68.894  1.00  0.00    -0.210 C  
HETATM   16  C   UNL     1      -8.698   8.320  69.320  1.00  0.00    -0.139 C  
HETATM   17  C   UNL     1      -9.826   9.947  67.865  1.00  0.00    -0.143 C  
HETATM   18  N   UNL     1      -8.848   7.133  70.134  1.00  0.00    -0.145 NA 
HETATM   19  C   UNL     1      -8.803   7.602  71.559  1.00  0.00    -0.124 C  
ENDROOT
BRANCH  17  20
HETATM   20  N   UNL     1      -9.731  11.322  68.238  1.00  0.00    -0.191 N  
HETATM   21  H   UNL     1      -8.870  11.753  68.575  1.00  0.00     0.000 HD 
HETATM   22  C   UNL     1     -10.900  12.003  68.100  1.00  0.00    -0.221 C  
HETATM   23  O   UNL     1     -12.007  11.530  68.330  1.00  0.00    -0.511 OA 
BRANCH  22  24
HETATM   24  O   UNL     1     -10.647  13.179  67.522  1.00  0.00    -0.232 OA 
BRANCH  24  25
HETATM   25  C   UNL     1     -11.204  14.310  68.230  1.00  0.00    -0.276 C  
BRANCH  25  26
HETATM   26  C   UNL     1     -10.698  15.583  67.637  1.00  0.00    -0.302 A  
HETATM   27  C   UNL     1     -11.141  16.800  68.150  1.00  0.00    -0.254 A  
HETATM   28  C   UNL     1     -10.625  17.996  67.660  1.00  0.00    -0.413 A  
HETATM   29  C   UNL     1      -9.666  17.980  66.648  1.00  0.00    -0.332 A  
HETATM   30  C   UNL     1      -9.226  16.768  66.120  1.00  0.00    -0.284 A  
HETATM   31  C   UNL     1      -9.739  15.569  66.612  1.00  0.00    -0.264 A  
ENDBRANCH  25  26
ENDBRANCH  24  25
ENDBRANCH  22  24
ENDBRANCH  17  20
TORSDOF 4
ENDMDL
MODEL       86
REMARK 921   NORMALIZED FREE ENERGY PREDICTED BY IDOCK:   -5.38 KCAL/MOL
REMARK 922        TOTAL FREE ENERGY PREDICTED BY IDOCK:   -7.22 KCAL/MOL
REMARK 923 INTER-LIGAND FREE ENERGY PREDICTED BY IDOCK:   -6.25 KCAL/MOL
REMARK 924 INTRA-LIGAND FREE ENERGY PREDICTED BY IDOCK:   -0.97 KCAL/MOL
REMARK 927      BINDING AFFINITY PREDICTED BY RF-SCORE:    0.00 PKD
ROOT
HETATM    1  C   UNL     1     -11.852   8.423  71.444  1.00  0.00    -0.296 C  
HETATM    2  C   UNL     1     -13.076   9.210  71.886  1.00  0.00    -0.478 C  
HETATM    3  C   UNL     1     -12.884  10.528  71.379  1.00  0.00    -0.551 A  
HETATM    4  C   UNL     1     -13.147  11.733  71.942  1.00  0.00    -0.376 A  
HETATM    5  N   UNL     1     -12.547  12.653  71.130  1.00  0.00    -0.331 NA 
HETATM    6  C   UNL     1     -12.436  14.032  71.553  1.00  0.00    -0.322 C  
HETATM    7  C   UNL     1     -11.990  12.026  70.015  1.00  0.00    -0.324 A  
HETATM    8  C   UNL     1     -11.344  12.497  68.878  1.00  0.00    -0.346 A  
HETATM    9  C   UNL     1     -10.869  11.507  67.985  1.00  0.00    -0.259 A  
HETATM   10  C   UNL     1     -10.927  10.096  68.239  1.00  0.00    -0.299 A  
HETATM   11  C   UNL     1     -11.508   9.594  69.414  1.00  0.00     0.048 A  
HETATM   12  C   UNL     1     -11.616   8.076  69.978  1.00  0.00     0.165 C  
HETATM   13  C   UNL     1     -12.139  10.661  70.189  1.00  0.00    -0.414 A  
HETATM   14  C   UNL     1     -10.699   6.603  70.439  1.00  0.00    -0.297 C  
HETATM   15  C   UNL     1     -10.593   6.338  72.134  1.00  0.00    -0.256 C  
HETATM   16  C   UNL     1     -10.090   7.603  72.837  1.00  0.00    -0.286 C  
HETATM   17  C   UNL     1     -10.298   5.168  73.090  1.00  0.00    -0.195 C  
HETATM   18  N   UNL     1     -10.510   8.772  72.095  1.00  0.00    -0.339 NA 
HETATM   19  C   UNL     1      -9.351   9.140  71.215  1.00  0.00    -0.215 C  
ENDROOT
BRANCH  17  20
HETATM   20  N   UNL     1      -9.093   4.405  73.016  1.00  0.00    -0.119 N  
HETATM   21  H   UNL     1      -9.054   3.453  72.652  1.00  0.00     0.000 HD 
HETATM   22  C   UNL     1      -8.001   5.071  73.477  1.00  0.00    -0.107 C  
HETATM   23  O   UNL     1      -8.012   5.838  74.433  1.00  0.00    -0.104 OA 
BRANCH  22  24
HETATM   24  O   UNL     1      -6.990   4.881  72.627  1.00  0.00    -0.070 OA 
BRANCH  24  25
HETATM   25  C   UNL     1      -7.387   4.296  71.366  1.00  0.00    -0.051 C  
BRANCH  25  26
HETATM   26  C   UNL     1      -7.276   5.309  70.275  1.00  0.00    -0.062 A  
HETATM   27  C   UNL     1      -7.884   5.059  69.047  1.00  0.00    -0.080 A  
HETATM   28  C   UNL     1      -7.854   6.023  68.043  1.00  0.00    -0.106 A  
HETATM   29  C   UNL     1      -7.211   7.240  68.262  1.00  0.00    -0.094 A  
HETATM   30  C   UNL     1      -6.590   7.493  69.484  1.00  0.00    -0.036 A  
HETATM   31  C   UNL     1      -6.621   6.531  70.491  1.00  0.00    -0.049 A  
ENDBRANCH  25  26
ENDBRANCH  24  25
ENDBRANCH  22  24
ENDBRANCH  17  20
TORSDOF 4
ENDMDL
MODEL       87
REMARK 921   NORMALIZED FREE ENERGY PREDICTED BY IDOCK:   -5.37 KCAL/MOL
REMARK 922        TOTAL FREE ENERGY PREDICTED BY IDOCK:   -7.21 KCAL/MOL
REMARK 923 INTER-LIGAND FREE ENERGY PREDICTED BY IDOCK:   -6.91 KCAL/MOL
REMARK 924 INTRA-LIGAND FREE ENERGY PREDICTED BY IDOCK:   -0.30 KCAL/MOL
REMARK 927      BINDING AFFINITY PREDICTED BY RF-SCORE:    0.00 PKD
ROOT
HETATM    1  C   UNL     1     -10.952  12.854  69.038  1.00  0.00    -0.197 C  
HETATM    2  C   UNL     1     -10.608  14.248  69.541  1.00  0.00    -0.037 C  
HETATM    3  C   UNL     1     -10.306  15.009  68.374  1.00  0.00    -0.231 A  
HETATM    4  C   UNL     1      -9.345  15.940  68.157  1.00  0.00    -0.198 A  
HETATM    5  N   UNL     1      -9.351  16.162  66.809  1.00  0.00    -0.222 NA 
HETATM    6  C   UNL     1      -8.295  16.938  66.197  1.00  0.00    -0.251 C  
HETATM    7  C   UNL     1     -10.378  15.438  66.203  1.00  0.00    -0.313 A  
HETATM    8  C   UNL     1     -10.853  15.363  64.898  1.00  0.00    -0.445 A  
HETATM    9  C   UNL     1     -11.904  14.443  64.678  1.00  0.00    -0.460 A  
HETATM   10  C   UNL     1     -12.413  13.544  65.674  1.00  0.00    -0.528 A  
HETATM   11  C   UNL     1     -11.902  13.546  66.981  1.00  0.00    -0.447 A  
HETATM   12  C   UNL     1     -12.229  12.586  68.248  1.00  0.00     0.089 C  
HETATM   13  C   UNL     1     -10.957  14.645  67.178  1.00  0.00    -0.316 A  
HETATM   14  C   UNL     1     -12.282  10.893  68.844  1.00  0.00    -0.040 C  
HETATM   15  C   UNL     1     -11.010  10.484  69.925  1.00  0.00    -0.359 C  
HETATM   16  C   UNL     1      -9.656  10.864  69.317  1.00  0.00    -0.044 C  
HETATM   17  C   UNL     1     -10.718   9.411  70.990  1.00  0.00    -0.337 C  
HETATM   18  N   UNL     1      -9.817  12.011  68.449  1.00  0.00    -0.211 NA 
HETATM   19  C   UNL     1      -9.967  11.460  67.062  1.00  0.00    -0.201 C  
ENDROOT
BRANCH  17  20
HETATM   20  N   UNL     1     -10.760   8.013  70.698  1.00  0.00    -0.224 N  
HETATM   21  H   UNL     1     -10.992   7.640  69.778  1.00  0.00     0.000 HD 
HETATM   22  C   UNL     1     -10.460   7.228  71.767  1.00  0.00    -0.197 C  
HETATM   23  O   UNL     1     -10.789   7.476  72.921  1.00  0.00    -0.307 OA 
BRANCH  22  24
HETATM   24  O   UNL     1      -9.625   6.265  71.372  1.00  0.00    -0.157 OA 
BRANCH  24  25
HETATM   25  C   UNL     1     -10.238   5.273  70.517  1.00  0.00    -0.264 C  
BRANCH  25  26
HETATM   26  C   UNL     1      -9.714   5.405  69.125  1.00  0.00    -0.217 A  
HETATM   27  C   UNL     1      -8.361   5.185  68.880  1.00  0.00    -0.087 A  
HETATM   28  C   UNL     1      -7.869   5.232  67.579  1.00  0.00    -0.096 A  
HETATM   29  C   UNL     1      -8.729   5.505  66.517  1.00  0.00    -0.119 A  
HETATM   30  C   UNL     1     -10.082   5.739  66.754  1.00  0.00    -0.235 A  
HETATM   31  C   UNL     1     -10.578   5.690  68.055  1.00  0.00    -0.260 A  
ENDBRANCH  25  26
ENDBRANCH  24  25
ENDBRANCH  22  24
ENDBRANCH  17  20
TORSDOF 4
ENDMDL
MODEL       88
REMARK 921   NORMALIZED FREE ENERGY PREDICTED BY IDOCK:   -5.35 KCAL/MOL
REMARK 922        TOTAL FREE ENERGY PREDICTED BY IDOCK:   -7.18 KCAL/MOL
REMARK 923 INTER-LIGAND FREE ENERGY PREDICTED BY IDOCK:   -6.09 KCAL/MOL
REMARK 924 INTRA-LIGAND FREE ENERGY PREDICTED BY IDOCK:   -1.10 KCAL/MOL
REMARK 927      BINDING AFFINITY PREDICTED BY RF-SCORE:    0.00 PKD
ROOT
HETATM    1  C   UNL     1     -10.954   9.429  69.949  1.00  0.00    -0.229 C  
HETATM    2  C   UNL     1     -11.605  10.792  69.774  1.00  0.00    -0.393 C  
HETATM    3  C   UNL     1     -10.936  11.393  68.669  1.00  0.00    -0.267 A  
HETATM    4  C   UNL     1     -10.535  12.674  68.475  1.00  0.00    -0.234 A  
HETATM    5  N   UNL     1      -9.736  12.642  67.368  1.00  0.00    -0.196 NA 
HETATM    6  C   UNL     1      -8.953  13.803  67.004  1.00  0.00    -0.238 C  
HETATM    7  C   UNL     1      -9.716  11.359  66.821  1.00  0.00    -0.198 A  
HETATM    8  C   UNL     1      -9.132  10.814  65.683  1.00  0.00    -0.215 A  
HETATM    9  C   UNL     1      -9.307   9.422  65.507  1.00  0.00    -0.315 A  
HETATM   10  C   UNL     1      -9.943   8.561  66.463  1.00  0.00    -0.350 A  
HETATM   11  C   UNL     1     -10.477   9.072  67.656  1.00  0.00    -0.324 A  
HETATM   12  C   UNL     1     -11.151   8.316  68.924  1.00  0.00     0.260 C  
HETATM   13  C   UNL     1     -10.424  10.533  67.676  1.00  0.00    -0.276 A  
HETATM   14  C   UNL     1     -10.921   7.064  70.190  1.00  0.00    -0.306 C  
HETATM   15  C   UNL     1     -10.657   7.693  71.768  1.00  0.00    -0.250 C  
HETATM   16  C   UNL     1      -9.532   8.732  71.741  1.00  0.00    -0.293 C  
HETATM   17  C   UNL     1     -10.755   7.202  73.224  1.00  0.00    -0.361 C  
HETATM   18  N   UNL     1      -9.508   9.390  70.452  1.00  0.00    -0.251 NA 
HETATM   19  C   UNL     1      -8.475   8.666  69.639  1.00  0.00    -0.129 C  
ENDROOT
BRANCH  17  20
HETATM   20  N   UNL     1     -10.048   6.054  73.693  1.00  0.00    -0.196 N  
HETATM   21  H   UNL     1     -10.481   5.138  73.807  1.00  0.00     0.000 HD 
HETATM   22  C   UNL     1      -8.741   6.300  73.973  1.00  0.00    -0.124 C  
HETATM   23  O   UNL     1      -8.324   7.341  74.466  1.00  0.00    -0.173 OA 
BRANCH  22  24
HETATM   24  O   UNL     1      -7.999   5.310  73.471  1.00  0.00    -0.108 OA 
BRANCH  24  25
HETATM   25  C   UNL     1      -7.472   5.583  72.153  1.00  0.00    -0.099 C  
BRANCH  25  26
HETATM   26  C   UNL     1      -8.124   4.692  71.148  1.00  0.00    -0.088 A  
HETATM   27  C   UNL     1      -8.089   5.042  69.800  1.00  0.00    -0.074 A  
HETATM   28  C   UNL     1      -8.626   4.188  68.841  1.00  0.00    -0.110 A  
HETATM   29  C   UNL     1      -9.207   2.981  69.227  1.00  0.00    -0.218 A  
HETATM   30  C   UNL     1      -9.257   2.629  70.575  1.00  0.00    -0.206 A  
HETATM   31  C   UNL     1      -8.718   3.481  71.536  1.00  0.00    -0.127 A  
ENDBRANCH  25  26
ENDBRANCH  24  25
ENDBRANCH  22  24
ENDBRANCH  17  20
TORSDOF 4
ENDMDL
MODEL       89
REMARK 921   NORMALIZED FREE ENERGY PREDICTED BY IDOCK:   -5.33 KCAL/MOL
REMARK 922        TOTAL FREE ENERGY PREDICTED BY IDOCK:   -7.16 KCAL/MOL
REMARK 923 INTER-LIGAND FREE ENERGY PREDICTED BY IDOCK:   -7.21 KCAL/MOL
REMARK 924 INTRA-LIGAND FREE ENERGY PREDICTED BY IDOCK:    0.05 KCAL/MOL
REMARK 927      BINDING AFFINITY PREDICTED BY RF-SCORE:    0.00 PKD
ROOT
HETATM    1  C   UNL     1      -9.946  15.193  67.127  1.00  0.00    -0.237 C  
HETATM    2  C   UNL     1     -10.525  16.099  66.052  1.00  0.00    -0.349 C  
HETATM    3  C   UNL     1      -9.943  17.380  66.280  1.00  0.00    -0.306 A  
HETATM    4  C   UNL     1     -10.488  18.619  66.206  1.00  0.00    -0.424 A  
HETATM    5  N   UNL     1      -9.563  19.458  66.759  1.00  0.00    -0.326 NA 
HETATM    6  C   UNL     1      -9.909  20.833  67.047  1.00  0.00    -0.199 C  
HETATM    7  C   UNL     1      -8.406  18.752  67.092  1.00  0.00    -0.271 A  
HETATM    8  C   UNL     1      -7.170  19.131  67.604  1.00  0.00    -0.246 A  
HETATM    9  C   UNL     1      -6.260  18.078  67.858  1.00  0.00    -0.169 A  
HETATM   10  C   UNL     1      -6.577  16.686  67.716  1.00  0.00    -0.158 A  
HETATM   11  C   UNL     1      -7.841  16.271  67.271  1.00  0.00    -0.203 A  
HETATM   12  C   UNL     1      -8.476  14.785  67.117  1.00  0.00    -0.247 C  
HETATM   13  C   UNL     1      -8.655  17.412  66.853  1.00  0.00    -0.270 A  
HETATM   14  C   UNL     1      -8.861  13.249  67.962  1.00  0.00    -0.190 C  
HETATM   15  C   UNL     1     -10.533  13.023  68.290  1.00  0.00    -0.258 C  
HETATM   16  C   UNL     1     -11.105  14.255  68.996  1.00  0.00    -0.259 C  
HETATM   17  C   UNL     1     -11.484  11.857  68.619  1.00  0.00    -0.294 C  
HETATM   18  N   UNL     1     -10.384  15.436  68.574  1.00  0.00    -0.222 NA 
HETATM   19  C   UNL     1      -9.334  15.674  69.620  1.00  0.00    -0.217 C  
ENDROOT
BRANCH  17  20
HETATM   20  N   UNL     1     -11.270  10.986  69.731  1.00  0.00    -0.324 N  
HETATM   21  H   UNL     1     -11.685  11.139  70.650  1.00  0.00     0.000 HD 
HETATM   22  C   UNL     1     -10.459   9.934  69.446  1.00  0.00    -0.231 C  
HETATM   23  O   UNL     1      -9.487   9.992  68.701  1.00  0.00    -0.147 OA 
BRANCH  22  24
HETATM   24  O   UNL     1     -10.993   8.826  69.964  1.00  0.00    -0.245 OA 
BRANCH  24  25
HETATM   25  C   UNL     1     -10.064   7.723  70.071  1.00  0.00    -0.201 C  
BRANCH  25  26
HETATM   26  C   UNL     1      -9.904   7.061  68.742  1.00  0.00    -0.152 A  
HETATM   27  C   UNL     1      -8.637   6.654  68.330  1.00  0.00    -0.119 A  
HETATM   28  C   UNL     1      -8.478   5.970  67.129  1.00  0.00    -0.104 A  
HETATM   29  C   UNL     1      -9.587   5.693  66.330  1.00  0.00    -0.175 A  
HETATM   30  C   UNL     1     -10.857   6.107  66.730  1.00  0.00    -0.360 A  
HETATM   31  C   UNL     1     -11.019   6.790  67.933  1.00  0.00    -0.309 A  
ENDBRANCH  25  26
ENDBRANCH  24  25
ENDBRANCH  22  24
ENDBRANCH  17  20
TORSDOF 4
ENDMDL
MODEL       90
REMARK 921   NORMALIZED FREE ENERGY PREDICTED BY IDOCK:   -5.28 KCAL/MOL
REMARK 922        TOTAL FREE ENERGY PREDICTED BY IDOCK:   -7.09 KCAL/MOL
REMARK 923 INTER-LIGAND FREE ENERGY PREDICTED BY IDOCK:   -6.44 KCAL/MOL
REMARK 924 INTRA-LIGAND FREE ENERGY PREDICTED BY IDOCK:   -0.65 KCAL/MOL
REMARK 927      BINDING AFFINITY PREDICTED BY RF-SCORE:    0.00 PKD
ROOT
HETATM    1  C   UNL     1      -9.487   5.897  68.359  1.00  0.00    -0.120 C  
HETATM    2  C   UNL     1      -9.090   4.455  68.638  1.00  0.00    -0.171 C  
HETATM    3  C   UNL     1      -9.233   4.288  70.046  1.00  0.00    -0.207 A  
HETATM    4  C   UNL     1      -8.457   3.620  70.935  1.00  0.00    -0.070 A  
HETATM    5  N   UNL     1      -8.914   3.990  72.168  1.00  0.00    -0.112 NA 
HETATM    6  C   UNL     1      -8.167   3.637  73.355  1.00  0.00    -0.083 C  
HETATM    7  C   UNL     1     -10.032   4.815  72.043  1.00  0.00    -0.186 A  
HETATM    8  C   UNL     1     -10.898   5.396  72.963  1.00  0.00    -0.323 A  
HETATM    9  C   UNL     1     -11.902   6.232  72.421  1.00  0.00    -0.272 A  
HETATM   10  C   UNL     1     -12.000   6.579  71.031  1.00  0.00    -0.358 A  
HETATM   11  C   UNL     1     -11.095   6.066  70.090  1.00  0.00    -0.432 A  
HETATM   12  C   UNL     1     -10.931   6.368  68.504  1.00  0.00    -0.396 C  
HETATM   13  C   UNL     1     -10.211   5.070  70.695  1.00  0.00    -0.306 A  
HETATM   14  C   UNL     1     -10.676   7.638  67.261  1.00  0.00    -0.344 C  
HETATM   15  C   UNL     1      -9.099   7.654  66.579  1.00  0.00    -0.203 C  
HETATM   16  C   UNL     1      -8.043   7.681  67.688  1.00  0.00    -0.121 C  
HETATM   17  C   UNL     1      -8.408   8.195  65.313  1.00  0.00    -0.152 C  
HETATM   18  N   UNL     1      -8.551   7.001  68.860  1.00  0.00    -0.128 NA 
HETATM   19  C   UNL     1      -9.106   8.074  69.750  1.00  0.00    -0.149 C  
ENDROOT
BRANCH  17  20
HETATM   20  N   UNL     1      -8.450   9.576  64.950  1.00  0.00    -0.147 N  
HETATM   21  H   UNL     1      -9.016   9.935  64.181  1.00  0.00     0.000 HD 
HETATM   22  C   UNL     1      -7.664  10.365  65.729  1.00  0.00    -0.146 C  
HETATM   23  O   UNL     1      -6.571  10.030  66.172  1.00  0.00    -0.079 OA 
BRANCH  22  24
HETATM   24  O   UNL     1      -8.347  11.464  66.057  1.00  0.00    -0.129 OA 
BRANCH  24  25
HETATM   25  C   UNL     1      -8.211  11.844  67.445  1.00  0.00    -0.164 C  
BRANCH  25  26
HETATM   26  C   UNL     1      -9.558  12.088  68.042  1.00  0.00    -0.199 A  
HETATM   27  C   UNL     1     -10.380  11.003  68.339  1.00  0.00    -0.200 A  
HETATM   28  C   UNL     1     -11.608  11.206  68.963  1.00  0.00    -0.392 A  
HETATM   29  C   UNL     1     -12.022  12.497  69.287  1.00  0.00    -0.304 A  
HETATM   30  C   UNL     1     -11.211  13.589  68.982  1.00  0.00    -0.314 A  
HETATM   31  C   UNL     1      -9.980  13.388  68.360  1.00  0.00    -0.231 A  
ENDBRANCH  25  26
ENDBRANCH  24  25
ENDBRANCH  22  24
ENDBRANCH  17  20
TORSDOF 4
ENDMDL
MODEL       91
REMARK 921   NORMALIZED FREE ENERGY PREDICTED BY IDOCK:   -5.27 KCAL/MOL
REMARK 922        TOTAL FREE ENERGY PREDICTED BY IDOCK:   -7.09 KCAL/MOL
REMARK 923 INTER-LIGAND FREE ENERGY PREDICTED BY IDOCK:   -6.38 KCAL/MOL
REMARK 924 INTRA-LIGAND FREE ENERGY PREDICTED BY IDOCK:   -0.71 KCAL/MOL
REMARK 927      BINDING AFFINITY PREDICTED BY RF-SCORE:    0.00 PKD
ROOT
HETATM    1  C   UNL     1      -7.535   9.473  68.113  1.00  0.00    -0.079 C  
HETATM    2  C   UNL     1      -6.720   8.364  68.760  1.00  0.00    -0.058 C  
HETATM    3  C   UNL     1      -7.673   7.404  69.207  1.00  0.00    -0.107 A  
HETATM    4  C   UNL     1      -7.712   6.670  70.346  1.00  0.00    -0.097 A  
HETATM    5  N   UNL     1      -8.956   6.105  70.373  1.00  0.00    -0.148 NA 
HETATM    6  C   UNL     1      -9.422   5.432  71.566  1.00  0.00    -0.149 C  
HETATM    7  C   UNL     1      -9.654   6.414  69.205  1.00  0.00    -0.137 A  
HETATM    8  C   UNL     1     -10.899   6.043  68.710  1.00  0.00    -0.391 A  
HETATM    9  C   UNL     1     -11.273   6.632  67.480  1.00  0.00    -0.276 A  
HETATM   10  C   UNL     1     -10.505   7.634  66.799  1.00  0.00    -0.319 A  
HETATM   11  C   UNL     1      -9.279   8.083  67.313  1.00  0.00    -0.164 A  
HETATM   12  C   UNL     1      -8.278   9.252  66.798  1.00  0.00    -0.115 C  
HETATM   13  C   UNL     1      -8.875   7.296  68.478  1.00  0.00    -0.129 A  
HETATM   14  C   UNL     1      -8.129  10.992  66.383  1.00  0.00    -0.166 C  
HETATM   15  C   UNL     1      -7.278  11.927  67.548  1.00  0.00    -0.125 C  
HETATM   16  C   UNL     1      -7.861  11.691  68.944  1.00  0.00    -0.040 C  
HETATM   17  C   UNL     1      -6.543  13.279  67.610  1.00  0.00    -0.167 C  
HETATM   18  N   UNL     1      -8.396  10.350  69.028  1.00  0.00    -0.140 NA 
HETATM   19  C   UNL     1      -9.864  10.473  68.745  1.00  0.00    -0.186 C  
ENDROOT
BRANCH  17  20
HETATM   20  N   UNL     1      -7.176  14.510  67.259  1.00  0.00    -0.269 N  
HETATM   21  H   UNL     1      -7.275  14.835  66.298  1.00  0.00     0.000 HD 
HETATM   22  C   UNL     1      -7.635  15.208  68.332  1.00  0.00    -0.117 C  
HETATM   23  O   UNL     1      -7.063  15.266  69.415  1.00  0.00    -0.160 OA 
BRANCH  22  24
HETATM   24  O   UNL     1      -8.861  15.658  68.061  1.00  0.00    -0.167 OA 
BRANCH  24  25
HETATM   25  C   UNL     1      -9.093  15.914  66.657  1.00  0.00    -0.260 C  
BRANCH  25  26
HETATM   26  C   UNL     1     -10.351  15.241  66.217  1.00  0.00    -0.303 A  
HETATM   27  C   UNL     1     -11.112  14.538  67.148  1.00  0.00    -0.325 A  
HETATM   28  C   UNL     1     -12.324  13.967  66.773  1.00  0.00    -0.370 A  
HETATM   29  C   UNL     1     -12.779  14.091  65.461  1.00  0.00    -0.517 A  
HETATM   30  C   UNL     1     -12.018  14.782  64.519  1.00  0.00    -0.451 A  
HETATM   31  C   UNL     1     -10.806  15.358  64.894  1.00  0.00    -0.445 A  
ENDBRANCH  25  26
ENDBRANCH  24  25
ENDBRANCH  22  24
ENDBRANCH  17  20
TORSDOF 4
ENDMDL
MODEL       92
REMARK 921   NORMALIZED FREE ENERGY PREDICTED BY IDOCK:   -5.26 KCAL/MOL
REMARK 922        TOTAL FREE ENERGY PREDICTED BY IDOCK:   -7.07 KCAL/MOL
REMARK 923 INTER-LIGAND FREE ENERGY PREDICTED BY IDOCK:   -6.74 KCAL/MOL
REMARK 924 INTRA-LIGAND FREE ENERGY PREDICTED BY IDOCK:   -0.33 KCAL/MOL
REMARK 927      BINDING AFFINITY PREDICTED BY RF-SCORE:    0.00 PKD
ROOT
HETATM    1  C   UNL     1     -10.266   5.604  72.128  1.00  0.00    -0.202 C  
HETATM    2  C   UNL     1     -10.626   4.136  71.965  1.00  0.00     0.023 C  
HETATM    3  C   UNL     1      -9.462   3.517  71.424  1.00  0.00    -0.226 A  
HETATM    4  C   UNL     1      -9.337   2.558  70.474  1.00  0.00    -0.139 A  
HETATM    5  N   UNL     1      -8.006   2.517  70.170  1.00  0.00    -0.042 NA 
HETATM    6  C   UNL     1      -7.544   1.757  69.029  1.00  0.00    -0.042 C  
HETATM    7  C   UNL     1      -7.293   3.386  70.998  1.00  0.00    -0.033 A  
HETATM    8  C   UNL     1      -5.939   3.666  71.148  1.00  0.00    -0.014 A  
HETATM    9  C   UNL     1      -5.620   4.678  72.083  1.00  0.00    -0.004 A  
HETATM   10  C   UNL     1      -6.594   5.471  72.778  1.00  0.00    -0.070 A  
HETATM   11  C   UNL     1      -7.969   5.260  72.591  1.00  0.00    -0.102 A  
HETATM   12  C   UNL     1      -9.253   6.064  73.172  1.00  0.00    -0.132 C  
HETATM   13  C   UNL     1      -8.214   4.081  71.760  1.00  0.00    -0.090 A  
HETATM   14  C   UNL     1     -10.060   7.662  73.301  1.00  0.00    -0.393 C  
HETATM   15  C   UNL     1     -11.451   7.834  72.305  1.00  0.00    -0.384 C  
HETATM   16  C   UNL     1     -11.120   7.444  70.862  1.00  0.00    -0.263 C  
HETATM   17  C   UNL     1     -12.699   8.734  72.233  1.00  0.00    -0.402 C  
HETATM   18  N   UNL     1     -10.081   6.437  70.856  1.00  0.00    -0.185 NA 
HETATM   19  C   UNL     1      -8.792   7.176  70.653  1.00  0.00    -0.149 C  
ENDROOT
BRANCH  17  20
HETATM   20  N   UNL     1     -12.612  10.157  72.153  1.00  0.00    -0.256 N  
HETATM   21  H   UNL     1     -12.435  10.753  72.961  1.00  0.00     0.000 HD 
HETATM   22  C   UNL     1     -12.787  10.640  70.895  1.00  0.00    -0.382 C  
HETATM   23  O   UNL     1     -13.571  10.171  70.077  1.00  0.00     0.227 OA 
BRANCH  22  24
HETATM   24  O   UNL     1     -11.862  11.572  70.659  1.00  0.00    -0.328 OA 
BRANCH  24  25
HETATM   25  C   UNL     1     -12.367  12.734  69.962  1.00  0.00    -0.112 C  
BRANCH  25  26
HETATM   26  C   UNL     1     -12.430  13.900  70.893  1.00  0.00    -0.447 A  
HETATM   27  C   UNL     1     -13.193  13.806  72.055  1.00  0.00    -0.520 A  
HETATM   28  C   UNL     1     -13.204  14.854  72.971  1.00  0.00    -0.596 A  
HETATM   29  C   UNL     1     -12.457  16.004  72.726  1.00  0.00    -0.582 A  
HETATM   30  C   UNL     1     -11.700  16.112  71.560  1.00  0.00    -0.533 A  
HETATM   31  C   UNL     1     -11.684  15.063  70.643  1.00  0.00    -0.357 A  
ENDBRANCH  25  26
ENDBRANCH  24  25
ENDBRANCH  22  24
ENDBRANCH  17  20
TORSDOF 4
ENDMDL
MODEL       93
REMARK 921   NORMALIZED FREE ENERGY PREDICTED BY IDOCK:   -5.25 KCAL/MOL
REMARK 922        TOTAL FREE ENERGY PREDICTED BY IDOCK:   -7.06 KCAL/MOL
REMARK 923 INTER-LIGAND FREE ENERGY PREDICTED BY IDOCK:   -6.60 KCAL/MOL
REMARK 924 INTRA-LIGAND FREE ENERGY PREDICTED BY IDOCK:   -0.46 KCAL/MOL
REMARK 927      BINDING AFFINITY PREDICTED BY RF-SCORE:    0.00 PKD
ROOT
HETATM    1  C   UNL     1      -8.768   7.332  67.228  1.00  0.00    -0.121 C  
HETATM    2  C   UNL     1      -7.888   6.151  66.849  1.00  0.00    -0.104 C  
HETATM    3  C   UNL     1      -7.737   5.391  68.045  1.00  0.00    -0.091 A  
HETATM    4  C   UNL     1      -6.652   4.752  68.547  1.00  0.00    -0.046 A  
HETATM    5  N   UNL     1      -6.994   4.400  69.822  1.00  0.00    -0.041 NA 
HETATM    6  C   UNL     1      -5.989   3.895  70.731  1.00  0.00    -0.014 C  
HETATM    7  C   UNL     1      -8.323   4.740  70.079  1.00  0.00    -0.068 A  
HETATM    8  C   UNL     1      -9.166   4.545  71.167  1.00  0.00    -0.198 A  
HETATM    9  C   UNL     1     -10.460   5.103  71.051  1.00  0.00    -0.241 A  
HETATM   10  C   UNL     1     -10.892   5.919  69.952  1.00  0.00    -0.439 A  
HETATM   11  C   UNL     1     -10.037   6.195  68.873  1.00  0.00    -0.211 A  
HETATM   12  C   UNL     1     -10.242   7.148  67.576  1.00  0.00    -0.272 C  
HETATM   13  C   UNL     1      -8.793   5.433  68.977  1.00  0.00    -0.108 A  
HETATM   14  C   UNL     1     -10.619   8.808  67.008  1.00  0.00    -0.283 C  
HETATM   15  C   UNL     1      -9.265   9.668  66.388  1.00  0.00    -0.205 C  
HETATM   16  C   UNL     1      -8.107   9.624  67.389  1.00  0.00    -0.110 C  
HETATM   17  C   UNL     1      -9.003  10.882  65.478  1.00  0.00    -0.197 C  
HETATM   18  N   UNL     1      -8.169   8.397  68.152  1.00  0.00    -0.123 NA 
HETATM   19  C   UNL     1      -8.886   8.739  69.425  1.00  0.00    -0.143 C  
ENDROOT
BRANCH  17  20
HETATM   20  N   UNL     1      -9.547  12.174  65.752  1.00  0.00    -0.340 N  
HETATM   21  H   UNL     1      -9.347  12.696  66.605  1.00  0.00     0.000 HD 
HETATM   22  C   UNL     1     -10.357  12.641  64.766  1.00  0.00    -0.312 C  
HETATM   23  O   UNL     1     -11.119  11.942  64.108  1.00  0.00    -0.326 OA 
BRANCH  22  24
HETATM   24  O   UNL     1     -10.058  13.921  64.533  1.00  0.00    -0.331 OA 
BRANCH  24  25
HETATM   25  C   UNL     1     -11.109  14.843  64.901  1.00  0.00    -0.414 C  
BRANCH  25  26
HETATM   26  C   UNL     1     -10.868  15.368  66.278  1.00  0.00    -0.301 A  
HETATM   27  C   UNL     1      -9.891  16.342  66.477  1.00  0.00    -0.287 A  
HETATM   28  C   UNL     1      -9.702  16.896  67.739  1.00  0.00    -0.250 A  
HETATM   29  C   UNL     1     -10.487  16.474  68.812  1.00  0.00    -0.309 A  
HETATM   30  C   UNL     1     -11.458  15.492  68.624  1.00  0.00    -0.367 A  
HETATM   31  C   UNL     1     -11.651  14.938  67.361  1.00  0.00    -0.347 A  
ENDBRANCH  25  26
ENDBRANCH  24  25
ENDBRANCH  22  24
ENDBRANCH  17  20
TORSDOF 4
ENDMDL
MODEL       94
REMARK 921   NORMALIZED FREE ENERGY PREDICTED BY IDOCK:   -5.22 KCAL/MOL
REMARK 922        TOTAL FREE ENERGY PREDICTED BY IDOCK:   -7.02 KCAL/MOL
REMARK 923 INTER-LIGAND FREE ENERGY PREDICTED BY IDOCK:   -6.55 KCAL/MOL
REMARK 924 INTRA-LIGAND FREE ENERGY PREDICTED BY IDOCK:   -0.47 KCAL/MOL
REMARK 927      BINDING AFFINITY PREDICTED BY RF-SCORE:    0.00 PKD
ROOT
HETATM    1  C   UNL     1      -9.692   8.382  68.409  1.00  0.00    -0.156 C  
HETATM    2  C   UNL     1      -9.291   6.934  68.171  1.00  0.00    -0.124 C  
HETATM    3  C   UNL     1      -8.442   6.591  69.263  1.00  0.00    -0.127 A  
HETATM    4  C   UNL     1      -7.306   5.850  69.292  1.00  0.00    -0.083 A  
HETATM    5  N   UNL     1      -6.775   6.048  70.535  1.00  0.00    -0.051 NA 
HETATM    6  C   UNL     1      -5.439   5.583  70.837  1.00  0.00    -0.009 C  
HETATM    7  C   UNL     1      -7.629   6.837  71.307  1.00  0.00    -0.092 A  
HETATM    8  C   UNL     1      -7.598   7.266  72.630  1.00  0.00    -0.090 A  
HETATM    9  C   UNL     1      -8.653   8.121  73.024  1.00  0.00    -0.284 A  
HETATM   10  C   UNL     1      -9.655   8.631  72.132  1.00  0.00    -0.378 A  
HETATM   11  C   UNL     1      -9.669   8.273  70.775  1.00  0.00    -0.197 A  
HETATM   12  C   UNL     1     -10.617   8.774  69.557  1.00  0.00    -0.224 C  
HETATM   13  C   UNL     1      -8.667   7.247  70.490  1.00  0.00    -0.148 A  
HETATM   14  C   UNL     1     -11.212  10.195  68.637  1.00  0.00    -0.223 C  
HETATM   15  C   UNL     1     -10.530  10.358  67.067  1.00  0.00    -0.309 C  
HETATM   16  C   UNL     1      -9.002  10.291  67.146  1.00  0.00    -0.135 C  
HETATM   17  C   UNL     1     -10.863  11.077  65.747  1.00  0.00    -0.097 C  
HETATM   18  N   UNL     1      -8.607   9.453  68.257  1.00  0.00    -0.120 NA 
HETATM   19  C   UNL     1      -8.343  10.386  69.403  1.00  0.00    -0.142 C  
ENDROOT
BRANCH  17  20
HETATM   20  N   UNL     1     -11.066  12.489  65.675  1.00  0.00    -0.292 N  
HETATM   21  H   UNL     1     -11.287  13.064  66.487  1.00  0.00     0.000 HD 
HETATM   22  C   UNL     1     -10.936  12.991  64.419  1.00  0.00    -0.374 C  
HETATM   23  O   UNL     1     -11.300  12.413  63.401  1.00  0.00    -0.452 OA 
BRANCH  22  24
HETATM   24  O   UNL     1     -10.209  14.109  64.475  1.00  0.00    -0.347 OA 
BRANCH  24  25
HETATM   25  C   UNL     1     -10.853  15.190  65.187  1.00  0.00    -0.422 C  
BRANCH  25  26
HETATM   26  C   UNL     1      -9.825  16.049  65.848  1.00  0.00    -0.380 A  
HETATM   27  C   UNL     1     -10.121  17.384  66.116  1.00  0.00    -0.309 A  
HETATM   28  C   UNL     1      -9.205  18.180  66.797  1.00  0.00    -0.281 A  
HETATM   29  C   UNL     1      -7.985  17.645  67.209  1.00  0.00    -0.222 A  
HETATM   30  C   UNL     1      -7.677  16.314  66.935  1.00  0.00    -0.278 A  
HETATM   31  C   UNL     1      -8.593  15.514  66.256  1.00  0.00    -0.208 A  
ENDBRANCH  25  26
ENDBRANCH  24  25
ENDBRANCH  22  24
ENDBRANCH  17  20
TORSDOF 4
ENDMDL
MODEL       95
REMARK 921   NORMALIZED FREE ENERGY PREDICTED BY IDOCK:   -5.21 KCAL/MOL
REMARK 922        TOTAL FREE ENERGY PREDICTED BY IDOCK:   -7.01 KCAL/MOL
REMARK 923 INTER-LIGAND FREE ENERGY PREDICTED BY IDOCK:   -6.46 KCAL/MOL
REMARK 924 INTRA-LIGAND FREE ENERGY PREDICTED BY IDOCK:   -0.55 KCAL/MOL
REMARK 927      BINDING AFFINITY PREDICTED BY RF-SCORE:    0.00 PKD
ROOT
HETATM    1  C   UNL     1      -9.076  10.476  67.237  1.00  0.00    -0.143 C  
HETATM    2  C   UNL     1      -8.787  10.635  65.753  1.00  0.00    -0.198 C  
HETATM    3  C   UNL     1      -9.878  11.389  65.233  1.00  0.00    -0.290 A  
HETATM    4  C   UNL     1     -10.554  11.264  64.064  1.00  0.00    -0.386 A  
HETATM    5  N   UNL     1     -11.647  12.074  64.187  1.00  0.00    -0.371 NA 
HETATM    6  C   UNL     1     -12.710  12.013  63.208  1.00  0.00    -0.303 C  
HETATM    7  C   UNL     1     -11.600  12.772  65.395  1.00  0.00    -0.358 A  
HETATM    8  C   UNL     1     -12.407  13.750  65.965  1.00  0.00    -0.499 A  
HETATM    9  C   UNL     1     -12.039  14.172  67.264  1.00  0.00    -0.407 A  
HETATM   10  C   UNL     1     -10.977  13.587  68.032  1.00  0.00    -0.271 A  
HETATM   11  C   UNL     1     -10.193  12.547  67.510  1.00  0.00    -0.219 A  
HETATM   12  C   UNL     1      -9.014  11.663  68.193  1.00  0.00    -0.182 C  
HETATM   13  C   UNL     1     -10.511  12.298  66.105  1.00  0.00    -0.270 A  
HETATM   14  C   UNL     1      -8.581  10.584  69.561  1.00  0.00    -0.047 C  
HETATM   15  C   UNL     1      -8.435   8.926  69.134  1.00  0.00    -0.132 C  
HETATM   16  C   UNL     1      -9.683   8.463  68.376  1.00  0.00    -0.156 C  
HETATM   17  C   UNL     1      -7.780   7.654  69.704  1.00  0.00    -0.099 C  
HETATM   18  N   UNL     1     -10.246   9.574  67.641  1.00  0.00    -0.205 NA 
HETATM   19  C   UNL     1     -11.330  10.137  68.512  1.00  0.00    -0.108 C  
ENDROOT
BRANCH  17  20
HETATM   20  N   UNL     1      -8.067   7.169  71.016  1.00  0.00    -0.103 N  
HETATM   21  H   UNL     1      -8.514   7.735  71.737  1.00  0.00     0.000 HD 
HETATM   22  C   UNL     1      -7.687   5.878  71.211  1.00  0.00    -0.110 C  
HETATM   23  O   UNL     1      -6.674   5.377  70.737  1.00  0.00    -0.043 OA 
BRANCH  22  24
HETATM   24  O   UNL     1      -8.667   5.231  71.844  1.00  0.00    -0.129 OA 
BRANCH  24  25
HETATM   25  C   UNL     1      -9.877   5.094  71.064  1.00  0.00    -0.196 C  
BRANCH  25  26
HETATM   26  C   UNL     1      -9.663   4.111  69.960  1.00  0.00    -0.282 A  
HETATM   27  C   UNL     1      -9.569   2.754  70.263  1.00  0.00    -0.132 A  
HETATM   28  C   UNL     1      -9.444   1.817  69.242  1.00  0.00    -0.137 A  
HETATM   29  C   UNL     1      -9.407   2.233  67.912  1.00  0.00    -0.232 A  
HETATM   30  C   UNL     1      -9.489   3.589  67.601  1.00  0.00    -0.233 A  
HETATM   31  C   UNL     1      -9.617   4.529  68.621  1.00  0.00    -0.222 A  
ENDBRANCH  25  26
ENDBRANCH  24  25
ENDBRANCH  22  24
ENDBRANCH  17  20
TORSDOF 4
ENDMDL
MODEL       96
REMARK 921   NORMALIZED FREE ENERGY PREDICTED BY IDOCK:   -5.19 KCAL/MOL
REMARK 922        TOTAL FREE ENERGY PREDICTED BY IDOCK:   -6.99 KCAL/MOL
REMARK 923 INTER-LIGAND FREE ENERGY PREDICTED BY IDOCK:   -6.55 KCAL/MOL
REMARK 924 INTRA-LIGAND FREE ENERGY PREDICTED BY IDOCK:   -0.44 KCAL/MOL
REMARK 927      BINDING AFFINITY PREDICTED BY RF-SCORE:    0.00 PKD
ROOT
HETATM    1  C   UNL     1      -8.562   7.555  68.905  1.00  0.00    -0.129 C  
HETATM    2  C   UNL     1      -7.908   6.197  69.105  1.00  0.00    -0.104 C  
HETATM    3  C   UNL     1      -8.446   5.692  70.325  1.00  0.00    -0.123 A  
HETATM    4  C   UNL     1      -7.848   5.010  71.332  1.00  0.00    -0.109 A  
HETATM    5  N   UNL     1      -8.758   4.994  72.351  1.00  0.00    -0.123 NA 
HETATM    6  C   UNL     1      -8.366   4.540  73.668  1.00  0.00    -0.101 C  
HETATM    7  C   UNL     1      -9.954   5.586  71.943  1.00  0.00    -0.180 A  
HETATM    8  C   UNL     1     -11.191   5.761  72.554  1.00  0.00    -0.347 A  
HETATM    9  C   UNL     1     -12.151   6.479  71.805  1.00  0.00    -0.393 A  
HETATM   10  C   UNL     1     -11.886   7.103  70.539  1.00  0.00    -0.286 A  
HETATM   11  C   UNL     1     -10.625   7.006  69.933  1.00  0.00    -0.249 A  
HETATM   12  C   UNL     1     -10.046   7.684  68.576  1.00  0.00    -0.205 C  
HETATM   13  C   UNL     1      -9.751   6.096  70.673  1.00  0.00    -0.203 A  
HETATM   14  C   UNL     1      -9.754   9.225  67.704  1.00  0.00    -0.195 C  
HETATM   15  C   UNL     1      -8.106   9.709  67.656  1.00  0.00    -0.113 C  
HETATM   16  C   UNL     1      -7.509   9.696  69.067  1.00  0.00    -0.075 C  
HETATM   17  C   UNL     1      -7.215  10.648  66.821  1.00  0.00    -0.119 C  
HETATM   18  N   UNL     1      -8.166   8.683  69.864  1.00  0.00    -0.117 NA 
HETATM   19  C   UNL     1      -9.242   9.394  70.630  1.00  0.00    -0.242 C  
ENDROOT
BRANCH  17  20
HETATM   20  N   UNL     1      -7.504  12.038  66.665  1.00  0.00    -0.375 N  
HETATM   21  H   UNL     1      -8.035  12.414  65.880  1.00  0.00     0.000 HD 
HETATM   22  C   UNL     1      -7.003  12.810  67.665  1.00  0.00    -0.146 C  
HETATM   23  O   UNL     1      -5.926  12.614  68.216  1.00  0.00    -0.059 OA 
BRANCH  22  24
HETATM   24  O   UNL     1      -7.937  13.685  68.043  1.00  0.00    -0.128 OA 
BRANCH  24  25
HETATM   25  C   UNL     1      -8.280  14.652  67.025  1.00  0.00    -0.157 C  
BRANCH  25  26
HETATM   26  C   UNL     1      -9.715  14.503  66.641  1.00  0.00    -0.285 A  
HETATM   27  C   UNL     1     -10.091  14.694  65.314  1.00  0.00    -0.393 A  
HETATM   28  C   UNL     1     -11.410  14.488  64.923  1.00  0.00    -0.394 A  
HETATM   29  C   UNL     1     -12.363  14.093  65.861  1.00  0.00    -0.486 A  
HETATM   30  C   UNL     1     -11.998  13.911  67.194  1.00  0.00    -0.455 A  
HETATM   31  C   UNL     1     -10.677  14.115  67.587  1.00  0.00    -0.260 A  
ENDBRANCH  25  26
ENDBRANCH  24  25
ENDBRANCH  22  24
ENDBRANCH  17  20
TORSDOF 4
ENDMDL
MODEL       97
REMARK 921   NORMALIZED FREE ENERGY PREDICTED BY IDOCK:   -5.18 KCAL/MOL
REMARK 922        TOTAL FREE ENERGY PREDICTED BY IDOCK:   -6.98 KCAL/MOL
REMARK 923 INTER-LIGAND FREE ENERGY PREDICTED BY IDOCK:   -6.65 KCAL/MOL
REMARK 924 INTRA-LIGAND FREE ENERGY PREDICTED BY IDOCK:   -0.33 KCAL/MOL
REMARK 927      BINDING AFFINITY PREDICTED BY RF-SCORE:    0.00 PKD
ROOT
HETATM    1  C   UNL     1      -7.968   9.089  67.612  1.00  0.00    -0.101 C  
HETATM    2  C   UNL     1      -7.448   7.991  68.527  1.00  0.00    -0.102 C  
HETATM    3  C   UNL     1      -7.785   6.766  67.880  1.00  0.00    -0.112 A  
HETATM    4  C   UNL     1      -8.238   5.597  68.395  1.00  0.00    -0.103 A  
HETATM    5  N   UNL     1      -8.629   4.852  67.319  1.00  0.00    -0.105 NA 
HETATM    6  C   UNL     1      -9.374   3.627  67.515  1.00  0.00    -0.202 C  
HETATM    7  C   UNL     1      -8.333   5.523  66.131  1.00  0.00    -0.119 A  
HETATM    8  C   UNL     1      -8.457   5.187  64.788  1.00  0.00    -0.150 A  
HETATM    9  C   UNL     1      -8.085   6.192  63.865  1.00  0.00    -0.068 A  
HETATM   10  C   UNL     1      -7.702   7.525  64.235  1.00  0.00    -0.128 A  
HETATM   11  C   UNL     1      -7.639   7.915  65.581  1.00  0.00    -0.084 A  
HETATM   12  C   UNL     1      -7.332   9.361  66.253  1.00  0.00    -0.096 C  
HETATM   13  C   UNL     1      -7.853   6.775  66.472  1.00  0.00    -0.104 A  
HETATM   14  C   UNL     1      -7.821  11.086  66.332  1.00  0.00    -0.150 C  
HETATM   15  C   UNL     1      -8.646  11.522  67.775  1.00  0.00    -0.138 C  
HETATM   16  C   UNL     1      -9.808  10.558  68.032  1.00  0.00    -0.147 C  
HETATM   17  C   UNL     1      -8.970  12.806  68.561  1.00  0.00    -0.046 C  
HETATM   18  N   UNL     1      -9.486   9.254  67.493  1.00  0.00    -0.130 NA 
HETATM   19  C   UNL     1     -10.117   9.204  66.133  1.00  0.00    -0.208 C  
ENDROOT
BRANCH  17  20
HETATM   20  N   UNL     1      -9.662  13.909  67.974  1.00  0.00    -0.220 N  
HETATM   21  H   UNL     1     -10.175  13.843  67.095  1.00  0.00     0.000 HD 
HETATM   22  C   UNL     1      -9.571  15.054  68.699  1.00  0.00    -0.219 C  
HETATM   23  O   UNL     1      -8.571  15.404  69.317  1.00  0.00    -0.224 OA 
BRANCH  22  24
HETATM   24  O   UNL     1     -10.776  15.623  68.759  1.00  0.00    -0.231 OA 
BRANCH  24  25
HETATM   25  C   UNL     1     -11.841  14.704  69.094  1.00  0.00    -0.312 C  
BRANCH  25  26
HETATM   26  C   UNL     1     -12.179  14.822  70.544  1.00  0.00    -0.385 A  
HETATM   27  C   UNL     1     -11.799  15.965  71.244  1.00  0.00    -0.502 A  
HETATM   28  C   UNL     1     -12.169  16.125  72.576  1.00  0.00    -0.609 A  
HETATM   29  C   UNL     1     -12.917  15.138  73.216  1.00  0.00    -0.645 A  
HETATM   30  C   UNL     1     -13.292  13.986  72.527  1.00  0.00    -0.639 A  
HETATM   31  C   UNL     1     -12.925  13.825  71.193  1.00  0.00    -0.370 A  
ENDBRANCH  25  26
ENDBRANCH  24  25
ENDBRANCH  22  24
ENDBRANCH  17  20
TORSDOF 4
ENDMDL
MODEL       98
REMARK 921   NORMALIZED FREE ENERGY PREDICTED BY IDOCK:   -5.15 KCAL/MOL
REMARK 922        TOTAL FREE ENERGY PREDICTED BY IDOCK:   -6.93 KCAL/MOL
REMARK 923 INTER-LIGAND FREE ENERGY PREDICTED BY IDOCK:   -6.61 KCAL/MOL
REMARK 924 INTRA-LIGAND FREE ENERGY PREDICTED BY IDOCK:   -0.33 KCAL/MOL
REMARK 927      BINDING AFFINITY PREDICTED BY RF-SCORE:    0.00 PKD
ROOT
HETATM    1  C   UNL     1     -10.409   8.912  68.656  1.00  0.00    -0.204 C  
HETATM    2  C   UNL     1     -10.706   7.672  67.828  1.00  0.00    -0.215 C  
HETATM    3  C   UNL     1     -10.637   6.580  68.741  1.00  0.00    -0.282 A  
HETATM    4  C   UNL     1     -10.121   5.336  68.585  1.00  0.00    -0.168 A  
HETATM    5  N   UNL     1     -10.097   4.792  69.838  1.00  0.00    -0.246 NA 
HETATM    6  C   UNL     1      -9.397   3.549  70.078  1.00  0.00    -0.175 C  
HETATM    7  C   UNL     1     -10.685   5.664  70.756  1.00  0.00    -0.250 A  
HETATM    8  C   UNL     1     -10.971   5.571  72.114  1.00  0.00    -0.291 A  
HETATM    9  C   UNL     1     -11.535   6.725  72.704  1.00  0.00    -0.218 A  
HETATM   10  C   UNL     1     -11.721   7.973  72.020  1.00  0.00    -0.375 A  
HETATM   11  C   UNL     1     -11.373   8.118  70.669  1.00  0.00    -0.256 A  
HETATM   12  C   UNL     1     -11.393   9.423  69.704  1.00  0.00    -0.023 C  
HETATM   13  C   UNL     1     -10.976   6.838  70.085  1.00  0.00    -0.340 A  
HETATM   14  C   UNL     1     -10.807  11.106  69.483  1.00  0.00    -0.241 C  
HETATM   15  C   UNL     1      -9.579  11.276  68.292  1.00  0.00    -0.193 C  
HETATM   16  C   UNL     1      -8.448  10.276  68.552  1.00  0.00    -0.121 C  
HETATM   17  C   UNL     1      -8.972  12.399  67.431  1.00  0.00    -0.185 C  
HETATM   18  N   UNL     1      -8.983   9.090  69.185  1.00  0.00    -0.138 NA 
HETATM   19  C   UNL     1      -8.773   9.279  70.658  1.00  0.00    -0.234 C  
ENDROOT
BRANCH  17  20
HETATM   20  N   UNL     1      -8.417  13.585  68.001  1.00  0.00    -0.165 N  
HETATM   21  H   UNL     1      -7.948  13.604  68.906  1.00  0.00     0.000 HD 
HETATM   22  C   UNL     1      -8.576  14.686  67.220  1.00  0.00    -0.214 C  
HETATM   23  O   UNL     1      -9.568  14.913  66.538  1.00  0.00    -0.246 OA 
BRANCH  22  24
HETATM   24  O   UNL     1      -7.426  15.364  67.194  1.00  0.00    -0.205 OA 
BRANCH  24  25
HETATM   25  C   UNL     1      -7.484  16.583  66.419  1.00  0.00    -0.170 C  
BRANCH  25  26
HETATM   26  C   UNL     1      -7.165  17.755  67.288  1.00  0.00    -0.199 A  
HETATM   27  C   UNL     1      -5.966  17.774  67.997  1.00  0.00    -0.163 A  
HETATM   28  C   UNL     1      -5.618  18.890  68.753  1.00  0.00    -0.204 A  
HETATM   29  C   UNL     1      -6.472  19.990  68.808  1.00  0.00    -0.349 A  
HETATM   30  C   UNL     1      -7.679  19.975  68.112  1.00  0.00    -0.271 A  
HETATM   31  C   UNL     1      -8.028  18.860  67.352  1.00  0.00    -0.264 A  
ENDBRANCH  25  26
ENDBRANCH  24  25
ENDBRANCH  22  24
ENDBRANCH  17  20
TORSDOF 4
ENDMDL
MODEL       99
REMARK 921   NORMALIZED FREE ENERGY PREDICTED BY IDOCK:   -5.14 KCAL/MOL
REMARK 922        TOTAL FREE ENERGY PREDICTED BY IDOCK:   -6.92 KCAL/MOL
REMARK 923 INTER-LIGAND FREE ENERGY PREDICTED BY IDOCK:   -6.81 KCAL/MOL
REMARK 924 INTRA-LIGAND FREE ENERGY PREDICTED BY IDOCK:   -0.11 KCAL/MOL
REMARK 927      BINDING AFFINITY PREDICTED BY RF-SCORE:    0.00 PKD
ROOT
HETATM    1  C   UNL     1      -8.724  14.427  66.939  1.00  0.00    -0.193 C  
HETATM    2  C   UNL     1      -8.831  12.981  66.483  1.00  0.00    -0.009 C  
HETATM    3  C   UNL     1      -9.602  12.323  67.486  1.00  0.00    -0.184 A  
HETATM    4  C   UNL     1      -9.462  11.090  68.033  1.00  0.00    -0.166 A  
HETATM    5  N   UNL     1     -10.306  11.071  69.107  1.00  0.00    -0.210 NA 
HETATM    6  C   UNL     1     -10.248   9.981  70.057  1.00  0.00    -0.255 C  
HETATM    7  C   UNL     1     -11.037  12.258  69.170  1.00  0.00    -0.203 A  
HETATM    8  C   UNL     1     -12.055  12.709  70.004  1.00  0.00    -0.339 A  
HETATM    9  C   UNL     1     -12.503  14.030  69.767  1.00  0.00    -0.255 A  
HETATM   10  C   UNL     1     -11.910  14.925  68.816  1.00  0.00    -0.328 A  
HETATM   11  C   UNL     1     -10.833  14.521  68.012  1.00  0.00    -0.249 A  
HETATM   12  C   UNL     1      -9.936  15.353  66.945  1.00  0.00    -0.247 C  
HETATM   13  C   UNL     1     -10.553  13.096  68.182  1.00  0.00    -0.257 A  
HETATM   14  C   UNL     1      -8.885  16.787  66.700  1.00  0.00    -0.286 C  
HETATM   15  C   UNL     1      -7.212  16.422  66.561  1.00  0.00    -0.127 C  
HETATM   16  C   UNL     1      -6.763  15.543  67.732  1.00  0.00    -0.164 C  
HETATM   17  C   UNL     1      -5.938  17.094  66.014  1.00  0.00     0.239 C  
HETATM   18  N   UNL     1      -7.868  14.721  68.175  1.00  0.00    -0.118 NA 
HETATM   19  C   UNL     1      -8.488  15.452  69.330  1.00  0.00    -0.258 C  
ENDROOT
BRANCH  17  20
HETATM   20  N   UNL     1      -5.500  18.378  66.459  1.00  0.00    -0.138 N  
HETATM   21  H   UNL     1      -5.208  19.121  65.824  1.00  0.00     0.000 HD 
HETATM   22  C   UNL     1      -5.509  18.514  67.811  1.00  0.00    -0.164 C  
HETATM   23  O   UNL     1      -5.219  17.620  68.598  1.00  0.00    -0.140 OA 
BRANCH  22  24
HETATM   24  O   UNL     1      -6.040  19.699  68.121  1.00  0.00    -0.220 OA 
BRANCH  24  25
HETATM   25  C   UNL     1      -7.165  19.618  69.024  1.00  0.00    -0.344 C  
BRANCH  25  26
HETATM   26  C   UNL     1      -8.442  19.772  68.265  1.00  0.00    -0.311 A  
HETATM   27  C   UNL     1      -8.413  20.328  66.988  1.00  0.00    -0.388 A  
HETATM   28  C   UNL     1      -9.581  20.413  66.236  1.00  0.00    -0.337 A  
HETATM   29  C   UNL     1     -10.785  19.946  66.760  1.00  0.00    -0.464 A  
HETATM   30  C   UNL     1     -10.825  19.400  68.042  1.00  0.00    -0.213 A  
HETATM   31  C   UNL     1      -9.656  19.311  68.796  1.00  0.00    -0.485 A  
ENDBRANCH  25  26
ENDBRANCH  24  25
ENDBRANCH  22  24
ENDBRANCH  17  20
TORSDOF 4
ENDMDL
MODEL      100
REMARK 921   NORMALIZED FREE ENERGY PREDICTED BY IDOCK:   -5.12 KCAL/MOL
REMARK 922        TOTAL FREE ENERGY PREDICTED BY IDOCK:   -6.90 KCAL/MOL
REMARK 923 INTER-LIGAND FREE ENERGY PREDICTED BY IDOCK:   -6.47 KCAL/MOL
REMARK 924 INTRA-LIGAND FREE ENERGY PREDICTED BY IDOCK:   -0.43 KCAL/MOL
REMARK 927      BINDING AFFINITY PREDICTED BY RF-SCORE:    0.00 PKD
ROOT
HETATM    1  C   UNL     1     -10.823  10.887  69.897  1.00  0.00    -0.141 C  
HETATM    2  C   UNL     1     -11.478  10.679  71.254  1.00  0.00     0.189 C  
HETATM    3  C   UNL     1     -11.846   9.303  71.291  1.00  0.00    -0.415 A  
HETATM    4  C   UNL     1     -12.959   8.704  71.782  1.00  0.00    -0.359 A  
HETATM    5  N   UNL     1     -12.904   7.414  71.338  1.00  0.00    -0.370 NA 
HETATM    6  C   UNL     1     -14.050   6.544  71.490  1.00  0.00     0.338 C  
HETATM    7  C   UNL     1     -11.711   7.188  70.651  1.00  0.00    -0.307 A  
HETATM    8  C   UNL     1     -11.141   6.059  70.073  1.00  0.00    -0.451 A  
HETATM    9  C   UNL     1      -9.911   6.264  69.405  1.00  0.00    -0.180 A  
HETATM   10  C   UNL     1      -9.301   7.549  69.213  1.00  0.00    -0.151 A  
HETATM   11  C   UNL     1      -9.892   8.715  69.722  1.00  0.00    -0.183 A  
HETATM   12  C   UNL     1      -9.465  10.274  69.566  1.00  0.00    -0.207 C  
HETATM   13  C   UNL     1     -11.052   8.400  70.554  1.00  0.00    -0.267 A  
HETATM   14  C   UNL     1      -9.111  11.600  68.409  1.00  0.00    -0.180 C  
HETATM   15  C   UNL     1     -10.346  12.790  68.298  1.00  0.00    -0.248 C  
HETATM   16  C   UNL     1     -11.702  12.124  68.049  1.00  0.00    -0.344 C  
HETATM   17  C   UNL     1     -10.487  14.247  67.819  1.00  0.00    -0.245 C  
HETATM   18  N   UNL     1     -11.718  10.811  68.656  1.00  0.00    -0.395 NA 
HETATM   19  C   UNL     1     -11.362   9.847  67.563  1.00  0.00     0.332 C  
ENDROOT
BRANCH  17  20
HETATM   20  N   UNL     1     -10.141  14.653  66.494  1.00  0.00    -0.270 N  
HETATM   21  H   UNL     1     -10.743  14.498  65.686  1.00  0.00     0.000 HD 
HETATM   22  C   UNL     1      -8.931  15.267  66.415  1.00  0.00    -0.304 C  
HETATM   23  O   UNL     1      -7.950  14.952  67.080  1.00  0.00    -0.207 OA 
BRANCH  22  24
HETATM   24  O   UNL     1      -9.046  16.347  65.639  1.00  0.00    -0.446 OA 
BRANCH  24  25
HETATM   25  C   UNL     1      -9.898  17.376  66.191  1.00  0.00    -0.245 C  
BRANCH  25  26
HETATM   26  C   UNL     1      -9.068  18.514  66.688  1.00  0.00    -0.306 A  
HETATM   27  C   UNL     1      -9.244  18.970  67.992  1.00  0.00    -0.355 A  
HETATM   28  C   UNL     1      -8.430  19.979  68.496  1.00  0.00    -0.075 A  
HETATM   29  C   UNL     1      -7.437  20.542  67.695  1.00  0.00    -0.323 A  
HETATM   30  C   UNL     1      -7.262  20.100  66.385  1.00  0.00    -0.305 A  
HETATM   31  C   UNL     1      -8.074  19.088  65.879  1.00  0.00    -0.051 A  
ENDBRANCH  25  26
ENDBRANCH  24  25
ENDBRANCH  22  24
ENDBRANCH  17  20
TORSDOF 4
ENDMDL
MODEL      101
REMARK 921   NORMALIZED FREE ENERGY PREDICTED BY IDOCK:   -5.11 KCAL/MOL
REMARK 922        TOTAL FREE ENERGY PREDICTED BY IDOCK:   -6.88 KCAL/MOL
REMARK 923 INTER-LIGAND FREE ENERGY PREDICTED BY IDOCK:   -5.67 KCAL/MOL
REMARK 924 INTRA-LIGAND FREE ENERGY PREDICTED BY IDOCK:   -1.22 KCAL/MOL
REMARK 927      BINDING AFFINITY PREDICTED BY RF-SCORE:    0.00 PKD
ROOT
HETATM    1  C   UNL     1     -11.044   9.879  69.222  1.00  0.00    -0.181 C  
HETATM    2  C   UNL     1     -12.121  10.919  69.486  1.00  0.00    -0.380 C  
HETATM    3  C   UNL     1     -11.818  12.008  68.618  1.00  0.00    -0.366 A  
HETATM    4  C   UNL     1     -11.885  13.346  68.830  1.00  0.00    -0.351 A  
HETATM    5  N   UNL     1     -11.252  13.915  67.762  1.00  0.00    -0.282 NA 
HETATM    6  C   UNL     1     -10.941  15.328  67.771  1.00  0.00    -0.312 C  
HETATM    7  C   UNL     1     -10.875  12.936  66.842  1.00  0.00    -0.257 A  
HETATM    8  C   UNL     1     -10.280  12.983  65.587  1.00  0.00    -0.296 A  
HETATM    9  C   UNL     1     -10.007  11.731  64.987  1.00  0.00    -0.287 A  
HETATM   10  C   UNL     1     -10.211  10.466  65.632  1.00  0.00    -0.308 A  
HETATM   11  C   UNL     1     -10.743  10.390  66.929  1.00  0.00    -0.272 A  
HETATM   12  C   UNL     1     -10.981   9.114  67.904  1.00  0.00    -0.035 C  
HETATM   13  C   UNL     1     -11.170  11.706  67.403  1.00  0.00    -0.358 A  
HETATM   14  C   UNL     1     -10.210   7.711  68.715  1.00  0.00    -0.210 C  
HETATM   15  C   UNL     1      -9.988   7.907  70.408  1.00  0.00    -0.192 C  
HETATM   16  C   UNL     1      -9.277   9.233  70.698  1.00  0.00    -0.264 C  
HETATM   17  C   UNL     1      -9.752   7.013  71.640  1.00  0.00    -0.160 C  
HETATM   18  N   UNL     1      -9.618  10.201  69.678  1.00  0.00    -0.227 NA 
HETATM   19  C   UNL     1      -8.505  10.150  68.673  1.00  0.00    -0.122 C  
ENDROOT
BRANCH  17  20
HETATM   20  N   UNL     1      -8.658   6.099  71.722  1.00  0.00    -0.133 N  
HETATM   21  H   UNL     1      -8.746   5.102  71.525  1.00  0.00     0.000 HD 
HETATM   22  C   UNL     1      -7.488   6.686  72.089  1.00  0.00    -0.094 C  
HETATM   23  O   UNL     1      -7.398   7.600  72.901  1.00  0.00    -0.073 OA 
BRANCH  22  24
HETATM   24  O   UNL     1      -6.511   6.225  71.306  1.00  0.00    -0.047 OA 
BRANCH  24  25
HETATM   25  C   UNL     1      -6.130   7.134  70.249  1.00  0.00    -0.024 C  
BRANCH  25  26
HETATM   26  C   UNL     1      -6.635   6.631  68.937  1.00  0.00    -0.051 A  
HETATM   27  C   UNL     1      -7.148   5.339  68.852  1.00  0.00    -0.061 A  
HETATM   28  C   UNL     1      -7.691   4.878  67.656  1.00  0.00    -0.087 A  
HETATM   29  C   UNL     1      -7.717   5.708  66.536  1.00  0.00    -0.100 A  
HETATM   30  C   UNL     1      -7.195   6.998  66.608  1.00  0.00    -0.083 A  
HETATM   31  C   UNL     1      -6.654   7.462  67.806  1.00  0.00    -0.057 A  
ENDBRANCH  25  26
ENDBRANCH  24  25
ENDBRANCH  22  24
ENDBRANCH  17  20
TORSDOF 4
ENDMDL
MODEL      102
REMARK 921   NORMALIZED FREE ENERGY PREDICTED BY IDOCK:   -5.10 KCAL/MOL
REMARK 922        TOTAL FREE ENERGY PREDICTED BY IDOCK:   -6.87 KCAL/MOL
REMARK 923 INTER-LIGAND FREE ENERGY PREDICTED BY IDOCK:   -6.42 KCAL/MOL
REMARK 924 INTRA-LIGAND FREE ENERGY PREDICTED BY IDOCK:   -0.45 KCAL/MOL
REMARK 927      BINDING AFFINITY PREDICTED BY RF-SCORE:    0.00 PKD
ROOT
HETATM    1  C   UNL     1     -10.848  10.796  67.961  1.00  0.00    -0.255 C  
HETATM    2  C   UNL     1     -11.931  11.502  68.761  1.00  0.00    -0.335 C  
HETATM    3  C   UNL     1     -11.753  12.891  68.497  1.00  0.00    -0.374 A  
HETATM    4  C   UNL     1     -11.847  13.961  69.325  1.00  0.00    -0.348 A  
HETATM    5  N   UNL     1     -11.341  15.015  68.617  1.00  0.00    -0.281 NA 
HETATM    6  C   UNL     1     -11.081  16.276  69.277  1.00  0.00    -0.325 C  
HETATM    7  C   UNL     1     -11.020  14.617  67.318  1.00  0.00    -0.317 A  
HETATM    8  C   UNL     1     -10.551  15.296  66.199  1.00  0.00    -0.318 A  
HETATM    9  C   UNL     1     -10.293  14.500  65.059  1.00  0.00    -0.442 A  
HETATM   10  C   UNL     1     -10.389  13.068  65.036  1.00  0.00    -0.336 A  
HETATM   11  C   UNL     1     -10.788  12.349  66.173  1.00  0.00    -0.308 A  
HETATM   12  C   UNL     1     -10.885  10.750  66.436  1.00  0.00    -0.172 C  
HETATM   13  C   UNL     1     -11.215  13.249  67.244  1.00  0.00    -0.320 A  
HETATM   14  C   UNL     1      -9.989   9.195  66.427  1.00  0.00    -0.358 C  
HETATM   15  C   UNL     1      -9.611   8.587  67.989  1.00  0.00    -0.168 C  
HETATM   16  C   UNL     1      -8.923   9.670  68.826  1.00  0.00    -0.134 C  
HETATM   17  C   UNL     1      -9.225   7.240  68.627  1.00  0.00    -0.136 C  
HETATM   18  N   UNL     1      -9.396  10.975  68.416  1.00  0.00    -0.172 NA 
HETATM   19  C   UNL     1      -8.385  11.490  67.435  1.00  0.00    -0.148 C  
ENDROOT
BRANCH  17  20
HETATM   20  N   UNL     1      -8.096   6.483  68.189  1.00  0.00    -0.113 N  
HETATM   21  H   UNL     1      -7.131   6.769  68.356  1.00  0.00     0.000 HD 
HETATM   22  C   UNL     1      -8.431   5.343  67.530  1.00  0.00    -0.106 C  
HETATM   23  O   UNL     1      -9.388   5.239  66.771  1.00  0.00    -0.125 OA 
BRANCH  22  24
HETATM   24  O   UNL     1      -7.664   4.346  67.975  1.00  0.00    -0.079 OA 
BRANCH  24  25
HETATM   25  C   UNL     1      -8.380   3.109  68.192  1.00  0.00    -0.079 C  
BRANCH  25  26
HETATM   26  C   UNL     1      -8.447   2.807  69.653  1.00  0.00    -0.101 A  
HETATM   27  C   UNL     1      -9.599   3.131  70.366  1.00  0.00    -0.192 A  
HETATM   28  C   UNL     1      -9.708   2.791  71.711  1.00  0.00    -0.225 A  
HETATM   29  C   UNL     1      -8.661   2.130  72.352  1.00  0.00    -0.082 A  
HETATM   30  C   UNL     1      -7.500   1.812  71.649  1.00  0.00    -0.036 A  
HETATM   31  C   UNL     1      -7.390   2.149  70.301  1.00  0.00    -0.033 A  
ENDBRANCH  25  26
ENDBRANCH  24  25
ENDBRANCH  22  24
ENDBRANCH  17  20
TORSDOF 4
ENDMDL
MODEL      103
REMARK 921   NORMALIZED FREE ENERGY PREDICTED BY IDOCK:   -5.08 KCAL/MOL
REMARK 922        TOTAL FREE ENERGY PREDICTED BY IDOCK:   -6.84 KCAL/MOL
REMARK 923 INTER-LIGAND FREE ENERGY PREDICTED BY IDOCK:   -6.35 KCAL/MOL
REMARK 924 INTRA-LIGAND FREE ENERGY PREDICTED BY IDOCK:   -0.49 KCAL/MOL
REMARK 927      BINDING AFFINITY PREDICTED BY RF-SCORE:    0.00 PKD
ROOT
HETATM    1  C   UNL     1      -8.916  10.387  67.130  1.00  0.00    -0.139 C  
HETATM    2  C   UNL     1      -8.695  10.477  65.628  1.00  0.00    -0.191 C  
HETATM    3  C   UNL     1      -9.787  11.243  65.128  1.00  0.00    -0.298 A  
HETATM    4  C   UNL     1     -10.522  11.092  63.999  1.00  0.00    -0.383 A  
HETATM    5  N   UNL     1     -11.584  11.940  64.140  1.00  0.00    -0.361 NA 
HETATM    6  C   UNL     1     -12.695  11.873  63.215  1.00  0.00    -0.271 C  
HETATM    7  C   UNL     1     -11.459  12.684  65.314  1.00  0.00    -0.331 A  
HETATM    8  C   UNL     1     -12.208  13.709  65.880  1.00  0.00    -0.502 A  
HETATM    9  C   UNL     1     -11.766  14.172  67.141  1.00  0.00    -0.430 A  
HETATM   10  C   UNL     1     -10.686  13.585  67.882  1.00  0.00    -0.258 A  
HETATM   11  C   UNL     1      -9.958  12.501  67.368  1.00  0.00    -0.207 A  
HETATM   12  C   UNL     1      -8.774  11.610  68.031  1.00  0.00    -0.157 C  
HETATM   13  C   UNL     1     -10.351  12.206  65.990  1.00  0.00    -0.268 A  
HETATM   14  C   UNL     1      -8.307  10.574  69.420  1.00  0.00    -0.117 C  
HETATM   15  C   UNL     1      -8.230   8.896  69.057  1.00  0.00    -0.116 C  
HETATM   16  C   UNL     1      -9.526   8.441  68.379  1.00  0.00    -0.139 C  
HETATM   17  C   UNL     1      -7.585   7.628  69.648  1.00  0.00    -0.093 C  
HETATM   18  N   UNL     1     -10.092   9.539  67.625  1.00  0.00    -0.191 NA 
HETATM   19  C   UNL     1     -11.115  10.171  68.522  1.00  0.00    -0.214 C  
ENDROOT
BRANCH  17  20
HETATM   20  N   UNL     1      -7.823   7.205  70.992  1.00  0.00    -0.094 N  
HETATM   21  H   UNL     1      -7.488   7.717  71.807  1.00  0.00     0.000 HD 
HETATM   22  C   UNL     1      -8.539   6.054  71.078  1.00  0.00    -0.131 C  
HETATM   23  O   UNL     1      -8.430   5.111  70.302  1.00  0.00    -0.098 OA 
BRANCH  22  24
HETATM   24  O   UNL     1      -9.474   6.197  72.020  1.00  0.00    -0.153 OA 
BRANCH  24  25
HETATM   25  C   UNL     1      -9.041   5.796  73.339  1.00  0.00    -0.132 C  
BRANCH  25  26
HETATM   26  C   UNL     1      -9.556   4.430  73.652  1.00  0.00    -0.135 A  
HETATM   27  C   UNL     1     -10.894   4.131  73.404  1.00  0.00    -0.331 A  
HETATM   28  C   UNL     1     -11.375   2.843  73.620  1.00  0.00    -0.256 A  
HETATM   29  C   UNL     1     -10.520   1.848  74.091  1.00  0.00    -0.183 A  
HETATM   30  C   UNL     1      -9.183   2.141  74.353  1.00  0.00    -0.089 A  
HETATM   31  C   UNL     1      -8.698   3.429  74.135  1.00  0.00    -0.087 A  
ENDBRANCH  25  26
ENDBRANCH  24  25
ENDBRANCH  22  24
ENDBRANCH  17  20
TORSDOF 4
ENDMDL
MODEL      104
REMARK 921   NORMALIZED FREE ENERGY PREDICTED BY IDOCK:   -5.08 KCAL/MOL
REMARK 922        TOTAL FREE ENERGY PREDICTED BY IDOCK:   -6.84 KCAL/MOL
REMARK 923 INTER-LIGAND FREE ENERGY PREDICTED BY IDOCK:   -6.41 KCAL/MOL
REMARK 924 INTRA-LIGAND FREE ENERGY PREDICTED BY IDOCK:   -0.43 KCAL/MOL
REMARK 927      BINDING AFFINITY PREDICTED BY RF-SCORE:    0.00 PKD
ROOT
HETATM    1  C   UNL     1     -10.160   6.443  71.492  1.00  0.00    -0.192 C  
HETATM    2  C   UNL     1     -10.759   5.047  71.554  1.00  0.00    -0.114 C  
HETATM    3  C   UNL     1      -9.678   4.158  71.286  1.00  0.00    -0.255 A  
HETATM    4  C   UNL     1      -9.639   3.020  70.550  1.00  0.00    -0.117 A  
HETATM    5  N   UNL     1      -8.314   2.711  70.427  1.00  0.00    -0.044 NA 
HETATM    6  C   UNL     1      -7.892   1.674  69.511  1.00  0.00    -0.042 C  
HETATM    7  C   UNL     1      -7.537   3.605  71.165  1.00  0.00    -0.044 A  
HETATM    8  C   UNL     1      -6.175   3.694  71.430  1.00  0.00    -0.015 A  
HETATM    9  C   UNL     1      -5.769   4.810  72.198  1.00  0.00    -0.012 A  
HETATM   10  C   UNL     1      -6.646   5.868  72.610  1.00  0.00    -0.068 A  
HETATM   11  C   UNL     1      -8.013   5.842  72.293  1.00  0.00    -0.107 A  
HETATM   12  C   UNL     1      -9.182   6.938  72.553  1.00  0.00    -0.149 C  
HETATM   13  C   UNL     1      -8.387   4.575  71.667  1.00  0.00    -0.105 A  
HETATM   14  C   UNL     1      -9.700   8.636  72.286  1.00  0.00    -0.357 C  
HETATM   15  C   UNL     1     -10.939   8.821  71.110  1.00  0.00    -0.334 C  
HETATM   16  C   UNL     1     -10.551   8.103  69.815  1.00  0.00    -0.231 C  
HETATM   17  C   UNL     1     -11.995   9.873  70.720  1.00  0.00    -0.323 C  
HETATM   18  N   UNL     1      -9.712   6.964  70.122  1.00  0.00    -0.171 NA 
HETATM   19  C   UNL     1      -8.298   7.436  69.952  1.00  0.00    -0.134 C  
ENDROOT
BRANCH  17  20
HETATM   20  N   UNL     1     -11.649  11.219  70.393  1.00  0.00    -0.472 N  
HETATM   21  H   UNL     1     -11.495  11.943  71.095  1.00  0.00     0.000 HD 
HETATM   22  C   UNL     1     -11.543  11.442  69.057  1.00  0.00    -0.317 C  
HETATM   23  O   UNL     1     -12.262  10.925  68.210  1.00  0.00    -0.526 OA 
BRANCH  22  24
HETATM   24  O   UNL     1     -10.443  12.163  68.826  1.00  0.00    -0.224 OA 
BRANCH  24  25
HETATM   25  C   UNL     1     -10.047  12.198  67.436  1.00  0.00    -0.199 C  
BRANCH  25  26
HETATM   26  C   UNL     1     -10.118  13.597  66.920  1.00  0.00    -0.260 A  
HETATM   27  C   UNL     1      -9.918  14.660  67.799  1.00  0.00    -0.224 A  
HETATM   28  C   UNL     1      -9.907  15.968  67.323  1.00  0.00    -0.236 A  
HETATM   29  C   UNL     1     -10.103  16.219  65.966  1.00  0.00    -0.377 A  
HETATM   30  C   UNL     1     -10.316  15.163  65.082  1.00  0.00    -0.416 A  
HETATM   31  C   UNL     1     -10.325  13.852  65.556  1.00  0.00    -0.347 A  
ENDBRANCH  25  26
ENDBRANCH  24  25
ENDBRANCH  22  24
ENDBRANCH  17  20
TORSDOF 4
ENDMDL
MODEL      105
REMARK 921   NORMALIZED FREE ENERGY PREDICTED BY IDOCK:   -5.08 KCAL/MOL
REMARK 922        TOTAL FREE ENERGY PREDICTED BY IDOCK:   -6.84 KCAL/MOL
REMARK 923 INTER-LIGAND FREE ENERGY PREDICTED BY IDOCK:   -6.31 KCAL/MOL
REMARK 924 INTRA-LIGAND FREE ENERGY PREDICTED BY IDOCK:   -0.53 KCAL/MOL
REMARK 927      BINDING AFFINITY PREDICTED BY RF-SCORE:    0.00 PKD
ROOT
HETATM    1  C   UNL     1      -9.796  15.526  66.734  1.00  0.00    -0.241 C  
HETATM    2  C   UNL     1     -10.390  16.736  66.030  1.00  0.00    -0.346 C  
HETATM    3  C   UNL     1      -9.988  17.862  66.806  1.00  0.00    -0.339 A  
HETATM    4  C   UNL     1     -10.671  18.981  67.150  1.00  0.00    -0.456 A  
HETATM    5  N   UNL     1      -9.903  19.601  68.094  1.00  0.00    -0.393 NA 
HETATM    6  C   UNL     1     -10.436  20.716  68.847  1.00  0.00     0.472 C  
HETATM    7  C   UNL     1      -8.701  18.915  68.268  1.00  0.00    -0.333 A  
HETATM    8  C   UNL     1      -7.566  19.155  69.036  1.00  0.00    -0.337 A  
HETATM    9  C   UNL     1      -6.560  18.163  68.973  1.00  0.00    -0.253 A  
HETATM   10  C   UNL     1      -6.693  16.922  68.266  1.00  0.00    -0.159 A  
HETATM   11  C   UNL     1      -7.857  16.620  67.543  1.00  0.00    -0.191 A  
HETATM   12  C   UNL     1      -8.291  15.273  66.749  1.00  0.00    -0.258 C  
HETATM   13  C   UNL     1      -8.765  17.765  67.502  1.00  0.00    -0.239 A  
HETATM   14  C   UNL     1      -8.556  13.502  66.879  1.00  0.00    -0.114 C  
HETATM   15  C   UNL     1     -10.210  13.033  66.885  1.00  0.00    -0.244 C  
HETATM   16  C   UNL     1     -10.983  13.834  67.936  1.00  0.00    -0.253 C  
HETATM   17  C   UNL     1     -11.037  11.761  66.617  1.00  0.00    -0.310 C  
HETATM   18  N   UNL     1     -10.378  15.138  68.096  1.00  0.00    -0.236 NA 
HETATM   19  C   UNL     1      -9.455  15.022  69.274  1.00  0.00    -0.170 C  
ENDROOT
BRANCH  17  20
HETATM   20  N   UNL     1     -10.811  10.541  67.323  1.00  0.00    -0.286 N  
HETATM   21  H   UNL     1     -10.261   9.770  66.946  1.00  0.00     0.000 HD 
HETATM   22  C   UNL     1     -11.402  10.506  68.547  1.00  0.00    -0.257 C  
HETATM   23  O   UNL     1     -12.494  11.000  68.802  1.00  0.00    -0.468 OA 
BRANCH  22  24
HETATM   24  O   UNL     1     -10.533  10.008  69.430  1.00  0.00    -0.202 OA 
BRANCH  24  25
HETATM   25  C   UNL     1      -9.715   8.938  68.906  1.00  0.00    -0.171 C  
BRANCH  25  26
HETATM   26  C   UNL     1      -8.288   9.150  69.293  1.00  0.00    -0.123 A  
HETATM   27  C   UNL     1      -7.913   9.001  70.627  1.00  0.00    -0.159 A  
HETATM   28  C   UNL     1      -6.576   9.123  70.995  1.00  0.00    -0.086 A  
HETATM   29  C   UNL     1      -5.608   9.399  70.030  1.00  0.00    -0.035 A  
HETATM   30  C   UNL     1      -5.977   9.562  68.696  1.00  0.00    -0.043 A  
HETATM   31  C   UNL     1      -7.314   9.438  68.325  1.00  0.00    -0.078 A  
ENDBRANCH  25  26
ENDBRANCH  24  25
ENDBRANCH  22  24
ENDBRANCH  17  20
TORSDOF 4
ENDMDL
MODEL      106
REMARK 921   NORMALIZED FREE ENERGY PREDICTED BY IDOCK:   -5.06 KCAL/MOL
REMARK 922        TOTAL FREE ENERGY PREDICTED BY IDOCK:   -6.83 KCAL/MOL
REMARK 923 INTER-LIGAND FREE ENERGY PREDICTED BY IDOCK:   -6.46 KCAL/MOL
REMARK 924 INTRA-LIGAND FREE ENERGY PREDICTED BY IDOCK:   -0.37 KCAL/MOL
REMARK 927      BINDING AFFINITY PREDICTED BY RF-SCORE:    0.00 PKD
ROOT
HETATM    1  C   UNL     1      -7.636   9.015  68.166  1.00  0.00    -0.092 C  
HETATM    2  C   UNL     1      -6.607   7.933  68.452  1.00  0.00    -0.062 C  
HETATM    3  C   UNL     1      -7.277   6.977  69.270  1.00  0.00    -0.086 A  
HETATM    4  C   UNL     1      -6.836   6.277  70.344  1.00  0.00    -0.055 A  
HETATM    5  N   UNL     1      -7.951   5.702  70.886  1.00  0.00    -0.107 NA 
HETATM    6  C   UNL     1      -7.881   5.061  72.180  1.00  0.00    -0.110 C  
HETATM    7  C   UNL     1      -9.069   5.970  70.094  1.00  0.00    -0.147 A  
HETATM    8  C   UNL     1     -10.400   5.573  70.156  1.00  0.00    -0.354 A  
HETATM    9  C   UNL     1     -11.252   6.123  69.170  1.00  0.00    -0.409 A  
HETATM   10  C   UNL     1     -10.846   7.112  68.212  1.00  0.00    -0.156 A  
HETATM   11  C   UNL     1      -9.526   7.586  68.175  1.00  0.00    -0.147 A  
HETATM   12  C   UNL     1      -8.843   8.749  67.271  1.00  0.00    -0.141 C  
HETATM   13  C   UNL     1      -8.669   6.838  69.094  1.00  0.00    -0.131 A  
HETATM   14  C   UNL     1      -8.910  10.477  66.791  1.00  0.00    -0.139 C  
HETATM   15  C   UNL     1      -7.679  11.453  67.488  1.00  0.00    -0.125 C  
HETATM   16  C   UNL     1      -7.641  11.254  69.006  1.00  0.00    -0.106 C  
HETATM   17  C   UNL     1      -7.009  12.813  67.215  1.00  0.00    -0.080 C  
HETATM   18  N   UNL     1      -8.069   9.910  69.331  1.00  0.00    -0.125 NA 
HETATM   19  C   UNL     1      -9.528  10.012  69.664  1.00  0.00    -0.223 C  
ENDROOT
BRANCH  17  20
HETATM   20  N   UNL     1      -7.755  14.028  67.124  1.00  0.00    -0.356 N  
HETATM   21  H   UNL     1      -8.688  14.082  66.716  1.00  0.00     0.000 HD 
HETATM   22  C   UNL     1      -7.099  15.105  67.631  1.00  0.00    -0.186 C  
HETATM   23  O   UNL     1      -5.891  15.288  67.536  1.00  0.00    -0.293 OA 
BRANCH  22  24
HETATM   24  O   UNL     1      -7.950  15.814  68.377  1.00  0.00    -0.134 OA 
BRANCH  24  25
HETATM   25  C   UNL     1      -7.452  17.119  68.751  1.00  0.00    -0.250 C  
BRANCH  25  26
HETATM   26  C   UNL     1      -8.314  18.183  68.156  1.00  0.00    -0.285 A  
HETATM   27  C   UNL     1      -7.974  18.724  66.918  1.00  0.00    -0.262 A  
HETATM   28  C   UNL     1      -8.804  19.664  66.313  1.00  0.00    -0.410 A  
HETATM   29  C   UNL     1      -9.977  20.071  66.948  1.00  0.00    -0.584 A  
HETATM   30  C   UNL     1     -10.318  19.544  68.192  1.00  0.00    -0.550 A  
HETATM   31  C   UNL     1      -9.490  18.601  68.798  1.00  0.00    -0.358 A  
ENDBRANCH  25  26
ENDBRANCH  24  25
ENDBRANCH  22  24
ENDBRANCH  17  20
TORSDOF 4
ENDMDL
MODEL      107
REMARK 921   NORMALIZED FREE ENERGY PREDICTED BY IDOCK:   -4.96 KCAL/MOL
REMARK 922        TOTAL FREE ENERGY PREDICTED BY IDOCK:   -6.71 KCAL/MOL
REMARK 923 INTER-LIGAND FREE ENERGY PREDICTED BY IDOCK:   -6.30 KCAL/MOL
REMARK 924 INTRA-LIGAND FREE ENERGY PREDICTED BY IDOCK:   -0.40 KCAL/MOL
REMARK 927      BINDING AFFINITY PREDICTED BY RF-SCORE:    0.00 PKD
ROOT
HETATM    1  C   UNL     1      -9.882  13.201  66.621  1.00  0.00    -0.261 C  
HETATM    2  C   UNL     1     -10.293  13.890  65.329  1.00  0.00    -0.396 C  
HETATM    3  C   UNL     1     -10.051  15.278  65.546  1.00  0.00    -0.408 A  
HETATM    4  C   UNL     1     -10.775  16.364  65.180  1.00  0.00    -0.291 A  
HETATM    5  N   UNL     1     -10.220  17.415  65.851  1.00  0.00    -0.557 NA 
HETATM    6  C   UNL     1     -10.886  18.700  65.868  1.00  0.00    -0.073 C  
HETATM    7  C   UNL     1      -9.093  16.997  66.561  1.00  0.00    -0.264 A  
HETATM    8  C   UNL     1      -8.147  17.664  67.331  1.00  0.00    -0.217 A  
HETATM    9  C   UNL     1      -7.166  16.850  67.942  1.00  0.00    -0.159 A  
HETATM   10  C   UNL     1      -7.162  15.416  67.892  1.00  0.00    -0.160 A  
HETATM   11  C   UNL     1      -8.147  14.712  67.183  1.00  0.00    -0.213 A  
HETATM   12  C   UNL     1      -8.420  13.117  67.049  1.00  0.00    -0.139 C  
HETATM   13  C   UNL     1      -9.008  15.622  66.430  1.00  0.00    -0.362 A  
HETATM   14  C   UNL     1      -8.733  11.592  67.942  1.00  0.00    -0.154 C  
HETATM   15  C   UNL     1     -10.356  11.035  67.843  1.00  0.00    -0.213 C  
HETATM   16  C   UNL     1     -11.326  12.159  68.217  1.00  0.00    -0.289 C  
HETATM   17  C   UNL     1     -11.125   9.716  68.048  1.00  0.00    -0.047 C  
HETATM   18  N   UNL     1     -10.750  13.438  67.860  1.00  0.00    -0.242 NA 
HETATM   19  C   UNL     1     -10.104  13.962  69.109  1.00  0.00     0.082 C  
ENDROOT
BRANCH  17  20
HETATM   20  N   UNL     1     -11.075   8.986  69.275  1.00  0.00    -0.437 N  
HETATM   21  H   UNL     1     -11.566   9.276  70.119  1.00  0.00     0.000 HD 
HETATM   22  C   UNL     1     -10.307   7.866  69.206  1.00  0.00    -0.220 C  
HETATM   23  O   UNL     1      -9.266   7.779  68.566  1.00  0.00    -0.138 OA 
BRANCH  22  24
HETATM   24  O   UNL     1     -10.958   6.862  69.798  1.00  0.00    -0.247 OA 
BRANCH  24  25
HETATM   25  C   UNL     1     -10.353   6.421  71.035  1.00  0.00    -0.206 C  
BRANCH  25  26
HETATM   26  C   UNL     1      -9.445   5.263  70.775  1.00  0.00    -0.221 A  
HETATM   27  C   UNL     1      -8.115   5.333  71.182  1.00  0.00    -0.109 A  
HETATM   28  C   UNL     1      -7.274   4.237  71.014  1.00  0.00    -0.037 A  
HETATM   29  C   UNL     1      -7.759   3.067  70.433  1.00  0.00    -0.043 A  
HETATM   30  C   UNL     1      -9.085   2.992  70.012  1.00  0.00    -0.194 A  
HETATM   31  C   UNL     1      -9.930   4.087  70.181  1.00  0.00    -0.084 A  
ENDBRANCH  25  26
ENDBRANCH  24  25
ENDBRANCH  22  24
ENDBRANCH  17  20
TORSDOF 4
ENDMDL
MODEL      108
REMARK 921   NORMALIZED FREE ENERGY PREDICTED BY IDOCK:   -4.94 KCAL/MOL
REMARK 922        TOTAL FREE ENERGY PREDICTED BY IDOCK:   -6.68 KCAL/MOL
REMARK 923 INTER-LIGAND FREE ENERGY PREDICTED BY IDOCK:   -5.52 KCAL/MOL
REMARK 924 INTRA-LIGAND FREE ENERGY PREDICTED BY IDOCK:   -1.16 KCAL/MOL
REMARK 927      BINDING AFFINITY PREDICTED BY RF-SCORE:    0.00 PKD
ROOT
HETATM    1  C   UNL     1      -9.608   8.662  68.063  1.00  0.00    -0.149 C  
HETATM    2  C   UNL     1     -10.068   9.034  66.662  1.00  0.00    -0.355 C  
HETATM    3  C   UNL     1      -9.868  10.442  66.558  1.00  0.00    -0.256 A  
HETATM    4  C   UNL     1     -10.637  11.398  65.979  1.00  0.00    -0.266 A  
HETATM    5  N   UNL     1     -10.103  12.588  66.385  1.00  0.00    -0.238 NA 
HETATM    6  C   UNL     1     -10.811  13.824  66.134  1.00  0.00    -0.279 C  
HETATM    7  C   UNL     1      -8.949  12.371  67.138  1.00  0.00    -0.195 A  
HETATM    8  C   UNL     1      -8.010  13.219  67.715  1.00  0.00    -0.166 A  
HETATM    9  C   UNL     1      -6.989  12.590  68.464  1.00  0.00    -0.086 A  
HETATM   10  C   UNL     1      -6.938  11.181  68.735  1.00  0.00    -0.088 A  
HETATM   11  C   UNL     1      -7.913  10.309  68.227  1.00  0.00    -0.106 A  
HETATM   12  C   UNL     1      -8.136   8.718  68.458  1.00  0.00    -0.116 C  
HETATM   13  C   UNL     1      -8.820  11.004  67.314  1.00  0.00    -0.135 A  
HETATM   14  C   UNL     1      -8.379   7.423  69.677  1.00  0.00    -0.132 C  
HETATM   15  C   UNL     1      -9.984   6.811  69.748  1.00  0.00    -0.189 C  
HETATM   16  C   UNL     1     -10.983   7.963  69.890  1.00  0.00    -0.178 C  
HETATM   17  C   UNL     1     -10.703   5.551  70.263  1.00  0.00    -0.263 C  
HETATM   18  N   UNL     1     -10.458   9.146  69.242  1.00  0.00    -0.219 NA 
HETATM   19  C   UNL     1      -9.805   9.953  70.325  1.00  0.00    -0.179 C  
ENDROOT
BRANCH  17  20
HETATM   20  N   UNL     1     -10.604   5.114  71.619  1.00  0.00    -0.192 N  
HETATM   21  H   UNL     1      -9.968   4.378  71.925  1.00  0.00     0.000 HD 
HETATM   22  C   UNL     1     -11.439   5.775  72.464  1.00  0.00    -0.296 C  
HETATM   23  O   UNL     1     -12.572   6.140  72.171  1.00  0.00    -0.214 OA 
BRANCH  22  24
HETATM   24  O   UNL     1     -10.766   6.098  73.570  1.00  0.00    -0.259 OA 
BRANCH  24  25
HETATM   25  C   UNL     1     -10.226   7.439  73.556  1.00  0.00    -0.349 C  
BRANCH  25  26
HETATM   26  C   UNL     1      -8.737   7.389  73.455  1.00  0.00    -0.202 A  
HETATM   27  C   UNL     1      -8.079   6.179  73.660  1.00  0.00    -0.104 A  
HETATM   28  C   UNL     1      -6.699   6.097  73.497  1.00  0.00    -0.075 A  
HETATM   29  C   UNL     1      -5.970   7.228  73.133  1.00  0.00    -0.055 A  
HETATM   30  C   UNL     1      -6.620   8.446  72.938  1.00  0.00    -0.106 A  
HETATM   31  C   UNL     1      -8.001   8.530  73.097  1.00  0.00    -0.069 A  
ENDBRANCH  25  26
ENDBRANCH  24  25
ENDBRANCH  22  24
ENDBRANCH  17  20
TORSDOF 4
ENDMDL
MODEL      109
REMARK 921   NORMALIZED FREE ENERGY PREDICTED BY IDOCK:   -4.93 KCAL/MOL
REMARK 922        TOTAL FREE ENERGY PREDICTED BY IDOCK:   -6.67 KCAL/MOL
REMARK 923 INTER-LIGAND FREE ENERGY PREDICTED BY IDOCK:   -7.36 KCAL/MOL
REMARK 924 INTRA-LIGAND FREE ENERGY PREDICTED BY IDOCK:    0.69 KCAL/MOL
REMARK 927      BINDING AFFINITY PREDICTED BY RF-SCORE:    0.00 PKD
ROOT
HETATM    1  C   UNL     1      -7.671  16.191  68.681  1.00  0.00    -0.186 C  
HETATM    2  C   UNL     1      -6.744  17.190  69.356  1.00  0.00    -0.199 C  
HETATM    3  C   UNL     1      -6.982  18.432  68.699  1.00  0.00    -0.281 A  
HETATM    4  C   UNL     1      -6.118  19.406  68.321  1.00  0.00    -0.222 A  
HETATM    5  N   UNL     1      -6.841  20.246  67.522  1.00  0.00    -0.251 NA 
HETATM    6  C   UNL     1      -6.173  21.279  66.761  1.00  0.00    -0.325 C  
HETATM    7  C   UNL     1      -8.177  19.844  67.480  1.00  0.00    -0.322 A  
HETATM    8  C   UNL     1      -9.316  20.376  66.888  1.00  0.00    -0.477 A  
HETATM    9  C   UNL     1     -10.500  19.617  67.038  1.00  0.00    -0.600 A  
HETATM   10  C   UNL     1     -10.557  18.324  67.658  1.00  0.00    -0.427 A  
HETATM   11  C   UNL     1      -9.407  17.728  68.200  1.00  0.00    -0.281 A  
HETATM   12  C   UNL     1      -9.184  16.262  68.859  1.00  0.00    -0.249 C  
HETATM   13  C   UNL     1      -8.272  18.650  68.173  1.00  0.00    -0.327 A  
HETATM   14  C   UNL     1      -9.331  14.491  68.606  1.00  0.00    -0.199 C  
HETATM   15  C   UNL     1      -7.834  13.686  68.351  1.00  0.00    -0.140 C  
HETATM   16  C   UNL     1      -7.039  14.386  67.245  1.00  0.00     0.055 C  
HETATM   17  C   UNL     1      -7.279  12.252  68.439  1.00  0.00    -0.102 C  
HETATM   18  N   UNL     1      -7.359  15.797  67.234  1.00  0.00    -0.203 NA 
HETATM   19  C   UNL     1      -8.422  15.970  66.189  1.00  0.00    -0.212 C  
ENDROOT
BRANCH  17  20
HETATM   20  N   UNL     1      -7.851  11.165  67.711  1.00  0.00    -0.111 N  
HETATM   21  H   UNL     1      -7.668  10.187  67.931  1.00  0.00     0.000 HD 
HETATM   22  C   UNL     1      -8.664  11.562  66.696  1.00  0.00    -0.182 C  
HETATM   23  O   UNL     1      -8.461  12.543  65.991  1.00  0.00     0.318 OA 
BRANCH  22  24
HETATM   24  O   UNL     1      -9.773  10.819  66.717  1.00  0.00    -0.179 OA 
BRANCH  24  25
HETATM   25  C   UNL     1     -10.953  11.542  67.135  1.00  0.00    -0.286 C  
BRANCH  25  26
HETATM   26  C   UNL     1     -11.334  11.139  68.521  1.00  0.00    -0.348 A  
HETATM   27  C   UNL     1     -12.011  12.046  69.334  1.00  0.00    -0.334 A  
HETATM   28  C   UNL     1     -12.439  11.665  70.602  1.00  0.00    -0.386 A  
HETATM   29  C   UNL     1     -12.188  10.375  71.065  1.00  0.00    -0.498 A  
HETATM   30  C   UNL     1     -11.501   9.465  70.264  1.00  0.00    -0.223 A  
HETATM   31  C   UNL     1     -11.074   9.843  68.993  1.00  0.00    -0.184 A  
ENDBRANCH  25  26
ENDBRANCH  24  25
ENDBRANCH  22  24
ENDBRANCH  17  20
TORSDOF 4
ENDMDL
MODEL      110
REMARK 921   NORMALIZED FREE ENERGY PREDICTED BY IDOCK:   -4.93 KCAL/MOL
REMARK 922        TOTAL FREE ENERGY PREDICTED BY IDOCK:   -6.66 KCAL/MOL
REMARK 923 INTER-LIGAND FREE ENERGY PREDICTED BY IDOCK:   -6.86 KCAL/MOL
REMARK 924 INTRA-LIGAND FREE ENERGY PREDICTED BY IDOCK:    0.20 KCAL/MOL
REMARK 927      BINDING AFFINITY PREDICTED BY RF-SCORE:    0.00 PKD
ROOT
HETATM    1  C   UNL     1      -9.343   9.861  65.672  1.00  0.00    -0.214 C  
HETATM    2  C   UNL     1      -9.722  10.352  64.284  1.00  0.00    -0.389 C  
HETATM    3  C   UNL     1     -10.081  11.721  64.450  1.00  0.00    -0.319 A  
HETATM    4  C   UNL     1     -11.080  12.442  63.883  1.00  0.00    -0.415 A  
HETATM    5  N   UNL     1     -11.117  13.619  64.576  1.00  0.00    -0.379 NA 
HETATM    6  C   UNL     1     -12.215  14.541  64.382  1.00  0.00    -0.458 C  
HETATM    7  C   UNL     1     -10.082  13.665  65.510  1.00  0.00    -0.275 A  
HETATM    8  C   UNL     1      -9.639  14.638  66.399  1.00  0.00    -0.323 A  
HETATM    9  C   UNL     1      -8.563  14.264  67.236  1.00  0.00    -0.229 A  
HETATM   10  C   UNL     1      -7.997  12.946  67.283  1.00  0.00    -0.151 A  
HETATM   11  C   UNL     1      -8.473  11.922  66.449  1.00  0.00    -0.039 A  
HETATM   12  C   UNL     1      -8.079  10.350  66.372  1.00  0.00    -0.129 C  
HETATM   13  C   UNL     1      -9.450  12.434  65.489  1.00  0.00     0.008 A  
HETATM   14  C   UNL     1      -7.952   8.812  67.290  1.00  0.00    -0.097 C  
HETATM   15  C   UNL     1      -9.180   7.667  66.924  1.00  0.00    -0.179 C  
HETATM   16  C   UNL     1     -10.561   8.319  67.035  1.00  0.00    -0.258 C  
HETATM   17  C   UNL     1      -9.406   6.150  67.069  1.00  0.00    -0.124 C  
HETATM   18  N   UNL     1     -10.463   9.725  66.709  1.00  0.00    -0.215 NA 
HETATM   19  C   UNL     1     -10.331  10.444  68.019  1.00  0.00    -0.179 C  
ENDROOT
BRANCH  17  20
HETATM   20  N   UNL     1      -9.324   5.482  68.329  1.00  0.00    -0.109 N  
HETATM   21  H   UNL     1      -8.659   4.734  68.523  1.00  0.00     0.000 HD 
HETATM   22  C   UNL     1     -10.217   5.940  69.244  1.00  0.00    -0.213 C  
HETATM   23  O   UNL     1     -11.359   6.298  68.977  1.00  0.00    -0.390 OA 
BRANCH  22  24
HETATM   24  O   UNL     1      -9.595   6.090  70.416  1.00  0.00    -0.161 OA 
BRANCH  24  25
HETATM   25  C   UNL     1      -8.831   4.933  70.824  1.00  0.00    -0.126 C  
BRANCH  25  26
HETATM   26  C   UNL     1      -9.610   4.130  71.813  1.00  0.00    -0.223 A  
HETATM   27  C   UNL     1     -10.575   4.760  72.596  1.00  0.00    -0.271 A  
HETATM   28  C   UNL     1     -11.361   4.015  73.470  1.00  0.00    -0.280 A  
HETATM   29  C   UNL     1     -11.181   2.637  73.570  1.00  0.00    -0.306 A  
HETATM   30  C   UNL     1     -10.209   2.000  72.800  1.00  0.00    -0.214 A  
HETATM   31  C   UNL     1      -9.423   2.743  71.922  1.00  0.00    -0.200 A  
ENDBRANCH  25  26
ENDBRANCH  24  25
ENDBRANCH  22  24
ENDBRANCH  17  20
TORSDOF 4
ENDMDL
MODEL      111
REMARK 921   NORMALIZED FREE ENERGY PREDICTED BY IDOCK:   -4.90 KCAL/MOL
REMARK 922        TOTAL FREE ENERGY PREDICTED BY IDOCK:   -6.63 KCAL/MOL
REMARK 923 INTER-LIGAND FREE ENERGY PREDICTED BY IDOCK:   -6.38 KCAL/MOL
REMARK 924 INTRA-LIGAND FREE ENERGY PREDICTED BY IDOCK:   -0.25 KCAL/MOL
REMARK 927      BINDING AFFINITY PREDICTED BY RF-SCORE:    0.00 PKD
ROOT
HETATM    1  C   UNL     1      -9.925   5.649  69.330  1.00  0.00    -0.189 C  
HETATM    2  C   UNL     1      -9.565   4.195  69.068  1.00  0.00    -0.232 C  
HETATM    3  C   UNL     1      -9.101   3.688  70.317  1.00  0.00    -0.200 A  
HETATM    4  C   UNL     1      -8.075   2.848  70.597  1.00  0.00    -0.045 A  
HETATM    5  N   UNL     1      -7.925   2.895  71.954  1.00  0.00    -0.053 NA 
HETATM    6  C   UNL     1      -6.771   2.287  72.579  1.00  0.00    -0.018 C  
HETATM    7  C   UNL     1      -8.918   3.693  72.524  1.00  0.00    -0.103 A  
HETATM    8  C   UNL     1      -9.254   4.009  73.835  1.00  0.00    -0.097 A  
HETATM    9  C   UNL     1     -10.323   4.922  73.994  1.00  0.00    -0.298 A  
HETATM   10  C   UNL     1     -10.981   5.591  72.909  1.00  0.00    -0.332 A  
HETATM   11  C   UNL     1     -10.613   5.347  71.577  1.00  0.00    -0.285 A  
HETATM   12  C   UNL     1     -11.123   6.029  70.195  1.00  0.00    -0.432 C  
HETATM   13  C   UNL     1      -9.638   4.261  71.488  1.00  0.00    -0.234 A  
HETATM   14  C   UNL     1     -11.327   7.569  69.295  1.00  0.00     0.253 C  
HETATM   15  C   UNL     1     -10.201   7.796  68.017  1.00  0.00    -0.249 C  
HETATM   16  C   UNL     1      -8.772   7.584  68.527  1.00  0.00    -0.128 C  
HETATM   17  C   UNL     1     -10.081   8.646  66.739  1.00  0.00    -0.296 C  
HETATM   18  N   UNL     1      -8.780   6.626  69.611  1.00  0.00    -0.139 NA 
HETATM   19  C   UNL     1      -8.809   7.435  70.875  1.00  0.00    -0.148 C  
ENDROOT
BRANCH  17  20
HETATM   20  N   UNL     1     -10.164  10.072  66.759  1.00  0.00    -0.227 N  
HETATM   21  H   UNL     1     -10.774  10.588  67.392  1.00  0.00     0.000 HD 
HETATM   22  C   UNL     1      -9.351  10.674  65.851  1.00  0.00    -0.190 C  
HETATM   23  O   UNL     1      -9.118  10.234  64.731  1.00  0.00    -0.183 OA 
BRANCH  22  24
HETATM   24  O   UNL     1      -8.736  11.703  66.440  1.00  0.00    -0.192 OA 
BRANCH  24  25
HETATM   25  C   UNL     1      -9.622  12.558  67.197  1.00  0.00    -0.208 C  
BRANCH  25  26
HETATM   26  C   UNL     1     -10.158  13.642  66.321  1.00  0.00    -0.301 A  
HETATM   27  C   UNL     1     -11.235  13.371  65.480  1.00  0.00    -0.303 A  
HETATM   28  C   UNL     1     -11.795  14.387  64.710  1.00  0.00    -0.439 A  
HETATM   29  C   UNL     1     -11.275  15.679  64.774  1.00  0.00    -0.391 A  
HETATM   30  C   UNL     1     -10.190  15.956  65.604  1.00  0.00    -0.406 A  
HETATM   31  C   UNL     1      -9.630  14.941  66.377  1.00  0.00    -0.317 A  
ENDBRANCH  25  26
ENDBRANCH  24  25
ENDBRANCH  22  24
ENDBRANCH  17  20
TORSDOF 4
ENDMDL
MODEL      112
REMARK 921   NORMALIZED FREE ENERGY PREDICTED BY IDOCK:   -4.88 KCAL/MOL
REMARK 922        TOTAL FREE ENERGY PREDICTED BY IDOCK:   -6.60 KCAL/MOL
REMARK 923 INTER-LIGAND FREE ENERGY PREDICTED BY IDOCK:   -5.66 KCAL/MOL
REMARK 924 INTRA-LIGAND FREE ENERGY PREDICTED BY IDOCK:   -0.94 KCAL/MOL
REMARK 927      BINDING AFFINITY PREDICTED BY RF-SCORE:    0.00 PKD
ROOT
HETATM    1  C   UNL     1     -11.668  11.462  69.852  1.00  0.00    -0.346 C  
HETATM    2  C   UNL     1     -12.464  11.269  71.133  1.00  0.00    -0.479 C  
HETATM    3  C   UNL     1     -12.436   9.867  71.389  1.00  0.00    -0.495 A  
HETATM    4  C   UNL     1     -13.407   9.039  71.847  1.00  0.00    -0.417 A  
HETATM    5  N   UNL     1     -12.920   7.775  71.670  1.00  0.00    -0.340 NA 
HETATM    6  C   UNL     1     -13.788   6.631  71.845  1.00  0.00     0.095 C  
HETATM    7  C   UNL     1     -11.611   7.822  71.189  1.00  0.00    -0.281 A  
HETATM    8  C   UNL     1     -10.659   6.848  70.912  1.00  0.00    -0.243 A  
HETATM    9  C   UNL     1      -9.438   7.315  70.372  1.00  0.00    -0.165 A  
HETATM   10  C   UNL     1      -9.185   8.681  70.013  1.00  0.00    -0.160 A  
HETATM   11  C   UNL     1     -10.155   9.675  70.212  1.00  0.00    -0.331 A  
HETATM   12  C   UNL     1     -10.158  11.249  69.813  1.00  0.00     0.544 C  
HETATM   13  C   UNL     1     -11.308   9.150  70.942  1.00  0.00    -0.359 A  
HETATM   14  C   UNL     1      -9.991  12.433  68.474  1.00  0.00    -0.175 C  
HETATM   15  C   UNL     1     -11.469  13.162  67.986  1.00  0.00    -0.346 C  
HETATM   16  C   UNL     1     -12.523  12.087  67.707  1.00  0.00     1.218 C  
HETATM   17  C   UNL     1     -11.924  14.420  67.223  1.00  0.00    -0.377 C  
HETATM   18  N   UNL     1     -12.278  10.936  68.549  1.00  0.00    -0.461 NA 
HETATM   19  C   UNL     1     -11.485   9.975  67.713  1.00  0.00     0.342 C  
ENDROOT
BRANCH  17  20
HETATM   20  N   UNL     1     -11.481  14.711  65.897  1.00  0.00    -0.346 N  
HETATM   21  H   UNL     1     -10.630  15.235  65.694  1.00  0.00     0.000 HD 
HETATM   22  C   UNL     1     -12.303  14.222  64.932  1.00  0.00    -0.425 C  
HETATM   23  O   UNL     1     -13.525  14.181  65.019  1.00  0.00    -0.363 OA 
BRANCH  22  24
HETATM   24  O   UNL     1     -11.559  13.654  63.980  1.00  0.00    -0.378 OA 
BRANCH  24  25
HETATM   25  C   UNL     1     -10.179  13.450  64.359  1.00  0.00    -0.237 C  
BRANCH  25  26
HETATM   26  C   UNL     1      -9.769  12.046  64.056  1.00  0.00    -0.150 A  
HETATM   27  C   UNL     1      -9.898  11.562  62.756  1.00  0.00    -0.142 A  
HETATM   28  C   UNL     1      -9.453  10.283  62.439  1.00  0.00    -0.252 A  
HETATM   29  C   UNL     1      -8.881   9.478  63.423  1.00  0.00    -0.236 A  
HETATM   30  C   UNL     1      -8.759   9.950  64.729  1.00  0.00    -0.210 A  
HETATM   31  C   UNL     1      -9.201  11.232  65.049  1.00  0.00    -0.147 A  
ENDBRANCH  25  26
ENDBRANCH  24  25
ENDBRANCH  22  24
ENDBRANCH  17  20
TORSDOF 4
ENDMDL
MODEL      113
REMARK 921   NORMALIZED FREE ENERGY PREDICTED BY IDOCK:   -4.84 KCAL/MOL
REMARK 922        TOTAL FREE ENERGY PREDICTED BY IDOCK:   -6.55 KCAL/MOL
REMARK 923 INTER-LIGAND FREE ENERGY PREDICTED BY IDOCK:   -6.15 KCAL/MOL
REMARK 924 INTRA-LIGAND FREE ENERGY PREDICTED BY IDOCK:   -0.41 KCAL/MOL
REMARK 927      BINDING AFFINITY PREDICTED BY RF-SCORE:    0.00 PKD
ROOT
HETATM    1  C   UNL     1      -9.043  11.037  67.059  1.00  0.00    -0.147 C  
HETATM    2  C   UNL     1      -8.737  11.803  65.781  1.00  0.00     0.132 C  
HETATM    3  C   UNL     1      -9.757  12.794  65.679  1.00  0.00    -0.131 A  
HETATM    4  C   UNL     1     -10.438  13.245  64.597  1.00  0.00    -0.402 A  
HETATM    5  N   UNL     1     -11.456  14.005  65.099  1.00  0.00    -0.317 NA 
HETATM    6  C   UNL     1     -12.518  14.462  64.230  1.00  0.00    -0.272 C  
HETATM    7  C   UNL     1     -11.351  14.101  66.488  1.00  0.00    -0.341 A  
HETATM    8  C   UNL     1     -12.069  14.795  67.454  1.00  0.00    -0.122 A  
HETATM    9  C   UNL     1     -11.669  14.579  68.793  1.00  0.00    -0.362 A  
HETATM   10  C   UNL     1     -10.664  13.634  69.192  1.00  0.00    -0.137 A  
HETATM   11  C   UNL     1      -9.973  12.866  68.243  1.00  0.00    -0.234 A  
HETATM   12  C   UNL     1      -8.879  11.682  68.432  1.00  0.00    -0.161 C  
HETATM   13  C   UNL     1     -10.309  13.280  66.882  1.00  0.00    -0.255 A  
HETATM   14  C   UNL     1      -8.546  10.084  69.180  1.00  0.00    -0.158 C  
HETATM   15  C   UNL     1      -8.546   8.770  68.071  1.00  0.00    -0.134 C  
HETATM   16  C   UNL     1      -9.828   8.785  67.233  1.00  0.00    -0.201 C  
HETATM   17  C   UNL     1      -8.007   7.329  68.008  1.00  0.00    -0.119 C  
HETATM   18  N   UNL     1     -10.289  10.147  67.073  1.00  0.00    -0.233 NA 
HETATM   19  C   UNL     1     -11.321  10.360  68.141  1.00  0.00    -0.213 C  
ENDROOT
BRANCH  17  20
HETATM   20  N   UNL     1      -8.339   6.346  68.989  1.00  0.00    -0.118 N  
HETATM   21  H   UNL     1      -8.342   6.534  69.992  1.00  0.00     0.000 HD 
HETATM   22  C   UNL     1      -8.650   5.134  68.458  1.00  0.00    -0.094 C  
HETATM   23  O   UNL     1      -8.102   4.649  67.474  1.00  0.00    -0.100 OA 
BRANCH  22  24
HETATM   24  O   UNL     1      -9.737   4.662  69.070  1.00  0.00    -0.160 OA 
BRANCH  24  25
HETATM   25  C   UNL     1     -10.317   5.580  70.025  1.00  0.00    -0.288 C  
BRANCH  25  26
HETATM   26  C   UNL     1     -10.458   4.913  71.353  1.00  0.00    -0.170 A  
HETATM   27  C   UNL     1      -9.895   3.654  71.549  1.00  0.00    -0.227 A  
HETATM   28  C   UNL     1      -9.952   3.049  72.801  1.00  0.00    -0.214 A  
HETATM   29  C   UNL     1     -10.580   3.699  73.863  1.00  0.00    -0.286 A  
HETATM   30  C   UNL     1     -11.156   4.953  73.673  1.00  0.00    -0.370 A  
HETATM   31  C   UNL     1     -11.097   5.563  72.421  1.00  0.00    -0.312 A  
ENDBRANCH  25  26
ENDBRANCH  24  25
ENDBRANCH  22  24
ENDBRANCH  17  20
TORSDOF 4
ENDMDL
MODEL      114
REMARK 921   NORMALIZED FREE ENERGY PREDICTED BY IDOCK:   -4.82 KCAL/MOL
REMARK 922        TOTAL FREE ENERGY PREDICTED BY IDOCK:   -6.53 KCAL/MOL
REMARK 923 INTER-LIGAND FREE ENERGY PREDICTED BY IDOCK:   -5.46 KCAL/MOL
REMARK 924 INTRA-LIGAND FREE ENERGY PREDICTED BY IDOCK:   -1.07 KCAL/MOL
REMARK 927      BINDING AFFINITY PREDICTED BY RF-SCORE:    0.00 PKD
ROOT
HETATM    1  C   UNL     1     -11.261   9.386  70.239  1.00  0.00    -0.246 C  
HETATM    2  C   UNL     1     -12.383  10.066  71.007  1.00  0.00    -0.458 C  
HETATM    3  C   UNL     1     -12.410  11.409  70.531  1.00  0.00    -0.439 A  
HETATM    4  C   UNL     1     -12.601  12.574  71.198  1.00  0.00    -0.253 A  
HETATM    5  N   UNL     1     -12.284  13.559  70.307  1.00  0.00    -0.350 NA 
HETATM    6  C   UNL     1     -12.161  14.930  70.754  1.00  0.00    -0.317 C  
HETATM    7  C   UNL     1     -11.986  13.009  69.060  1.00  0.00    -0.267 A  
HETATM    8  C   UNL     1     -11.677  13.560  67.822  1.00  0.00    -0.394 A  
HETATM    9  C   UNL     1     -11.378  12.636  66.794  1.00  0.00    -0.373 A  
HETATM   10  C   UNL     1     -11.280  11.217  66.988  1.00  0.00    -0.324 A  
HETATM   11  C   UNL     1     -11.514  10.639  68.244  1.00  0.00    -0.318 A  
HETATM   12  C   UNL     1     -11.378   9.100  68.745  1.00  0.00     0.380 C  
HETATM   13  C   UNL     1     -11.998  11.632  69.202  1.00  0.00    -0.378 A  
HETATM   14  C   UNL     1     -10.281   7.687  68.894  1.00  0.00    -0.217 C  
HETATM   15  C   UNL     1      -9.737   7.381  70.495  1.00  0.00    -0.175 C  
HETATM   16  C   UNL     1      -9.156   8.658  71.110  1.00  0.00    -0.209 C  
HETATM   17  C   UNL     1      -9.136   6.208  71.292  1.00  0.00    -0.143 C  
HETATM   18  N   UNL     1      -9.824   9.814  70.551  1.00  0.00    -0.230 NA 
HETATM   19  C   UNL     1      -8.949  10.293  69.431  1.00  0.00    -0.176 C  
ENDROOT
BRANCH  17  20
HETATM   20  N   UNL     1      -7.942   5.539  70.885  1.00  0.00    -0.103 N  
HETATM   21  H   UNL     1      -7.937   4.726  70.270  1.00  0.00     0.000 HD 
HETATM   22  C   UNL     1      -6.811   6.093  71.396  1.00  0.00    -0.067 C  
HETATM   23  O   UNL     1      -6.721   6.569  72.522  1.00  0.00    -0.063 OA 
BRANCH  22  24
HETATM   24  O   UNL     1      -5.898   6.181  70.426  1.00  0.00    -0.017 OA 
BRANCH  24  25
HETATM   25  C   UNL     1      -6.446   6.061  69.094  1.00  0.00    -0.043 C  
BRANCH  25  26
HETATM   26  C   UNL     1      -6.257   7.340  68.347  1.00  0.00    -0.035 A  
HETATM   27  C   UNL     1      -5.657   8.422  68.986  1.00  0.00    -0.039 A  
HETATM   28  C   UNL     1      -5.405   9.597  68.285  1.00  0.00    -0.036 A  
HETATM   29  C   UNL     1      -5.758   9.698  66.940  1.00  0.00    -0.051 A  
HETATM   30  C   UNL     1      -6.370   8.624  66.295  1.00  0.00    -0.061 A  
HETATM   31  C   UNL     1      -6.620   7.445  66.995  1.00  0.00    -0.061 A  
ENDBRANCH  25  26
ENDBRANCH  24  25
ENDBRANCH  22  24
ENDBRANCH  17  20
TORSDOF 4
ENDMDL
MODEL      115
REMARK 921   NORMALIZED FREE ENERGY PREDICTED BY IDOCK:   -4.77 KCAL/MOL
REMARK 922        TOTAL FREE ENERGY PREDICTED BY IDOCK:   -6.46 KCAL/MOL
REMARK 923 INTER-LIGAND FREE ENERGY PREDICTED BY IDOCK:   -6.18 KCAL/MOL
REMARK 924 INTRA-LIGAND FREE ENERGY PREDICTED BY IDOCK:   -0.28 KCAL/MOL
REMARK 927      BINDING AFFINITY PREDICTED BY RF-SCORE:    0.00 PKD
ROOT
HETATM    1  C   UNL     1      -9.582   7.687  69.890  1.00  0.00    -0.160 C  
HETATM    2  C   UNL     1     -10.218   6.419  70.439  1.00  0.00    -0.233 C  
HETATM    3  C   UNL     1      -9.531   5.344  69.803  1.00  0.00    -0.202 A  
HETATM    4  C   UNL     1     -10.000   4.169  69.314  1.00  0.00     0.055 A  
HETATM    5  N   UNL     1      -8.966   3.634  68.600  1.00  0.00    -0.115 NA 
HETATM    6  C   UNL     1      -9.188   2.482  67.753  1.00  0.00    -0.197 C  
HETATM    7  C   UNL     1      -7.827   4.431  68.723  1.00  0.00    -0.070 A  
HETATM    8  C   UNL     1      -6.520   4.307  68.267  1.00  0.00    -0.038 A  
HETATM    9  C   UNL     1      -5.658   5.387  68.566  1.00  0.00    -0.011 A  
HETATM   10  C   UNL     1      -6.078   6.603  69.201  1.00  0.00    -0.026 A  
HETATM   11  C   UNL     1      -7.409   6.787  69.606  1.00  0.00    -0.087 A  
HETATM   12  C   UNL     1      -8.152   8.080  70.249  1.00  0.00    -0.113 C  
HETATM   13  C   UNL     1      -8.188   5.562  69.434  1.00  0.00    -0.098 A  
HETATM   14  C   UNL     1      -8.540   9.819  70.033  1.00  0.00    -0.229 C  
HETATM   15  C   UNL     1     -10.176  10.131  69.607  1.00  0.00    -0.272 C  
HETATM   16  C   UNL     1     -10.583   9.273  68.407  1.00  0.00    -0.190 C  
HETATM   17  C   UNL     1     -11.158  11.317  69.643  1.00  0.00    -0.206 C  
HETATM   18  N   UNL     1      -9.839   8.032  68.420  1.00  0.00    -0.166 NA 
HETATM   19  C   UNL     1      -8.666   8.247  67.510  1.00  0.00    -0.129 C  
ENDROOT
BRANCH  17  20
HETATM   20  N   UNL     1     -10.878  12.561  69.000  1.00  0.00    -0.376 N  
HETATM   21  H   UNL     1     -10.147  12.676  68.297  1.00  0.00     0.000 HD 
HETATM   22  C   UNL     1     -11.679  13.577  69.414  1.00  0.00    -0.325 C  
HETATM   23  O   UNL     1     -12.071  13.723  70.567  1.00  0.00    -0.330 OA 
BRANCH  22  24
HETATM   24  O   UNL     1     -12.090  14.265  68.347  1.00  0.00    -0.335 OA 
BRANCH  24  25
HETATM   25  C   UNL     1     -11.039  14.556  67.398  1.00  0.00    -0.314 C  
BRANCH  25  26
HETATM   26  C   UNL     1     -10.793  16.028  67.344  1.00  0.00    -0.277 A  
HETATM   27  C   UNL     1     -10.708  16.750  68.532  1.00  0.00    -0.358 A  
HETATM   28  C   UNL     1     -10.407  18.109  68.504  1.00  0.00    -0.352 A  
HETATM   29  C   UNL     1     -10.194  18.753  67.286  1.00  0.00    -0.438 A  
HETATM   30  C   UNL     1     -10.289  18.040  66.092  1.00  0.00    -0.368 A  
HETATM   31  C   UNL     1     -10.588  16.679  66.118  1.00  0.00    -0.218 A  
ENDBRANCH  25  26
ENDBRANCH  24  25
ENDBRANCH  22  24
ENDBRANCH  17  20
TORSDOF 4
ENDMDL
MODEL      116
REMARK 921   NORMALIZED FREE ENERGY PREDICTED BY IDOCK:   -4.69 KCAL/MOL
REMARK 922        TOTAL FREE ENERGY PREDICTED BY IDOCK:   -6.37 KCAL/MOL
REMARK 923 INTER-LIGAND FREE ENERGY PREDICTED BY IDOCK:   -6.35 KCAL/MOL
REMARK 924 INTRA-LIGAND FREE ENERGY PREDICTED BY IDOCK:   -0.03 KCAL/MOL
REMARK 927      BINDING AFFINITY PREDICTED BY RF-SCORE:    0.00 PKD
ROOT
HETATM    1  C   UNL     1      -9.453  14.691  68.910  1.00  0.00    -0.173 C  
HETATM    2  C   UNL     1      -8.444  15.376  69.818  1.00  0.00     0.000 C  
HETATM    3  C   UNL     1      -8.089  16.583  69.149  1.00  0.00    -0.170 A  
HETATM    4  C   UNL     1      -6.886  17.196  69.023  1.00  0.00    -0.231 A  
HETATM    5  N   UNL     1      -7.071  18.172  68.084  1.00  0.00    -0.228 NA 
HETATM    6  C   UNL     1      -5.934  18.880  67.539  1.00  0.00    -0.182 C  
HETATM    7  C   UNL     1      -8.411  18.224  67.697  1.00  0.00    -0.247 A  
HETATM    8  C   UNL     1      -9.127  19.058  66.846  1.00  0.00    -0.327 A  
HETATM    9  C   UNL     1     -10.494  18.736  66.675  1.00  0.00    -0.483 A  
HETATM   10  C   UNL     1     -11.125  17.574  67.233  1.00  0.00     0.138 A  
HETATM   11  C   UNL     1     -10.408  16.674  68.036  1.00  0.00    -0.303 A  
HETATM   12  C   UNL     1     -10.852  15.261  68.700  1.00  0.00    -0.253 C  
HETATM   13  C   UNL     1      -9.063  17.173  68.317  1.00  0.00    -0.259 A  
HETATM   14  C   UNL     1     -11.509  13.621  68.381  1.00  0.00    -0.346 C  
HETATM   15  C   UNL     1     -10.349  12.359  68.497  1.00  0.00    -0.232 C  
HETATM   16  C   UNL     1      -9.120  12.689  67.644  1.00  0.00    -0.192 C  
HETATM   17  C   UNL     1     -10.339  10.832  68.694  1.00  0.00    -0.192 C  
HETATM   18  N   UNL     1      -8.943  14.124  67.581  1.00  0.00    -0.183 NA 
HETATM   19  C   UNL     1      -9.597  14.565  66.305  1.00  0.00    -0.304 C  
ENDROOT
BRANCH  17  20
HETATM   20  N   UNL     1     -11.040   9.944  67.822  1.00  0.00    -0.473 N  
HETATM   21  H   UNL     1     -11.598  10.263  67.030  1.00  0.00     0.000 HD 
HETATM   22  C   UNL     1     -10.893   8.634  68.150  1.00  0.00     0.043 C  
HETATM   23  O   UNL     1     -10.832   8.211  69.299  1.00  0.00    -0.172 OA 
BRANCH  22  24
HETATM   24  O   UNL     1     -10.659   7.935  67.037  1.00  0.00    -0.337 OA 
BRANCH  24  25
HETATM   25  C   UNL     1     -11.155   6.578  67.083  1.00  0.00    -0.360 C  
BRANCH  25  26
HETATM   26  C   UNL     1     -10.108   5.670  67.638  1.00  0.00    -0.208 A  
HETATM   27  C   UNL     1      -8.934   5.460  66.917  1.00  0.00    -0.110 A  
HETATM   28  C   UNL     1      -7.916   4.677  67.451  1.00  0.00    -0.101 A  
HETATM   29  C   UNL     1      -8.069   4.094  68.708  1.00  0.00    -0.074 A  
HETATM   30  C   UNL     1      -9.244   4.288  69.431  1.00  0.00    -0.203 A  
HETATM   31  C   UNL     1     -10.264   5.075  68.899  1.00  0.00    -0.184 A  
ENDBRANCH  25  26
ENDBRANCH  24  25
ENDBRANCH  22  24
ENDBRANCH  17  20
TORSDOF 4
ENDMDL
MODEL      117
REMARK 921   NORMALIZED FREE ENERGY PREDICTED BY IDOCK:   -4.69 KCAL/MOL
REMARK 922        TOTAL FREE ENERGY PREDICTED BY IDOCK:   -6.36 KCAL/MOL
REMARK 923 INTER-LIGAND FREE ENERGY PREDICTED BY IDOCK:   -5.97 KCAL/MOL
REMARK 924 INTRA-LIGAND FREE ENERGY PREDICTED BY IDOCK:   -0.39 KCAL/MOL
REMARK 927      BINDING AFFINITY PREDICTED BY RF-SCORE:    0.00 PKD
ROOT
HETATM    1  C   UNL     1      -9.400   9.173  67.783  1.00  0.00    -0.136 C  
HETATM    2  C   UNL     1      -9.701   8.001  66.862  1.00  0.00    -0.291 C  
HETATM    3  C   UNL     1      -9.948   6.894  67.725  1.00  0.00    -0.180 A  
HETATM    4  C   UNL     1      -9.583   5.593  67.611  1.00  0.00    -0.118 A  
HETATM    5  N   UNL     1      -9.863   5.029  68.823  1.00  0.00    -0.164 NA 
HETATM    6  C   UNL     1      -9.392   3.696  69.130  1.00  0.00    -0.174 C  
HETATM    7  C   UNL     1     -10.488   5.957  69.657  1.00  0.00    -0.277 A  
HETATM    8  C   UNL     1     -11.030   5.879  70.935  1.00  0.00    -0.335 A  
HETATM    9  C   UNL     1     -11.534   7.090  71.464  1.00  0.00    -0.306 A  
HETATM   10  C   UNL     1     -11.423   8.364  70.813  1.00  0.00    -0.277 A  
HETATM   11  C   UNL     1     -10.815   8.484  69.554  1.00  0.00    -0.134 A  
HETATM   12  C   UNL     1     -10.482   9.797  68.659  1.00  0.00    -0.233 C  
HETATM   13  C   UNL     1     -10.491   7.172  68.996  1.00  0.00    -0.221 A  
HETATM   14  C   UNL     1      -9.646  11.385  68.620  1.00  0.00    -0.179 C  
HETATM   15  C   UNL     1      -8.208  11.405  67.678  1.00  0.00    -0.128 C  
HETATM   16  C   UNL     1      -7.289  10.253  68.094  1.00  0.00    -0.085 C  
HETATM   17  C   UNL     1      -7.309  12.448  66.990  1.00  0.00    -0.012 C  
HETATM   18  N   UNL     1      -8.084   9.141  68.568  1.00  0.00    -0.102 NA 
HETATM   19  C   UNL     1      -8.127   9.272  70.062  1.00  0.00    -0.135 C  
ENDROOT
BRANCH  17  20
HETATM   20  N   UNL     1      -6.716  13.535  67.702  1.00  0.00    -0.164 N  
HETATM   21  H   UNL     1      -5.895  13.432  68.298  1.00  0.00     0.000 HD 
HETATM   22  C   UNL     1      -7.352  14.720  67.507  1.00  0.00    -0.201 C  
HETATM   23  O   UNL     1      -8.566  14.843  67.390  1.00  0.00    -0.169 OA 
BRANCH  22  24
HETATM   24  O   UNL     1      -6.437  15.670  67.300  1.00  0.00    -0.248 OA 
BRANCH  24  25
HETATM   25  C   UNL     1      -6.760  16.937  67.915  1.00  0.00    -0.144 C  
BRANCH  25  26
HETATM   26  C   UNL     1      -6.712  18.027  66.896  1.00  0.00    -0.212 A  
HETATM   27  C   UNL     1      -7.296  19.259  67.184  1.00  0.00    -0.226 A  
HETATM   28  C   UNL     1      -7.197  20.309  66.276  1.00  0.00    -0.302 A  
HETATM   29  C   UNL     1      -6.517  20.131  65.073  1.00  0.00    -0.330 A  
HETATM   30  C   UNL     1      -5.939  18.899  64.771  1.00  0.00    -0.301 A  
HETATM   31  C   UNL     1      -6.034  17.846  65.680  1.00  0.00    -0.189 A  
ENDBRANCH  25  26
ENDBRANCH  24  25
ENDBRANCH  22  24
ENDBRANCH  17  20
TORSDOF 4
ENDMDL
MODEL      118
REMARK 921   NORMALIZED FREE ENERGY PREDICTED BY IDOCK:   -4.67 KCAL/MOL
REMARK 922        TOTAL FREE ENERGY PREDICTED BY IDOCK:   -6.34 KCAL/MOL
REMARK 923 INTER-LIGAND FREE ENERGY PREDICTED BY IDOCK:   -5.63 KCAL/MOL
REMARK 924 INTRA-LIGAND FREE ENERGY PREDICTED BY IDOCK:   -0.71 KCAL/MOL
REMARK 927      BINDING AFFINITY PREDICTED BY RF-SCORE:    0.00 PKD
ROOT
HETATM    1  C   UNL     1     -11.304   9.709  69.569  1.00  0.00    -0.040 C  
HETATM    2  C   UNL     1     -12.132  10.970  69.379  1.00  0.00    -0.389 C  
HETATM    3  C   UNL     1     -11.220  11.954  68.899  1.00  0.00    -0.310 A  
HETATM    4  C   UNL     1     -11.114  13.273  69.195  1.00  0.00    -0.209 A  
HETATM    5  N   UNL     1      -9.928  13.675  68.648  1.00  0.00    -0.202 NA 
HETATM    6  C   UNL     1      -9.387  14.979  68.964  1.00  0.00    -0.206 C  
HETATM    7  C   UNL     1      -9.345  12.628  67.933  1.00  0.00    -0.204 A  
HETATM    8  C   UNL     1      -8.201  12.528  67.148  1.00  0.00    -0.168 A  
HETATM    9  C   UNL     1      -7.921  11.243  66.629  1.00  0.00    -0.159 A  
HETATM   10  C   UNL     1      -8.674  10.063  66.946  1.00  0.00    -0.135 A  
HETATM   11  C   UNL     1      -9.790  10.120  67.795  1.00  0.00    -0.190 A  
HETATM   12  C   UNL     1     -10.739   8.940  68.379  1.00  0.00    -0.126 C  
HETATM   13  C   UNL     1     -10.123  11.503  68.137  1.00  0.00    -0.201 A  
HETATM   14  C   UNL     1     -10.784   7.404  69.306  1.00  0.00    -0.197 C  
HETATM   15  C   UNL     1     -11.413   7.557  70.898  1.00  0.00    -0.303 C  
HETATM   16  C   UNL     1     -10.696   8.686  71.644  1.00  0.00    -0.303 C  
HETATM   17  C   UNL     1     -12.017   6.642  71.979  1.00  0.00    -0.319 C  
HETATM   18  N   UNL     1     -10.273   9.699  70.702  1.00  0.00    -0.288 NA 
HETATM   19  C   UNL     1      -8.841   9.387  70.377  1.00  0.00    -0.249 C  
ENDROOT
BRANCH  17  20
HETATM   20  N   UNL     1     -11.325   5.502  72.490  1.00  0.00    -0.281 N  
HETATM   21  H   UNL     1     -11.469   4.556  72.138  1.00  0.00     0.000 HD 
HETATM   22  C   UNL     1     -10.456   5.800  73.491  1.00  0.00    -0.256 C  
HETATM   23  O   UNL     1     -10.656   6.651  74.350  1.00  0.00    -0.208 OA 
BRANCH  22  24
HETATM   24  O   UNL     1      -9.311   5.147  73.276  1.00  0.00    -0.134 OA 
BRANCH  24  25
HETATM   25  C   UNL     1      -8.282   5.434  74.250  1.00  0.00    -0.108 C  
BRANCH  25  26
HETATM   26  C   UNL     1      -7.243   6.322  73.648  1.00  0.00    -0.083 A  
HETATM   27  C   UNL     1      -6.225   5.759  72.881  1.00  0.00    -0.056 A  
HETATM   28  C   UNL     1      -5.291   6.576  72.252  1.00  0.00    -0.032 A  
HETATM   29  C   UNL     1      -5.367   7.961  72.392  1.00  0.00    -0.036 A  
HETATM   30  C   UNL     1      -6.375   8.532  73.167  1.00  0.00    -0.104 A  
HETATM   31  C   UNL     1      -7.314   7.716  73.796  1.00  0.00    -0.139 A  
ENDBRANCH  25  26
ENDBRANCH  24  25
ENDBRANCH  22  24
ENDBRANCH  17  20
TORSDOF 4
ENDMDL
MODEL      119
REMARK 921   NORMALIZED FREE ENERGY PREDICTED BY IDOCK:   -4.66 KCAL/MOL
REMARK 922        TOTAL FREE ENERGY PREDICTED BY IDOCK:   -6.33 KCAL/MOL
REMARK 923 INTER-LIGAND FREE ENERGY PREDICTED BY IDOCK:   -5.84 KCAL/MOL
REMARK 924 INTRA-LIGAND FREE ENERGY PREDICTED BY IDOCK:   -0.49 KCAL/MOL
REMARK 927      BINDING AFFINITY PREDICTED BY RF-SCORE:    0.00 PKD
ROOT
HETATM    1  C   UNL     1     -11.512  12.829  68.544  1.00  0.00    -0.309 C  
HETATM    2  C   UNL     1     -12.169  13.977  69.295  1.00  0.00    -0.319 C  
HETATM    3  C   UNL     1     -11.604  15.163  68.744  1.00  0.00    -0.369 A  
HETATM    4  C   UNL     1     -11.217  16.314  69.347  1.00  0.00    -0.311 A  
HETATM    5  N   UNL     1     -10.526  17.009  68.395  1.00  0.00    -0.348 NA 
HETATM    6  C   UNL     1      -9.775  18.191  68.760  1.00  0.00    -0.325 C  
HETATM    7  C   UNL     1     -10.566  16.332  67.175  1.00  0.00    -0.291 A  
HETATM    8  C   UNL     1     -10.095  16.630  65.901  1.00  0.00    -0.341 A  
HETATM    9  C   UNL     1     -10.294  15.629  64.922  1.00  0.00    -0.164 A  
HETATM   10  C   UNL     1     -10.842  14.331  65.195  1.00  0.00    -0.387 A  
HETATM   11  C   UNL     1     -11.257  13.975  66.487  1.00  0.00    -0.326 A  
HETATM   12  C   UNL     1     -11.812  12.566  67.072  1.00  0.00    -0.394 C  
HETATM   13  C   UNL     1     -11.194  15.119  67.396  1.00  0.00    -0.323 A  
HETATM   14  C   UNL     1     -11.470  10.816  67.279  1.00  0.00    -0.034 C  
HETATM   15  C   UNL     1     -11.054  10.363  68.884  1.00  0.00    -0.296 C  
HETATM   16  C   UNL     1      -9.931  11.260  69.412  1.00  0.00     0.166 C  
HETATM   17  C   UNL     1     -11.016   9.079  69.734  1.00  0.00    -0.166 C  
HETATM   18  N   UNL     1     -10.025  12.568  68.803  1.00  0.00    -0.088 NA 
HETATM   19  C   UNL     1      -9.079  12.550  67.639  1.00  0.00    -0.187 C  
ENDROOT
BRANCH  17  20
HETATM   20  N   UNL     1     -10.274   7.924  69.341  1.00  0.00    -0.201 N  
HETATM   21  H   UNL     1     -10.561   7.305  68.583  1.00  0.00     0.000 HD 
HETATM   22  C   UNL     1      -9.148   7.728  70.077  1.00  0.00    -0.150 C  
HETATM   23  O   UNL     1      -9.057   7.958  71.277  1.00  0.00    -0.134 OA 
BRANCH  22  24
HETATM   24  O   UNL     1      -8.144   7.418  69.253  1.00  0.00    -0.119 OA 
BRANCH  24  25
HETATM   25  C   UNL     1      -8.539   7.302  67.867  1.00  0.00    -0.120 C  
BRANCH  25  26
HETATM   26  C   UNL     1      -7.533   6.494  67.116  1.00  0.00    -0.088 A  
HETATM   27  C   UNL     1      -6.489   7.142  66.460  1.00  0.00    -0.051 A  
HETATM   28  C   UNL     1      -5.501   6.403  65.816  1.00  0.00    -0.014 A  
HETATM   29  C   UNL     1      -5.557   5.010  65.821  1.00  0.00    -0.014 A  
HETATM   30  C   UNL     1      -6.604   4.354  66.465  1.00  0.00    -0.049 A  
HETATM   31  C   UNL     1      -7.593   5.092  67.112  1.00  0.00    -0.088 A  
ENDBRANCH  25  26
ENDBRANCH  24  25
ENDBRANCH  22  24
ENDBRANCH  17  20
TORSDOF 4
ENDMDL
MODEL      120
REMARK 921   NORMALIZED FREE ENERGY PREDICTED BY IDOCK:   -4.65 KCAL/MOL
REMARK 922        TOTAL FREE ENERGY PREDICTED BY IDOCK:   -6.32 KCAL/MOL
REMARK 923 INTER-LIGAND FREE ENERGY PREDICTED BY IDOCK:   -5.81 KCAL/MOL
REMARK 924 INTRA-LIGAND FREE ENERGY PREDICTED BY IDOCK:   -0.51 KCAL/MOL
REMARK 927      BINDING AFFINITY PREDICTED BY RF-SCORE:    0.00 PKD
ROOT
HETATM    1  C   UNL     1      -9.084   7.275  70.142  1.00  0.00    -0.148 C  
HETATM    2  C   UNL     1      -8.503   7.260  71.547  1.00  0.00    -0.113 C  
HETATM    3  C   UNL     1      -8.931   6.028  72.122  1.00  0.00    -0.142 A  
HETATM    4  C   UNL     1      -9.360   5.746  73.377  1.00  0.00    -0.134 A  
HETATM    5  N   UNL     1      -9.872   4.481  73.312  1.00  0.00    -0.135 NA 
HETATM    6  C   UNL     1     -10.623   3.943  74.425  1.00  0.00    -0.192 C  
HETATM    7  C   UNL     1      -9.676   3.944  72.039  1.00  0.00    -0.164 A  
HETATM    8  C   UNL     1      -9.937   2.700  71.476  1.00  0.00    -0.115 A  
HETATM    9  C   UNL     1      -9.633   2.569  70.102  1.00  0.00    -0.085 A  
HETATM   10  C   UNL     1      -9.184   3.648  69.268  1.00  0.00    -0.231 A  
HETATM   11  C   UNL     1      -8.982   4.934  69.793  1.00  0.00    -0.138 A  
HETATM   12  C   UNL     1      -8.577   6.325  69.061  1.00  0.00    -0.123 C  
HETATM   13  C   UNL     1      -9.136   4.942  71.247  1.00  0.00    -0.179 A  
HETATM   14  C   UNL     1      -9.014   7.500  67.776  1.00  0.00    -0.131 C  
HETATM   15  C   UNL     1      -9.684   8.970  68.361  1.00  0.00    -0.170 C  
HETATM   16  C   UNL     1     -10.838   8.679  69.325  1.00  0.00    -0.065 C  
HETATM   17  C   UNL     1      -9.899  10.408  67.853  1.00  0.00    -0.154 C  
HETATM   18  N   UNL     1     -10.602   7.422  70.001  1.00  0.00    -0.227 NA 
HETATM   19  C   UNL     1     -11.363   6.388  69.225  1.00  0.00    -0.338 C  
ENDROOT
BRANCH  17  20
HETATM   20  N   UNL     1     -10.619  10.696  66.653  1.00  0.00    -0.236 N  
HETATM   21  H   UNL     1     -11.562  10.355  66.471  1.00  0.00     0.000 HD 
HETATM   22  C   UNL     1      -9.923  11.468  65.777  1.00  0.00    -0.233 C  
HETATM   23  O   UNL     1      -8.715  11.385  65.591  1.00  0.00    -0.137 OA 
BRANCH  22  24
HETATM   24  O   UNL     1     -10.734  12.416  65.301  1.00  0.00    -0.272 OA 
BRANCH  24  25
HETATM   25  C   UNL     1     -10.113  13.717  65.195  1.00  0.00    -0.275 C  
BRANCH  25  26
HETATM   26  C   UNL     1     -10.259  14.459  66.482  1.00  0.00    -0.276 A  
HETATM   27  C   UNL     1     -11.506  14.515  67.101  1.00  0.00    -0.383 A  
HETATM   28  C   UNL     1     -11.646  15.139  68.337  1.00  0.00    -0.356 A  
HETATM   29  C   UNL     1     -10.539  15.715  68.958  1.00  0.00    -0.234 A  
HETATM   30  C   UNL     1      -9.290  15.674  68.341  1.00  0.00    -0.195 A  
HETATM   31  C   UNL     1      -9.147  15.048  67.104  1.00  0.00    -0.229 A  
ENDBRANCH  25  26
ENDBRANCH  24  25
ENDBRANCH  22  24
ENDBRANCH  17  20
TORSDOF 4
ENDMDL
MODEL      121
REMARK 921   NORMALIZED FREE ENERGY PREDICTED BY IDOCK:   -4.64 KCAL/MOL
REMARK 922        TOTAL FREE ENERGY PREDICTED BY IDOCK:   -6.31 KCAL/MOL
REMARK 923 INTER-LIGAND FREE ENERGY PREDICTED BY IDOCK:   -5.54 KCAL/MOL
REMARK 924 INTRA-LIGAND FREE ENERGY PREDICTED BY IDOCK:   -0.77 KCAL/MOL
REMARK 927      BINDING AFFINITY PREDICTED BY RF-SCORE:    0.00 PKD
ROOT
HETATM    1  C   UNL     1      -9.501   9.237  67.478  1.00  0.00    -0.132 C  
HETATM    2  C   UNL     1     -10.643   9.851  66.684  1.00  0.00    -0.186 C  
HETATM    3  C   UNL     1     -10.572  11.252  66.938  1.00  0.00    -0.300 A  
HETATM    4  C   UNL     1     -11.559  12.158  67.145  1.00  0.00    -0.335 A  
HETATM    5  N   UNL     1     -10.929  13.289  67.581  1.00  0.00    -0.257 NA 
HETATM    6  C   UNL     1     -11.700  14.392  68.112  1.00  0.00    -0.342 C  
HETATM    7  C   UNL     1      -9.545  13.114  67.555  1.00  0.00    -0.208 A  
HETATM    8  C   UNL     1      -8.470  13.955  67.823  1.00  0.00    -0.183 A  
HETATM    9  C   UNL     1      -7.188  13.364  67.731  1.00  0.00    -0.156 A  
HETATM   10  C   UNL     1      -6.959  11.968  67.488  1.00  0.00    -0.130 A  
HETATM   11  C   UNL     1      -8.027  11.081  67.286  1.00  0.00    -0.126 A  
HETATM   12  C   UNL     1      -8.044   9.470  67.089  1.00  0.00    -0.106 C  
HETATM   13  C   UNL     1      -9.300  11.797  67.209  1.00  0.00    -0.171 A  
HETATM   14  C   UNL     1      -7.567   7.891  67.796  1.00  0.00    -0.109 C  
HETATM   15  C   UNL     1      -8.872   6.988  68.456  1.00  0.00    -0.124 C  
HETATM   16  C   UNL     1      -9.681   7.858  69.423  1.00  0.00    -0.170 C  
HETATM   17  C   UNL     1      -9.171   5.527  68.838  1.00  0.00    -0.119 C  
HETATM   18  N   UNL     1      -9.614   9.242  69.005  1.00  0.00    -0.157 NA 
HETATM   19  C   UNL     1      -8.513   9.863  69.813  1.00  0.00    -0.192 C  
ENDROOT
BRANCH  17  20
HETATM   20  N   UNL     1      -8.357   4.794  69.754  1.00  0.00    -0.074 N  
HETATM   21  H   UNL     1      -7.465   5.138  70.109  1.00  0.00     0.000 HD 
HETATM   22  C   UNL     1      -8.886   3.592  70.106  1.00  0.00    -0.081 C  
HETATM   23  O   UNL     1      -9.510   2.861  69.346  1.00  0.00    -0.150 OA 
BRANCH  22  24
HETATM   24  O   UNL     1      -8.758   3.436  71.426  1.00  0.00    -0.074 OA 
BRANCH  24  25
HETATM   25  C   UNL     1      -9.956   3.752  72.171  1.00  0.00    -0.169 C  
BRANCH  25  26
HETATM   26  C   UNL     1      -9.888   5.155  72.677  1.00  0.00    -0.193 A  
HETATM   27  C   UNL     1      -8.719   5.605  73.286  1.00  0.00    -0.118 A  
HETATM   28  C   UNL     1      -8.610   6.930  73.698  1.00  0.00    -0.156 A  
HETATM   29  C   UNL     1      -9.674   7.810  73.507  1.00  0.00    -0.319 A  
HETATM   30  C   UNL     1     -10.852   7.365  72.910  1.00  0.00    -0.402 A  
HETATM   31  C   UNL     1     -10.962   6.040  72.495  1.00  0.00    -0.300 A  
ENDBRANCH  25  26
ENDBRANCH  24  25
ENDBRANCH  22  24
ENDBRANCH  17  20
TORSDOF 4
ENDMDL
MODEL      122
REMARK 921   NORMALIZED FREE ENERGY PREDICTED BY IDOCK:   -4.62 KCAL/MOL
REMARK 922        TOTAL FREE ENERGY PREDICTED BY IDOCK:   -6.28 KCAL/MOL
REMARK 923 INTER-LIGAND FREE ENERGY PREDICTED BY IDOCK:   -5.71 KCAL/MOL
REMARK 924 INTRA-LIGAND FREE ENERGY PREDICTED BY IDOCK:   -0.57 KCAL/MOL
REMARK 927      BINDING AFFINITY PREDICTED BY RF-SCORE:    0.00 PKD
ROOT
HETATM    1  C   UNL     1      -9.211   5.630  69.674  1.00  0.00    -0.137 C  
HETATM    2  C   UNL     1      -9.478   4.135  69.605  1.00  0.00    -0.259 C  
HETATM    3  C   UNL     1      -8.885   3.700  68.383  1.00  0.00    -0.154 A  
HETATM    4  C   UNL     1      -9.324   2.805  67.464  1.00  0.00    -0.158 A  
HETATM    5  N   UNL     1      -8.498   2.956  66.386  1.00  0.00    -0.100 NA 
HETATM    6  C   UNL     1      -8.817   2.312  65.131  1.00  0.00    -0.121 C  
HETATM    7  C   UNL     1      -7.491   3.879  66.672  1.00  0.00    -0.080 A  
HETATM    8  C   UNL     1      -6.382   4.332  65.967  1.00  0.00    -0.033 A  
HETATM    9  C   UNL     1      -5.618   5.339  66.601  1.00  0.00    -0.017 A  
HETATM   10  C   UNL     1      -5.978   5.964  67.841  1.00  0.00    -0.020 A  
HETATM   11  C   UNL     1      -7.133   5.579  68.540  1.00  0.00    -0.066 A  
HETATM   12  C   UNL     1      -7.805   6.179  69.890  1.00  0.00    -0.109 C  
HETATM   13  C   UNL     1      -7.761   4.413  67.920  1.00  0.00    -0.080 A  
HETATM   14  C   UNL     1      -8.463   7.648  70.684  1.00  0.00    -0.127 C  
HETATM   15  C   UNL     1     -10.176   7.672  70.818  1.00  0.00    -0.201 C  
HETATM   16  C   UNL     1     -10.817   7.389  69.456  1.00  0.00    -0.189 C  
HETATM   17  C   UNL     1     -11.246   8.398  71.655  1.00  0.00    -0.278 C  
HETATM   18  N   UNL     1      -9.949   6.531  68.679  1.00  0.00    -0.142 NA 
HETATM   19  C   UNL     1      -9.150   7.444  67.796  1.00  0.00    -0.129 C  
ENDROOT
BRANCH  17  20
HETATM   20  N   UNL     1     -11.341   9.822  71.705  1.00  0.00    -0.290 N  
HETATM   21  H   UNL     1     -10.699  10.408  72.238  1.00  0.00     0.000 HD 
HETATM   22  C   UNL     1     -12.371  10.322  70.972  1.00  0.00    -0.381 C  
HETATM   23  O   UNL     1     -13.466   9.783  70.861  1.00  0.00    -0.309 OA 
BRANCH  22  24
HETATM   24  O   UNL     1     -11.935  11.377  70.280  1.00  0.00    -0.327 OA 
BRANCH  24  25
HETATM   25  C   UNL     1     -11.998  11.203  68.847  1.00  0.00    -0.298 C  
BRANCH  25  26
HETATM   26  C   UNL     1     -11.196  12.264  68.168  1.00  0.00    -0.320 A  
HETATM   27  C   UNL     1     -11.821  13.442  67.766  1.00  0.00    -0.395 A  
HETATM   28  C   UNL     1     -11.076  14.471  67.199  1.00  0.00    -0.325 A  
HETATM   29  C   UNL     1      -9.701  14.324  67.026  1.00  0.00    -0.253 A  
HETATM   30  C   UNL     1      -9.068  13.144  67.414  1.00  0.00    -0.208 A  
HETATM   31  C   UNL     1      -9.812  12.113  67.984  1.00  0.00    -0.202 A  
ENDBRANCH  25  26
ENDBRANCH  24  25
ENDBRANCH  22  24
ENDBRANCH  17  20
TORSDOF 4
ENDMDL
MODEL      123
REMARK 921   NORMALIZED FREE ENERGY PREDICTED BY IDOCK:   -4.59 KCAL/MOL
REMARK 922        TOTAL FREE ENERGY PREDICTED BY IDOCK:   -6.25 KCAL/MOL
REMARK 923 INTER-LIGAND FREE ENERGY PREDICTED BY IDOCK:   -5.59 KCAL/MOL
REMARK 924 INTRA-LIGAND FREE ENERGY PREDICTED BY IDOCK:   -0.66 KCAL/MOL
REMARK 927      BINDING AFFINITY PREDICTED BY RF-SCORE:    0.00 PKD
ROOT
HETATM    1  C   UNL     1     -10.264   6.822  70.814  1.00  0.00    -0.195 C  
HETATM    2  C   UNL     1     -10.719   5.435  70.387  1.00  0.00    -0.276 C  
HETATM    3  C   UNL     1      -9.559   4.611  70.476  1.00  0.00    -0.268 A  
HETATM    4  C   UNL     1      -9.119   3.623  69.659  1.00  0.00    -0.129 A  
HETATM    5  N   UNL     1      -7.848   3.346  70.076  1.00  0.00    -0.047 NA 
HETATM    6  C   UNL     1      -6.993   2.491  69.281  1.00  0.00    -0.036 C  
HETATM    7  C   UNL     1      -7.534   4.096  71.210  1.00  0.00    -0.055 A  
HETATM    8  C   UNL     1      -6.427   4.140  72.050  1.00  0.00    -0.022 A  
HETATM    9  C   UNL     1      -6.478   5.103  73.085  1.00  0.00    -0.061 A  
HETATM   10  C   UNL     1      -7.529   6.068  73.238  1.00  0.00    -0.097 A  
HETATM   11  C   UNL     1      -8.624   6.095  72.361  1.00  0.00    -0.119 A  
HETATM   12  C   UNL     1      -9.876   7.123  72.258  1.00  0.00    -0.174 C  
HETATM   13  C   UNL     1      -8.591   4.958  71.441  1.00  0.00    -0.132 A  
HETATM   14  C   UNL     1     -10.365   8.840  72.068  1.00  0.00    -0.411 C  
HETATM   15  C   UNL     1     -10.995   9.228  70.517  1.00  0.00    -0.318 C  
HETATM   16  C   UNL     1     -10.035   8.753  69.422  1.00  0.00    -0.196 C  
HETATM   17  C   UNL     1     -11.864  10.328  69.880  1.00  0.00    -0.193 C  
HETATM   18  N   UNL     1      -9.319   7.581  69.877  1.00  0.00    -0.151 NA 
HETATM   19  C   UNL     1      -8.010   8.080  70.415  1.00  0.00    -0.103 C  
ENDROOT
BRANCH  17  20
HETATM   20  N   UNL     1     -11.521  11.712  69.956  1.00  0.00    -0.484 N  
HETATM   21  H   UNL     1     -11.316  12.191  70.833  1.00  0.00     0.000 HD 
HETATM   22  C   UNL     1     -11.495  12.330  68.746  1.00  0.00    -0.311 C  
HETATM   23  O   UNL     1     -12.272  12.089  67.829  1.00  0.00    -0.474 OA 
BRANCH  22  24
HETATM   24  O   UNL     1     -10.403  13.094  68.676  1.00  0.00    -0.243 OA 
BRANCH  24  25
HETATM   25  C   UNL     1      -9.917  13.299  67.329  1.00  0.00    -0.231 C  
BRANCH  25  26
HETATM   26  C   UNL     1      -8.646  12.542  67.125  1.00  0.00    -0.200 A  
HETATM   27  C   UNL     1      -7.429  13.167  67.388  1.00  0.00    -0.131 A  
HETATM   28  C   UNL     1      -6.238  12.457  67.274  1.00  0.00    -0.144 A  
HETATM   29  C   UNL     1      -6.259  11.117  66.890  1.00  0.00    -0.111 A  
HETATM   30  C   UNL     1      -7.471  10.487  66.613  1.00  0.00    -0.120 A  
HETATM   31  C   UNL     1      -8.664  11.196  66.729  1.00  0.00    -0.157 A  
ENDBRANCH  25  26
ENDBRANCH  24  25
ENDBRANCH  22  24
ENDBRANCH  17  20
TORSDOF 4
ENDMDL
MODEL      124
REMARK 921   NORMALIZED FREE ENERGY PREDICTED BY IDOCK:   -4.56 KCAL/MOL
REMARK 922        TOTAL FREE ENERGY PREDICTED BY IDOCK:   -6.21 KCAL/MOL
REMARK 923 INTER-LIGAND FREE ENERGY PREDICTED BY IDOCK:   -5.86 KCAL/MOL
REMARK 924 INTRA-LIGAND FREE ENERGY PREDICTED BY IDOCK:   -0.35 KCAL/MOL
REMARK 927      BINDING AFFINITY PREDICTED BY RF-SCORE:    0.00 PKD
ROOT
HETATM    1  C   UNL     1      -9.357   6.102  69.677  1.00  0.00    -0.146 C  
HETATM    2  C   UNL     1      -8.384   4.936  69.588  1.00  0.00    -0.085 C  
HETATM    3  C   UNL     1      -8.127   4.552  70.936  1.00  0.00    -0.077 A  
HETATM    4  C   UNL     1      -6.973   4.166  71.534  1.00  0.00    -0.035 A  
HETATM    5  N   UNL     1      -7.243   4.155  72.873  1.00  0.00    -0.066 NA 
HETATM    6  C   UNL     1      -6.168   4.003  73.829  1.00  0.00    -0.031 C  
HETATM    7  C   UNL     1      -8.589   4.445  73.098  1.00  0.00    -0.101 A  
HETATM    8  C   UNL     1      -9.378   4.491  74.243  1.00  0.00    -0.127 A  
HETATM    9  C   UNL     1     -10.721   4.890  74.049  1.00  0.00    -0.354 A  
HETATM   10  C   UNL     1     -11.258   5.332  72.794  1.00  0.00    -0.347 A  
HETATM   11  C   UNL     1     -10.466   5.366  71.637  1.00  0.00    -0.291 A  
HETATM   12  C   UNL     1     -10.797   5.903  70.141  1.00  0.00    -0.402 C  
HETATM   13  C   UNL     1      -9.154   4.766  71.877  1.00  0.00    -0.163 A  
HETATM   14  C   UNL     1     -11.341   7.306  69.163  1.00  0.00     0.172 C  
HETATM   15  C   UNL     1     -10.092   8.066  68.259  1.00  0.00    -0.227 C  
HETATM   16  C   UNL     1      -8.905   8.395  69.170  1.00  0.00    -0.142 C  
HETATM   17  C   UNL     1      -9.971   8.999  67.040  1.00  0.00    -0.230 C  
HETATM   18  N   UNL     1      -8.831   7.425  70.241  1.00  0.00    -0.146 NA 
HETATM   19  C   UNL     1      -9.537   8.048  71.410  1.00  0.00    -0.154 C  
ENDROOT
BRANCH  17  20
HETATM   20  N   UNL     1     -10.622  10.268  66.980  1.00  0.00    -0.251 N  
HETATM   21  H   UNL     1     -11.555  10.436  67.357  1.00  0.00     0.000 HD 
HETATM   22  C   UNL     1      -9.879  11.230  66.372  1.00  0.00    -0.211 C  
HETATM   23  O   UNL     1      -9.147  11.033  65.409  1.00  0.00    -0.198 OA 
BRANCH  22  24
HETATM   24  O   UNL     1      -9.952  12.350  67.094  1.00  0.00    -0.205 OA 
BRANCH  24  25
HETATM   25  C   UNL     1     -10.721  13.402  66.467  1.00  0.00    -0.286 C  
BRANCH  25  26
HETATM   26  C   UNL     1     -10.694  14.630  67.316  1.00  0.00    -0.290 A  
HETATM   27  C   UNL     1     -10.553  14.504  68.696  1.00  0.00    -0.255 A  
HETATM   28  C   UNL     1     -10.452  15.638  69.495  1.00  0.00    -0.270 A  
HETATM   29  C   UNL     1     -10.497  16.906  68.918  1.00  0.00    -0.346 A  
HETATM   30  C   UNL     1     -10.649  17.042  67.539  1.00  0.00    -0.310 A  
HETATM   31  C   UNL     1     -10.747  15.907  66.736  1.00  0.00    -0.281 A  
ENDBRANCH  25  26
ENDBRANCH  24  25
ENDBRANCH  22  24
ENDBRANCH  17  20
TORSDOF 4
ENDMDL
MODEL      125
REMARK 921   NORMALIZED FREE ENERGY PREDICTED BY IDOCK:   -4.54 KCAL/MOL
REMARK 922        TOTAL FREE ENERGY PREDICTED BY IDOCK:   -6.18 KCAL/MOL
REMARK 923 INTER-LIGAND FREE ENERGY PREDICTED BY IDOCK:   -5.70 KCAL/MOL
REMARK 924 INTRA-LIGAND FREE ENERGY PREDICTED BY IDOCK:   -0.49 KCAL/MOL
REMARK 927      BINDING AFFINITY PREDICTED BY RF-SCORE:    0.00 PKD
ROOT
HETATM    1  C   UNL     1      -9.942   5.924  71.877  1.00  0.00    -0.171 C  
HETATM    2  C   UNL     1     -10.357   4.472  72.059  1.00  0.00    -0.216 C  
HETATM    3  C   UNL     1      -9.371   3.707  71.369  1.00  0.00    -0.211 A  
HETATM    4  C   UNL     1      -9.501   2.601  70.596  1.00  0.00    -0.135 A  
HETATM    5  N   UNL     1      -8.286   2.434  69.993  1.00  0.00    -0.041 NA 
HETATM    6  C   UNL     1      -8.133   1.474  68.922  1.00  0.00    -0.048 C  
HETATM    7  C   UNL     1      -7.377   3.382  70.464  1.00  0.00    -0.040 A  
HETATM    8  C   UNL     1      -6.024   3.604  70.235  1.00  0.00    -0.018 A  
HETATM    9  C   UNL     1      -5.467   4.733  70.878  1.00  0.00    -0.008 A  
HETATM   10  C   UNL     1      -6.226   5.683  71.641  1.00  0.00    -0.042 A  
HETATM   11  C   UNL     1      -7.608   5.525  71.827  1.00  0.00    -0.095 A  
HETATM   12  C   UNL     1      -8.696   6.487  72.553  1.00  0.00    -0.125 C  
HETATM   13  C   UNL     1      -8.070   4.244  71.294  1.00  0.00    -0.081 A  
HETATM   14  C   UNL     1      -9.419   8.129  72.596  1.00  0.00    -0.346 C  
HETATM   15  C   UNL     1     -11.009   8.219  71.949  1.00  0.00    -0.354 C  
HETATM   16  C   UNL     1     -11.050   7.582  70.557  1.00  0.00    -0.259 C  
HETATM   17  C   UNL     1     -12.221   9.166  72.025  1.00  0.00    -0.373 C  
HETATM   18  N   UNL     1     -10.062   6.528  70.475  1.00  0.00    -0.183 NA 
HETATM   19  C   UNL     1      -8.850   7.148  69.845  1.00  0.00    -0.142 C  
ENDROOT
BRANCH  17  20
HETATM   20  N   UNL     1     -12.132  10.550  71.684  1.00  0.00    -0.223 N  
HETATM   21  H   UNL     1     -11.803  11.266  72.331  1.00  0.00     0.000 HD 
HETATM   22  C   UNL     1     -12.529  10.820  70.413  1.00  0.00    -0.347 C  
HETATM   23  O   UNL     1     -13.455  10.255  69.842  1.00  0.00     0.170 OA 
BRANCH  22  24
HETATM   24  O   UNL     1     -11.651  11.658  69.856  1.00  0.00    -0.296 OA 
BRANCH  24  25
HETATM   25  C   UNL     1     -12.071  12.180  68.575  1.00  0.00    -0.057 C  
BRANCH  25  26
HETATM   26  C   UNL     1     -11.283  11.539  67.480  1.00  0.00    -0.360 A  
HETATM   27  C   UNL     1     -10.582  10.364  67.740  1.00  0.00    -0.294 A  
HETATM   28  C   UNL     1      -9.903   9.713  66.714  1.00  0.00    -0.270 A  
HETATM   29  C   UNL     1      -9.917  10.239  65.424  1.00  0.00    -0.371 A  
HETATM   30  C   UNL     1     -10.605  11.421  65.157  1.00  0.00    -0.352 A  
HETATM   31  C   UNL     1     -11.289  12.073  66.182  1.00  0.00    -0.407 A  
ENDBRANCH  25  26
ENDBRANCH  24  25
ENDBRANCH  22  24
ENDBRANCH  17  20
TORSDOF 4
ENDMDL
MODEL      126
REMARK 921   NORMALIZED FREE ENERGY PREDICTED BY IDOCK:   -4.52 KCAL/MOL
REMARK 922        TOTAL FREE ENERGY PREDICTED BY IDOCK:   -6.16 KCAL/MOL
REMARK 923 INTER-LIGAND FREE ENERGY PREDICTED BY IDOCK:   -5.16 KCAL/MOL
REMARK 924 INTRA-LIGAND FREE ENERGY PREDICTED BY IDOCK:   -1.00 KCAL/MOL
REMARK 927      BINDING AFFINITY PREDICTED BY RF-SCORE:    0.00 PKD
ROOT
HETATM    1  C   UNL     1      -9.949   5.113  69.041  1.00  0.00    -0.195 C  
HETATM    2  C   UNL     1      -9.805   4.141  70.201  1.00  0.00    -0.242 C  
HETATM    3  C   UNL     1      -9.531   4.949  71.342  1.00  0.00    -0.212 A  
HETATM    4  C   UNL     1      -8.678   4.746  72.377  1.00  0.00    -0.119 A  
HETATM    5  N   UNL     1      -8.632   5.935  73.049  1.00  0.00    -0.124 NA 
HETATM    6  C   UNL     1      -7.644   6.147  74.084  1.00  0.00    -0.086 C  
HETATM    7  C   UNL     1      -9.528   6.845  72.485  1.00  0.00    -0.138 A  
HETATM    8  C   UNL     1      -9.913   8.138  72.821  1.00  0.00    -0.361 A  
HETATM    9  C   UNL     1     -10.832   8.755  71.940  1.00  0.00    -0.431 A  
HETATM   10  C   UNL     1     -11.285   8.172  70.709  1.00  0.00    -0.275 A  
HETATM   11  C   UNL     1     -10.854   6.899  70.308  1.00  0.00    -0.294 A  
HETATM   12  C   UNL     1     -11.136   6.066  68.943  1.00  0.00    -0.349 C  
HETATM   13  C   UNL     1     -10.062   6.254  71.354  1.00  0.00    -0.222 A  
HETATM   14  C   UNL     1     -11.019   6.083  67.152  1.00  0.00    -0.360 C  
HETATM   15  C   UNL     1      -9.771   5.086  66.516  1.00  0.00    -0.193 C  
HETATM   16  C   UNL     1      -8.441   5.398  67.207  1.00  0.00    -0.106 C  
HETATM   17  C   UNL     1      -9.414   4.421  65.173  1.00  0.00    -0.170 C  
HETATM   18  N   UNL     1      -8.688   5.840  68.562  1.00  0.00    -0.111 NA 
HETATM   19  C   UNL     1      -8.690   7.339  68.512  1.00  0.00    -0.123 C  
ENDROOT
BRANCH  17  20
HETATM   20  N   UNL     1      -9.270   5.168  63.965  1.00  0.00    -0.347 N  
HETATM   21  H   UNL     1      -9.896   5.928  63.699  1.00  0.00     0.000 HD 
HETATM   22  C   UNL     1      -8.217   4.769  63.204  1.00  0.00    -0.105 C  
HETATM   23  O   UNL     1      -7.854   3.604  63.081  1.00  0.00    -0.068 OA 
BRANCH  22  24
HETATM   24  O   UNL     1      -7.565   5.849  62.770  1.00  0.00    -0.065 OA 
BRANCH  24  25
HETATM   25  C   UNL     1      -6.344   6.127  63.493  1.00  0.00    -0.029 C  
BRANCH  25  26
HETATM   26  C   UNL     1      -6.549   7.283  64.415  1.00  0.00    -0.040 A  
HETATM   27  C   UNL     1      -5.752   7.401  65.552  1.00  0.00    -0.037 A  
HETATM   28  C   UNL     1      -5.878   8.510  66.383  1.00  0.00    -0.047 A  
HETATM   29  C   UNL     1      -6.808   9.505  66.084  1.00  0.00    -0.090 A  
HETATM   30  C   UNL     1      -7.618   9.389  64.956  1.00  0.00    -0.109 A  
HETATM   31  C   UNL     1      -7.491   8.281  64.121  1.00  0.00    -0.108 A  
ENDBRANCH  25  26
ENDBRANCH  24  25
ENDBRANCH  22  24
ENDBRANCH  17  20
TORSDOF 4
ENDMDL
MODEL      127
REMARK 921   NORMALIZED FREE ENERGY PREDICTED BY IDOCK:   -4.49 KCAL/MOL
REMARK 922        TOTAL FREE ENERGY PREDICTED BY IDOCK:   -6.12 KCAL/MOL
REMARK 923 INTER-LIGAND FREE ENERGY PREDICTED BY IDOCK:   -5.77 KCAL/MOL
REMARK 924 INTRA-LIGAND FREE ENERGY PREDICTED BY IDOCK:   -0.35 KCAL/MOL
REMARK 927      BINDING AFFINITY PREDICTED BY RF-SCORE:    0.00 PKD
ROOT
HETATM    1  C   UNL     1      -8.024   6.684  66.307  1.00  0.00    -0.108 C  
HETATM    2  C   UNL     1      -6.720   6.596  65.530  1.00  0.00    -0.051 C  
HETATM    3  C   UNL     1      -6.603   5.231  65.136  1.00  0.00    -0.040 A  
HETATM    4  C   UNL     1      -5.518   4.419  65.093  1.00  0.00    -0.013 A  
HETATM    5  N   UNL     1      -6.012   3.163  64.881  1.00  0.00    -0.018 NA 
HETATM    6  C   UNL     1      -5.145   2.012  65.003  1.00  0.00    -0.004 C  
HETATM    7  C   UNL     1      -7.395   3.210  64.701  1.00  0.00    -0.071 A  
HETATM    8  C   UNL     1      -8.352   2.248  64.394  1.00  0.00    -0.083 A  
HETATM    9  C   UNL     1      -9.690   2.703  64.353  1.00  0.00    -0.112 A  
HETATM   10  C   UNL     1     -10.103   4.032  64.704  1.00  0.00    -0.215 A  
HETATM   11  C   UNL     1      -9.167   5.004  65.090  1.00  0.00    -0.100 A  
HETATM   12  C   UNL     1      -9.375   6.525  65.617  1.00  0.00     0.217 C  
HETATM   13  C   UNL     1      -7.799   4.514  64.926  1.00  0.00    -0.086 A  
HETATM   14  C   UNL     1     -10.164   7.567  66.847  1.00  0.00    -0.359 C  
HETATM   15  C   UNL     1      -9.095   8.184  68.042  1.00  0.00    -0.134 C  
HETATM   16  C   UNL     1      -8.275   7.045  68.658  1.00  0.00    -0.122 C  
HETATM   17  C   UNL     1      -9.067   9.335  69.064  1.00  0.00    -0.147 C  
HETATM   18  N   UNL     1      -8.082   5.999  67.676  1.00  0.00    -0.105 NA 
HETATM   19  C   UNL     1      -9.158   4.987  67.936  1.00  0.00    -0.114 C  
ENDROOT
BRANCH  17  20
HETATM   20  N   UNL     1     -10.081   9.502  70.056  1.00  0.00    -0.224 N  
HETATM   21  H   UNL     1     -10.065   9.028  70.959  1.00  0.00     0.000 HD 
HETATM   22  C   UNL     1     -11.072  10.354  69.680  1.00  0.00    -0.276 C  
HETATM   23  O   UNL     1     -11.512  10.442  68.539  1.00  0.00    -0.248 OA 
BRANCH  22  24
HETATM   24  O   UNL     1     -11.348  11.170  70.699  1.00  0.00    -0.126 OA 
BRANCH  24  25
HETATM   25  C   UNL     1     -12.732  11.582  70.760  1.00  0.00    -0.227 C  
BRANCH  25  26
HETATM   26  C   UNL     1     -12.821  13.009  71.192  1.00  0.00    -0.331 A  
HETATM   27  C   UNL     1     -12.344  14.009  70.348  1.00  0.00    -0.429 A  
HETATM   28  C   UNL     1     -12.485  15.348  70.700  1.00  0.00    -0.478 A  
HETATM   29  C   UNL     1     -13.100  15.693  71.903  1.00  0.00    -0.545 A  
HETATM   30  C   UNL     1     -13.570  14.698  72.759  1.00  0.00    -0.538 A  
HETATM   31  C   UNL     1     -13.432  13.357  72.407  1.00  0.00    -0.685 A  
ENDBRANCH  25  26
ENDBRANCH  24  25
ENDBRANCH  22  24
ENDBRANCH  17  20
TORSDOF 4
ENDMDL
MODEL      128
REMARK 921   NORMALIZED FREE ENERGY PREDICTED BY IDOCK:   -4.49 KCAL/MOL
REMARK 922        TOTAL FREE ENERGY PREDICTED BY IDOCK:   -6.12 KCAL/MOL
REMARK 923 INTER-LIGAND FREE ENERGY PREDICTED BY IDOCK:   -5.64 KCAL/MOL
REMARK 924 INTRA-LIGAND FREE ENERGY PREDICTED BY IDOCK:   -0.48 KCAL/MOL
REMARK 927      BINDING AFFINITY PREDICTED BY RF-SCORE:    0.00 PKD
ROOT
HETATM    1  C   UNL     1     -10.103   6.361  68.282  1.00  0.00    -0.153 C  
HETATM    2  C   UNL     1     -10.044   5.912  66.831  1.00  0.00    -0.228 C  
HETATM    3  C   UNL     1      -8.963   4.986  66.764  1.00  0.00    -0.113 A  
HETATM    4  C   UNL     1      -8.014   4.810  65.811  1.00  0.00    -0.102 A  
HETATM    5  N   UNL     1      -7.094   3.966  66.365  1.00  0.00    -0.063 NA 
HETATM    6  C   UNL     1      -5.827   3.738  65.704  1.00  0.00    -0.022 C  
HETATM    7  C   UNL     1      -7.519   3.545  67.626  1.00  0.00    -0.066 A  
HETATM    8  C   UNL     1      -7.003   2.653  68.559  1.00  0.00    -0.047 A  
HETATM    9  C   UNL     1      -7.723   2.545  69.771  1.00  0.00    -0.046 A  
HETATM   10  C   UNL     1      -8.857   3.357  70.111  1.00  0.00    -0.147 A  
HETATM   11  C   UNL     1      -9.355   4.318  69.218  1.00  0.00    -0.231 A  
HETATM   12  C   UNL     1     -10.542   5.411  69.392  1.00  0.00    -0.295 C  
HETATM   13  C   UNL     1      -8.678   4.238  67.925  1.00  0.00    -0.119 A  
HETATM   14  C   UNL     1     -11.153   6.784  70.373  1.00  0.00    -0.357 C  
HETATM   15  C   UNL     1     -10.982   8.321  69.622  1.00  0.00    -0.092 C  
HETATM   16  C   UNL     1      -9.541   8.519  69.145  1.00  0.00    -0.167 C  
HETATM   17  C   UNL     1     -11.591   9.730  69.754  1.00  0.00    -0.030 C  
HETATM   18  N   UNL     1      -8.961   7.238  68.803  1.00  0.00    -0.130 NA 
HETATM   19  C   UNL     1      -8.199   6.794  70.017  1.00  0.00    -0.134 C  
ENDROOT
BRANCH  17  20
HETATM   20  N   UNL     1     -11.570  10.460  70.981  1.00  0.00    -0.337 N  
HETATM   21  H   UNL     1     -10.718  10.847  71.387  1.00  0.00     0.000 HD 
HETATM   22  C   UNL     1     -12.795  10.588  71.555  1.00  0.00    -0.463 C  
HETATM   23  O   UNL     1     -13.660   9.719  71.541  1.00  0.00    -0.348 OA 
BRANCH  22  24
HETATM   24  O   UNL     1     -12.946  11.847  71.971  1.00  0.00    -0.394 OA 
BRANCH  24  25
HETATM   25  C   UNL     1     -13.468  12.739  70.960  1.00  0.00     0.519 C  
BRANCH  25  26
HETATM   26  C   UNL     1     -12.438  13.756  70.594  1.00  0.00    -0.429 A  
HETATM   27  C   UNL     1     -12.016  13.855  69.270  1.00  0.00    -0.402 A  
HETATM   28  C   UNL     1     -11.111  14.845  68.897  1.00  0.00    -0.267 A  
HETATM   29  C   UNL     1     -10.620  15.737  69.849  1.00  0.00    -0.332 A  
HETATM   30  C   UNL     1     -11.027  15.637  71.178  1.00  0.00    -0.245 A  
HETATM   31  C   UNL     1     -11.935  14.649  71.554  1.00  0.00    -0.400 A  
ENDBRANCH  25  26
ENDBRANCH  24  25
ENDBRANCH  22  24
ENDBRANCH  17  20
TORSDOF 4
ENDMDL
MODEL      129
REMARK 921   NORMALIZED FREE ENERGY PREDICTED BY IDOCK:   -4.48 KCAL/MOL
REMARK 922        TOTAL FREE ENERGY PREDICTED BY IDOCK:   -6.11 KCAL/MOL
REMARK 923 INTER-LIGAND FREE ENERGY PREDICTED BY IDOCK:   -5.75 KCAL/MOL
REMARK 924 INTRA-LIGAND FREE ENERGY PREDICTED BY IDOCK:   -0.35 KCAL/MOL
REMARK 927      BINDING AFFINITY PREDICTED BY RF-SCORE:    0.00 PKD
ROOT
HETATM    1  C   UNL     1      -8.633   9.670  66.014  1.00  0.00    -0.132 C  
HETATM    2  C   UNL     1      -8.578  10.347  64.653  1.00  0.00    -0.192 C  
HETATM    3  C   UNL     1      -9.741  11.168  64.590  1.00  0.00    -0.308 A  
HETATM    4  C   UNL     1     -10.589  11.413  63.561  1.00  0.00    -0.402 A  
HETATM    5  N   UNL     1     -11.654  12.065  64.114  1.00  0.00    -0.371 NA 
HETATM    6  C   UNL     1     -12.856  12.282  63.338  1.00  0.00    -0.222 C  
HETATM    7  C   UNL     1     -11.424  12.307  65.469  1.00  0.00    -0.361 A  
HETATM    8  C   UNL     1     -12.138  12.981  66.454  1.00  0.00    -0.428 A  
HETATM    9  C   UNL     1     -11.575  12.952  67.751  1.00  0.00    -0.391 A  
HETATM   10  C   UNL     1     -10.405  12.202  68.106  1.00  0.00    -0.214 A  
HETATM   11  C   UNL     1      -9.705  11.452  67.148  1.00  0.00    -0.200 A  
HETATM   12  C   UNL     1      -8.430  10.459  67.304  1.00  0.00    -0.122 C  
HETATM   13  C   UNL     1     -10.236  11.683  65.805  1.00  0.00    -0.281 A  
HETATM   14  C   UNL     1      -7.785   9.003  68.132  1.00  0.00    -0.096 C  
HETATM   15  C   UNL     1      -7.698   7.604  67.138  1.00  0.00    -0.112 C  
HETATM   16  C   UNL     1      -9.046   7.356  66.454  1.00  0.00    -0.160 C  
HETATM   17  C   UNL     1      -6.956   6.254  67.129  1.00  0.00    -0.072 C  
HETATM   18  N   UNL     1      -9.722   8.617  66.241  1.00  0.00    -0.258 NA 
HETATM   19  C   UNL     1     -10.661   8.783  67.400  1.00  0.00    -0.233 C  
ENDROOT
BRANCH  17  20
HETATM   20  N   UNL     1      -7.034   5.332  68.216  1.00  0.00    -0.060 N  
HETATM   21  H   UNL     1      -7.114   5.621  69.191  1.00  0.00     0.000 HD 
HETATM   22  C   UNL     1      -6.992   4.030  67.826  1.00  0.00    -0.055 C  
HETATM   23  O   UNL     1      -6.309   3.608  66.900  1.00  0.00    -0.034 OA 
BRANCH  22  24
HETATM   24  O   UNL     1      -7.926   3.350  68.494  1.00  0.00    -0.062 OA 
BRANCH  24  25
HETATM   25  C   UNL     1      -9.279   3.664  68.091  1.00  0.00    -0.169 C  
BRANCH  25  26
HETATM   26  C   UNL     1      -9.507   3.223  66.682  1.00  0.00    -0.118 A  
HETATM   27  C   UNL     1     -10.066   4.114  65.769  1.00  0.00    -0.179 A  
HETATM   28  C   UNL     1     -10.218   3.746  64.436  1.00  0.00    -0.227 A  
HETATM   29  C   UNL     1      -9.816   2.481  64.010  1.00  0.00    -0.137 A  
HETATM   30  C   UNL     1      -9.267   1.579  64.919  1.00  0.00    -0.111 A  
HETATM   31  C   UNL     1      -9.111   1.946  66.254  1.00  0.00    -0.046 A  
ENDBRANCH  25  26
ENDBRANCH  24  25
ENDBRANCH  22  24
ENDBRANCH  17  20
TORSDOF 4
ENDMDL
MODEL      130
REMARK 921   NORMALIZED FREE ENERGY PREDICTED BY IDOCK:   -4.45 KCAL/MOL
REMARK 922        TOTAL FREE ENERGY PREDICTED BY IDOCK:   -6.07 KCAL/MOL
REMARK 923 INTER-LIGAND FREE ENERGY PREDICTED BY IDOCK:   -5.75 KCAL/MOL
REMARK 924 INTRA-LIGAND FREE ENERGY PREDICTED BY IDOCK:   -0.32 KCAL/MOL
REMARK 927      BINDING AFFINITY PREDICTED BY RF-SCORE:    0.00 PKD
ROOT
HETATM    1  C   UNL     1      -9.533  10.600  68.201  1.00  0.00    -0.154 C  
HETATM    2  C   UNL     1     -10.642   9.577  68.385  1.00  0.00    -0.261 C  
HETATM    3  C   UNL     1     -10.128   8.359  67.851  1.00  0.00    -0.254 A  
HETATM    4  C   UNL     1     -10.735   7.400  67.110  1.00  0.00    -0.330 A  
HETATM    5  N   UNL     1      -9.727   6.590  66.668  1.00  0.00    -0.164 NA 
HETATM    6  C   UNL     1      -9.992   5.585  65.661  1.00  0.00     0.212 C  
HETATM    7  C   UNL     1      -8.507   6.994  67.211  1.00  0.00    -0.121 A  
HETATM    8  C   UNL     1      -7.215   6.484  67.142  1.00  0.00    -0.081 A  
HETATM    9  C   UNL     1      -6.219   7.238  67.806  1.00  0.00    -0.046 A  
HETATM   10  C   UNL     1      -6.452   8.507  68.433  1.00  0.00    -0.055 A  
HETATM   11  C   UNL     1      -7.732   9.082  68.454  1.00  0.00    -0.098 A  
HETATM   12  C   UNL     1      -8.238  10.524  69.003  1.00  0.00    -0.145 C  
HETATM   13  C   UNL     1      -8.734   8.162  67.917  1.00  0.00    -0.128 A  
HETATM   14  C   UNL     1      -8.025  12.303  68.894  1.00  0.00     0.126 C  
HETATM   15  C   UNL     1      -9.285  13.116  68.054  1.00  0.00    -0.211 C  
HETATM   16  C   UNL     1      -9.524  12.456  66.692  1.00  0.00    -0.232 C  
HETATM   17  C   UNL     1      -9.847  14.545  67.945  1.00  0.00    -0.222 C  
HETATM   18  N   UNL     1      -9.207  11.046  66.772  1.00  0.00    -0.158 NA 
HETATM   19  C   UNL     1      -7.798  10.912  66.274  1.00  0.00    -0.158 C  
ENDROOT
BRANCH  17  20
HETATM   20  N   UNL     1      -9.037  15.658  67.565  1.00  0.00    -0.191 N  
HETATM   21  H   UNL     1      -8.032  15.701  67.731  1.00  0.00     0.000 HD 
HETATM   22  C   UNL     1      -9.736  16.655  66.960  1.00  0.00    -0.249 C  
HETATM   23  O   UNL     1     -10.875  16.987  67.269  1.00  0.00    -0.252 OA 
BRANCH  22  24
HETATM   24  O   UNL     1      -9.052  17.075  65.894  1.00  0.00    -0.510 OA 
BRANCH  24  25
HETATM   25  C   UNL     1      -7.619  17.084  66.084  1.00  0.00    -0.245 C  
BRANCH  25  26
HETATM   26  C   UNL     1      -7.142  18.483  66.296  1.00  0.00    -0.284 A  
HETATM   27  C   UNL     1      -6.416  19.117  65.290  1.00  0.00    -0.305 A  
HETATM   28  C   UNL     1      -6.026  20.444  65.440  1.00  0.00    -0.251 A  
HETATM   29  C   UNL     1      -6.355  21.143  66.600  1.00  0.00    -0.362 A  
HETATM   30  C   UNL     1      -7.071  20.512  67.617  1.00  0.00    -0.363 A  
HETATM   31  C   UNL     1      -7.465  19.184  67.468  1.00  0.00    -0.255 A  
ENDBRANCH  25  26
ENDBRANCH  24  25
ENDBRANCH  22  24
ENDBRANCH  17  20
TORSDOF 4
ENDMDL
MODEL      131
REMARK 921   NORMALIZED FREE ENERGY PREDICTED BY IDOCK:   -4.41 KCAL/MOL
REMARK 922        TOTAL FREE ENERGY PREDICTED BY IDOCK:   -6.02 KCAL/MOL
REMARK 923 INTER-LIGAND FREE ENERGY PREDICTED BY IDOCK:   -6.28 KCAL/MOL
REMARK 924 INTRA-LIGAND FREE ENERGY PREDICTED BY IDOCK:    0.26 KCAL/MOL
REMARK 927      BINDING AFFINITY PREDICTED BY RF-SCORE:    0.00 PKD
ROOT
HETATM    1  C   UNL     1      -7.201  17.230  68.747  1.00  0.00    -0.245 C  
HETATM    2  C   UNL     1      -6.423  18.533  68.847  1.00  0.00    -0.254 C  
HETATM    3  C   UNL     1      -6.903  19.345  67.778  1.00  0.00    -0.257 A  
HETATM    4  C   UNL     1      -6.237  20.178  66.941  1.00  0.00    -0.184 A  
HETATM    5  N   UNL     1      -7.133  20.505  65.963  1.00  0.00    -0.204 NA 
HETATM    6  C   UNL     1      -6.691  21.205  64.777  1.00  0.00     0.151 C  
HETATM    7  C   UNL     1      -8.381  19.948  66.245  1.00  0.00    -0.340 A  
HETATM    8  C   UNL     1      -9.624  20.028  65.626  1.00  0.00    -0.041 A  
HETATM    9  C   UNL     1     -10.653  19.251  66.208  1.00  0.00    -0.545 A  
HETATM   10  C   UNL     1     -10.456  18.339  67.298  1.00  0.00    -0.419 A  
HETATM   11  C   UNL     1      -9.196  18.182  67.895  1.00  0.00    -0.273 A  
HETATM   12  C   UNL     1      -8.693  17.167  69.058  1.00  0.00    -0.103 C  
HETATM   13  C   UNL     1      -8.236  19.150  67.365  1.00  0.00    -0.302 A  
HETATM   14  C   UNL     1      -8.550  15.449  69.559  1.00  0.00    -0.212 C  
HETATM   15  C   UNL     1      -6.954  14.818  69.476  1.00  0.00    -0.176 C  
HETATM   16  C   UNL     1      -6.348  15.093  68.096  1.00  0.00    -0.131 C  
HETATM   17  C   UNL     1      -6.160  13.639  70.068  1.00  0.00    -0.137 C  
HETATM   18  N   UNL     1      -6.903  16.315  67.555  1.00  0.00    -0.144 NA 
HETATM   19  C   UNL     1      -8.033  15.894  66.662  1.00  0.00    -0.235 C  
ENDROOT
BRANCH  17  20
HETATM   20  N   UNL     1      -6.577  12.282  69.913  1.00  0.00    -0.357 N  
HETATM   21  H   UNL     1      -6.733  11.651  70.699  1.00  0.00     0.000 HD 
HETATM   22  C   UNL     1      -6.745  11.913  68.616  1.00  0.00    -0.074 C  
HETATM   23  O   UNL     1      -6.037  12.295  67.690  1.00  0.00    -0.088 OA 
BRANCH  22  24
HETATM   24  O   UNL     1      -7.882  11.224  68.508  1.00  0.00    -0.123 OA 
BRANCH  24  25
HETATM   25  C   UNL     1      -8.910  11.904  67.752  1.00  0.00    -0.166 C  
BRANCH  25  26
HETATM   26  C   UNL     1      -8.982  11.344  66.370  1.00  0.00    -0.196 A  
HETATM   27  C   UNL     1      -8.203  10.237  66.040  1.00  0.00    -0.141 A  
HETATM   28  C   UNL     1      -8.312   9.656  64.780  1.00  0.00    -0.156 A  
HETATM   29  C   UNL     1      -9.198  10.183  63.842  1.00  0.00    -0.322 A  
HETATM   30  C   UNL     1      -9.972  11.297  64.160  1.00  0.00    -0.350 A  
HETATM   31  C   UNL     1      -9.867  11.879  65.421  1.00  0.00    -0.258 A  
ENDBRANCH  25  26
ENDBRANCH  24  25
ENDBRANCH  22  24
ENDBRANCH  17  20
TORSDOF 4
ENDMDL
MODEL      132
REMARK 921   NORMALIZED FREE ENERGY PREDICTED BY IDOCK:   -4.39 KCAL/MOL
REMARK 922        TOTAL FREE ENERGY PREDICTED BY IDOCK:   -5.99 KCAL/MOL
REMARK 923 INTER-LIGAND FREE ENERGY PREDICTED BY IDOCK:   -5.08 KCAL/MOL
REMARK 924 INTRA-LIGAND FREE ENERGY PREDICTED BY IDOCK:   -0.92 KCAL/MOL
REMARK 927      BINDING AFFINITY PREDICTED BY RF-SCORE:    0.00 PKD
ROOT
HETATM    1  C   UNL     1     -11.068   9.599  69.330  1.00  0.00    -0.118 C  
HETATM    2  C   UNL     1     -12.074  10.661  68.914  1.00  0.00    -0.014 C  
HETATM    3  C   UNL     1     -11.494  11.312  67.786  1.00  0.00    -0.350 A  
HETATM    4  C   UNL     1     -11.477  12.624  67.442  1.00  0.00    -0.337 A  
HETATM    5  N   UNL     1     -10.583  12.719  66.414  1.00  0.00    -0.253 NA 
HETATM    6  C   UNL     1     -10.149  14.017  65.946  1.00  0.00    -0.321 C  
HETATM    7  C   UNL     1     -10.115  11.453  66.059  1.00  0.00    -0.234 A  
HETATM    8  C   UNL     1      -9.268  10.994  65.057  1.00  0.00    -0.219 A  
HETATM    9  C   UNL     1      -8.994   9.606  65.070  1.00  0.00    -0.255 A  
HETATM   10  C   UNL     1      -9.448   8.704  66.090  1.00  0.00    -0.308 A  
HETATM   11  C   UNL     1     -10.245   9.153  67.154  1.00  0.00    -0.329 A  
HETATM   12  C   UNL     1     -10.802   8.372  68.464  1.00  0.00     0.030 C  
HETATM   13  C   UNL     1     -10.636  10.549  66.968  1.00  0.00    -0.310 A  
HETATM   14  C   UNL     1     -10.354   7.407  69.909  1.00  0.00    -0.222 C  
HETATM   15  C   UNL     1     -10.474   8.262  71.396  1.00  0.00    -0.276 C  
HETATM   16  C   UNL     1      -9.719   9.591  71.304  1.00  0.00     0.031 C  
HETATM   17  C   UNL     1     -10.588   7.933  72.896  1.00  0.00    -0.368 C  
HETATM   18  N   UNL     1      -9.745  10.073  69.940  1.00  0.00    -0.225 NA 
HETATM   19  C   UNL     1      -8.456   9.622  69.319  1.00  0.00    -0.150 C  
ENDROOT
BRANCH  17  20
HETATM   20  N   UNL     1      -9.627   7.124  73.576  1.00  0.00    -0.201 N  
HETATM   21  H   UNL     1      -9.789   6.147  73.818  1.00  0.00     0.000 HD 
HETATM   22  C   UNL     1      -8.476   7.784  73.870  1.00  0.00    -0.245 C  
HETATM   23  O   UNL     1      -8.420   8.961  74.205  1.00  0.00    -0.021 OA 
BRANCH  22  24
HETATM   24  O   UNL     1      -7.440   6.997  73.569  1.00  0.00    -0.080 OA 
BRANCH  24  25
HETATM   25  C   UNL     1      -7.570   6.319  72.299  1.00  0.00    -0.095 C  
BRANCH  25  26
HETATM   26  C   UNL     1      -6.679   6.958  71.285  1.00  0.00    -0.057 A  
HETATM   27  C   UNL     1      -6.562   6.386  70.020  1.00  0.00    -0.048 A  
HETATM   28  C   UNL     1      -5.795   7.008  69.040  1.00  0.00    -0.019 A  
HETATM   29  C   UNL     1      -5.136   8.203  69.322  1.00  0.00    -0.026 A  
HETATM   30  C   UNL     1      -5.237   8.776  70.588  1.00  0.00    -0.020 A  
HETATM   31  C   UNL     1      -6.007   8.157  71.571  1.00  0.00    -0.036 A  
ENDBRANCH  25  26
ENDBRANCH  24  25
ENDBRANCH  22  24
ENDBRANCH  17  20
TORSDOF 4
ENDMDL
MODEL      133
REMARK 921   NORMALIZED FREE ENERGY PREDICTED BY IDOCK:   -4.36 KCAL/MOL
REMARK 922        TOTAL FREE ENERGY PREDICTED BY IDOCK:   -5.96 KCAL/MOL
REMARK 923 INTER-LIGAND FREE ENERGY PREDICTED BY IDOCK:   -6.30 KCAL/MOL
REMARK 924 INTRA-LIGAND FREE ENERGY PREDICTED BY IDOCK:    0.34 KCAL/MOL
REMARK 927      BINDING AFFINITY PREDICTED BY RF-SCORE:    0.00 PKD
ROOT
HETATM    1  C   UNL     1     -10.323  16.254  66.189  1.00  0.00    -0.341 C  
HETATM    2  C   UNL     1     -10.916  17.593  65.779  1.00  0.00     0.210 C  
HETATM    3  C   UNL     1     -10.410  18.536  66.721  1.00  0.00    -0.435 A  
HETATM    4  C   UNL     1     -11.018  19.586  67.326  1.00  0.00    -0.341 A  
HETATM    5  N   UNL     1     -10.157  19.990  68.306  1.00  0.00    -0.428 NA 
HETATM    6  C   UNL     1     -10.585  20.953  69.297  1.00  0.00     0.925 C  
HETATM    7  C   UNL     1      -8.975  19.251  68.248  1.00  0.00    -0.335 A  
HETATM    8  C   UNL     1      -7.778  19.306  68.953  1.00  0.00    -0.376 A  
HETATM    9  C   UNL     1      -6.822  18.319  68.622  1.00  0.00    -0.261 A  
HETATM   10  C   UNL     1      -7.059  17.241  67.704  1.00  0.00    -0.179 A  
HETATM   11  C   UNL     1      -8.285  17.117  67.032  1.00  0.00    -0.234 A  
HETATM   12  C   UNL     1      -8.834  15.961  66.034  1.00  0.00    -0.298 C  
HETATM   13  C   UNL     1      -9.145  18.273  67.284  1.00  0.00    -0.256 A  
HETATM   14  C   UNL     1      -9.163  14.207  65.845  1.00  0.00     0.093 C  
HETATM   15  C   UNL     1     -10.830  13.791  65.894  1.00  0.00    -0.283 C  
HETATM   16  C   UNL     1     -11.489  14.395  67.138  1.00  0.00    -0.362 C  
HETATM   17  C   UNL     1     -11.728  12.618  65.457  1.00  0.00    -0.402 C  
HETATM   18  N   UNL     1     -10.819  15.626  67.495  1.00  0.00    -0.313 NA 
HETATM   19  C   UNL     1      -9.818  15.259  68.550  1.00  0.00    -0.210 C  
ENDROOT
BRANCH  17  20
HETATM   20  N   UNL     1     -11.503  11.278  65.897  1.00  0.00     0.072 N  
HETATM   21  H   UNL     1     -11.351  10.498  65.258  1.00  0.00     0.000 HD 
HETATM   22  C   UNL     1     -11.510  11.144  67.249  1.00  0.00    -0.136 C  
HETATM   23  O   UNL     1     -12.250  11.766  68.002  1.00  0.00    -0.518 OA 
BRANCH  22  24
HETATM   24  O   UNL     1     -10.484  10.370  67.610  1.00  0.00    -0.200 OA 
BRANCH  24  25
HETATM   25  C   UNL     1     -10.545   9.920  68.983  1.00  0.00    -0.220 C  
BRANCH  25  26
HETATM   26  C   UNL     1     -10.458   8.430  69.036  1.00  0.00    -0.216 A  
HETATM   27  C   UNL     1     -10.008   7.813  70.201  1.00  0.00    -0.186 A  
HETATM   28  C   UNL     1      -9.990   6.425  70.295  1.00  0.00    -0.199 A  
HETATM   29  C   UNL     1     -10.416   5.646  69.220  1.00  0.00    -0.356 A  
HETATM   30  C   UNL     1     -10.856   6.255  68.046  1.00  0.00    -0.409 A  
HETATM   31  C   UNL     1     -10.878   7.645  67.951  1.00  0.00    -0.105 A  
ENDBRANCH  25  26
ENDBRANCH  24  25
ENDBRANCH  22  24
ENDBRANCH  17  20
TORSDOF 4
ENDMDL
MODEL      134
REMARK 921   NORMALIZED FREE ENERGY PREDICTED BY IDOCK:   -4.31 KCAL/MOL
REMARK 922        TOTAL FREE ENERGY PREDICTED BY IDOCK:   -5.90 KCAL/MOL
REMARK 923 INTER-LIGAND FREE ENERGY PREDICTED BY IDOCK:   -5.57 KCAL/MOL
REMARK 924 INTRA-LIGAND FREE ENERGY PREDICTED BY IDOCK:   -0.33 KCAL/MOL
REMARK 927      BINDING AFFINITY PREDICTED BY RF-SCORE:    0.00 PKD
ROOT
HETATM    1  C   UNL     1      -8.076   7.610  68.025  1.00  0.00    -0.123 C  
HETATM    2  C   UNL     1      -7.210   6.797  68.974  1.00  0.00    -0.091 C  
HETATM    3  C   UNL     1      -7.633   5.446  68.812  1.00  0.00    -0.079 A  
HETATM    4  C   UNL     1      -7.807   4.463  69.730  1.00  0.00    -0.057 A  
HETATM    5  N   UNL     1      -8.454   3.458  69.069  1.00  0.00    -0.064 NA 
HETATM    6  C   UNL     1      -8.999   2.338  69.805  1.00  0.00    -0.092 C  
HETATM    7  C   UNL     1      -8.598   3.779  67.719  1.00  0.00    -0.098 A  
HETATM    8  C   UNL     1      -9.107   3.092  66.622  1.00  0.00    -0.177 A  
HETATM    9  C   UNL     1      -9.124   3.806  65.402  1.00  0.00    -0.145 A  
HETATM   10  C   UNL     1      -8.753   5.186  65.269  1.00  0.00    -0.150 A  
HETATM   11  C   UNL     1      -8.305   5.927  66.374  1.00  0.00    -0.114 A  
HETATM   12  C   UNL     1      -7.921   7.498  66.512  1.00  0.00    -0.107 C  
HETATM   13  C   UNL     1      -8.138   5.073  67.549  1.00  0.00    -0.099 A  
HETATM   14  C   UNL     1      -8.498   9.184  66.293  1.00  0.00    -0.131 C  
HETATM   15  C   UNL     1      -8.863  10.001  67.760  1.00  0.00    -0.125 C  
HETATM   16  C   UNL     1      -9.805   9.152  68.619  1.00  0.00    -0.164 C  
HETATM   17  C   UNL     1      -9.027  11.453  68.248  1.00  0.00    -0.175 C  
HETATM   18  N   UNL     1      -9.564   7.748  68.363  1.00  0.00    -0.151 NA 
HETATM   19  C   UNL     1     -10.582   7.336  67.340  1.00  0.00    -0.300 C  
ENDROOT
BRANCH  17  20
HETATM   20  N   UNL     1      -9.954  12.360  67.650  1.00  0.00    -0.197 N  
HETATM   21  H   UNL     1     -10.737  12.059  67.069  1.00  0.00     0.000 HD 
HETATM   22  C   UNL     1      -9.693  13.664  67.930  1.00  0.00    -0.234 C  
HETATM   23  O   UNL     1      -8.567  14.139  68.025  1.00  0.00    -0.154 OA 
BRANCH  22  24
HETATM   24  O   UNL     1     -10.838  14.274  68.245  1.00  0.00    -0.236 OA 
BRANCH  24  25
HETATM   25  C   UNL     1     -11.882  13.373  68.678  1.00  0.00    -0.362 C  
BRANCH  25  26
HETATM   26  C   UNL     1     -12.439  13.828  69.987  1.00  0.00    -0.301 A  
HETATM   27  C   UNL     1     -12.318  13.004  71.104  1.00  0.00    -0.270 A  
HETATM   28  C   UNL     1     -12.765  13.442  72.347  1.00  0.00    -0.123 A  
HETATM   29  C   UNL     1     -13.340  14.705  72.478  1.00  0.00    -0.542 A  
HETATM   30  C   UNL     1     -13.476  15.531  71.363  1.00  0.00    -0.583 A  
HETATM   31  C   UNL     1     -13.027  15.095  70.118  1.00  0.00    -0.126 A  
ENDBRANCH  25  26
ENDBRANCH  24  25
ENDBRANCH  22  24
ENDBRANCH  17  20
TORSDOF 4
ENDMDL
MODEL      135
REMARK 921   NORMALIZED FREE ENERGY PREDICTED BY IDOCK:   -4.29 KCAL/MOL
REMARK 922        TOTAL FREE ENERGY PREDICTED BY IDOCK:   -5.88 KCAL/MOL
REMARK 923 INTER-LIGAND FREE ENERGY PREDICTED BY IDOCK:   -4.66 KCAL/MOL
REMARK 924 INTRA-LIGAND FREE ENERGY PREDICTED BY IDOCK:   -1.21 KCAL/MOL
REMARK 927      BINDING AFFINITY PREDICTED BY RF-SCORE:    0.00 PKD
ROOT
HETATM    1  C   UNL     1      -7.212   6.785  68.390  1.00  0.00    -0.085 C  
HETATM    2  C   UNL     1      -6.213   6.610  67.256  1.00  0.00    -0.036 C  
HETATM    3  C   UNL     1      -6.762   5.596  66.419  1.00  0.00    -0.057 A  
HETATM    4  C   UNL     1      -6.158   4.571  65.769  1.00  0.00    -0.027 A  
HETATM    5  N   UNL     1      -7.173   3.774  65.323  1.00  0.00    -0.066 NA 
HETATM    6  C   UNL     1      -6.883   2.466  64.777  1.00  0.00    -0.047 C  
HETATM    7  C   UNL     1      -8.409   4.352  65.616  1.00  0.00    -0.114 A  
HETATM    8  C   UNL     1      -9.722   3.998  65.328  1.00  0.00    -0.197 A  
HETATM    9  C   UNL     1     -10.720   4.843  65.866  1.00  0.00    -0.233 A  
HETATM   10  C   UNL     1     -10.455   5.945  66.747  1.00  0.00    -0.344 A  
HETATM   11  C   UNL     1      -9.144   6.281  67.114  1.00  0.00    -0.119 A  
HETATM   12  C   UNL     1      -8.587   7.400  68.151  1.00  0.00    -0.123 C  
HETATM   13  C   UNL     1      -8.167   5.484  66.374  1.00  0.00    -0.106 A  
HETATM   14  C   UNL     1      -8.646   8.008  69.839  1.00  0.00    -0.135 C  
HETATM   15  C   UNL     1      -7.243   7.654  70.767  1.00  0.00    -0.062 C  
HETATM   16  C   UNL     1      -6.914   6.161  70.679  1.00  0.00    -0.064 C  
HETATM   17  C   UNL     1      -6.561   8.171  72.047  1.00  0.00    -0.067 C  
HETATM   18  N   UNL     1      -7.348   5.642  69.400  1.00  0.00    -0.069 NA 
HETATM   19  C   UNL     1      -8.701   5.040  69.638  1.00  0.00    -0.091 C  
ENDROOT
BRANCH  17  20
HETATM   20  N   UNL     1      -7.235   8.223  73.305  1.00  0.00    -0.124 N  
HETATM   21  H   UNL     1      -7.624   9.081  73.697  1.00  0.00     0.000 HD 
HETATM   22  C   UNL     1      -7.310   7.018  73.929  1.00  0.00    -0.090 C  
HETATM   23  O   UNL     1      -6.423   6.172  73.907  1.00  0.00    -0.069 OA 
BRANCH  22  24
HETATM   24  O   UNL     1      -8.545   6.857  74.408  1.00  0.00    -0.151 OA 
BRANCH  24  25
HETATM   25  C   UNL     1      -9.327   5.875  73.690  1.00  0.00    -0.134 C  
BRANCH  25  26
HETATM   26  C   UNL     1     -10.348   6.558  72.841  1.00  0.00    -0.232 A  
HETATM   27  C   UNL     1     -10.582   7.920  73.016  1.00  0.00    -0.406 A  
HETATM   28  C   UNL     1     -11.476   8.588  72.185  1.00  0.00    -0.446 A  
HETATM   29  C   UNL     1     -12.145   7.896  71.177  1.00  0.00    -0.294 A  
HETATM   30  C   UNL     1     -11.926   6.530  71.003  1.00  0.00    -0.358 A  
HETATM   31  C   UNL     1     -11.030   5.859  71.832  1.00  0.00    -0.321 A  
ENDBRANCH  25  26
ENDBRANCH  24  25
ENDBRANCH  22  24
ENDBRANCH  17  20
TORSDOF 4
ENDMDL
MODEL      136
REMARK 921   NORMALIZED FREE ENERGY PREDICTED BY IDOCK:   -4.21 KCAL/MOL
REMARK 922        TOTAL FREE ENERGY PREDICTED BY IDOCK:   -5.78 KCAL/MOL
REMARK 923 INTER-LIGAND FREE ENERGY PREDICTED BY IDOCK:   -5.38 KCAL/MOL
REMARK 924 INTRA-LIGAND FREE ENERGY PREDICTED BY IDOCK:   -0.40 KCAL/MOL
REMARK 927      BINDING AFFINITY PREDICTED BY RF-SCORE:    0.00 PKD
ROOT
HETATM    1  C   UNL     1      -7.385   9.439  67.709  1.00  0.00    -0.083 C  
HETATM    2  C   UNL     1      -7.118   8.315  68.698  1.00  0.00    -0.072 C  
HETATM    3  C   UNL     1      -7.719   7.155  68.127  1.00  0.00    -0.117 A  
HETATM    4  C   UNL     1      -8.417   6.151  68.710  1.00  0.00    -0.118 A  
HETATM    5  N   UNL     1      -8.966   5.442  67.679  1.00  0.00    -0.109 NA 
HETATM    6  C   UNL     1      -9.962   4.427  67.944  1.00  0.00    -0.023 C  
HETATM    7  C   UNL     1      -8.532   5.952  66.455  1.00  0.00    -0.113 A  
HETATM    8  C   UNL     1      -8.729   5.565  65.134  1.00  0.00    -0.118 A  
HETATM    9  C   UNL     1      -8.147   6.401  64.154  1.00  0.00    -0.052 A  
HETATM   10  C   UNL     1      -7.479   7.638  64.442  1.00  0.00    -0.099 A  
HETATM   11  C   UNL     1      -7.328   8.092  65.761  1.00  0.00    -0.079 A  
HETATM   12  C   UNL     1      -6.708   9.475  66.342  1.00  0.00    -0.075 C  
HETATM   13  C   UNL     1      -7.787   7.087  66.720  1.00  0.00    -0.107 A  
HETATM   14  C   UNL     1      -6.804  11.267  66.304  1.00  0.00    -0.001 C  
HETATM   15  C   UNL     1      -7.509  11.967  67.707  1.00  0.00    -0.121 C  
HETATM   16  C   UNL     1      -8.855  11.301  68.011  1.00  0.00    -0.148 C  
HETATM   17  C   UNL     1      -7.540  13.339  68.405  1.00  0.00    -0.137 C  
HETATM   18  N   UNL     1      -8.830   9.926  67.561  1.00  0.00    -0.128 NA 
HETATM   19  C   UNL     1      -9.459   9.928  66.199  1.00  0.00    -0.200 C  
ENDROOT
BRANCH  17  20
HETATM   20  N   UNL     1      -7.973  14.526  67.740  1.00  0.00    -0.144 N  
HETATM   21  H   UNL     1      -8.075  14.595  66.727  1.00  0.00     0.000 HD 
HETATM   22  C   UNL     1      -8.237  15.556  68.587  1.00  0.00    -0.162 C  
HETATM   23  O   UNL     1      -7.597  15.796  69.604  1.00  0.00    -0.199 OA 
BRANCH  22  24
HETATM   24  O   UNL     1      -9.383  16.133  68.219  1.00  0.00    -0.199 OA 
BRANCH  24  25
HETATM   25  C   UNL     1     -10.536  15.269  68.331  1.00  0.00    -0.236 C  
BRANCH  25  26
HETATM   26  C   UNL     1     -11.145  15.054  66.985  1.00  0.00    -0.334 A  
HETATM   27  C   UNL     1     -10.739  15.850  65.916  1.00  0.00    -0.303 A  
HETATM   28  C   UNL     1     -11.241  15.616  64.639  1.00  0.00    -0.380 A  
HETATM   29  C   UNL     1     -12.158  14.587  64.427  1.00  0.00    -0.492 A  
HETATM   30  C   UNL     1     -12.579  13.794  65.493  1.00  0.00    -0.551 A  
HETATM   31  C   UNL     1     -12.075  14.024  66.771  1.00  0.00    -0.480 A  
ENDBRANCH  25  26
ENDBRANCH  24  25
ENDBRANCH  22  24
ENDBRANCH  17  20
TORSDOF 4
ENDMDL
MODEL      137
REMARK 921   NORMALIZED FREE ENERGY PREDICTED BY IDOCK:   -4.21 KCAL/MOL
REMARK 922        TOTAL FREE ENERGY PREDICTED BY IDOCK:   -5.77 KCAL/MOL
REMARK 923 INTER-LIGAND FREE ENERGY PREDICTED BY IDOCK:   -5.45 KCAL/MOL
REMARK 924 INTRA-LIGAND FREE ENERGY PREDICTED BY IDOCK:   -0.32 KCAL/MOL
REMARK 927      BINDING AFFINITY PREDICTED BY RF-SCORE:    0.00 PKD
ROOT
HETATM    1  C   UNL     1      -7.466   8.674  67.438  1.00  0.00    -0.089 C  
HETATM    2  C   UNL     1      -7.261   7.525  68.413  1.00  0.00    -0.093 C  
HETATM    3  C   UNL     1      -7.723   6.362  67.732  1.00  0.00    -0.103 A  
HETATM    4  C   UNL     1      -8.433   5.301  68.188  1.00  0.00    -0.096 A  
HETATM    5  N   UNL     1      -8.810   4.609  67.073  1.00  0.00    -0.110 NA 
HETATM    6  C   UNL     1      -9.774   3.535  67.176  1.00  0.00    -0.008 C  
HETATM    7  C   UNL     1      -8.257   5.190  65.931  1.00  0.00    -0.115 A  
HETATM    8  C   UNL     1      -8.269   4.848  64.583  1.00  0.00    -0.124 A  
HETATM    9  C   UNL     1      -7.617   5.752  63.713  1.00  0.00    -0.080 A  
HETATM   10  C   UNL     1      -7.058   7.007  64.125  1.00  0.00    -0.063 A  
HETATM   11  C   UNL     1      -7.096   7.413  65.468  1.00  0.00    -0.061 A  
HETATM   12  C   UNL     1      -6.629   8.800  66.169  1.00  0.00    -0.065 C  
HETATM   13  C   UNL     1      -7.613   6.349  66.327  1.00  0.00    -0.090 A  
HETATM   14  C   UNL     1      -6.817  10.586  66.182  1.00  0.00    -0.131 C  
HETATM   15  C   UNL     1      -7.727  11.192  67.508  1.00  0.00    -0.116 C  
HETATM   16  C   UNL     1      -9.061  10.447  67.619  1.00  0.00    -0.138 C  
HETATM   17  C   UNL     1      -7.918  12.531  68.245  1.00  0.00    -0.153 C  
HETATM   18  N   UNL     1      -8.906   9.095  67.128  1.00  0.00    -0.119 NA 
HETATM   19  C   UNL     1      -9.362   9.121  65.699  1.00  0.00    -0.235 C  
ENDROOT
BRANCH  17  20
HETATM   20  N   UNL     1      -8.330  13.721  67.572  1.00  0.00    -0.180 N  
HETATM   21  H   UNL     1      -8.654  13.734  66.605  1.00  0.00     0.000 HD 
HETATM   22  C   UNL     1      -8.248  14.836  68.345  1.00  0.00    -0.154 C  
HETATM   23  O   UNL     1      -7.362  15.044  69.166  1.00  0.00    -0.138 OA 
BRANCH  22  24
HETATM   24  O   UNL     1      -9.359  15.556  68.180  1.00  0.00    -0.194 OA 
BRANCH  24  25
HETATM   25  C   UNL     1      -9.470  16.171  66.876  1.00  0.00    -0.230 C  
BRANCH  25  26
HETATM   26  C   UNL     1      -9.698  17.640  67.022  1.00  0.00    -0.292 A  
HETATM   27  C   UNL     1      -9.081  18.326  68.066  1.00  0.00    -0.300 A  
HETATM   28  C   UNL     1      -9.222  19.706  68.175  1.00  0.00    -0.418 A  
HETATM   29  C   UNL     1      -9.985  20.407  67.242  1.00  0.00    -0.564 A  
HETATM   30  C   UNL     1     -10.616  19.726  66.202  1.00  0.00    -0.569 A  
HETATM   31  C   UNL     1     -10.474  18.345  66.089  1.00  0.00    -0.422 A  
ENDBRANCH  25  26
ENDBRANCH  24  25
ENDBRANCH  22  24
ENDBRANCH  17  20
TORSDOF 4
ENDMDL
MODEL      138
REMARK 921   NORMALIZED FREE ENERGY PREDICTED BY IDOCK:   -4.15 KCAL/MOL
REMARK 922        TOTAL FREE ENERGY PREDICTED BY IDOCK:   -5.70 KCAL/MOL
REMARK 923 INTER-LIGAND FREE ENERGY PREDICTED BY IDOCK:   -6.09 KCAL/MOL
REMARK 924 INTRA-LIGAND FREE ENERGY PREDICTED BY IDOCK:    0.39 KCAL/MOL
REMARK 927      BINDING AFFINITY PREDICTED BY RF-SCORE:    0.00 PKD
ROOT
HETATM    1  C   UNL     1     -10.843  11.036  68.526  1.00  0.00    -0.213 C  
HETATM    2  C   UNL     1     -11.753  12.048  69.205  1.00  0.00    -0.389 C  
HETATM    3  C   UNL     1     -11.578  13.262  68.480  1.00  0.00    -0.368 A  
HETATM    4  C   UNL     1     -11.496  14.543  68.918  1.00  0.00    -0.300 A  
HETATM    5  N   UNL     1     -11.085  15.271  67.838  1.00  0.00    -0.310 NA 
HETATM    6  C   UNL     1     -10.677  16.650  68.005  1.00  0.00    -0.350 C  
HETATM    7  C   UNL     1     -11.000  14.458  66.708  1.00  0.00    -0.314 A  
HETATM    8  C   UNL     1     -10.706  14.706  65.372  1.00  0.00    -0.382 A  
HETATM    9  C   UNL     1     -10.669  13.571  64.528  1.00  0.00    -0.431 A  
HETATM   10  C   UNL     1     -10.813  12.219  64.988  1.00  0.00    -0.337 A  
HETATM   11  C   UNL     1     -11.037  11.934  66.343  1.00  0.00    -0.359 A  
HETATM   12  C   UNL     1     -11.139  10.514  67.124  1.00  0.00    -0.232 C  
HETATM   13  C   UNL     1     -11.248  13.158  67.113  1.00  0.00    -0.326 A  
HETATM   14  C   UNL     1     -10.307   8.966  67.487  1.00  0.00    -0.328 C  
HETATM   15  C   UNL     1      -9.690   8.853  69.088  1.00  0.00    -0.168 C  
HETATM   16  C   UNL     1      -8.837  10.083  69.413  1.00  0.00    -0.190 C  
HETATM   17  C   UNL     1      -9.245   7.749  70.064  1.00  0.00    -0.153 C  
HETATM   18  N   UNL     1      -9.331  11.226  68.677  1.00  0.00    -0.181 NA 
HETATM   19  C   UNL     1      -8.484  11.317  67.441  1.00  0.00    -0.137 C  
ENDROOT
BRANCH  17  20
HETATM   20  N   UNL     1      -8.230   6.800  69.734  1.00  0.00    -0.126 N  
HETATM   21  H   UNL     1      -8.352   6.074  69.028  1.00  0.00     0.000 HD 
HETATM   22  C   UNL     1      -7.087   6.958  70.451  1.00  0.00    -0.067 C  
HETATM   23  O   UNL     1      -7.050   7.292  71.630  1.00  0.00    -0.066 OA 
BRANCH  22  24
HETATM   24  O   UNL     1      -6.043   6.857  69.625  1.00  0.00    -0.031 OA 
BRANCH  24  25
HETATM   25  C   UNL     1      -6.127   7.722  68.469  1.00  0.00    -0.036 C  
BRANCH  25  26
HETATM   26  C   UNL     1      -5.736   9.114  68.843  1.00  0.00    -0.040 A  
HETATM   27  C   UNL     1      -5.463  10.040  67.839  1.00  0.00    -0.038 A  
HETATM   28  C   UNL     1      -5.169  11.360  68.167  1.00  0.00    -0.043 A  
HETATM   29  C   UNL     1      -5.143  11.759  69.502  1.00  0.00    -0.057 A  
HETATM   30  C   UNL     1      -5.403  10.837  70.514  1.00  0.00    -0.087 A  
HETATM   31  C   UNL     1      -5.700   9.515  70.188  1.00  0.00    -0.037 A  
ENDBRANCH  25  26
ENDBRANCH  24  25
ENDBRANCH  22  24
ENDBRANCH  17  20
TORSDOF 4
ENDMDL
MODEL      139
REMARK 921   NORMALIZED FREE ENERGY PREDICTED BY IDOCK:   -4.09 KCAL/MOL
REMARK 922        TOTAL FREE ENERGY PREDICTED BY IDOCK:   -5.63 KCAL/MOL
REMARK 923 INTER-LIGAND FREE ENERGY PREDICTED BY IDOCK:   -6.25 KCAL/MOL
REMARK 924 INTRA-LIGAND FREE ENERGY PREDICTED BY IDOCK:    0.62 KCAL/MOL
REMARK 927      BINDING AFFINITY PREDICTED BY RF-SCORE:    0.00 PKD
ROOT
HETATM    1  C   UNL     1      -8.891  11.354  67.839  1.00  0.00    -0.149 C  
HETATM    2  C   UNL     1      -7.930  12.522  67.680  1.00  0.00    -0.170 C  
HETATM    3  C   UNL     1      -8.755  13.679  67.569  1.00  0.00    -0.198 A  
HETATM    4  C   UNL     1      -8.634  14.772  66.776  1.00  0.00    -0.193 A  
HETATM    5  N   UNL     1      -9.817  15.444  66.898  1.00  0.00    -0.240 NA 
HETATM    6  C   UNL     1     -10.121  16.546  66.012  1.00  0.00    -0.348 C  
HETATM    7  C   UNL     1     -10.635  14.817  67.839  1.00  0.00    -0.248 A  
HETATM    8  C   UNL     1     -11.881  15.123  68.376  1.00  0.00    -0.293 A  
HETATM    9  C   UNL     1     -12.407  14.179  69.288  1.00  0.00    -0.206 A  
HETATM   10  C   UNL     1     -11.789  12.920  69.592  1.00  0.00    -0.387 A  
HETATM   11  C   UNL     1     -10.568  12.551  69.007  1.00  0.00    -0.083 A  
HETATM   12  C   UNL     1      -9.719  11.171  69.107  1.00  0.00    -0.050 C  
HETATM   13  C   UNL     1     -10.000  13.652  68.230  1.00  0.00    -0.236 A  
HETATM   14  C   UNL     1      -9.759   9.392  68.865  1.00  0.00    -0.166 C  
HETATM   15  C   UNL     1      -8.897   8.847  67.481  1.00  0.00    -0.135 C  
HETATM   16  C   UNL     1      -9.337   9.631  66.241  1.00  0.00    -0.185 C  
HETATM   17  C   UNL     1      -8.280   7.534  66.965  1.00  0.00    -0.124 C  
HETATM   18  N   UNL     1      -9.744  10.965  66.628  1.00  0.00    -0.185 NA 
HETATM   19  C   UNL     1     -11.236  10.913  66.777  1.00  0.00    -0.033 C  
ENDROOT
BRANCH  17  20
HETATM   20  N   UNL     1      -9.045   6.338  66.812  1.00  0.00    -0.130 N  
HETATM   21  H   UNL     1      -8.641   5.449  66.518  1.00  0.00     0.000 HD 
HETATM   22  C   UNL     1     -10.364   6.500  67.097  1.00  0.00    -0.247 C  
HETATM   23  O   UNL     1     -11.011   7.507  66.833  1.00  0.00    -0.292 OA 
BRANCH  22  24
HETATM   24  O   UNL     1     -10.772   5.472  67.845  1.00  0.00    -0.190 OA 
BRANCH  24  25
HETATM   25  C   UNL     1      -9.847   5.111  68.896  1.00  0.00    -0.172 C  
BRANCH  25  26
HETATM   26  C   UNL     1     -10.083   5.964  70.099  1.00  0.00    -0.261 A  
HETATM   27  C   UNL     1      -8.992   6.436  70.825  1.00  0.00    -0.144 A  
HETATM   28  C   UNL     1      -9.188   7.292  71.905  1.00  0.00    -0.147 A  
HETATM   29  C   UNL     1     -10.478   7.676  72.267  1.00  0.00    -0.289 A  
HETATM   30  C   UNL     1     -11.576   7.198  71.553  1.00  0.00    -0.310 A  
HETATM   31  C   UNL     1     -11.382   6.343  70.470  1.00  0.00    -0.438 A  
ENDBRANCH  25  26
ENDBRANCH  24  25
ENDBRANCH  22  24
ENDBRANCH  17  20
TORSDOF 4
ENDMDL
MODEL      140
REMARK 921   NORMALIZED FREE ENERGY PREDICTED BY IDOCK:   -4.05 KCAL/MOL
REMARK 922        TOTAL FREE ENERGY PREDICTED BY IDOCK:   -5.57 KCAL/MOL
REMARK 923 INTER-LIGAND FREE ENERGY PREDICTED BY IDOCK:   -5.64 KCAL/MOL
REMARK 924 INTRA-LIGAND FREE ENERGY PREDICTED BY IDOCK:    0.06 KCAL/MOL
REMARK 927      BINDING AFFINITY PREDICTED BY RF-SCORE:    0.00 PKD
ROOT
HETATM    1  C   UNL     1     -11.809   9.183  71.090  1.00  0.00    -0.307 C  
HETATM    2  C   UNL     1     -12.884  10.124  71.608  1.00  0.00    -0.559 C  
HETATM    3  C   UNL     1     -12.616  11.382  70.994  1.00  0.00    -0.487 A  
HETATM    4  C   UNL     1     -12.685  12.638  71.499  1.00  0.00    -0.223 A  
HETATM    5  N   UNL     1     -12.090  13.439  70.566  1.00  0.00    -0.347 NA 
HETATM    6  C   UNL     1     -11.789  14.819  70.879  1.00  0.00    -0.322 C  
HETATM    7  C   UNL     1     -11.736  12.692  69.442  1.00  0.00    -0.325 A  
HETATM    8  C   UNL     1     -11.180  13.024  68.211  1.00  0.00    -0.309 A  
HETATM    9  C   UNL     1     -10.918  11.940  67.342  1.00  0.00    -0.315 A  
HETATM   10  C   UNL     1     -11.093  10.561  67.696  1.00  0.00    -0.375 A  
HETATM   11  C   UNL     1     -11.583  10.193  68.959  1.00  0.00    -0.076 A  
HETATM   12  C   UNL     1     -11.782   8.730  69.633  1.00  0.00     0.584 C  
HETATM   13  C   UNL     1     -12.005  11.365  69.724  1.00  0.00    -0.422 A  
HETATM   14  C   UNL     1     -10.976   7.192  70.091  1.00  0.00    -0.293 C  
HETATM   15  C   UNL     1     -10.702   7.012  71.778  1.00  0.00    -0.242 C  
HETATM   16  C   UNL     1      -9.991   8.251  72.333  1.00  0.00    -0.309 C  
HETATM   17  C   UNL     1     -10.421   5.872  72.774  1.00  0.00    -0.209 C  
HETATM   18  N   UNL     1     -10.371   9.415  71.564  1.00  0.00    -0.289 NA 
HETATM   19  C   UNL     1      -9.290   9.603  70.540  1.00  0.00    -0.166 C  
ENDROOT
BRANCH  17  20
HETATM   20  N   UNL     1      -9.319   4.977  72.620  1.00  0.00    -0.133 N  
HETATM   21  H   UNL     1      -9.429   3.977  72.450  1.00  0.00     0.000 HD 
HETATM   22  C   UNL     1      -8.108   5.586  72.722  1.00  0.00    -0.109 C  
HETATM   23  O   UNL     1      -7.861   6.508  73.492  1.00  0.00    -0.092 OA 
BRANCH  22  24
HETATM   24  O   UNL     1      -7.316   5.136  71.747  1.00  0.00    -0.079 OA 
BRANCH  24  25
HETATM   25  C   UNL     1      -8.022   4.442  70.693  1.00  0.00    -0.060 C  
BRANCH  25  26
HETATM   26  C   UNL     1      -7.074   3.577  69.928  1.00  0.00    -0.041 A  
HETATM   27  C   UNL     1      -6.211   2.731  70.620  1.00  0.00    -0.023 A  
HETATM   28  C   UNL     1      -5.374   1.865  69.923  1.00  0.00    -0.012 A  
HETATM   29  C   UNL     1      -5.391   1.846  68.530  1.00  0.00    -0.013 A  
HETATM   30  C   UNL     1      -6.243   2.698  67.829  1.00  0.00    -0.031 A  
HETATM   31  C   UNL     1      -7.085   3.564  68.524  1.00  0.00    -0.050 A  
ENDBRANCH  25  26
ENDBRANCH  24  25
ENDBRANCH  22  24
ENDBRANCH  17  20
TORSDOF 4
ENDMDL
MODEL      141
REMARK 921   NORMALIZED FREE ENERGY PREDICTED BY IDOCK:   -3.98 KCAL/MOL
REMARK 922        TOTAL FREE ENERGY PREDICTED BY IDOCK:   -5.49 KCAL/MOL
REMARK 923 INTER-LIGAND FREE ENERGY PREDICTED BY IDOCK:   -5.00 KCAL/MOL
REMARK 924 INTRA-LIGAND FREE ENERGY PREDICTED BY IDOCK:   -0.49 KCAL/MOL
REMARK 927      BINDING AFFINITY PREDICTED BY RF-SCORE:    0.00 PKD
ROOT
HETATM    1  C   UNL     1      -8.029  10.022  70.074  1.00  0.00    -0.150 C  
HETATM    2  C   UNL     1      -7.072  11.166  69.775  1.00  0.00    -0.008 C  
HETATM    3  C   UNL     1      -6.916  11.169  68.358  1.00  0.00    -0.072 A  
HETATM    4  C   UNL     1      -5.813  11.376  67.597  1.00  0.00    -0.053 A  
HETATM    5  N   UNL     1      -6.176  11.023  66.328  1.00  0.00    -0.134 NA 
HETATM    6  C   UNL     1      -5.173  10.908  65.292  1.00  0.00    -0.109 C  
HETATM    7  C   UNL     1      -7.530  10.686  66.286  1.00  0.00    -0.137 A  
HETATM    8  C   UNL     1      -8.395  10.333  65.257  1.00  0.00    -0.165 A  
HETATM    9  C   UNL     1      -9.714  10.004  65.647  1.00  0.00    -0.336 A  
HETATM   10  C   UNL     1     -10.155   9.920  67.010  1.00  0.00    -0.275 A  
HETATM   11  C   UNL     1      -9.283  10.200  68.073  1.00  0.00    -0.142 A  
HETATM   12  C   UNL     1      -9.500  10.090  69.678  1.00  0.00    -0.247 C  
HETATM   13  C   UNL     1      -8.003  10.710  67.586  1.00  0.00    -0.106 A  
HETATM   14  C   UNL     1      -9.951   9.007  71.037  1.00  0.00    -0.349 C  
HETATM   15  C   UNL     1      -8.629   8.518  72.021  1.00  0.00    -0.250 C  
HETATM   16  C   UNL     1      -7.503   7.952  71.150  1.00  0.00    -0.078 C  
HETATM   17  C   UNL     1      -8.407   7.952  73.435  1.00  0.00    -0.203 C  
HETATM   18  N   UNL     1      -7.520   8.594  69.854  1.00  0.00    -0.055 NA 
HETATM   19  C   UNL     1      -8.295   7.679  68.951  1.00  0.00    -0.129 C  
ENDROOT
BRANCH  17  20
HETATM   20  N   UNL     1      -9.031   6.748  73.883  1.00  0.00    -0.148 N  
HETATM   21  H   UNL     1      -9.821   6.733  74.528  1.00  0.00     0.000 HD 
HETATM   22  C   UNL     1      -8.471   5.623  73.365  1.00  0.00    -0.116 C  
HETATM   23  O   UNL     1      -7.271   5.480  73.158  1.00  0.00    -0.087 OA 
BRANCH  22  24
HETATM   24  O   UNL     1      -9.444   4.797  72.975  1.00  0.00    -0.128 OA 
BRANCH  24  25
HETATM   25  C   UNL     1     -10.455   5.430  72.158  1.00  0.00    -0.218 C  
BRANCH  25  26
HETATM   26  C   UNL     1     -10.267   5.047  70.726  1.00  0.00    -0.299 A  
HETATM   27  C   UNL     1      -9.608   3.860  70.418  1.00  0.00    -0.266 A  
HETATM   28  C   UNL     1      -9.488   3.451  69.093  1.00  0.00    -0.211 A  
HETATM   29  C   UNL     1     -10.023   4.231  68.069  1.00  0.00    -0.040 A  
HETATM   30  C   UNL     1     -10.674   5.426  68.368  1.00  0.00    -0.071 A  
HETATM   31  C   UNL     1     -10.798   5.837  69.694  1.00  0.00    -0.418 A  
ENDBRANCH  25  26
ENDBRANCH  24  25
ENDBRANCH  22  24
ENDBRANCH  17  20
TORSDOF 4
ENDMDL
MODEL      142
REMARK 921   NORMALIZED FREE ENERGY PREDICTED BY IDOCK:   -3.96 KCAL/MOL
REMARK 922        TOTAL FREE ENERGY PREDICTED BY IDOCK:   -5.47 KCAL/MOL
REMARK 923 INTER-LIGAND FREE ENERGY PREDICTED BY IDOCK:   -6.16 KCAL/MOL
REMARK 924 INTRA-LIGAND FREE ENERGY PREDICTED BY IDOCK:    0.69 KCAL/MOL
REMARK 927      BINDING AFFINITY PREDICTED BY RF-SCORE:    0.00 PKD
ROOT
HETATM    1  C   UNL     1     -10.300  12.762  67.002  1.00  0.00    -0.234 C  
HETATM    2  C   UNL     1     -10.627  11.505  66.212  1.00  0.00    -0.309 C  
HETATM    3  C   UNL     1     -10.807  10.481  67.187  1.00  0.00    -0.319 A  
HETATM    4  C   UNL     1     -10.424   9.180  67.175  1.00  0.00    -0.255 A  
HETATM    5  N   UNL     1     -10.629   8.729  68.448  1.00  0.00    -0.180 NA 
HETATM    6  C   UNL     1     -10.116   7.438  68.852  1.00  0.00    -0.186 C  
HETATM    7  C   UNL     1     -11.226   9.723  69.225  1.00  0.00    -0.088 A  
HETATM    8  C   UNL     1     -11.697   9.759  70.532  1.00  0.00    -0.343 A  
HETATM    9  C   UNL     1     -12.195  11.007  70.973  1.00  0.00    -0.456 A  
HETATM   10  C   UNL     1     -12.143  12.215  70.200  1.00  0.00    -0.368 A  
HETATM   11  C   UNL     1     -11.605  12.224  68.904  1.00  0.00    -0.367 A  
HETATM   12  C   UNL     1     -11.346  13.451  67.873  1.00  0.00    -0.322 C  
HETATM   13  C   UNL     1     -11.287  10.870  68.454  1.00  0.00    -0.370 A  
HETATM   14  C   UNL     1     -10.544  15.040  67.639  1.00  0.00    -0.267 C  
HETATM   15  C   UNL     1      -9.158  14.990  66.623  1.00  0.00    -0.309 C  
HETATM   16  C   UNL     1      -8.196  13.896  67.094  1.00  0.00    -0.109 C  
HETATM   17  C   UNL     1      -8.317  15.976  65.792  1.00  0.00     0.678 C  
HETATM   18  N   UNL     1      -8.944  12.823  67.712  1.00  0.00    -0.180 NA 
HETATM   19  C   UNL     1      -8.909  13.094  69.187  1.00  0.00     0.685 C  
ENDROOT
BRANCH  17  20
HETATM   20  N   UNL     1      -7.708  17.133  66.365  1.00  0.00    -0.284 N  
HETATM   21  H   UNL     1      -8.142  18.056  66.360  1.00  0.00     0.000 HD 
HETATM   22  C   UNL     1      -6.491  16.887  66.919  1.00  0.00    -0.213 C  
HETATM   23  O   UNL     1      -5.669  16.102  66.460  1.00  0.00    -0.130 OA 
BRANCH  22  24
HETATM   24  O   UNL     1      -6.426  17.498  68.104  1.00  0.00    -0.170 OA 
BRANCH  24  25
HETATM   25  C   UNL     1      -7.688  17.548  68.807  1.00  0.00    -0.252 C  
BRANCH  25  26
HETATM   26  C   UNL     1      -8.433  18.787  68.430  1.00  0.00    -0.374 A  
HETATM   27  C   UNL     1      -7.771  19.796  67.733  1.00  0.00    -0.324 A  
HETATM   28  C   UNL     1      -8.467  20.924  67.309  1.00  0.00    -0.124 A  
HETATM   29  C   UNL     1      -9.827  21.052  67.586  1.00  0.00    -0.120 A  
HETATM   30  C   UNL     1     -10.494  20.052  68.293  1.00  0.00    -0.409 A  
HETATM   31  C   UNL     1      -9.800  18.920  68.715  1.00  0.00    -0.461 A  
ENDBRANCH  25  26
ENDBRANCH  24  25
ENDBRANCH  22  24
ENDBRANCH  17  20
TORSDOF 4
ENDMDL
MODEL      143
REMARK 921   NORMALIZED FREE ENERGY PREDICTED BY IDOCK:   -3.95 KCAL/MOL
REMARK 922        TOTAL FREE ENERGY PREDICTED BY IDOCK:   -5.45 KCAL/MOL
REMARK 923 INTER-LIGAND FREE ENERGY PREDICTED BY IDOCK:   -4.42 KCAL/MOL
REMARK 924 INTRA-LIGAND FREE ENERGY PREDICTED BY IDOCK:   -1.04 KCAL/MOL
REMARK 927      BINDING AFFINITY PREDICTED BY RF-SCORE:    0.00 PKD
ROOT
HETATM    1  C   UNL     1      -9.913  13.691  68.580  1.00  0.00    -0.208 C  
HETATM    2  C   UNL     1     -10.569  14.669  69.542  1.00  0.00    -0.166 C  
HETATM    3  C   UNL     1     -10.562  15.926  68.871  1.00  0.00    -0.244 A  
HETATM    4  C   UNL     1     -10.323  17.173  69.345  1.00  0.00    -0.195 A  
HETATM    5  N   UNL     1     -10.201  17.966  68.239  1.00  0.00    -0.368 NA 
HETATM    6  C   UNL     1      -9.720  19.324  68.369  1.00  0.00    -0.403 C  
HETATM    7  C   UNL     1     -10.455  17.228  67.083  1.00  0.00    -0.297 A  
HETATM    8  C   UNL     1     -10.531  17.559  65.735  1.00  0.00    -0.212 A  
HETATM    9  C   UNL     1     -10.762  16.483  64.848  1.00  0.00    -0.168 A  
HETATM   10  C   UNL     1     -10.816  15.105  65.247  1.00  0.00    -0.414 A  
HETATM   11  C   UNL     1     -10.670  14.734  66.592  1.00  0.00    -0.309 A  
HETATM   12  C   UNL     1     -10.598  13.267  67.285  1.00  0.00    -0.250 C  
HETATM   13  C   UNL     1     -10.623  15.908  67.462  1.00  0.00    -0.315 A  
HETATM   14  C   UNL     1      -9.747  11.687  67.312  1.00  0.00    -0.192 C  
HETATM   15  C   UNL     1      -8.718  11.461  68.670  1.00  0.00    -0.121 C  
HETATM   16  C   UNL     1      -7.771  12.655  68.821  1.00  0.00     0.007 C  
HETATM   17  C   UNL     1      -8.057  10.289  69.419  1.00  0.00    -0.163 C  
HETATM   18  N   UNL     1      -8.412  13.851  68.318  1.00  0.00    -0.164 NA 
HETATM   19  C   UNL     1      -7.934  14.011  66.905  1.00  0.00     0.209 C  
ENDROOT
BRANCH  17  20
HETATM   20  N   UNL     1      -7.203   9.349  68.765  1.00  0.00    -0.072 N  
HETATM   21  H   UNL     1      -7.551   8.556  68.228  1.00  0.00     0.000 HD 
HETATM   22  C   UNL     1      -5.880   9.616  68.929  1.00  0.00    -0.039 C  
HETATM   23  O   UNL     1      -5.386  10.061  69.958  1.00  0.00    -0.036 OA 
BRANCH  22  24
HETATM   24  O   UNL     1      -5.264   9.475  67.753  1.00  0.00    -0.037 OA 
BRANCH  24  25
HETATM   25  C   UNL     1      -5.443  10.599  66.861  1.00  0.00    -0.047 C  
BRANCH  25  26
HETATM   26  C   UNL     1      -6.063  10.141  65.582  1.00  0.00    -0.095 A  
HETATM   27  C   UNL     1      -5.580   8.991  64.961  1.00  0.00    -0.054 A  
HETATM   28  C   UNL     1      -6.192   8.508  63.809  1.00  0.00    -0.072 A  
HETATM   29  C   UNL     1      -7.289   9.177  63.268  1.00  0.00    -0.096 A  
HETATM   30  C   UNL     1      -7.772  10.335  63.876  1.00  0.00    -0.101 A  
HETATM   31  C   UNL     1      -7.162  10.819  65.031  1.00  0.00     0.205 A  
ENDBRANCH  25  26
ENDBRANCH  24  25
ENDBRANCH  22  24
ENDBRANCH  17  20
TORSDOF 4
ENDMDL
MODEL      144
REMARK 921   NORMALIZED FREE ENERGY PREDICTED BY IDOCK:   -3.93 KCAL/MOL
REMARK 922        TOTAL FREE ENERGY PREDICTED BY IDOCK:   -5.43 KCAL/MOL
REMARK 923 INTER-LIGAND FREE ENERGY PREDICTED BY IDOCK:   -7.07 KCAL/MOL
REMARK 924 INTRA-LIGAND FREE ENERGY PREDICTED BY IDOCK:    1.63 KCAL/MOL
REMARK 927      BINDING AFFINITY PREDICTED BY RF-SCORE:    0.00 PKD
ROOT
HETATM    1  C   UNL     1     -10.761  14.779  67.807  1.00  0.00    -0.268 C  
HETATM    2  C   UNL     1     -11.421  13.506  67.302  1.00  0.00    -0.369 C  
HETATM    3  C   UNL     1     -11.876  12.826  68.469  1.00  0.00    -0.345 A  
HETATM    4  C   UNL     1     -11.866  11.505  68.776  1.00  0.00    -0.330 A  
HETATM    5  N   UNL     1     -12.189  11.438  70.102  1.00  0.00    -0.325 NA 
HETATM    6  C   UNL     1     -12.052  10.189  70.820  1.00  0.00    -0.343 C  
HETATM    7  C   UNL     1     -12.491  12.709  70.593  1.00  0.00    -0.239 A  
HETATM    8  C   UNL     1     -12.936  13.176  71.825  1.00  0.00    -0.435 A  
HETATM    9  C   UNL     1     -13.072  14.579  71.938  1.00  0.00    -0.427 A  
HETATM   10  C   UNL     1     -12.688  15.512  70.917  1.00  0.00    -0.525 A  
HETATM   11  C   UNL     1     -12.167  15.072  69.691  1.00  0.00    -0.293 A  
HETATM   12  C   UNL     1     -11.578  15.907  68.429  1.00  0.00    -0.317 C  
HETATM   13  C   UNL     1     -12.233  13.616  69.581  1.00  0.00    -0.326 A  
HETATM   14  C   UNL     1     -10.369  17.123  67.897  1.00  0.00    -0.350 C  
HETATM   15  C   UNL     1      -9.050  16.467  67.012  1.00  0.00    -0.228 C  
HETATM   16  C   UNL     1      -8.426  15.298  67.780  1.00  0.00    -0.152 C  
HETATM   17  C   UNL     1      -7.968  16.968  66.037  1.00  0.00    -0.141 C  
HETATM   18  N   UNL     1      -9.442  14.641  68.574  1.00  0.00    -0.212 NA 
HETATM   19  C   UNL     1      -9.336  15.232  69.949  1.00  0.00     0.037 C  
ENDROOT
BRANCH  17  20
HETATM   20  N   UNL     1      -7.065  18.022  66.374  1.00  0.00    -0.226 N  
HETATM   21  H   UNL     1      -7.333  19.006  66.389  1.00  0.00     0.000 HD 
HETATM   22  C   UNL     1      -5.812  17.587  66.672  1.00  0.00    -0.191 C  
HETATM   23  O   UNL     1      -5.253  16.651  66.111  1.00  0.00    -0.206 OA 
BRANCH  22  24
HETATM   24  O   UNL     1      -5.383  18.224  67.764  1.00  0.00    -0.153 OA 
BRANCH  24  25
HETATM   25  C   UNL     1      -6.095  17.864  68.969  1.00  0.00    -0.216 C  
BRANCH  25  26
HETATM   26  C   UNL     1      -5.795  16.448  69.336  1.00  0.00    -0.157 A  
HETATM   27  C   UNL     1      -5.818  16.070  70.676  1.00  0.00     0.085 A  
HETATM   28  C   UNL     1      -5.614  14.740  71.032  1.00  0.00    -0.121 A  
HETATM   29  C   UNL     1      -5.379  13.782  70.047  1.00  0.00    -0.098 A  
HETATM   30  C   UNL     1      -5.342  14.154  68.704  1.00  0.00    -0.090 A  
HETATM   31  C   UNL     1      -5.549  15.484  68.346  1.00  0.00    -0.104 A  
ENDBRANCH  25  26
ENDBRANCH  24  25
ENDBRANCH  22  24
ENDBRANCH  17  20
TORSDOF 4
ENDMDL
MODEL      145
REMARK 921   NORMALIZED FREE ENERGY PREDICTED BY IDOCK:   -3.63 KCAL/MOL
REMARK 922        TOTAL FREE ENERGY PREDICTED BY IDOCK:   -5.06 KCAL/MOL
REMARK 923 INTER-LIGAND FREE ENERGY PREDICTED BY IDOCK:   -4.69 KCAL/MOL
REMARK 924 INTRA-LIGAND FREE ENERGY PREDICTED BY IDOCK:   -0.37 KCAL/MOL
REMARK 927      BINDING AFFINITY PREDICTED BY RF-SCORE:    0.00 PKD
ROOT
HETATM    1  C   UNL     1     -11.042  12.803  67.108  1.00  0.00    -0.277 C  
HETATM    2  C   UNL     1     -12.223  13.504  67.761  1.00  0.00    -0.194 C  
HETATM    3  C   UNL     1     -11.713  14.751  68.226  1.00  0.00    -0.340 A  
HETATM    4  C   UNL     1     -11.963  15.429  69.374  1.00  0.00    -0.327 A  
HETATM    5  N   UNL     1     -11.032  16.428  69.416  1.00  0.00    -0.327 NA 
HETATM    6  C   UNL     1     -10.863  17.212  70.620  1.00  0.00     0.884 C  
HETATM    7  C   UNL     1     -10.265  16.427  68.250  1.00  0.00    -0.255 A  
HETATM    8  C   UNL     1      -9.257  17.254  67.769  1.00  0.00    -0.239 A  
HETATM    9  C   UNL     1      -8.682  16.870  66.535  1.00  0.00    -0.304 A  
HETATM   10  C   UNL     1      -9.004  15.658  65.837  1.00  0.00    -0.189 A  
HETATM   11  C   UNL     1      -9.965  14.767  66.337  1.00  0.00    -0.291 A  
HETATM   12  C   UNL     1     -10.438  13.309  65.802  1.00  0.00    -0.289 C  
HETATM   13  C   UNL     1     -10.643  15.322  67.508  1.00  0.00    -0.273 A  
HETATM   14  C   UNL     1      -9.905  11.651  65.366  1.00  0.00    -0.268 C  
HETATM   15  C   UNL     1     -10.335  10.446  66.514  1.00  0.00    -0.287 C  
HETATM   16  C   UNL     1      -9.891  10.869  67.917  1.00  0.00    -0.172 C  
HETATM   17  C   UNL     1     -10.494   8.915  66.556  1.00  0.00    -0.105 C  
HETATM   18  N   UNL     1      -9.913  12.312  68.020  1.00  0.00    -0.196 NA 
HETATM   19  C   UNL     1      -8.510  12.766  67.747  1.00  0.00    -0.177 C  
ENDROOT
BRANCH  17  20
HETATM   20  N   UNL     1      -9.435   8.026  66.196  1.00  0.00    -0.384 N  
HETATM   21  H   UNL     1      -8.548   8.342  65.805  1.00  0.00     0.000 HD 
HETATM   22  C   UNL     1      -9.724   6.718  66.427  1.00  0.00    -0.064 C  
HETATM   23  O   UNL     1     -10.831   6.216  66.269  1.00  0.00    -0.060 OA 
BRANCH  22  24
HETATM   24  O   UNL     1      -8.668   6.139  67.002  1.00  0.00    -0.108 OA 
BRANCH  24  25
HETATM   25  C   UNL     1      -8.985   5.412  68.211  1.00  0.00    -0.108 C  
BRANCH  25  26
HETATM   26  C   UNL     1      -7.838   5.481  69.164  1.00  0.00    -0.091 A  
HETATM   27  C   UNL     1      -8.027   6.051  70.421  1.00  0.00    -0.107 A  
HETATM   28  C   UNL     1      -6.990   6.057  71.349  1.00  0.00    -0.072 A  
HETATM   29  C   UNL     1      -5.755   5.499  71.021  1.00  0.00    -0.013 A  
HETATM   30  C   UNL     1      -5.554   4.939  69.761  1.00  0.00    -0.012 A  
HETATM   31  C   UNL     1      -6.591   4.928  68.831  1.00  0.00    -0.045 A  
ENDBRANCH  25  26
ENDBRANCH  24  25
ENDBRANCH  22  24
ENDBRANCH  17  20
TORSDOF 4
ENDMDL
MODEL      146
REMARK 921   NORMALIZED FREE ENERGY PREDICTED BY IDOCK:   -3.63 KCAL/MOL
REMARK 922        TOTAL FREE ENERGY PREDICTED BY IDOCK:   -5.06 KCAL/MOL
REMARK 923 INTER-LIGAND FREE ENERGY PREDICTED BY IDOCK:   -6.14 KCAL/MOL
REMARK 924 INTRA-LIGAND FREE ENERGY PREDICTED BY IDOCK:    1.08 KCAL/MOL
REMARK 927      BINDING AFFINITY PREDICTED BY RF-SCORE:    0.00 PKD
ROOT
HETATM    1  C   UNL     1     -10.081   7.293  67.535  1.00  0.00    -0.193 C  
HETATM    2  C   UNL     1     -10.569   6.011  66.877  1.00  0.00    -0.384 C  
HETATM    3  C   UNL     1     -10.094   4.954  67.707  1.00  0.00    -0.158 A  
HETATM    4  C   UNL     1      -9.582   3.742  67.379  1.00  0.00    -0.161 A  
HETATM    5  N   UNL     1      -9.066   3.239  68.539  1.00  0.00    -0.139 NA 
HETATM    6  C   UNL     1      -8.240   2.052  68.512  1.00  0.00    -0.056 C  
HETATM    7  C   UNL     1      -9.340   4.098  69.605  1.00  0.00    -0.171 A  
HETATM    8  C   UNL     1      -9.105   4.027  70.973  1.00  0.00    -0.179 A  
HETATM    9  C   UNL     1      -9.497   5.160  71.725  1.00  0.00    -0.188 A  
HETATM   10  C   UNL     1     -10.008   6.372  71.150  1.00  0.00    -0.203 A  
HETATM   11  C   UNL     1     -10.186   6.499  69.764  1.00  0.00    -0.221 A  
HETATM   12  C   UNL     1     -10.649   7.770  68.868  1.00  0.00    -0.168 C  
HETATM   13  C   UNL     1      -9.938   5.230  69.081  1.00  0.00    -0.275 A  
HETATM   14  C   UNL     1     -10.306   9.480  68.441  1.00  0.00    -0.237 C  
HETATM   15  C   UNL     1      -9.611   9.694  66.883  1.00  0.00    -0.217 C  
HETATM   16  C   UNL     1      -8.395   8.778  66.717  1.00  0.00    -0.108 C  
HETATM   17  C   UNL     1      -9.441  10.827  65.855  1.00  0.00    -0.197 C  
HETATM   18  N   UNL     1      -8.576   7.579  67.506  1.00  0.00    -0.122 NA 
HETATM   19  C   UNL     1      -7.859   7.825  68.800  1.00  0.00    -0.123 C  
ENDROOT
BRANCH  17  20
HETATM   20  N   UNL     1      -8.804  12.064  66.179  1.00  0.00    -0.391 N  
HETATM   21  H   UNL     1      -8.947  12.923  65.649  1.00  0.00     0.000 HD 
HETATM   22  C   UNL     1      -7.987  11.984  67.262  1.00  0.00    -0.174 C  
HETATM   23  O   UNL     1      -7.291  11.012  67.533  1.00  0.00    -0.094 OA 
BRANCH  22  24
HETATM   24  O   UNL     1      -8.203  13.045  68.043  1.00  0.00    -0.140 OA 
BRANCH  24  25
HETATM   25  C   UNL     1      -7.600  14.264  67.553  1.00  0.00    -0.184 C  
BRANCH  25  26
HETATM   26  C   UNL     1      -8.597  15.376  67.588  1.00  0.00    -0.176 A  
HETATM   27  C   UNL     1      -9.407  15.603  66.477  1.00  0.00    -0.305 A  
HETATM   28  C   UNL     1     -10.391  16.586  66.519  1.00  0.00    -0.307 A  
HETATM   29  C   UNL     1     -10.566  17.351  67.670  1.00  0.00    -0.350 A  
HETATM   30  C   UNL     1      -9.752  17.139  68.782  1.00  0.00    -0.277 A  
HETATM   31  C   UNL     1      -8.768  16.153  68.744  1.00  0.00    -0.240 A  
ENDBRANCH  25  26
ENDBRANCH  24  25
ENDBRANCH  22  24
ENDBRANCH  17  20
TORSDOF 4
ENDMDL
MODEL      147
REMARK 921   NORMALIZED FREE ENERGY PREDICTED BY IDOCK:   -3.57 KCAL/MOL
REMARK 922        TOTAL FREE ENERGY PREDICTED BY IDOCK:   -4.98 KCAL/MOL
REMARK 923 INTER-LIGAND FREE ENERGY PREDICTED BY IDOCK:   -4.53 KCAL/MOL
REMARK 924 INTRA-LIGAND FREE ENERGY PREDICTED BY IDOCK:   -0.45 KCAL/MOL
REMARK 927      BINDING AFFINITY PREDICTED BY RF-SCORE:    0.00 PKD
ROOT
HETATM    1  C   UNL     1      -8.025   8.303  68.275  1.00  0.00    -0.119 C  
HETATM    2  C   UNL     1      -6.802   8.208  67.376  1.00  0.00    -0.074 C  
HETATM    3  C   UNL     1      -7.268   8.518  66.066  1.00  0.00    -0.077 A  
HETATM    4  C   UNL     1      -6.948   7.970  64.867  1.00  0.00    -0.063 A  
HETATM    5  N   UNL     1      -7.861   8.471  63.983  1.00  0.00    -0.141 NA 
HETATM    6  C   UNL     1      -7.955   7.923  62.648  1.00  0.00    -0.147 C  
HETATM    7  C   UNL     1      -8.689   9.400  64.615  1.00  0.00    -0.200 A  
HETATM    8  C   UNL     1      -9.710  10.231  64.166  1.00  0.00    -0.357 A  
HETATM    9  C   UNL     1     -10.355  11.005  65.158  1.00  0.00    -0.346 A  
HETATM   10  C   UNL     1     -10.088  10.899  66.564  1.00  0.00    -0.269 A  
HETATM   11  C   UNL     1      -9.114  10.015  67.053  1.00  0.00    -0.159 A  
HETATM   12  C   UNL     1      -8.691   9.642  68.575  1.00  0.00    -0.120 C  
HETATM   13  C   UNL     1      -8.367   9.395  65.960  1.00  0.00    -0.123 A  
HETATM   14  C   UNL     1      -9.270   9.036  70.163  1.00  0.00    -0.212 C  
HETATM   15  C   UNL     1      -8.796   7.423  70.520  1.00  0.00    -0.148 C  
HETATM   16  C   UNL     1      -9.159   6.496  69.356  1.00  0.00    -0.141 C  
HETATM   17  C   UNL     1      -8.657   6.523  71.761  1.00  0.00    -0.124 C  
HETATM   18  N   UNL     1      -9.110   7.234  68.112  1.00  0.00    -0.134 NA 
HETATM   19  C   UNL     1     -10.520   7.667  67.835  1.00  0.00    -0.207 C  
ENDROOT
BRANCH  17  20
HETATM   20  N   UNL     1      -9.746   6.274  72.651  1.00  0.00    -0.159 N  
HETATM   21  H   UNL     1     -10.722   6.415  72.394  1.00  0.00     0.000 HD 
HETATM   22  C   UNL     1      -9.354   5.830  73.875  1.00  0.00    -0.135 C  
HETATM   23  O   UNL     1      -8.348   6.215  74.460  1.00  0.00    -0.121 OA 
BRANCH  22  24
HETATM   24  O   UNL     1     -10.138   4.811  74.234  1.00  0.00    -0.173 OA 
BRANCH  24  25
HETATM   25  C   UNL     1      -9.421   3.578  74.470  1.00  0.00    -0.100 C  
BRANCH  25  26
HETATM   26  C   UNL     1      -9.020   2.964  73.169  1.00  0.00    -0.091 A  
HETATM   27  C   UNL     1      -9.957   2.235  72.440  1.00  0.00    -0.220 A  
HETATM   28  C   UNL     1      -9.623   1.718  71.192  1.00  0.00    -0.206 A  
HETATM   29  C   UNL     1      -8.347   1.923  70.669  1.00  0.00    -0.074 A  
HETATM   30  C   UNL     1      -7.400   2.641  71.397  1.00  0.00    -0.033 A  
HETATM   31  C   UNL     1      -7.733   3.162  72.646  1.00  0.00    -0.058 A  
ENDBRANCH  25  26
ENDBRANCH  24  25
ENDBRANCH  22  24
ENDBRANCH  17  20
TORSDOF 4
ENDMDL
MODEL      148
REMARK 921   NORMALIZED FREE ENERGY PREDICTED BY IDOCK:   -3.52 KCAL/MOL
REMARK 922        TOTAL FREE ENERGY PREDICTED BY IDOCK:   -4.92 KCAL/MOL
REMARK 923 INTER-LIGAND FREE ENERGY PREDICTED BY IDOCK:   -4.51 KCAL/MOL
REMARK 924 INTRA-LIGAND FREE ENERGY PREDICTED BY IDOCK:   -0.41 KCAL/MOL
REMARK 927      BINDING AFFINITY PREDICTED BY RF-SCORE:    0.00 PKD
ROOT
HETATM    1  C   UNL     1      -8.344   6.507  69.427  1.00  0.00    -0.123 C  
HETATM    2  C   UNL     1      -7.546   5.217  69.318  1.00  0.00    -0.069 C  
HETATM    3  C   UNL     1      -7.645   4.599  70.598  1.00  0.00    -0.054 A  
HETATM    4  C   UNL     1      -6.714   3.935  71.328  1.00  0.00    -0.031 A  
HETATM    5  N   UNL     1      -7.269   3.774  72.566  1.00  0.00    -0.048 NA 
HETATM    6  C   UNL     1      -6.461   3.300  73.667  1.00  0.00    -0.029 C  
HETATM    7  C   UNL     1      -8.579   4.256  72.577  1.00  0.00    -0.105 A  
HETATM    8  C   UNL     1      -9.584   4.269  73.537  1.00  0.00    -0.134 A  
HETATM    9  C   UNL     1     -10.783   4.919  73.165  1.00  0.00    -0.315 A  
HETATM   10  C   UNL     1     -10.968   5.627  71.930  1.00  0.00    -0.297 A  
HETATM   11  C   UNL     1      -9.944   5.694  70.972  1.00  0.00    -0.248 A  
HETATM   12  C   UNL     1      -9.863   6.494  69.562  1.00  0.00    -0.167 C  
HETATM   13  C   UNL     1      -8.813   4.846  71.347  1.00  0.00    -0.153 A  
HETATM   14  C   UNL     1      -9.981   8.099  68.766  1.00  0.00    -0.198 C  
HETATM   15  C   UNL     1      -8.472   8.756  68.271  1.00  0.00    -0.130 C  
HETATM   16  C   UNL     1      -7.479   8.736  69.437  1.00  0.00    -0.080 C  
HETATM   17  C   UNL     1      -7.959   9.822  67.286  1.00  0.00    -0.106 C  
HETATM   18  N   UNL     1      -7.775   7.621  70.311  1.00  0.00    -0.089 NA 
HETATM   19  C   UNL     1      -8.626   8.178  71.414  1.00  0.00    -0.137 C  
ENDROOT
BRANCH  17  20
HETATM   20  N   UNL     1      -8.400  11.180  67.332  1.00  0.00    -0.132 N  
HETATM   21  H   UNL     1      -9.378  11.447  67.442  1.00  0.00     0.000 HD 
HETATM   22  C   UNL     1      -7.389  12.081  67.214  1.00  0.00    -0.151 C  
HETATM   23  O   UNL     1      -6.409  11.931  66.494  1.00  0.00    -0.054 OA 
BRANCH  22  24
HETATM   24  O   UNL     1      -7.564  13.045  68.121  1.00  0.00    -0.113 OA 
BRANCH  24  25
HETATM   25  C   UNL     1      -8.943  13.441  68.296  1.00  0.00    -0.176 C  
BRANCH  25  26
HETATM   26  C   UNL     1      -9.066  14.925  68.192  1.00  0.00    -0.177 A  
HETATM   27  C   UNL     1     -10.223  15.549  68.653  1.00  0.00    -0.216 A  
HETATM   28  C   UNL     1     -10.324  16.937  68.632  1.00  0.00    -0.332 A  
HETATM   29  C   UNL     1      -9.270  17.708  68.144  1.00  0.00    -0.282 A  
HETATM   30  C   UNL     1      -8.113  17.091  67.670  1.00  0.00    -0.190 A  
HETATM   31  C   UNL     1      -8.008  15.702  67.693  1.00  0.00    -0.170 A  
ENDBRANCH  25  26
ENDBRANCH  24  25
ENDBRANCH  22  24
ENDBRANCH  17  20
TORSDOF 4
ENDMDL
MODEL      149
REMARK 921   NORMALIZED FREE ENERGY PREDICTED BY IDOCK:   -3.50 KCAL/MOL
REMARK 922        TOTAL FREE ENERGY PREDICTED BY IDOCK:   -4.90 KCAL/MOL
REMARK 923 INTER-LIGAND FREE ENERGY PREDICTED BY IDOCK:   -4.14 KCAL/MOL
REMARK 924 INTRA-LIGAND FREE ENERGY PREDICTED BY IDOCK:   -0.76 KCAL/MOL
REMARK 927      BINDING AFFINITY PREDICTED BY RF-SCORE:    0.00 PKD
ROOT
HETATM    1  C   UNL     1      -7.159  12.879  67.402  1.00  0.00    -0.125 C  
HETATM    2  C   UNL     1      -5.941  11.971  67.325  1.00  0.00    -0.146 C  
HETATM    3  C   UNL     1      -6.171  10.944  68.286  1.00  0.00    -0.049 A  
HETATM    4  C   UNL     1      -5.316  10.343  69.150  1.00  0.00    -0.038 A  
HETATM    5  N   UNL     1      -6.106   9.619  69.998  1.00  0.00    -0.044 NA 
HETATM    6  C   UNL     1      -5.539   9.026  71.190  1.00  0.00    -0.043 C  
HETATM    7  C   UNL     1      -7.442   9.698  69.603  1.00  0.00    -0.102 A  
HETATM    8  C   UNL     1      -8.612   9.107  70.068  1.00  0.00    -0.172 A  
HETATM    9  C   UNL     1      -9.802   9.499  69.412  1.00  0.00    -0.194 A  
HETATM   10  C   UNL     1      -9.869  10.516  68.401  1.00  0.00    -0.171 A  
HETATM   11  C   UNL     1      -8.714  11.182  67.965  1.00  0.00    -0.141 A  
HETATM   12  C   UNL     1      -8.530  12.414  66.923  1.00  0.00    -0.147 C  
HETATM   13  C   UNL     1      -7.510  10.593  68.551  1.00  0.00    -0.093 A  
HETATM   14  C   UNL     1      -9.003  14.101  66.533  1.00  0.00    -0.140 C  
HETATM   15  C   UNL     1      -7.777  15.267  66.835  1.00  0.00    -0.108 C  
HETATM   16  C   UNL     1      -7.237  15.110  68.259  1.00  0.00    -0.110 C  
HETATM   17  C   UNL     1      -7.438  16.705  66.401  1.00  0.00    -0.225 C  
HETATM   18  N   UNL     1      -7.335  13.725  68.667  1.00  0.00    -0.114 NA 
HETATM   19  C   UNL     1      -8.614  13.614  69.442  1.00  0.00     0.861 C  
ENDROOT
BRANCH  17  20
HETATM   20  N   UNL     1      -8.348  17.791  66.578  1.00  0.00    -0.258 N  
HETATM   21  H   UNL     1      -8.794  18.280  65.802  1.00  0.00     0.000 HD 
HETATM   22  C   UNL     1      -8.563  18.111  67.882  1.00  0.00    -0.254 C  
HETATM   23  O   UNL     1      -7.702  18.074  68.754  1.00  0.00    -0.296 OA 
BRANCH  22  24
HETATM   24  O   UNL     1      -9.871  18.298  68.069  1.00  0.00    -0.300 OA 
BRANCH  24  25
HETATM   25  C   UNL     1     -10.323  17.970  69.403  1.00  0.00     0.183 C  
BRANCH  25  26
HETATM   26  C   UNL     1     -10.919  16.600  69.418  1.00  0.00    -0.235 A  
HETATM   27  C   UNL     1     -11.105  15.950  70.635  1.00  0.00    -0.368 A  
HETATM   28  C   UNL     1     -11.726  14.705  70.675  1.00  0.00    -0.339 A  
HETATM   29  C   UNL     1     -12.158  14.102  69.495  1.00  0.00    -0.388 A  
HETATM   30  C   UNL     1     -11.965  14.740  68.272  1.00  0.00    -0.258 A  
HETATM   31  C   UNL     1     -11.346  15.988  68.229  1.00  0.00    -0.326 A  
ENDBRANCH  25  26
ENDBRANCH  24  25
ENDBRANCH  22  24
ENDBRANCH  17  20
TORSDOF 4
ENDMDL
MODEL      150
REMARK 921   NORMALIZED FREE ENERGY PREDICTED BY IDOCK:   -3.48 KCAL/MOL
REMARK 922        TOTAL FREE ENERGY PREDICTED BY IDOCK:   -4.88 KCAL/MOL
REMARK 923 INTER-LIGAND FREE ENERGY PREDICTED BY IDOCK:   -5.79 KCAL/MOL
REMARK 924 INTRA-LIGAND FREE ENERGY PREDICTED BY IDOCK:    0.91 KCAL/MOL
REMARK 927      BINDING AFFINITY PREDICTED BY RF-SCORE:    0.00 PKD
ROOT
HETATM    1  C   UNL     1     -11.209   8.665  70.511  1.00  0.00    -0.241 C  
HETATM    2  C   UNL     1     -12.451   9.309  71.106  1.00  0.00    -0.341 C  
HETATM    3  C   UNL     1     -12.390  10.680  70.720  1.00  0.00    -0.472 A  
HETATM    4  C   UNL     1     -12.698  11.803  71.415  1.00  0.00    -0.308 A  
HETATM    5  N   UNL     1     -12.224  12.839  70.662  1.00  0.00    -0.357 NA 
HETATM    6  C   UNL     1     -12.182  14.177  71.211  1.00  0.00    -0.339 C  
HETATM    7  C   UNL     1     -11.705  12.364  69.456  1.00  0.00    -0.322 A  
HETATM    8  C   UNL     1     -11.177  12.989  68.332  1.00  0.00    -0.304 A  
HETATM    9  C   UNL     1     -10.698  12.128  67.318  1.00  0.00    -0.264 A  
HETATM   10  C   UNL     1     -10.637  10.698  67.434  1.00  0.00    -0.304 A  
HETATM   11  C   UNL     1     -11.095  10.045  68.588  1.00  0.00    -0.223 A  
HETATM   12  C   UNL     1     -11.054   8.476  69.005  1.00  0.00     0.209 C  
HETATM   13  C   UNL     1     -11.743  10.982  69.505  1.00  0.00    -0.400 A  
HETATM   14  C   UNL     1     -10.003   7.043  69.259  1.00  0.00    -0.163 C  
HETATM   15  C   UNL     1      -9.758   6.629  70.909  1.00  0.00    -0.190 C  
HETATM   16  C   UNL     1      -9.297   7.858  71.699  1.00  0.00    -0.148 C  
HETATM   17  C   UNL     1      -9.312   5.401  71.724  1.00  0.00    -0.146 C  
HETATM   18  N   UNL     1      -9.852   9.055  71.105  1.00  0.00    -0.275 NA 
HETATM   19  C   UNL     1      -8.788   9.593  70.194  1.00  0.00    -0.231 C  
ENDROOT
BRANCH  17  20
HETATM   20  N   UNL     1      -8.064   4.745  71.497  1.00  0.00    -0.101 N  
HETATM   21  H   UNL     1      -7.702   4.006  72.100  1.00  0.00     0.000 HD 
HETATM   22  C   UNL     1      -7.405   5.200  70.399  1.00  0.00    -0.062 C  
HETATM   23  O   UNL     1      -7.392   6.371  70.036  1.00  0.00    -0.081 OA 
BRANCH  22  24
HETATM   24  O   UNL     1      -6.936   4.155  69.714  1.00  0.00    -0.041 OA 
BRANCH  24  25
HETATM   25  C   UNL     1      -7.968   3.320  69.141  1.00  0.00    -0.049 C  
BRANCH  25  26
HETATM   26  C   UNL     1      -8.532   3.970  67.921  1.00  0.00    -0.103 A  
HETATM   27  C   UNL     1      -9.911   3.974  67.724  1.00  0.00    -0.088 A  
HETATM   28  C   UNL     1     -10.460   4.639  66.632  1.00  0.00    -0.130 A  
HETATM   29  C   UNL     1      -9.630   5.298  65.726  1.00  0.00    -0.108 A  
HETATM   30  C   UNL     1      -8.248   5.289  65.909  1.00  0.00    -0.117 A  
HETATM   31  C   UNL     1      -7.697   4.627  67.004  1.00  0.00    -0.091 A  
ENDBRANCH  25  26
ENDBRANCH  24  25
ENDBRANCH  22  24
ENDBRANCH  17  20
TORSDOF 4
ENDMDL
MODEL      151
REMARK 921   NORMALIZED FREE ENERGY PREDICTED BY IDOCK:   -3.15 KCAL/MOL
REMARK 922        TOTAL FREE ENERGY PREDICTED BY IDOCK:   -4.47 KCAL/MOL
REMARK 923 INTER-LIGAND FREE ENERGY PREDICTED BY IDOCK:   -3.91 KCAL/MOL
REMARK 924 INTRA-LIGAND FREE ENERGY PREDICTED BY IDOCK:   -0.56 KCAL/MOL
REMARK 927      BINDING AFFINITY PREDICTED BY RF-SCORE:    0.00 PKD
ROOT
HETATM    1  C   UNL     1      -8.476   9.140  68.888  1.00  0.00    -0.129 C  
HETATM    2  C   UNL     1      -7.603  10.170  69.589  1.00  0.00    -0.158 C  
HETATM    3  C   UNL     1      -7.977  11.427  69.031  1.00  0.00    -0.026 A  
HETATM    4  C   UNL     1      -7.216  12.495  68.684  1.00  0.00    -0.103 A  
HETATM    5  N   UNL     1      -8.046  13.319  67.977  1.00  0.00    -0.145 NA 
HETATM    6  C   UNL     1      -7.505  14.453  67.260  1.00  0.00    -0.074 C  
HETATM    7  C   UNL     1      -9.344  12.806  67.966  1.00  0.00    -0.213 A  
HETATM    8  C   UNL     1     -10.552  13.275  67.463  1.00  0.00    -0.251 A  
HETATM    9  C   UNL     1     -11.659  12.408  67.612  1.00  0.00    -0.421 A  
HETATM   10  C   UNL     1     -11.577  11.078  68.143  1.00  0.00    -0.345 A  
HETATM   11  C   UNL     1     -10.356  10.550  68.591  1.00  0.00    -0.201 A  
HETATM   12  C   UNL     1      -9.979   9.069  69.137  1.00  0.00    -0.187 C  
HETATM   13  C   UNL     1      -9.305  11.566  68.578  1.00  0.00    -0.171 A  
HETATM   14  C   UNL     1      -9.990   7.312  68.769  1.00  0.00    -0.167 C  
HETATM   15  C   UNL     1      -8.446   6.658  68.394  1.00  0.00    -0.125 C  
HETATM   16  C   UNL     1      -7.768   7.494  67.305  1.00  0.00    -0.116 C  
HETATM   17  C   UNL     1      -7.770   5.275  68.358  1.00  0.00    -0.080 C  
HETATM   18  N   UNL     1      -8.204   8.870  67.405  1.00  0.00    -0.108 NA 
HETATM   19  C   UNL     1      -9.329   9.018  66.423  1.00  0.00    -0.206 C  
ENDROOT
BRANCH  17  20
HETATM   20  N   UNL     1      -8.285   4.192  67.583  1.00  0.00    -0.094 N  
HETATM   21  H   UNL     1      -9.206   4.204  67.147  1.00  0.00     0.000 HD 
HETATM   22  C   UNL     1      -7.427   3.143  67.481  1.00  0.00    -0.062 C  
HETATM   23  O   UNL     1      -6.688   2.764  68.383  1.00  0.00    -0.039 OA 
BRANCH  22  24
HETATM   24  O   UNL     1      -7.407   2.723  66.214  1.00  0.00    -0.065 OA 
BRANCH  24  25
HETATM   25  C   UNL     1      -6.307   3.253  65.440  1.00  0.00    -0.031 C  
BRANCH  25  26
HETATM   26  C   UNL     1      -6.827   4.109  64.333  1.00  0.00    -0.045 A  
HETATM   27  C   UNL     1      -8.122   3.904  63.862  1.00  0.00    -0.090 A  
HETATM   28  C   UNL     1      -8.651   4.739  62.882  1.00  0.00    -0.119 A  
HETATM   29  C   UNL     1      -7.883   5.781  62.363  1.00  0.00    -0.081 A  
HETATM   30  C   UNL     1      -6.582   5.985  62.820  1.00  0.00    -0.039 A  
HETATM   31  C   UNL     1      -6.052   5.152  63.803  1.00  0.00    -0.022 A  
ENDBRANCH  25  26
ENDBRANCH  24  25
ENDBRANCH  22  24
ENDBRANCH  17  20
TORSDOF 4
ENDMDL
MODEL      152
REMARK 921   NORMALIZED FREE ENERGY PREDICTED BY IDOCK:   -3.12 KCAL/MOL
REMARK 922        TOTAL FREE ENERGY PREDICTED BY IDOCK:   -4.43 KCAL/MOL
REMARK 923 INTER-LIGAND FREE ENERGY PREDICTED BY IDOCK:   -4.30 KCAL/MOL
REMARK 924 INTRA-LIGAND FREE ENERGY PREDICTED BY IDOCK:   -0.13 KCAL/MOL
REMARK 927      BINDING AFFINITY PREDICTED BY RF-SCORE:    0.00 PKD
ROOT
HETATM    1  C   UNL     1      -7.238   9.584  70.089  1.00  0.00    -0.114 C  
HETATM    2  C   UNL     1      -6.539  10.685  69.308  1.00  0.00    -0.068 C  
HETATM    3  C   UNL     1      -6.956  10.515  67.956  1.00  0.00    -0.074 A  
HETATM    4  C   UNL     1      -6.257  10.631  66.800  1.00  0.00    -0.076 A  
HETATM    5  N   UNL     1      -7.074  10.124  65.829  1.00  0.00    -0.120 NA 
HETATM    6  C   UNL     1      -6.558   9.885  64.498  1.00  0.00    -0.124 C  
HETATM    7  C   UNL     1      -8.314   9.780  66.368  1.00  0.00    -0.120 A  
HETATM    8  C   UNL     1      -9.496   9.301  65.816  1.00  0.00    -0.329 A  
HETATM    9  C   UNL     1     -10.534   9.019  66.734  1.00  0.00    -0.270 A  
HETATM   10  C   UNL     1     -10.395   9.101  68.160  1.00  0.00    -0.263 A  
HETATM   11  C   UNL     1      -9.190   9.512  68.749  1.00  0.00    -0.140 A  
HETATM   12  C   UNL     1      -8.748   9.599  70.308  1.00  0.00    -0.248 C  
HETATM   13  C   UNL     1      -8.234   9.962  67.738  1.00  0.00    -0.114 A  
HETATM   14  C   UNL     1      -8.568   8.689  71.845  1.00  0.00    -0.231 C  
HETATM   15  C   UNL     1      -6.941   8.329  72.267  1.00  0.00    -0.104 C  
HETATM   16  C   UNL     1      -6.224   7.663  71.089  1.00  0.00    -0.035 C  
HETATM   17  C   UNL     1      -6.149   7.940  73.530  1.00  0.00    -0.074 C  
HETATM   18  N   UNL     1      -6.786   8.141  69.845  1.00  0.00    -0.043 NA 
HETATM   19  C   UNL     1      -7.806   7.120  69.434  1.00  0.00    -0.113 C  
ENDROOT
BRANCH  17  20
HETATM   20  N   UNL     1      -6.482   6.799  74.320  1.00  0.00    -0.079 N  
HETATM   21  H   UNL     1      -6.803   6.861  75.286  1.00  0.00     0.000 HD 
HETATM   22  C   UNL     1      -6.329   5.620  73.660  1.00  0.00    -0.071 C  
HETATM   23  O   UNL     1      -5.433   5.389  72.856  1.00  0.00    -0.020 OA 
BRANCH  22  24
HETATM   24  O   UNL     1      -7.391   4.849  73.904  1.00  0.00    -0.080 OA 
BRANCH  24  25
HETATM   25  C   UNL     1      -8.528   5.136  73.058  1.00  0.00    -0.111 C  
BRANCH  25  26
HETATM   26  C   UNL     1      -9.364   3.909  72.894  1.00  0.00    -0.142 A  
HETATM   27  C   UNL     1      -8.934   2.899  72.036  1.00  0.00    -0.133 A  
HETATM   28  C   UNL     1      -9.662   1.718  71.926  1.00  0.00    -0.199 A  
HETATM   29  C   UNL     1     -10.827   1.543  72.671  1.00  0.00    -0.215 A  
HETATM   30  C   UNL     1     -11.270   2.553  73.523  1.00  0.00    -0.311 A  
HETATM   31  C   UNL     1     -10.542   3.735  73.637  1.00  0.00    -0.285 A  
ENDBRANCH  25  26
ENDBRANCH  24  25
ENDBRANCH  22  24
ENDBRANCH  17  20
TORSDOF 4
ENDMDL
MODEL      153
REMARK 921   NORMALIZED FREE ENERGY PREDICTED BY IDOCK:   -2.73 KCAL/MOL
REMARK 922        TOTAL FREE ENERGY PREDICTED BY IDOCK:   -3.95 KCAL/MOL
REMARK 923 INTER-LIGAND FREE ENERGY PREDICTED BY IDOCK:   -2.99 KCAL/MOL
REMARK 924 INTRA-LIGAND FREE ENERGY PREDICTED BY IDOCK:   -0.96 KCAL/MOL
REMARK 927      BINDING AFFINITY PREDICTED BY RF-SCORE:    0.00 PKD
ROOT
HETATM    1  C   UNL     1      -9.621   8.431  68.204  1.00  0.00    -0.143 C  
HETATM    2  C   UNL     1      -9.734   7.139  67.409  1.00  0.00    -0.186 C  
HETATM    3  C   UNL     1      -8.410   6.617  67.342  1.00  0.00    -0.121 A  
HETATM    4  C   UNL     1      -7.755   6.012  66.321  1.00  0.00    -0.102 A  
HETATM    5  N   UNL     1      -6.449   5.940  66.717  1.00  0.00    -0.048 NA 
HETATM    6  C   UNL     1      -5.424   5.551  65.773  1.00  0.00    -0.013 C  
HETATM    7  C   UNL     1      -6.311   6.417  68.021  1.00  0.00    -0.036 A  
HETATM    8  C   UNL     1      -5.237   6.497  68.901  1.00  0.00    -0.012 A  
HETATM    9  C   UNL     1      -5.505   7.113  70.145  1.00  0.00    -0.023 A  
HETATM   10  C   UNL     1      -6.756   7.728  70.489  1.00  0.00    -0.038 A  
HETATM   11  C   UNL     1      -7.835   7.728  69.592  1.00  0.00    -0.107 A  
HETATM   12  C   UNL     1      -9.298   8.423  69.695  1.00  0.00    -0.161 C  
HETATM   13  C   UNL     1      -7.542   6.914  68.413  1.00  0.00    -0.111 A  
HETATM   14  C   UNL     1     -10.188   9.964  69.930  1.00  0.00    -0.298 C  
HETATM   15  C   UNL     1     -10.912  10.588  68.501  1.00  0.00    -0.300 C  
HETATM   16  C   UNL     1      -9.879  10.658  67.372  1.00  0.00    -0.170 C  
HETATM   17  C   UNL     1     -12.028  11.581  68.127  1.00  0.00    -0.135 C  
HETATM   18  N   UNL     1      -8.897   9.609  67.545  1.00  0.00    -0.125 NA 
HETATM   19  C   UNL     1      -7.740  10.242  68.261  1.00  0.00    -0.092 C  
ENDROOT
BRANCH  17  20
HETATM   20  N   UNL     1     -12.026  12.937  68.576  1.00  0.00    -0.289 N  
HETATM   21  H   UNL     1     -12.165  13.204  69.550  1.00  0.00     0.000 HD 
HETATM   22  C   UNL     1     -11.822  13.837  67.579  1.00  0.00    -0.387 C  
HETATM   23  O   UNL     1     -12.262  13.721  66.441  1.00  0.00    -0.429 OA 
BRANCH  22  24
HETATM   24  O   UNL     1     -10.943  14.750  67.996  1.00  0.00    -0.257 OA 
BRANCH  24  25
HETATM   25  C   UNL     1      -9.910  15.053  67.030  1.00  0.00    -0.238 C  
BRANCH  25  26
HETATM   26  C   UNL     1      -8.573  14.681  67.579  1.00  0.00    -0.196 A  
HETATM   27  C   UNL     1      -8.479  14.199  68.883  1.00  0.00     0.002 A  
HETATM   28  C   UNL     1      -7.252  13.778  69.386  1.00  0.00     0.113 A  
HETATM   29  C   UNL     1      -6.110  13.842  68.589  1.00  0.00    -0.088 A  
HETATM   30  C   UNL     1      -6.193  14.335  67.288  1.00  0.00     0.428 A  
HETATM   31  C   UNL     1      -7.421  14.755  66.781  1.00  0.00     0.573 A  
ENDBRANCH  25  26
ENDBRANCH  24  25
ENDBRANCH  22  24
ENDBRANCH  17  20
TORSDOF 4
ENDMDL
MODEL      154
REMARK 921   NORMALIZED FREE ENERGY PREDICTED BY IDOCK:   -2.65 KCAL/MOL
REMARK 922        TOTAL FREE ENERGY PREDICTED BY IDOCK:   -3.85 KCAL/MOL
REMARK 923 INTER-LIGAND FREE ENERGY PREDICTED BY IDOCK:   -3.16 KCAL/MOL
REMARK 924 INTRA-LIGAND FREE ENERGY PREDICTED BY IDOCK:   -0.68 KCAL/MOL
REMARK 927      BINDING AFFINITY PREDICTED BY RF-SCORE:    0.00 PKD
ROOT
HETATM    1  C   UNL     1      -8.274  12.000  67.386  1.00  0.00    -0.168 C  
HETATM    2  C   UNL     1      -8.181  12.829  66.114  1.00  0.00     0.898 C  
HETATM    3  C   UNL     1      -9.450  13.464  65.982  1.00  0.00    -0.105 A  
HETATM    4  C   UNL     1     -10.208  13.693  64.881  1.00  0.00    -0.339 A  
HETATM    5  N   UNL     1     -11.421  14.106  65.354  1.00  0.00    -0.317 NA 
HETATM    6  C   UNL     1     -12.549  14.225  64.455  1.00  0.00    -0.216 C  
HETATM    7  C   UNL     1     -11.386  14.223  66.744  1.00  0.00    -0.348 A  
HETATM    8  C   UNL     1     -12.306  14.662  67.689  1.00  0.00     0.102 A  
HETATM    9  C   UNL     1     -11.894  14.570  69.039  1.00  0.00    -0.354 A  
HETATM   10  C   UNL     1     -10.661  13.973  69.467  1.00  0.00    -0.009 A  
HETATM   11  C   UNL     1      -9.745  13.454  68.539  1.00  0.00    -0.156 A  
HETATM   12  C   UNL     1      -8.349  12.657  68.760  1.00  0.00     0.138 C  
HETATM   13  C   UNL     1     -10.155  13.754  67.168  1.00  0.00    -0.241 A  
HETATM   14  C   UNL     1      -7.567  11.231  69.522  1.00  0.00     0.126 C  
HETATM   15  C   UNL     1      -7.140   9.985  68.417  1.00  0.00    -0.072 C  
HETATM   16  C   UNL     1      -8.344   9.615  67.546  1.00  0.00    -0.118 C  
HETATM   17  C   UNL     1      -6.187   8.776  68.374  1.00  0.00    -0.054 C  
HETATM   18  N   UNL     1      -9.192  10.774  67.370  1.00  0.00    -0.147 NA 
HETATM   19  C   UNL     1     -10.267  10.659  68.410  1.00  0.00    -0.173 C  
ENDROOT
BRANCH  17  20
HETATM   20  N   UNL     1      -6.231   7.733  69.349  1.00  0.00    -0.034 N  
HETATM   21  H   UNL     1      -5.850   7.830  70.290  1.00  0.00     0.000 HD 
HETATM   22  C   UNL     1      -6.830   6.598  68.901  1.00  0.00    -0.062 C  
HETATM   23  O   UNL     1      -6.728   6.167  67.758  1.00  0.00    -0.056 OA 
BRANCH  22  24
HETATM   24  O   UNL     1      -7.659   6.148  69.845  1.00  0.00    -0.084 OA 
BRANCH  24  25
HETATM   25  C   UNL     1      -7.185   6.366  71.193  1.00  0.00    -0.079 C  
BRANCH  25  26
HETATM   26  C   UNL     1      -8.342   6.578  72.114  1.00  0.00    -0.107 A  
HETATM   27  C   UNL     1      -9.076   7.758  72.027  1.00  0.00    -0.180 A  
HETATM   28  C   UNL     1     -10.201   7.942  72.825  1.00  0.00    -0.380 A  
HETATM   29  C   UNL     1     -10.595   6.947  73.718  1.00  0.00    -0.333 A  
HETATM   30  C   UNL     1      -9.859   5.768  73.820  1.00  0.00    -0.175 A  
HETATM   31  C   UNL     1      -8.733   5.580  73.020  1.00  0.00    -0.121 A  
ENDBRANCH  25  26
ENDBRANCH  24  25
ENDBRANCH  22  24
ENDBRANCH  17  20
TORSDOF 4
ENDMDL
MODEL      155
REMARK 921   NORMALIZED FREE ENERGY PREDICTED BY IDOCK:   -2.50 KCAL/MOL
REMARK 922        TOTAL FREE ENERGY PREDICTED BY IDOCK:   -3.66 KCAL/MOL
REMARK 923 INTER-LIGAND FREE ENERGY PREDICTED BY IDOCK:   -5.04 KCAL/MOL
REMARK 924 INTRA-LIGAND FREE ENERGY PREDICTED BY IDOCK:    1.38 KCAL/MOL
REMARK 927      BINDING AFFINITY PREDICTED BY RF-SCORE:    0.00 PKD
ROOT
HETATM    1  C   UNL     1     -10.908  14.383  69.357  1.00  0.00    -0.201 C  
HETATM    2  C   UNL     1     -11.428  13.899  70.702  1.00  0.00     0.075 C  
HETATM    3  C   UNL     1     -11.798  12.538  70.498  1.00  0.00    -0.145 A  
HETATM    4  C   UNL     1     -12.861  11.837  70.965  1.00  0.00    -0.215 A  
HETATM    5  N   UNL     1     -12.856  10.662  70.269  1.00  0.00    -0.241 NA 
HETATM    6  C   UNL     1     -13.987   9.763  70.353  1.00  0.00     0.928 C  
HETATM    7  C   UNL     1     -11.738  10.595  69.437  1.00  0.00    -0.273 A  
HETATM    8  C   UNL     1     -11.233   9.613  68.592  1.00  0.00    -0.007 A  
HETATM    9  C   UNL     1     -10.074   9.965  67.862  1.00  0.00    -0.210 A  
HETATM   10  C   UNL     1      -9.479  11.271  67.873  1.00  0.00    -0.179 A  
HETATM   11  C   UNL     1     -10.010  12.304  68.661  1.00  0.00    -0.127 A  
HETATM   12  C   UNL     1      -9.593  13.868  68.780  1.00  0.00    -0.073 C  
HETATM   13  C   UNL     1     -11.085  11.812  69.522  1.00  0.00    -0.199 A  
HETATM   14  C   UNL     1      -9.346  15.403  67.883  1.00  0.00    -0.192 C  
HETATM   15  C   UNL     1     -10.579  16.574  68.134  1.00  0.00    -0.329 C  
HETATM   16  C   UNL     1     -11.957  15.952  67.890  1.00  0.00     0.345 C  
HETATM   17  C   UNL     1     -10.759  18.095  67.973  1.00  0.00    -0.277 C  
HETATM   18  N   UNL     1     -11.920  14.544  68.220  1.00  0.00    -0.303 NA 
HETATM   19  C   UNL     1     -11.679  13.824  66.926  1.00  0.00    -0.395 C  
ENDROOT
BRANCH  17  20
HETATM   20  N   UNL     1     -10.542  18.763  66.729  1.00  0.00    -0.413 N  
HETATM   21  H   UNL     1     -11.236  19.368  66.290  1.00  0.00     0.000 HD 
HETATM   22  C   UNL     1      -9.321  18.515  66.187  1.00  0.00    -0.143 C  
HETATM   23  O   UNL     1      -8.745  17.435  66.245  1.00  0.00    -0.358 OA 
BRANCH  22  24
HETATM   24  O   UNL     1      -8.804  19.664  65.747  1.00  0.00    -0.393 OA 
BRANCH  24  25
HETATM   25  C   UNL     1      -7.358  19.698  65.760  1.00  0.00    -0.304 C  
BRANCH  25  26
HETATM   26  C   UNL     1      -6.854  19.398  67.133  1.00  0.00    -0.209 A  
HETATM   27  C   UNL     1      -5.980  18.330  67.322  1.00  0.00    -0.160 A  
HETATM   28  C   UNL     1      -5.442  18.080  68.581  1.00  0.00    -0.163 A  
HETATM   29  C   UNL     1      -5.780  18.896  69.659  1.00  0.00    -0.249 A  
HETATM   30  C   UNL     1      -6.662  19.960  69.482  1.00  0.00    -0.347 A  
HETATM   31  C   UNL     1      -7.200  20.213  68.222  1.00  0.00    -0.280 A  
ENDBRANCH  25  26
ENDBRANCH  24  25
ENDBRANCH  22  24
ENDBRANCH  17  20
TORSDOF 4
ENDMDL
MODEL      156
REMARK 921   NORMALIZED FREE ENERGY PREDICTED BY IDOCK:   -2.24 KCAL/MOL
REMARK 922        TOTAL FREE ENERGY PREDICTED BY IDOCK:   -3.34 KCAL/MOL
REMARK 923 INTER-LIGAND FREE ENERGY PREDICTED BY IDOCK:   -3.90 KCAL/MOL
REMARK 924 INTRA-LIGAND FREE ENERGY PREDICTED BY IDOCK:    0.55 KCAL/MOL
REMARK 927      BINDING AFFINITY PREDICTED BY RF-SCORE:    0.00 PKD
ROOT
HETATM    1  C   UNL     1      -6.921   7.207  66.733  1.00  0.00    -0.073 C  
HETATM    2  C   UNL     1      -5.554   6.559  66.884  1.00  0.00    -0.013 C  
HETATM    3  C   UNL     1      -5.804   5.159  66.967  1.00  0.00    -0.022 A  
HETATM    4  C   UNL     1      -5.229   4.208  67.744  1.00  0.00    -0.011 A  
HETATM    5  N   UNL     1      -6.009   3.097  67.597  1.00  0.00    -0.026 NA 
HETATM    6  C   UNL     1      -5.815   1.954  68.462  1.00  0.00    -0.023 C  
HETATM    7  C   UNL     1      -7.014   3.330  66.657  1.00  0.00    -0.054 A  
HETATM    8  C   UNL     1      -8.006   2.531  66.101  1.00  0.00    -0.082 A  
HETATM    9  C   UNL     1      -8.883   3.177  65.198  1.00  0.00    -0.129 A  
HETATM   10  C   UNL     1      -8.863   4.585  64.922  1.00  0.00    -0.148 A  
HETATM   11  C   UNL     1      -7.919   5.429  65.526  1.00  0.00    -0.109 A  
HETATM   12  C   UNL     1      -7.744   7.042  65.458  1.00  0.00    -0.105 C  
HETATM   13  C   UNL     1      -6.938   4.663  66.292  1.00  0.00    -0.070 A  
HETATM   14  C   UNL     1      -8.542   8.627  65.728  1.00  0.00    -0.184 C  
HETATM   15  C   UNL     1      -8.002   9.462  67.130  1.00  0.00    -0.102 C  
HETATM   16  C   UNL     1      -8.069   8.541  68.352  1.00  0.00    -0.122 C  
HETATM   17  C   UNL     1      -8.009  10.902  67.674  1.00  0.00    -0.114 C  
HETATM   18  N   UNL     1      -7.864   7.169  67.940  1.00  0.00    -0.112 NA 
HETATM   19  C   UNL     1      -9.233   6.580  67.774  1.00  0.00    -0.113 C  
ENDROOT
BRANCH  17  20
HETATM   20  N   UNL     1      -9.213  11.652  67.837  1.00  0.00    -0.165 N  
HETATM   21  H   UNL     1     -10.130  11.220  67.950  1.00  0.00     0.000 HD 
HETATM   22  C   UNL     1      -9.019  12.997  67.826  1.00  0.00    -0.191 C  
HETATM   23  O   UNL     1      -8.201  13.572  67.117  1.00  0.00    -0.178 OA 
BRANCH  22  24
HETATM   24  O   UNL     1      -9.730  13.543  68.815  1.00  0.00    -0.141 OA 
BRANCH  24  25
HETATM   25  C   UNL     1     -10.308  14.825  68.482  1.00  0.00    -0.237 C  
BRANCH  25  26
HETATM   26  C   UNL     1      -9.247  15.876  68.474  1.00  0.00    -0.200 A  
HETATM   27  C   UNL     1      -9.418  17.013  67.688  1.00  0.00    -0.236 A  
HETATM   28  C   UNL     1      -8.475  18.037  67.724  1.00  0.00    -0.247 A  
HETATM   29  C   UNL     1      -7.353  17.924  68.543  1.00  0.00    -0.268 A  
HETATM   30  C   UNL     1      -7.168  16.785  69.324  1.00  0.00    -0.181 A  
HETATM   31  C   UNL     1      -8.112  15.760  69.291  1.00  0.00    -0.241 A  
ENDBRANCH  25  26
ENDBRANCH  24  25
ENDBRANCH  22  24
ENDBRANCH  17  20
TORSDOF 4
ENDMDL
MODEL      157
REMARK 921   NORMALIZED FREE ENERGY PREDICTED BY IDOCK:   -2.14 KCAL/MOL
REMARK 922        TOTAL FREE ENERGY PREDICTED BY IDOCK:   -3.22 KCAL/MOL
REMARK 923 INTER-LIGAND FREE ENERGY PREDICTED BY IDOCK:   -3.97 KCAL/MOL
REMARK 924 INTRA-LIGAND FREE ENERGY PREDICTED BY IDOCK:    0.74 KCAL/MOL
REMARK 927      BINDING AFFINITY PREDICTED BY RF-SCORE:    0.00 PKD
ROOT
HETATM    1  C   UNL     1      -9.625   8.426  68.213  1.00  0.00    -0.144 C  
HETATM    2  C   UNL     1      -9.695   7.139  67.406  1.00  0.00    -0.186 C  
HETATM    3  C   UNL     1      -8.357   6.652  67.350  1.00  0.00    -0.121 A  
HETATM    4  C   UNL     1      -7.674   6.073  66.332  1.00  0.00    -0.102 A  
HETATM    5  N   UNL     1      -6.372   6.032  66.743  1.00  0.00    -0.040 NA 
HETATM    6  C   UNL     1      -5.327   5.677  65.808  1.00  0.00    -0.009 C  
HETATM    7  C   UNL     1      -6.262   6.500  68.053  1.00  0.00    -0.032 A  
HETATM    8  C   UNL     1      -5.201   6.600  68.945  1.00  0.00    -0.012 A  
HETATM    9  C   UNL     1      -5.499   7.198  70.192  1.00  0.00    -0.023 A  
HETATM   10  C   UNL     1      -6.769   7.778  70.525  1.00  0.00    -0.038 A  
HETATM   11  C   UNL     1      -7.837   7.757  69.616  1.00  0.00    -0.107 A  
HETATM   12  C   UNL     1      -9.319   8.413  69.707  1.00  0.00    -0.158 C  
HETATM   13  C   UNL     1      -7.509   6.962  68.434  1.00  0.00    -0.098 A  
HETATM   14  C   UNL     1     -10.251   9.929  69.945  1.00  0.00    -0.298 C  
HETATM   15  C   UNL     1     -10.974  10.547  68.513  1.00  0.00    -0.300 C  
HETATM   16  C   UNL     1      -9.931  10.653  67.397  1.00  0.00    -0.181 C  
HETATM   17  C   UNL     1     -12.111  11.514  68.134  1.00  0.00     0.038 C  
HETATM   18  N   UNL     1      -8.924   9.629  67.573  1.00  0.00    -0.128 NA 
HETATM   19  C   UNL     1      -7.793  10.285  68.307  1.00  0.00    -0.101 C  
ENDROOT
BRANCH  17  20
HETATM   20  N   UNL     1     -12.150  12.865  68.594  1.00  0.00    -0.227 N  
HETATM   21  H   UNL     1     -12.386  13.124  69.552  1.00  0.00     0.000 HD 
HETATM   22  C   UNL     1     -11.842  13.774  67.632  1.00  0.00    -0.378 C  
HETATM   23  O   UNL     1     -12.165  13.670  66.454  1.00  0.00    -0.425 OA 
BRANCH  22  24
HETATM   24  O   UNL     1     -11.006  14.679  68.146  1.00  0.00    -0.249 OA 
BRANCH  24  25
HETATM   25  C   UNL     1     -10.524  14.346  69.468  1.00  0.00    -0.007 C  
BRANCH  25  26
HETATM   26  C   UNL     1     -11.470  14.864  70.501  1.00  0.00    -0.310 A  
HETATM   27  C   UNL     1     -12.637  15.508  70.097  1.00  0.00    -0.304 A  
HETATM   28  C   UNL     1     -13.565  15.932  71.043  1.00  0.00     0.466 A  
HETATM   29  C   UNL     1     -13.327  15.717  72.400  1.00  0.00    -0.545 A  
HETATM   30  C   UNL     1     -12.157  15.084  72.814  1.00  0.00    -0.430 A  
HETATM   31  C   UNL     1     -11.227  14.656  71.868  1.00  0.00     0.484 A  
ENDBRANCH  25  26
ENDBRANCH  24  25
ENDBRANCH  22  24
ENDBRANCH  17  20
TORSDOF 4
ENDMDL
MODEL      158
REMARK 921   NORMALIZED FREE ENERGY PREDICTED BY IDOCK:   -2.03 KCAL/MOL
REMARK 922        TOTAL FREE ENERGY PREDICTED BY IDOCK:   -3.09 KCAL/MOL
REMARK 923 INTER-LIGAND FREE ENERGY PREDICTED BY IDOCK:   -3.74 KCAL/MOL
REMARK 924 INTRA-LIGAND FREE ENERGY PREDICTED BY IDOCK:    0.65 KCAL/MOL
REMARK 927      BINDING AFFINITY PREDICTED BY RF-SCORE:    0.00 PKD
ROOT
HETATM    1  C   UNL     1      -9.280  14.304  68.569  1.00  0.00    -0.197 C  
HETATM    2  C   UNL     1      -9.679  15.370  69.578  1.00  0.00    -0.259 C  
HETATM    3  C   UNL     1      -9.912  16.549  68.813  1.00  0.00    -0.255 A  
HETATM    4  C   UNL     1      -9.601  17.842  69.076  1.00  0.00    -0.137 A  
HETATM    5  N   UNL     1      -9.826  18.516  67.909  1.00  0.00    -0.311 NA 
HETATM    6  C   UNL     1      -9.385  19.886  67.764  1.00  0.00    -0.347 C  
HETATM    7  C   UNL     1     -10.365  17.657  66.950  1.00  0.00    -0.329 A  
HETATM    8  C   UNL     1     -10.830  17.844  65.653  1.00  0.00     0.058 A  
HETATM    9  C   UNL     1     -11.257  16.678  64.978  1.00  0.00    -0.030 A  
HETATM   10  C   UNL     1     -11.141  15.349  65.508  1.00  0.00    -0.301 A  
HETATM   11  C   UNL     1     -10.607  15.123  66.786  1.00  0.00    -0.298 A  
HETATM   12  C   UNL     1     -10.284  13.738  67.569  1.00  0.00    -0.241 C  
HETATM   13  C   UNL     1     -10.365  16.382  67.489  1.00  0.00    -0.288 A  
HETATM   14  C   UNL     1      -9.396  12.180  67.508  1.00  0.00    -0.181 C  
HETATM   15  C   UNL     1      -8.018  12.109  68.534  1.00  0.00    -0.119 C  
HETATM   16  C   UNL     1      -7.116  13.323  68.292  1.00  0.00    -0.109 C  
HETATM   17  C   UNL     1      -7.126  11.030  69.175  1.00  0.00    -0.116 C  
HETATM   18  N   UNL     1      -7.921  14.452  67.878  1.00  0.00    -0.133 NA 
HETATM   19  C   UNL     1      -7.867  14.469  66.379  1.00  0.00     1.223 C  
ENDROOT
BRANCH  17  20
HETATM   20  N   UNL     1      -6.452  10.037  68.401  1.00  0.00    -0.053 N  
HETATM   21  H   UNL     1      -6.398   9.056  68.673  1.00  0.00     0.000 HD 
HETATM   22  C   UNL     1      -5.889  10.526  67.264  1.00  0.00    -0.049 C  
HETATM   23  O   UNL     1      -5.363  11.630  67.173  1.00  0.00    -0.076 OA 
BRANCH  22  24
HETATM   24  O   UNL     1      -6.158   9.693  66.257  1.00  0.00    -0.061 OA 
BRANCH  24  25
HETATM   25  C   UNL     1      -7.412   9.965  65.591  1.00  0.00    -0.116 C  
BRANCH  25  26
HETATM   26  C   UNL     1      -8.405   8.900  65.918  1.00  0.00    -0.132 A  
HETATM   27  C   UNL     1      -8.261   7.634  65.354  1.00  0.00    -0.137 A  
HETATM   28  C   UNL     1      -9.134   6.608  65.704  1.00  0.00     0.077 A  
HETATM   29  C   UNL     1     -10.160   6.846  66.618  1.00  0.00    -0.211 A  
HETATM   30  C   UNL     1     -10.319   8.112  67.178  1.00  0.00    -0.391 A  
HETATM   31  C   UNL     1      -9.445   9.140  66.831  1.00  0.00    -0.222 A  
ENDBRANCH  25  26
ENDBRANCH  24  25
ENDBRANCH  22  24
ENDBRANCH  17  20
TORSDOF 4
ENDMDL
MODEL      159
REMARK 921   NORMALIZED FREE ENERGY PREDICTED BY IDOCK:   -1.99 KCAL/MOL
REMARK 922        TOTAL FREE ENERGY PREDICTED BY IDOCK:   -3.04 KCAL/MOL
REMARK 923 INTER-LIGAND FREE ENERGY PREDICTED BY IDOCK:   -4.50 KCAL/MOL
REMARK 924 INTRA-LIGAND FREE ENERGY PREDICTED BY IDOCK:    1.47 KCAL/MOL
REMARK 927      BINDING AFFINITY PREDICTED BY RF-SCORE:    0.00 PKD
ROOT
HETATM    1  C   UNL     1      -8.911  10.129  68.749  1.00  0.00    -0.147 C  
HETATM    2  C   UNL     1      -7.738   9.774  69.649  1.00  0.00    -0.136 C  
HETATM    3  C   UNL     1      -8.286   8.959  70.682  1.00  0.00    -0.190 A  
HETATM    4  C   UNL     1      -8.020   8.929  72.011  1.00  0.00     0.132 A  
HETATM    5  N   UNL     1      -8.994   8.145  72.560  1.00  0.00    -0.198 NA 
HETATM    6  C   UNL     1      -9.148   8.077  73.997  1.00  0.00     0.034 C  
HETATM    7  C   UNL     1      -9.810   7.614  71.560  1.00  0.00    -0.166 A  
HETATM    8  C   UNL     1     -10.876   6.721  71.571  1.00  0.00    -0.265 A  
HETATM    9  C   UNL     1     -11.485   6.475  70.318  1.00  0.00    -0.474 A  
HETATM   10  C   UNL     1     -11.136   7.155  69.104  1.00  0.00    -0.079 A  
HETATM   11  C   UNL     1     -10.113   8.115  69.078  1.00  0.00    -0.211 A  
HETATM   12  C   UNL     1      -9.595   9.079  67.879  1.00  0.00    -0.170 C  
HETATM   13  C   UNL     1      -9.413   8.175  70.360  1.00  0.00    -0.163 A  
HETATM   14  C   UNL     1     -10.067  10.329  66.680  1.00  0.00    -0.281 C  
HETATM   15  C   UNL     1      -9.531  11.916  67.066  1.00  0.00    -0.192 C  
HETATM   16  C   UNL     1      -9.933  12.277  68.499  1.00  0.00    -0.170 C  
HETATM   17  C   UNL     1      -9.297  13.251  66.334  1.00  0.00    -0.174 C  
HETATM   18  N   UNL     1      -9.975  11.079  69.309  1.00  0.00    -0.126 NA 
HETATM   19  C   UNL     1     -11.409  10.638  69.318  1.00  0.00    -0.282 C  
ENDROOT
BRANCH  17  20
HETATM   20  N   UNL     1     -10.327  13.907  65.593  1.00  0.00    -0.313 N  
HETATM   21  H   UNL     1     -11.196  13.450  65.318  1.00  0.00     0.000 HD 
HETATM   22  C   UNL     1     -10.036  15.200  65.290  1.00  0.00    -0.330 C  
HETATM   23  O   UNL     1      -8.918  15.607  64.999  1.00  0.00     0.806 OA 
BRANCH  22  24
HETATM   24  O   UNL     1     -11.114  15.951  65.528  1.00  0.00    -0.255 OA 
BRANCH  24  25
HETATM   25  C   UNL     1     -11.184  16.464  66.877  1.00  0.00     0.240 C  
BRANCH  25  26
HETATM   26  C   UNL     1      -9.808  16.611  67.439  1.00  0.00    -0.254 A  
HETATM   27  C   UNL     1      -8.911  17.484  66.829  1.00  0.00    -0.275 A  
HETATM   28  C   UNL     1      -7.650  17.690  67.380  1.00  0.00    -0.213 A  
HETATM   29  C   UNL     1      -7.278  17.018  68.544  1.00  0.00    -0.209 A  
HETATM   30  C   UNL     1      -8.166  16.133  69.155  1.00  0.00    -0.230 A  
HETATM   31  C   UNL     1      -9.430  15.928  68.606  1.00  0.00    -0.214 A  
ENDBRANCH  25  26
ENDBRANCH  24  25
ENDBRANCH  22  24
ENDBRANCH  17  20
TORSDOF 4
ENDMDL
MODEL      160
REMARK 921   NORMALIZED FREE ENERGY PREDICTED BY IDOCK:   -1.47 KCAL/MOL
REMARK 922        TOTAL FREE ENERGY PREDICTED BY IDOCK:   -2.39 KCAL/MOL
REMARK 923 INTER-LIGAND FREE ENERGY PREDICTED BY IDOCK:   -3.62 KCAL/MOL
REMARK 924 INTRA-LIGAND FREE ENERGY PREDICTED BY IDOCK:    1.23 KCAL/MOL
REMARK 927      BINDING AFFINITY PREDICTED BY RF-SCORE:    0.00 PKD
ROOT
HETATM    1  C   UNL     1      -6.880   7.206  66.713  1.00  0.00    -0.068 C  
HETATM    2  C   UNL     1      -5.584   6.440  66.932  1.00  0.00    -0.013 C  
HETATM    3  C   UNL     1      -5.978   5.096  67.197  1.00  0.00    -0.026 A  
HETATM    4  C   UNL     1      -5.487   4.196  68.084  1.00  0.00    -0.016 A  
HETATM    5  N   UNL     1      -6.384   3.165  68.090  1.00  0.00    -0.032 NA 
HETATM    6  C   UNL     1      -6.290   2.127  69.093  1.00  0.00    -0.029 C  
HETATM    7  C   UNL     1      -7.381   3.384  67.139  1.00  0.00    -0.063 A  
HETATM    8  C   UNL     1      -8.465   2.632  66.701  1.00  0.00    -0.104 A  
HETATM    9  C   UNL     1      -9.291   3.248  65.733  1.00  0.00    -0.123 A  
HETATM   10  C   UNL     1      -9.130   4.599  65.277  1.00  0.00    -0.151 A  
HETATM   11  C   UNL     1      -8.088   5.408  65.756  1.00  0.00    -0.110 A  
HETATM   12  C   UNL     1      -7.746   6.970  65.480  1.00  0.00    -0.105 C  
HETATM   13  C   UNL     1      -7.175   4.644  66.605  1.00  0.00    -0.080 A  
HETATM   14  C   UNL     1      -8.366   8.653  65.551  1.00  0.00    -0.157 C  
HETATM   15  C   UNL     1      -7.707   9.596  66.828  1.00  0.00    -0.098 C  
HETATM   16  C   UNL     1      -7.840   8.851  68.159  1.00  0.00    -0.101 C  
HETATM   17  C   UNL     1      -7.549  11.086  67.182  1.00  0.00    -0.117 C  
HETATM   18  N   UNL     1      -7.790   7.424  67.925  1.00  0.00    -0.116 NA 
HETATM   19  C   UNL     1      -9.218   6.969  67.852  1.00  0.00    -0.125 C  
ENDROOT
BRANCH  17  20
HETATM   20  N   UNL     1      -8.663  11.976  67.260  1.00  0.00    -0.167 N  
HETATM   21  H   UNL     1      -8.799  12.761  66.623  1.00  0.00     0.000 HD 
HETATM   22  C   UNL     1      -9.527  11.675  68.266  1.00  0.00    -0.191 C  
HETATM   23  O   UNL     1      -9.187  11.251  69.365  1.00  0.00     0.139 OA 
BRANCH  22  24
HETATM   24  O   UNL     1     -10.775  11.755  67.800  1.00  0.00    -0.193 OA 
BRANCH  24  25
HETATM   25  C   UNL     1     -11.722  12.285  68.755  1.00  0.00    -0.340 C  
BRANCH  25  26
HETATM   26  C   UNL     1     -11.927  11.309  69.867  1.00  0.00    -0.440 A  
HETATM   27  C   UNL     1     -12.376  11.766  71.104  1.00  0.00    -0.329 A  
HETATM   28  C   UNL     1     -12.643  10.864  72.128  1.00  0.00     0.160 A  
HETATM   29  C   UNL     1     -12.457   9.498  71.922  1.00  0.00    -0.465 A  
HETATM   30  C   UNL     1     -11.996   9.032  70.692  1.00  0.00    -0.138 A  
HETATM   31  C   UNL     1     -11.731   9.934  69.663  1.00  0.00    -0.026 A  
ENDBRANCH  25  26
ENDBRANCH  24  25
ENDBRANCH  22  24
ENDBRANCH  17  20
TORSDOF 4
ENDMDL
MODEL      161
REMARK 921   NORMALIZED FREE ENERGY PREDICTED BY IDOCK:   -1.37 KCAL/MOL
REMARK 922        TOTAL FREE ENERGY PREDICTED BY IDOCK:   -2.27 KCAL/MOL
REMARK 923 INTER-LIGAND FREE ENERGY PREDICTED BY IDOCK:   -1.80 KCAL/MOL
REMARK 924 INTRA-LIGAND FREE ENERGY PREDICTED BY IDOCK:   -0.47 KCAL/MOL
REMARK 927      BINDING AFFINITY PREDICTED BY RF-SCORE:    0.00 PKD
ROOT
HETATM    1  C   UNL     1      -7.770   7.145  65.867  1.00  0.00    -0.101 C  
HETATM    2  C   UNL     1      -8.579   7.562  64.648  1.00  0.00     0.213 C  
HETATM    3  C   UNL     1      -8.885   8.939  64.848  1.00  0.00    -0.161 A  
HETATM    4  C   UNL     1     -10.022   9.633  64.593  1.00  0.00     0.353 A  
HETATM    5  N   UNL     1      -9.852  10.845  65.198  1.00  0.00    -0.254 NA 
HETATM    6  C   UNL     1     -10.967  11.760  65.318  1.00  0.00    -0.295 C  
HETATM    7  C   UNL     1      -8.574  10.938  65.750  1.00  0.00    -0.173 A  
HETATM    8  C   UNL     1      -7.884  11.956  66.398  1.00  0.00     0.167 A  
HETATM    9  C   UNL     1      -6.592  11.624  66.866  1.00  0.00    -0.129 A  
HETATM   10  C   UNL     1      -6.023  10.308  66.799  1.00  0.00    -0.060 A  
HETATM   11  C   UNL     1      -6.726   9.242  66.216  1.00  0.00    -0.074 A  
HETATM   12  C   UNL     1      -6.356   7.666  66.100  1.00  0.00    -0.042 C  
HETATM   13  C   UNL     1      -7.965   9.705  65.593  1.00  0.00    -0.113 A  
HETATM   14  C   UNL     1      -5.921   6.180  67.008  1.00  0.00    -0.018 C  
HETATM   15  C   UNL     1      -7.186   5.021  67.114  1.00  0.00    -0.077 C  
HETATM   16  C   UNL     1      -8.469   5.684  67.626  1.00  0.00    -0.102 C  
HETATM   17  C   UNL     1      -7.334   3.516  67.403  1.00  0.00    -0.063 C  
HETATM   18  N   UNL     1      -8.499   7.070  67.212  1.00  0.00    -0.121 NA 
HETATM   19  C   UNL     1      -7.966   7.858  68.372  1.00  0.00    -0.122 C  
ENDROOT
BRANCH  17  20
HETATM   20  N   UNL     1      -6.845   2.916  68.604  1.00  0.00    -0.043 N  
HETATM   21  H   UNL     1      -5.933   2.465  68.673  1.00  0.00     0.000 HD 
HETATM   22  C   UNL     1      -7.713   3.005  69.646  1.00  0.00    -0.043 C  
HETATM   23  O   UNL     1      -8.931   2.917  69.540  1.00  0.00    -0.084 OA 
BRANCH  22  24
HETATM   24  O   UNL     1      -7.038   3.365  70.739  1.00  0.00    -0.033 OA 
BRANCH  24  25
HETATM   25  C   UNL     1      -7.822   4.124  71.687  1.00  0.00    -0.071 C  
BRANCH  25  26
HETATM   26  C   UNL     1      -7.179   5.448  71.938  1.00  0.00    -0.086 A  
HETATM   27  C   UNL     1      -5.935   5.497  72.563  1.00  0.00    -0.031 A  
HETATM   28  C   UNL     1      -5.287   6.716  72.738  1.00  0.00    -0.037 A  
HETATM   29  C   UNL     1      -5.884   7.894  72.294  1.00  0.00    -0.040 A  
HETATM   30  C   UNL     1      -7.134   7.857  71.678  1.00  0.00    -0.067 A  
HETATM   31  C   UNL     1      -7.783   6.637  71.499  1.00  0.00    -0.098 A  
ENDBRANCH  25  26
ENDBRANCH  24  25
ENDBRANCH  22  24
ENDBRANCH  17  20
TORSDOF 4
ENDMDL
MODEL      162
REMARK 921   NORMALIZED FREE ENERGY PREDICTED BY IDOCK:   -0.55 KCAL/MOL
REMARK 922        TOTAL FREE ENERGY PREDICTED BY IDOCK:   -1.26 KCAL/MOL
REMARK 923 INTER-LIGAND FREE ENERGY PREDICTED BY IDOCK:   -0.84 KCAL/MOL
REMARK 924 INTRA-LIGAND FREE ENERGY PREDICTED BY IDOCK:   -0.43 KCAL/MOL
REMARK 927      BINDING AFFINITY PREDICTED BY RF-SCORE:    0.00 PKD
ROOT
HETATM    1  C   UNL     1      -7.510  14.185  69.044  1.00  0.00    -0.082 C  
HETATM    2  C   UNL     1      -6.554  15.336  69.314  1.00  0.00    -0.141 C  
HETATM    3  C   UNL     1      -6.910  16.352  68.381  1.00  0.00    -0.142 A  
HETATM    4  C   UNL     1      -6.131  17.194  67.658  1.00  0.00    -0.137 A  
HETATM    5  N   UNL     1      -6.970  17.781  66.753  1.00  0.00    -0.178 NA 
HETATM    6  C   UNL     1      -6.430  18.574  65.670  1.00  0.00    -0.284 C  
HETATM    7  C   UNL     1      -8.285  17.373  66.977  1.00  0.00    -0.217 A  
HETATM    8  C   UNL     1      -9.503  17.717  66.400  1.00  0.00    -0.274 A  
HETATM    9  C   UNL     1     -10.633  17.018  66.885  1.00  0.00    -0.208 A  
HETATM   10  C   UNL     1     -10.571  15.941  67.831  1.00  0.00    -0.300 A  
HETATM   11  C   UNL     1      -9.347  15.522  68.375  1.00  0.00    -0.192 A  
HETATM   12  C   UNL     1      -8.996  14.291  69.372  1.00  0.00     0.411 C  
HETATM   13  C   UNL     1      -8.258  16.410  67.970  1.00  0.00    -0.169 A  
HETATM   14  C   UNL     1      -9.102  12.516  69.622  1.00  0.00     2.004 C  
HETATM   15  C   UNL     1      -7.612  11.683  69.419  1.00  0.00     0.213 C  
HETATM   16  C   UNL     1      -6.971  12.064  68.081  1.00  0.00    -0.079 C  
HETATM   17  C   UNL     1      -6.996  10.331  69.823  1.00  0.00    -0.129 C  
HETATM   18  N   UNL     1      -7.345  13.416  67.730  1.00  0.00    -0.140 NA 
HETATM   19  C   UNL     1      -8.522  13.293  66.808  1.00  0.00     0.028 C  
ENDROOT
BRANCH  17  20
HETATM   20  N   UNL     1      -7.603   9.083  69.485  1.00  0.00    -0.075 N  
HETATM   21  H   UNL     1      -8.528   8.804  69.811  1.00  0.00     0.000 HD 
HETATM   22  C   UNL     1      -6.828   8.303  68.686  1.00  0.00    -0.063 C  
HETATM   23  O   UNL     1      -5.608   8.224  68.771  1.00  0.00    -0.034 OA 
BRANCH  22  24
HETATM   24  O   UNL     1      -7.588   7.793  67.714  1.00  0.00    -0.107 OA 
BRANCH  24  25
HETATM   25  C   UNL     1      -8.050   6.449  67.978  1.00  0.00    -0.116 C  
BRANCH  25  26
HETATM   26  C   UNL     1      -7.609   5.534  66.883  1.00  0.00    -0.092 A  
HETATM   27  C   UNL     1      -8.494   5.226  65.852  1.00  0.00    -0.124 A  
HETATM   28  C   UNL     1      -8.077   4.435  64.785  1.00  0.00    -0.099 A  
HETATM   29  C   UNL     1      -6.774   3.943  64.748  1.00  0.00    -0.048 A  
HETATM   30  C   UNL     1      -5.885   4.236  65.781  1.00  0.00    -0.023 A  
HETATM   31  C   UNL     1      -6.299   5.030  66.849  1.00  0.00    -0.040 A  
ENDBRANCH  25  26
ENDBRANCH  24  25
ENDBRANCH  22  24
ENDBRANCH  17  20
TORSDOF 4
ENDMDL
MODEL      163
REMARK 921   NORMALIZED FREE ENERGY PREDICTED BY IDOCK:   -0.52 KCAL/MOL
REMARK 922        TOTAL FREE ENERGY PREDICTED BY IDOCK:   -1.23 KCAL/MOL
REMARK 923 INTER-LIGAND FREE ENERGY PREDICTED BY IDOCK:   -1.95 KCAL/MOL
REMARK 924 INTRA-LIGAND FREE ENERGY PREDICTED BY IDOCK:    0.73 KCAL/MOL
REMARK 927      BINDING AFFINITY PREDICTED BY RF-SCORE:    0.00 PKD
ROOT
HETATM    1  C   UNL     1      -7.698  14.542  68.703  1.00  0.00    -0.137 C  
HETATM    2  C   UNL     1      -7.358  15.607  69.734  1.00  0.00    -0.065 C  
HETATM    3  C   UNL     1      -7.823  16.834  69.179  1.00  0.00    -0.145 A  
HETATM    4  C   UNL     1      -7.267  18.071  69.192  1.00  0.00    -0.148 A  
HETATM    5  N   UNL     1      -8.005  18.811  68.312  1.00  0.00    -0.306 NA 
HETATM    6  C   UNL     1      -7.551  20.124  67.908  1.00  0.00    -0.276 C  
HETATM    7  C   UNL     1      -9.075  18.059  67.823  1.00  0.00    -0.262 A  
HETATM    8  C   UNL     1     -10.140  18.350  66.978  1.00  0.00    -0.382 A  
HETATM    9  C   UNL     1     -11.000  17.269  66.678  1.00  0.00     0.201 A  
HETATM   10  C   UNL     1     -10.776  15.916  67.102  1.00  0.00    -0.301 A  
HETATM   11  C   UNL     1      -9.668  15.579  67.895  1.00  0.00    -0.211 A  
HETATM   12  C   UNL     1      -9.142  14.137  68.423  1.00  0.00    -0.191 C  
HETATM   13  C   UNL     1      -8.937  16.774  68.316  1.00  0.00    -0.228 A  
HETATM   14  C   UNL     1      -8.622  12.488  67.940  1.00  0.00    -0.179 C  
HETATM   15  C   UNL     1      -6.929  12.217  68.060  1.00  0.00    -0.090 C  
HETATM   16  C   UNL     1      -6.162  13.325  67.332  1.00  0.00     0.006 C  
HETATM   17  C   UNL     1      -5.969  11.016  68.150  1.00  0.00    -0.049 C  
HETATM   18  N   UNL     1      -6.921  14.556  67.383  1.00  0.00    -0.225 NA 
HETATM   19  C   UNL     1      -7.683  14.624  66.092  1.00  0.00     2.326 C  
ENDROOT
BRANCH  17  20
HETATM   20  N   UNL     1      -5.944   9.982  67.166  1.00  0.00    -0.051 N  
HETATM   21  H   UNL     1      -5.109   9.731  66.638  1.00  0.00     0.000 HD 
HETATM   22  C   UNL     1      -7.143   9.362  67.002  1.00  0.00    -0.086 C  
HETATM   23  O   UNL     1      -8.228   9.930  67.059  1.00  0.00    -0.116 OA 
BRANCH  22  24
HETATM   24  O   UNL     1      -6.942   8.044  66.943  1.00  0.00    -0.071 OA 
BRANCH  24  25
HETATM   25  C   UNL     1      -7.730   7.377  65.932  1.00  0.00    -0.093 C  
BRANCH  25  26
HETATM   26  C   UNL     1      -8.376   6.160  66.509  1.00  0.00    -0.113 A  
HETATM   27  C   UNL     1      -7.968   4.900  66.077  1.00  0.00    -0.107 A  
HETATM   28  C   UNL     1      -8.505   3.754  66.655  1.00  0.00    -0.106 A  
HETATM   29  C   UNL     1      -9.459   3.863  67.666  1.00  0.00    -0.233 A  
HETATM   30  C   UNL     1      -9.882   5.120  68.096  1.00  0.00    -0.204 A  
HETATM   31  C   UNL     1      -9.343   6.268  67.520  1.00  0.00    -0.113 A  
ENDBRANCH  25  26
ENDBRANCH  24  25
ENDBRANCH  22  24
ENDBRANCH  17  20
TORSDOF 4
ENDMDL
MODEL      164
REMARK 921   NORMALIZED FREE ENERGY PREDICTED BY IDOCK:    0.45 KCAL/MOL
REMARK 922        TOTAL FREE ENERGY PREDICTED BY IDOCK:   -0.02 KCAL/MOL
REMARK 923 INTER-LIGAND FREE ENERGY PREDICTED BY IDOCK:   -0.11 KCAL/MOL
REMARK 924 INTRA-LIGAND FREE ENERGY PREDICTED BY IDOCK:    0.09 KCAL/MOL
REMARK 927      BINDING AFFINITY PREDICTED BY RF-SCORE:    0.00 PKD
ROOT
HETATM    1  C   UNL     1      -7.931   7.369  65.993  1.00  0.00    -0.115 C  
HETATM    2  C   UNL     1      -8.018   7.353  64.475  1.00  0.00    -0.122 C  
HETATM    3  C   UNL     1      -7.678   8.674  64.061  1.00  0.00    -0.134 A  
HETATM    4  C   UNL     1      -8.204   9.451  63.082  1.00  0.00    -0.165 A  
HETATM    5  N   UNL     1      -7.677  10.696  63.283  1.00  0.00    -0.014 NA 
HETATM    6  C   UNL     1      -8.197  11.831  62.552  1.00  0.00     0.966 C  
HETATM    7  C   UNL     1      -6.754  10.669  64.329  1.00  0.00     0.220 A  
HETATM    8  C   UNL     1      -5.906  11.623  64.880  1.00  0.00     2.247 A  
HETATM    9  C   UNL     1      -5.147  11.202  65.996  1.00  0.00    -0.126 A  
HETATM   10  C   UNL     1      -5.283   9.920  66.627  1.00  0.00    -0.040 A  
HETATM   11  C   UNL     1      -6.185   8.963  66.138  1.00  0.00    -0.063 A  
HETATM   12  C   UNL     1      -6.593   7.500  66.713  1.00  0.00    -0.057 C  
HETATM   13  C   UNL     1      -6.790   9.400  64.881  1.00  0.00    -0.093 A  
HETATM   14  C   UNL     1      -7.225   6.593  68.126  1.00  0.00    -0.088 C  
HETATM   15  C   UNL     1      -8.850   6.057  67.954  1.00  0.00    -0.110 C  
HETATM   16  C   UNL     1      -9.750   7.225  67.539  1.00  0.00    -0.145 C  
HETATM   17  C   UNL     1      -9.776   5.001  68.584  1.00  0.00    -0.158 C  
HETATM   18  N   UNL     1      -8.987   8.174  66.757  1.00  0.00    -0.139 NA 
HETATM   19  C   UNL     1      -8.537   9.233  67.719  1.00  0.00    -0.117 C  
ENDROOT
BRANCH  17  20
HETATM   20  N   UNL     1     -10.034   4.950  69.987  1.00  0.00    -0.236 N  
HETATM   21  H   UNL     1      -9.890   4.113  70.553  1.00  0.00     0.000 HD 
HETATM   22  C   UNL     1     -10.490   6.124  70.497  1.00  0.00    -0.234 C  
HETATM   23  O   UNL     1     -11.250   6.885  69.909  1.00  0.00    -0.284 OA 
BRANCH  22  24
HETATM   24  O   UNL     1      -9.848   6.375  71.640  1.00  0.00    -0.168 OA 
BRANCH  24  25
HETATM   25  C   UNL     1      -9.771   7.780  71.972  1.00  0.00    -0.173 C  
BRANCH  25  26
HETATM   26  C   UNL     1      -8.422   8.101  72.525  1.00  0.00    -0.244 A  
HETATM   27  C   UNL     1      -8.078   7.643  73.795  1.00  0.00    -0.205 A  
HETATM   28  C   UNL     1      -6.801   7.869  74.298  1.00  0.00    -0.142 A  
HETATM   29  C   UNL     1      -5.861   8.559  73.534  1.00  0.00    -0.104 A  
HETATM   30  C   UNL     1      -6.200   9.031  72.267  1.00  0.00     0.013 A  
HETATM   31  C   UNL     1      -7.478   8.804  71.761  1.00  0.00    -0.080 A  
ENDBRANCH  25  26
ENDBRANCH  24  25
ENDBRANCH  22  24
ENDBRANCH  17  20
TORSDOF 4
ENDMDL
MODEL      165
REMARK 921   NORMALIZED FREE ENERGY PREDICTED BY IDOCK:    1.56 KCAL/MOL
REMARK 922        TOTAL FREE ENERGY PREDICTED BY IDOCK:    1.35 KCAL/MOL
REMARK 923 INTER-LIGAND FREE ENERGY PREDICTED BY IDOCK:    1.32 KCAL/MOL
REMARK 924 INTRA-LIGAND FREE ENERGY PREDICTED BY IDOCK:    0.03 KCAL/MOL
REMARK 927      BINDING AFFINITY PREDICTED BY RF-SCORE:    0.00 PKD
ROOT
HETATM    1  C   UNL     1      -7.905   8.839  70.136  1.00  0.00    -0.094 C  
HETATM    2  C   UNL     1      -7.141   9.812  69.251  1.00  0.00    -0.066 C  
HETATM    3  C   UNL     1      -6.485  10.705  70.147  1.00  0.00    -0.152 A  
HETATM    4  C   UNL     1      -6.294  12.046  70.068  1.00  0.00    -0.053 A  
HETATM    5  N   UNL     1      -5.832  12.420  71.297  1.00  0.00    -0.264 NA 
HETATM    6  C   UNL     1      -5.733  13.822  71.640  1.00  0.00    -0.141 C  
HETATM    7  C   UNL     1      -5.648  11.300  72.108  1.00  0.00     0.830 A  
HETATM    8  C   UNL     1      -5.143  11.122  73.392  1.00  0.00     0.443 A  
HETATM    9  C   UNL     1      -5.178   9.798  73.889  1.00  0.00    -0.034 A  
HETATM   10  C   UNL     1      -5.780   8.693  73.200  1.00  0.00    -0.083 A  
HETATM   11  C   UNL     1      -6.364   8.858  71.934  1.00  0.00    -0.062 A  
HETATM   12  C   UNL     1      -7.180   7.812  71.000  1.00  0.00    -0.054 C  
HETATM   13  C   UNL     1      -6.122  10.202  71.412  1.00  0.00     0.196 A  
HETATM   14  C   UNL     1      -8.583   6.696  70.909  1.00  0.00    -0.134 C  
HETATM   15  C   UNL     1      -9.891   7.279  69.958  1.00  0.00    -0.175 C  
HETATM   16  C   UNL     1     -10.277   8.694  70.401  1.00  0.00    -0.193 C  
HETATM   17  C   UNL     1     -11.122   6.703  69.234  1.00  0.00    -0.289 C  
HETATM   18  N   UNL     1      -9.110   9.379  70.912  1.00  0.00    -0.221 NA 
HETATM   19  C   UNL     1      -9.150   9.207  72.402  1.00  0.00     0.795 C  
ENDROOT
BRANCH  17  20
HETATM   20  N   UNL     1     -12.114   5.930  69.911  1.00  0.00     1.018 N  
HETATM   21  H   UNL     1     -12.640   5.180  69.463  1.00  0.00     0.000 HD 
HETATM   22  C   UNL     1     -12.289   6.291  71.209  1.00  0.00     0.155 C  
HETATM   23  O   UNL     1     -12.233   7.445  71.620  1.00  0.00    -0.299 OA 
BRANCH  22  24
HETATM   24  O   UNL     1     -12.358   5.188  71.957  1.00  0.00     0.868 OA 
BRANCH  24  25
HETATM   25  C   UNL     1     -11.888   5.370  73.312  1.00  0.00     0.256 C  
BRANCH  25  26
HETATM   26  C   UNL     1     -10.464   4.935  73.422  1.00  0.00    -0.267 A  
HETATM   27  C   UNL     1      -9.641   5.524  74.380  1.00  0.00    -0.169 A  
HETATM   28  C   UNL     1      -8.333   5.080  74.546  1.00  0.00    -0.100 A  
HETATM   29  C   UNL     1      -7.838   4.049  73.750  1.00  0.00    -0.081 A  
HETATM   30  C   UNL     1      -8.651   3.462  72.781  1.00  0.00    -0.089 A  
HETATM   31  C   UNL     1      -9.962   3.903  72.614  1.00  0.00    -0.217 A  
ENDBRANCH  25  26
ENDBRANCH  24  25
ENDBRANCH  22  24
ENDBRANCH  17  20
TORSDOF 4
ENDMDL
MODEL      166
REMARK 921   NORMALIZED FREE ENERGY PREDICTED BY IDOCK:    2.27 KCAL/MOL
REMARK 922        TOTAL FREE ENERGY PREDICTED BY IDOCK:    2.22 KCAL/MOL
REMARK 923 INTER-LIGAND FREE ENERGY PREDICTED BY IDOCK:    0.45 KCAL/MOL
REMARK 924 INTRA-LIGAND FREE ENERGY PREDICTED BY IDOCK:    1.78 KCAL/MOL
REMARK 927      BINDING AFFINITY PREDICTED BY RF-SCORE:    0.00 PKD
ROOT
HETATM    1  C   UNL     1      -7.931   7.414  65.989  1.00  0.00    -0.115 C  
HETATM    2  C   UNL     1      -7.981   7.337  64.471  1.00  0.00    -0.112 C  
HETATM    3  C   UNL     1      -7.695   8.656  64.013  1.00  0.00    -0.134 A  
HETATM    4  C   UNL     1      -8.235   9.368  62.994  1.00  0.00    -0.167 A  
HETATM    5  N   UNL     1      -7.774  10.644  63.157  1.00  0.00    -0.038 NA 
HETATM    6  C   UNL     1      -8.330  11.723  62.371  1.00  0.00     0.917 C  
HETATM    7  C   UNL     1      -6.875  10.702  64.223  1.00  0.00     0.236 A  
HETATM    8  C   UNL     1      -6.086  11.717  64.753  1.00  0.00     2.554 A  
HETATM    9  C   UNL     1      -5.334  11.376  65.902  1.00  0.00     0.090 A  
HETATM   10  C   UNL     1      -5.424  10.114  66.579  1.00  0.00    -0.046 A  
HETATM   11  C   UNL     1      -6.267   9.096  66.109  1.00  0.00    -0.064 A  
HETATM   12  C   UNL     1      -6.618   7.638  66.732  1.00  0.00    -0.061 C  
HETATM   13  C   UNL     1      -6.863   9.455  64.823  1.00  0.00    -0.094 A  
HETATM   14  C   UNL     1      -7.239   6.755  68.166  1.00  0.00    -0.091 C  
HETATM   15  C   UNL     1      -8.831   6.135  67.980  1.00  0.00    -0.111 C  
HETATM   16  C   UNL     1      -9.777   7.241  67.500  1.00  0.00    -0.145 C  
HETATM   17  C   UNL     1      -9.721   5.060  68.630  1.00  0.00    -0.158 C  
HETATM   18  N   UNL     1      -9.042   8.195  66.698  1.00  0.00    -0.155 NA 
HETATM   19  C   UNL     1      -8.666   9.311  67.628  1.00  0.00    -0.116 C  
ENDROOT
BRANCH  17  20
HETATM   20  N   UNL     1     -10.008   5.050  70.029  1.00  0.00    -0.233 N  
HETATM   21  H   UNL     1      -9.805   4.256  70.637  1.00  0.00     0.000 HD 
HETATM   22  C   UNL     1     -10.580   6.200  70.473  1.00  0.00    -0.253 C  
HETATM   23  O   UNL     1     -11.389   6.862  69.832  1.00  0.00    -0.294 OA 
BRANCH  22  24
HETATM   24  O   UNL     1      -9.993   6.560  71.616  1.00  0.00    -0.178 OA 
BRANCH  24  25
HETATM   25  C   UNL     1     -10.018   7.984  71.864  1.00  0.00    -0.195 C  
BRANCH  25  26
HETATM   26  C   UNL     1     -11.430   8.463  71.944  1.00  0.00    -0.384 A  
HETATM   27  C   UNL     1     -12.185   8.178  73.079  1.00  0.00     0.295 A  
HETATM   28  C   UNL     1     -13.478   8.678  73.203  1.00  0.00     0.520 A  
HETATM   29  C   UNL     1     -14.024   9.463  72.189  1.00  0.00    -0.359 A  
HETATM   30  C   UNL     1     -13.280   9.743  71.044  1.00  0.00    -0.341 A  
HETATM   31  C   UNL     1     -11.984   9.246  70.919  1.00  0.00    -0.321 A  
ENDBRANCH  25  26
ENDBRANCH  24  25
ENDBRANCH  22  24
ENDBRANCH  17  20
TORSDOF 4
ENDMDL
MODEL      167
REMARK 921   NORMALIZED FREE ENERGY PREDICTED BY IDOCK:    3.23 KCAL/MOL
REMARK 922        TOTAL FREE ENERGY PREDICTED BY IDOCK:    3.41 KCAL/MOL
REMARK 923 INTER-LIGAND FREE ENERGY PREDICTED BY IDOCK:    3.15 KCAL/MOL
REMARK 924 INTRA-LIGAND FREE ENERGY PREDICTED BY IDOCK:    0.26 KCAL/MOL
REMARK 927      BINDING AFFINITY PREDICTED BY RF-SCORE:    0.00 PKD
ROOT
HETATM    1  C   UNL     1      -9.170  10.684  68.568  1.00  0.00    -0.170 C  
HETATM    2  C   UNL     1      -9.916  11.997  68.746  1.00  0.00    -0.086 C  
HETATM    3  C   UNL     1      -8.947  13.018  68.524  1.00  0.00    -0.048 A  
HETATM    4  C   UNL     1      -8.753  14.199  69.162  1.00  0.00     0.228 A  
HETATM    5  N   UNL     1      -7.549  14.662  68.713  1.00  0.00    -0.131 NA 
HETATM    6  C   UNL     1      -6.923  15.797  69.355  1.00  0.00    -0.202 C  
HETATM    7  C   UNL     1      -7.040  13.815  67.728  1.00  0.00    -0.167 A  
HETATM    8  C   UNL     1      -5.912  13.863  66.917  1.00  0.00     1.605 A  
HETATM    9  C   UNL     1      -5.720  12.752  66.063  1.00  0.00     3.541 A  
HETATM   10  C   UNL     1      -6.545  11.577  66.070  1.00  0.00     0.360 A  
HETATM   11  C   UNL     1      -7.647  11.469  66.931  1.00  0.00    -0.151 A  
HETATM   12  C   UNL     1      -8.666  10.234  67.200  1.00  0.00    -0.131 C  
HETATM   13  C   UNL     1      -7.888  12.725  67.641  1.00  0.00    -0.165 A  
HETATM   14  C   UNL     1      -8.802   8.510  67.680  1.00  0.00    -0.138 C  
HETATM   15  C   UNL     1      -9.406   8.264  69.270  1.00  0.00    -0.155 C  
HETATM   16  C   UNL     1      -8.611   9.105  70.274  1.00  0.00    -0.198 C  
HETATM   17  C   UNL     1     -10.058   7.128  70.080  1.00  0.00    -0.188 C  
HETATM   18  N   UNL     1      -8.131  10.307  69.629  1.00  0.00    -0.166 NA 
HETATM   19  C   UNL     1      -6.726  10.010  69.195  1.00  0.00    -0.055 C  
ENDROOT
BRANCH  17  20
HETATM   20  N   UNL     1      -9.437   5.853  70.247  1.00  0.00    -0.159 N  
HETATM   21  H   UNL     1      -8.540   5.725  70.716  1.00  0.00     0.000 HD 
HETATM   22  C   UNL     1     -10.156   4.827  69.722  1.00  0.00    -0.219 C  
HETATM   23  O   UNL     1     -10.808   4.899  68.686  1.00  0.00     0.277 OA 
BRANCH  22  24
HETATM   24  O   UNL     1     -10.167   3.817  70.594  1.00  0.00     0.060 OA 
BRANCH  24  25
HETATM   25  C   UNL     1     -10.713   4.167  71.886  1.00  0.00     0.266 C  
BRANCH  25  26
HETATM   26  C   UNL     1      -9.607   4.478  72.840  1.00  0.00    -0.160 A  
HETATM   27  C   UNL     1      -8.706   3.476  73.192  1.00  0.00    -0.090 A  
HETATM   28  C   UNL     1      -7.626   3.765  74.021  1.00  0.00    -0.074 A  
HETATM   29  C   UNL     1      -7.446   5.059  74.508  1.00  0.00    -0.089 A  
HETATM   30  C   UNL     1      -8.350   6.065  74.170  1.00  0.00    -0.108 A  
HETATM   31  C   UNL     1      -9.430   5.779  73.338  1.00  0.00    -0.138 A  
ENDBRANCH  25  26
ENDBRANCH  24  25
ENDBRANCH  22  24
ENDBRANCH  17  20
TORSDOF 4
ENDMDL
MODEL      168
REMARK 921   NORMALIZED FREE ENERGY PREDICTED BY IDOCK:    4.36 KCAL/MOL
REMARK 922        TOTAL FREE ENERGY PREDICTED BY IDOCK:    4.80 KCAL/MOL
REMARK 923 INTER-LIGAND FREE ENERGY PREDICTED BY IDOCK:   -0.62 KCAL/MOL
REMARK 924 INTRA-LIGAND FREE ENERGY PREDICTED BY IDOCK:    5.42 KCAL/MOL
REMARK 927      BINDING AFFINITY PREDICTED BY RF-SCORE:    0.00 PKD
ROOT
HETATM    1  C   UNL     1      -6.408   9.236  67.260  1.00  0.00    -0.059 C  
HETATM    2  C   UNL     1      -5.232   8.372  67.690  1.00  0.00    -0.034 C  
HETATM    3  C   UNL     1      -5.804   7.144  68.130  1.00  0.00    -0.022 A  
HETATM    4  C   UNL     1      -5.479   6.350  69.180  1.00  0.00    -0.013 A  
HETATM    5  N   UNL     1      -6.496   5.443  69.280  1.00  0.00    -0.037 NA 
HETATM    6  C   UNL     1      -6.588   4.578  70.435  1.00  0.00    -0.035 C  
HETATM    7  C   UNL     1      -7.405   5.617  68.235  1.00  0.00    -0.076 A  
HETATM    8  C   UNL     1      -8.549   4.932  67.840  1.00  0.00    -0.103 A  
HETATM    9  C   UNL     1      -9.237   5.473  66.729  1.00  0.00    -0.129 A  
HETATM   10  C   UNL     1      -8.884   6.705  66.082  1.00  0.00    -0.160 A  
HETATM   11  C   UNL     1      -7.777   7.456  66.507  1.00  0.00    -0.093 A  
HETATM   12  C   UNL     1      -7.228   8.903  66.017  1.00  0.00    -0.089 C  
HETATM   13  C   UNL     1      -7.014   6.740  67.528  1.00  0.00    -0.083 A  
HETATM   14  C   UNL     1      -7.636  10.635  65.781  1.00  0.00    -0.120 C  
HETATM   15  C   UNL     1      -6.935  11.691  66.942  1.00  0.00    -0.123 C  
HETATM   16  C   UNL     1      -7.233  11.193  68.359  1.00  0.00    -0.083 C  
HETATM   17  C   UNL     1      -6.612  13.191  67.071  1.00  0.00     0.537 C  
HETATM   18  N   UNL     1      -7.349   9.751  68.353  1.00  0.00    -0.078 NA 
HETATM   19  C   UNL     1      -8.816   9.456  68.245  1.00  0.00    -0.128 C  
ENDROOT
BRANCH  17  20
HETATM   20  N   UNL     1      -7.609  14.203  66.928  1.00  0.00    -0.231 N  
HETATM   21  H   UNL     1      -7.623  14.870  66.157  1.00  0.00     0.000 HD 
HETATM   22  C   UNL     1      -8.539  14.191  67.919  1.00  0.00    -0.178 C  
HETATM   23  O   UNL     1      -8.295  13.936  69.093  1.00  0.00     0.110 OA 
BRANCH  22  24
HETATM   24  O   UNL     1      -9.750  14.330  67.375  1.00  0.00    -0.227 OA 
BRANCH  24  25
HETATM   25  C   UNL     1     -10.608  13.181  67.556  1.00  0.00    -0.235 C  
BRANCH  25  26
HETATM   26  C   UNL     1     -10.494  12.268  66.380  1.00  0.00    -0.263 A  
HETATM   27  C   UNL     1      -9.349  12.315  65.587  1.00  0.00     0.001 A  
HETATM   28  C   UNL     1      -9.192  11.423  64.532  1.00  0.00    -0.010 A  
HETATM   29  C   UNL     1     -10.183  10.481  64.259  1.00  0.00    -0.314 A  
HETATM   30  C   UNL     1     -11.337  10.435  65.040  1.00  0.00     1.549 A  
HETATM   31  C   UNL     1     -11.495  11.325  66.099  1.00  0.00     0.109 A  
ENDBRANCH  25  26
ENDBRANCH  24  25
ENDBRANCH  22  24
ENDBRANCH  17  20
TORSDOF 4
ENDMDL
MODEL      169
REMARK 921   NORMALIZED FREE ENERGY PREDICTED BY IDOCK:    7.51 KCAL/MOL
REMARK 922        TOTAL FREE ENERGY PREDICTED BY IDOCK:    8.69 KCAL/MOL
REMARK 923 INTER-LIGAND FREE ENERGY PREDICTED BY IDOCK:    1.76 KCAL/MOL
REMARK 924 INTRA-LIGAND FREE ENERGY PREDICTED BY IDOCK:    6.93 KCAL/MOL
REMARK 927      BINDING AFFINITY PREDICTED BY RF-SCORE:    0.00 PKD
ROOT
HETATM    1  C   UNL     1     -10.274  16.537  66.483  1.00  0.00    -0.300 C  
HETATM    2  C   UNL     1     -11.197  16.596  65.276  1.00  0.00     0.094 C  
HETATM    3  C   UNL     1     -11.896  15.354  65.271  1.00  0.00     0.125 A  
HETATM    4  C   UNL     1     -12.244  14.546  64.239  1.00  0.00    -0.415 A  
HETATM    5  N   UNL     1     -12.671  13.384  64.815  1.00  0.00    -0.685 NA 
HETATM    6  C   UNL     1     -12.910  12.214  63.999  1.00  0.00    -0.272 C  
HETATM    7  C   UNL     1     -12.675  13.504  66.206  1.00  0.00    -0.097 A  
HETATM    8  C   UNL     1     -13.076  12.661  67.236  1.00  0.00     3.632 A  
HETATM    9  C   UNL     1     -12.859  13.145  68.547  1.00  0.00     1.529 A  
HETATM   10  C   UNL     1     -12.176  14.370  68.852  1.00  0.00    -0.214 A  
HETATM   11  C   UNL     1     -11.694  15.205  67.833  1.00  0.00    -0.275 A  
HETATM   12  C   UNL     1     -10.821  16.572  67.907  1.00  0.00    -0.326 C  
HETATM   13  C   UNL     1     -12.121  14.733  66.517  1.00  0.00    -0.121 A  
HETATM   14  C   UNL     1      -9.307  17.327  68.507  1.00  0.00    -0.276 C  
HETATM   15  C   UNL     1      -8.136  17.630  67.285  1.00  0.00    -0.222 C  
HETATM   16  C   UNL     1      -7.889  16.362  66.463  1.00  0.00    -0.288 C  
HETATM   17  C   UNL     1      -6.894  18.518  67.091  1.00  0.00    -0.201 C  
HETATM   18  N   UNL     1      -9.094  15.561  66.429  1.00  0.00    -0.292 NA 
HETATM   19  C   UNL     1      -8.943  14.543  67.520  1.00  0.00    -0.188 C  
ENDROOT
BRANCH  17  20
HETATM   20  N   UNL     1      -5.779  18.480  67.983  1.00  0.00    -0.172 N  
HETATM   21  H   UNL     1      -5.058  19.201  68.009  1.00  0.00     0.000 HD 
HETATM   22  C   UNL     1      -5.773  17.391  68.795  1.00  0.00    -0.160 C  
HETATM   23  O   UNL     1      -6.139  16.272  68.454  1.00  0.00    -0.108 OA 
BRANCH  22  24
HETATM   24  O   UNL     1      -5.473  17.780  70.036  1.00  0.00    -0.210 OA 
BRANCH  24  25
HETATM   25  C   UNL     1      -5.132  16.692  70.925  1.00  0.00    -0.204 C  
BRANCH  25  26
HETATM   26  C   UNL     1      -5.906  15.469  70.555  1.00  0.00    -0.056 A  
HETATM   27  C   UNL     1      -7.276  15.572  70.326  1.00  0.00     0.398 A  
HETATM   28  C   UNL     1      -8.001  14.459  69.910  1.00  0.00     0.571 A  
HETATM   29  C   UNL     1      -7.358  13.236  69.725  1.00  0.00     0.727 A  
HETATM   30  C   UNL     1      -5.989  13.122  69.964  1.00  0.00    -0.135 A  
HETATM   31  C   UNL     1      -5.261  14.235  70.378  1.00  0.00    -0.101 A  
ENDBRANCH  25  26
ENDBRANCH  24  25
ENDBRANCH  22  24
ENDBRANCH  17  20
TORSDOF 4
ENDMDL
MODEL      170
REMARK 921   NORMALIZED FREE ENERGY PREDICTED BY IDOCK:   17.56 KCAL/MOL
REMARK 922        TOTAL FREE ENERGY PREDICTED BY IDOCK:   21.09 KCAL/MOL
REMARK 923 INTER-LIGAND FREE ENERGY PREDICTED BY IDOCK:    1.10 KCAL/MOL
REMARK 924 INTRA-LIGAND FREE ENERGY PREDICTED BY IDOCK:   19.99 KCAL/MOL
REMARK 927      BINDING AFFINITY PREDICTED BY RF-SCORE:    0.00 PKD
ROOT
HETATM    1  C   UNL     1      -9.867  16.222  65.370  1.00  0.00     0.030 C  
HETATM    2  C   UNL     1     -10.395  15.124  64.460  1.00  0.00     0.290 C  
HETATM    3  C   UNL     1     -10.705  14.032  65.322  1.00  0.00    -0.367 A  
HETATM    4  C   UNL     1     -10.520  12.700  65.154  1.00  0.00    -0.296 A  
HETATM    5  N   UNL     1     -10.764  12.141  66.376  1.00  0.00    -0.248 NA 
HETATM    6  C   UNL     1     -10.442  10.751  66.617  1.00  0.00    -0.246 C  
HETATM    7  C   UNL     1     -11.190  13.116  67.279  1.00  0.00    -0.287 A  
HETATM    8  C   UNL     1     -11.624  13.071  68.599  1.00  0.00    -0.354 A  
HETATM    9  C   UNL     1     -11.921  14.320  69.192  1.00  0.00    -0.372 A  
HETATM   10  C   UNL     1     -11.705  15.588  68.555  1.00  0.00    -0.351 A  
HETATM   11  C   UNL     1     -11.199  15.666  67.249  1.00  0.00    -0.184 A  
HETATM   12  C   UNL     1     -10.781  16.952  66.350  1.00  0.00    -0.085 C  
HETATM   13  C   UNL     1     -11.095  14.340  66.642  1.00  0.00    -0.321 A  
HETATM   14  C   UNL     1      -9.756  18.423  66.263  1.00  0.00    -0.298 C  
HETATM   15  C   UNL     1      -8.415  18.288  65.197  1.00  0.00     2.434 C  
HETATM   16  C   UNL     1      -7.617  17.018  65.508  1.00  0.00     1.250 C  
HETATM   17  C   UNL     1      -7.453  19.229  64.448  1.00  0.00     2.747 C  
HETATM   18  N   UNL     1      -8.503  16.002  66.032  1.00  0.00    -0.220 NA 
HETATM   19  C   UNL     1      -8.398  16.095  67.526  1.00  0.00    -0.159 C  
ENDROOT
BRANCH  17  20
HETATM   20  N   UNL     1      -6.666  20.212  65.122  1.00  0.00    -0.302 N  
HETATM   21  H   UNL     1      -6.375  21.088  64.690  1.00  0.00     0.000 HD 
HETATM   22  C   UNL     1      -6.343  19.866  66.396  1.00  0.00    -0.179 C  
HETATM   23  O   UNL     1      -6.077  18.725  66.756  1.00  0.00    -0.161 OA 
BRANCH  22  24
HETATM   24  O   UNL     1      -6.530  20.923  67.190  1.00  0.00    -0.263 OA 
BRANCH  24  25
HETATM   25  C   UNL     1      -7.216  20.613  68.424  1.00  0.00     0.054 C  
BRANCH  25  26
HETATM   26  C   UNL     1      -7.435  19.140  68.531  1.00  0.00    -0.360 A  
HETATM   27  C   UNL     1      -6.390  18.270  68.226  1.00  0.00    -0.198 A  
HETATM   28  C   UNL     1      -6.551  16.898  68.390  1.00  0.00    -0.155 A  
HETATM   29  C   UNL     1      -7.762  16.388  68.855  1.00  0.00    -0.230 A  
HETATM   30  C   UNL     1      -8.817  17.249  69.150  1.00  0.00     0.032 A  
HETATM   31  C   UNL     1      -8.657  18.624  68.989  1.00  0.00    -0.101 A  
ENDBRANCH  25  26
ENDBRANCH  24  25
ENDBRANCH  22  24
ENDBRANCH  17  20
TORSDOF 4
ENDMDL
MODEL      171
REMARK 921   NORMALIZED FREE ENERGY PREDICTED BY IDOCK:   21.57 KCAL/MOL
REMARK 922        TOTAL FREE ENERGY PREDICTED BY IDOCK:   26.04 KCAL/MOL
REMARK 923 INTER-LIGAND FREE ENERGY PREDICTED BY IDOCK:   26.43 KCAL/MOL
REMARK 924 INTRA-LIGAND FREE ENERGY PREDICTED BY IDOCK:   -0.39 KCAL/MOL
REMARK 927      BINDING AFFINITY PREDICTED BY RF-SCORE:    0.00 PKD
ROOT
HETATM    1  C   UNL     1      -6.646  14.061  68.892  1.00  0.00    -0.101 C  
HETATM    2  C   UNL     1      -5.381  14.891  68.734  1.00  0.00    -0.088 C  
HETATM    3  C   UNL     1      -5.774  16.043  67.992  1.00  0.00    -0.132 A  
HETATM    4  C   UNL     1      -5.133  16.708  66.999  1.00  0.00    -0.073 A  
HETATM    5  N   UNL     1      -6.058  17.572  66.485  1.00  0.00    -0.194 NA 
HETATM    6  C   UNL     1      -5.781  18.286  65.257  1.00  0.00    -0.166 C  
HETATM    7  C   UNL     1      -7.243  17.508  67.219  1.00  0.00    -0.170 A  
HETATM    8  C   UNL     1      -8.441  18.211  67.162  1.00  0.00    -0.247 A  
HETATM    9  C   UNL     1      -9.442  17.796  68.070  1.00  0.00    -0.281 A  
HETATM   10  C   UNL     1      -9.321  16.662  68.941  1.00  0.00    -0.244 A  
HETATM   11  C   UNL     1      -8.150  15.889  68.968  1.00  0.00    -0.229 A  
HETATM   12  C   UNL     1      -7.798  14.526  69.777  1.00  0.00     0.274 C  
HETATM   13  C   UNL     1      -7.102  16.490  68.145  1.00  0.00    -0.149 A  
HETATM   14  C   UNL     1      -8.287  12.828  70.092  1.00  0.00     3.767 C  
HETATM   15  C   UNL     1      -7.284  11.652  69.339  1.00  0.00     0.038 C  
HETATM   16  C   UNL     1      -7.131  11.965  67.848  1.00  0.00    -0.093 C  
HETATM   17  C   UNL     1      -6.961  10.155  69.501  1.00  0.00    -0.086 C  
HETATM   18  N   UNL     1      -7.220  13.394  67.639  1.00  0.00    -0.150 NA 
HETATM   19  C   UNL     1      -8.646  13.667  67.260  1.00  0.00    -0.214 C  
ENDROOT
BRANCH  17  20
HETATM   20  N   UNL     1      -7.971   9.147  69.461  1.00  0.00    -0.093 N  
HETATM   21  H   UNL     1      -8.745   9.102  70.124  1.00  0.00     0.000 HD 
HETATM   22  C   UNL     1      -7.803   8.252  68.452  1.00  0.00    -0.118 C  
HETATM   23  O   UNL     1      -6.714   7.840  68.067  1.00  0.00    -0.060 OA 
BRANCH  22  24
HETATM   24  O   UNL     1      -8.981   8.041  67.862  1.00  0.00    -0.130 OA 
BRANCH  24  25
HETATM   25  C   UNL     1      -9.731   6.943  68.428  1.00  0.00    -0.137 C  
BRANCH  25  26
HETATM   26  C   UNL     1     -10.868   6.583  67.529  1.00  0.00    -0.433 A  
HETATM   27  C   UNL     1     -12.000   7.394  67.500  1.00  0.00     2.831 A  
HETATM   28  C   UNL     1     -13.037   7.116  66.615  1.00  0.00    13.367 A  
HETATM   29  C   UNL     1     -12.949   6.021  65.757  1.00  0.00     8.028 A  
HETATM   30  C   UNL     1     -11.825   5.197  65.787  1.00  0.00     2.044 A  
HETATM   31  C   UNL     1     -10.784   5.475  66.671  1.00  0.00    -0.332 A  
ENDBRANCH  25  26
ENDBRANCH  24  25
ENDBRANCH  22  24
ENDBRANCH  17  20
TORSDOF 4
ENDMDL
MODEL      172
REMARK 921   NORMALIZED FREE ENERGY PREDICTED BY IDOCK:   37.49 KCAL/MOL
REMARK 922        TOTAL FREE ENERGY PREDICTED BY IDOCK:   45.67 KCAL/MOL
REMARK 923 INTER-LIGAND FREE ENERGY PREDICTED BY IDOCK:   46.08 KCAL/MOL
REMARK 924 INTRA-LIGAND FREE ENERGY PREDICTED BY IDOCK:   -0.41 KCAL/MOL
REMARK 927      BINDING AFFINITY PREDICTED BY RF-SCORE:    0.00 PKD
ROOT
HETATM    1  C   UNL     1      -9.478  15.274  68.292  1.00  0.00    -0.205 C  
HETATM    2  C   UNL     1      -9.077  16.711  67.996  1.00  0.00    -0.218 C  
HETATM    3  C   UNL     1     -10.301  17.434  67.900  1.00  0.00    -0.369 A  
HETATM    4  C   UNL     1     -10.674  18.420  67.047  1.00  0.00    -0.293 A  
HETATM    5  N   UNL     1     -12.017  18.576  67.237  1.00  0.00     2.222 NA 
HETATM    6  C   UNL     1     -12.789  19.395  66.327  1.00  0.00     7.959 C  
HETATM    7  C   UNL     1     -12.460  17.753  68.273  1.00  0.00     4.683 A  
HETATM    8  C   UNL     1     -13.690  17.582  68.898  1.00  0.00    10.778 A  
HETATM    9  C   UNL     1     -13.739  16.581  69.896  1.00  0.00     5.210 A  
HETATM   10  C   UNL     1     -12.652  15.697  70.207  1.00  0.00    -0.319 A  
HETATM   11  C   UNL     1     -11.422  15.797  69.540  1.00  0.00    -0.356 A  
HETATM   12  C   UNL     1     -10.088  14.878  69.633  1.00  0.00    -0.070 C  
HETATM   13  C   UNL     1     -11.390  16.968  68.664  1.00  0.00     0.161 A  
HETATM   14  C   UNL     1      -9.426  13.216  69.483  1.00  0.00     1.366 C  
HETATM   15  C   UNL     1      -8.500  12.950  68.059  1.00  0.00    -0.178 C  
HETATM   16  C   UNL     1      -9.289  13.396  66.824  1.00  0.00    -0.256 C  
HETATM   17  C   UNL     1      -7.440  11.952  67.556  1.00  0.00    -0.136 C  
HETATM   18  N   UNL     1     -10.173  14.485  67.178  1.00  0.00    -0.258 NA 
HETATM   19  C   UNL     1     -11.508  13.859  67.456  1.00  0.00    -0.340 C  
ENDROOT
BRANCH  17  20
HETATM   20  N   UNL     1      -7.670  10.543  67.527  1.00  0.00    -0.097 N  
HETATM   21  H   UNL     1      -8.294  10.064  68.176  1.00  0.00     0.000 HD 
HETATM   22  C   UNL     1      -6.977   9.902  66.550  1.00  0.00    -0.090 C  
HETATM   23  O   UNL     1      -5.841  10.199  66.199  1.00  0.00    -0.058 OA 
BRANCH  22  24
HETATM   24  O   UNL     1      -7.790   9.035  65.943  1.00  0.00    -0.099 OA 
BRANCH  24  25
HETATM   25  C   UNL     1      -8.353   8.042  66.830  1.00  0.00    -0.116 C  
BRANCH  25  26
HETATM   26  C   UNL     1      -9.364   7.220  66.100  1.00  0.00    -0.101 A  
HETATM   27  C   UNL     1      -9.678   5.947  66.571  1.00  0.00    -0.185 A  
HETATM   28  C   UNL     1     -10.670   5.195  65.947  1.00  0.00    -0.130 A  
HETATM   29  C   UNL     1     -11.349   5.712  64.846  1.00  0.00     3.305 A  
HETATM   30  C   UNL     1     -11.033   6.980  64.361  1.00  0.00    11.130 A  
HETATM   31  C   UNL     1     -10.042   7.736  64.985  1.00  0.00     3.137 A  
ENDBRANCH  25  26
ENDBRANCH  24  25
ENDBRANCH  22  24
ENDBRANCH  17  20
TORSDOF 4
ENDMDL
MODEL      173
REMARK 921   NORMALIZED FREE ENERGY PREDICTED BY IDOCK:   45.76 KCAL/MOL
REMARK 922        TOTAL FREE ENERGY PREDICTED BY IDOCK:   55.88 KCAL/MOL
REMARK 923 INTER-LIGAND FREE ENERGY PREDICTED BY IDOCK:   56.29 KCAL/MOL
REMARK 924 INTRA-LIGAND FREE ENERGY PREDICTED BY IDOCK:   -0.41 KCAL/MOL
REMARK 927      BINDING AFFINITY PREDICTED BY RF-SCORE:    0.00 PKD
ROOT
HETATM    1  C   UNL     1      -9.764  15.468  68.376  1.00  0.00    -0.203 C  
HETATM    2  C   UNL     1      -9.042  16.354  67.374  1.00  0.00    -0.206 C  
HETATM    3  C   UNL     1     -10.064  16.896  66.541  1.00  0.00    -0.320 A  
HETATM    4  C   UNL     1     -10.083  17.112  65.202  1.00  0.00     0.663 A  
HETATM    5  N   UNL     1     -11.382  17.411  64.900  1.00  0.00    -0.474 NA 
HETATM    6  C   UNL     1     -11.809  17.480  63.520  1.00  0.00     7.805 C  
HETATM    7  C   UNL     1     -12.148  17.471  66.065  1.00  0.00     4.210 A  
HETATM    8  C   UNL     1     -13.476  17.797  66.318  1.00  0.00    13.517 A  
HETATM    9  C   UNL     1     -13.892  17.681  67.665  1.00  0.00     9.681 A  
HETATM   10  C   UNL     1     -13.071  17.162  68.721  1.00  0.00     5.990 A  
HETATM   11  C   UNL     1     -11.750  16.755  68.480  1.00  0.00     0.406 A  
HETATM   12  C   UNL     1     -10.660  16.058  69.461  1.00  0.00    -0.290 C  
HETATM   13  C   UNL     1     -11.338  17.081  67.116  1.00  0.00     0.506 A  
HETATM   14  C   UNL     1     -10.325  14.666  70.543  1.00  0.00     0.582 C  
HETATM   15  C   UNL     1      -9.241  13.505  69.887  1.00  0.00     2.307 C  
HETATM   16  C   UNL     1      -9.704  13.080  68.490  1.00  0.00    -0.130 C  
HETATM   17  C   UNL     1      -8.330  12.375  70.401  1.00  0.00     5.205 C  
HETATM   18  N   UNL     1     -10.402  14.177  67.854  1.00  0.00    -0.232 NA 
HETATM   19  C   UNL     1     -11.861  13.936  68.102  1.00  0.00    -0.372 C  
ENDROOT
BRANCH  17  20
HETATM   20  N   UNL     1      -8.826  11.292  71.189  1.00  0.00     6.205 N  
HETATM   21  H   UNL     1      -9.638  11.370  71.800  1.00  0.00     0.000 HD 
HETATM   22  C   UNL     1      -8.111  10.145  71.044  1.00  0.00     1.577 C  
HETATM   23  O   UNL     1      -6.894  10.102  70.901  1.00  0.00    -0.338 OA 
BRANCH  22  24
HETATM   24  O   UNL     1      -8.959   9.122  70.914  1.00  0.00    -0.219 OA 
BRANCH  24  25
HETATM   25  C   UNL     1      -9.862   8.966  72.032  1.00  0.00    -0.255 C  
BRANCH  25  26
HETATM   26  C   UNL     1     -10.861   7.896  71.735  1.00  0.00    -0.286 A  
HETATM   27  C   UNL     1     -11.262   7.682  70.419  1.00  0.00    -0.258 A  
HETATM   28  C   UNL     1     -12.135   6.642  70.114  1.00  0.00    -0.121 A  
HETATM   29  C   UNL     1     -12.617   5.815  71.127  1.00  0.00     1.690 A  
HETATM   30  C   UNL     1     -12.231   6.030  72.449  1.00  0.00    -0.099 A  
HETATM   31  C   UNL     1     -11.354   7.068  72.756  1.00  0.00    -0.256 A  
ENDBRANCH  25  26
ENDBRANCH  24  25
ENDBRANCH  22  24
ENDBRANCH  17  20
TORSDOF 4
ENDMDL
MODEL      174
REMARK 921   NORMALIZED FREE ENERGY PREDICTED BY IDOCK:   48.78 KCAL/MOL
REMARK 922        TOTAL FREE ENERGY PREDICTED BY IDOCK:   59.60 KCAL/MOL
REMARK 923 INTER-LIGAND FREE ENERGY PREDICTED BY IDOCK:   59.98 KCAL/MOL
REMARK 924 INTRA-LIGAND FREE ENERGY PREDICTED BY IDOCK:   -0.37 KCAL/MOL
REMARK 927      BINDING AFFINITY PREDICTED BY RF-SCORE:    0.00 PKD
ROOT
HETATM    1  C   UNL     1      -7.955   8.768  70.045  1.00  0.00    -0.108 C  
HETATM    2  C   UNL     1      -7.427   9.356  71.345  1.00  0.00     0.202 C  
HETATM    3  C   UNL     1      -8.248  10.491  71.609  1.00  0.00     5.300 A  
HETATM    4  C   UNL     1      -7.924  11.715  72.093  1.00  0.00    14.296 A  
HETATM    5  N   UNL     1      -9.039  12.484  71.913  1.00  0.00    18.094 NA 
HETATM    6  C   UNL     1      -8.975  13.915  72.114  1.00  0.00    10.937 C  
HETATM    7  C   UNL     1     -10.084  11.712  71.403  1.00  0.00     8.471 A  
HETATM    8  C   UNL     1     -11.416  11.980  71.112  1.00  0.00     1.709 A  
HETATM    9  C   UNL     1     -12.149  10.913  70.543  1.00  0.00    -0.464 A  
HETATM   10  C   UNL     1     -11.578   9.651  70.169  1.00  0.00    -0.193 A  
HETATM   11  C   UNL     1     -10.219   9.378  70.383  1.00  0.00    -0.310 A  
HETATM   12  C   UNL     1      -9.319   8.090  69.974  1.00  0.00    -0.156 C  
HETATM   13  C   UNL     1      -9.577  10.451  71.141  1.00  0.00     2.538 A  
HETATM   14  C   UNL     1      -8.767   7.043  68.625  1.00  0.00    -0.123 C  
HETATM   15  C   UNL     1      -7.129   7.287  68.165  1.00  0.00    -0.081 C  
HETATM   16  C   UNL     1      -6.866   8.775  67.916  1.00  0.00    -0.070 C  
HETATM   17  C   UNL     1      -6.030   6.522  67.404  1.00  0.00    -0.020 C  
HETATM   18  N   UNL     1      -7.732   9.571  68.760  1.00  0.00    -0.079 NA 
HETATM   19  C   UNL     1      -8.917   9.928  67.912  1.00  0.00    -0.128 C  
ENDROOT
BRANCH  17  20
HETATM   20  N   UNL     1      -6.211   6.054  66.067  1.00  0.00    -0.036 N  
HETATM   21  H   UNL     1      -6.439   5.087  65.838  1.00  0.00     0.000 HD 
HETATM   22  C   UNL     1      -6.050   7.024  65.128  1.00  0.00    -0.037 C  
HETATM   23  O   UNL     1      -5.225   7.927  65.201  1.00  0.00    -0.028 OA 
BRANCH  22  24
HETATM   24  O   UNL     1      -7.032   6.921  64.230  1.00  0.00    -0.048 OA 
BRANCH  24  25
HETATM   25  C   UNL     1      -8.242   7.617  64.604  1.00  0.00    -0.063 C  
BRANCH  25  26
HETATM   26  C   UNL     1      -8.191   9.028  64.116  1.00  0.00    -0.166 A  
HETATM   27  C   UNL     1      -7.441   9.332  62.983  1.00  0.00    -0.105 A  
HETATM   28  C   UNL     1      -7.441  10.625  62.470  1.00  0.00    -0.123 A  
HETATM   29  C   UNL     1      -8.187  11.624  63.094  1.00  0.00     0.914 A  
HETATM   30  C   UNL     1      -8.931  11.332  64.236  1.00  0.00     0.103 A  
HETATM   31  C   UNL     1      -8.935  10.036  64.749  1.00  0.00    -0.247 A  
ENDBRANCH  25  26
ENDBRANCH  24  25
ENDBRANCH  22  24
ENDBRANCH  17  20
TORSDOF 4
ENDMDL
MODEL      175
REMARK 921   NORMALIZED FREE ENERGY PREDICTED BY IDOCK:   58.08 KCAL/MOL
REMARK 922        TOTAL FREE ENERGY PREDICTED BY IDOCK:   71.08 KCAL/MOL
REMARK 923 INTER-LIGAND FREE ENERGY PREDICTED BY IDOCK:   69.76 KCAL/MOL
REMARK 924 INTRA-LIGAND FREE ENERGY PREDICTED BY IDOCK:    1.32 KCAL/MOL
REMARK 927      BINDING AFFINITY PREDICTED BY RF-SCORE:    0.00 PKD
ROOT
HETATM    1  C   UNL     1      -7.955   8.768  70.045  1.00  0.00    -0.108 C  
HETATM    2  C   UNL     1      -7.427   9.356  71.345  1.00  0.00     0.202 C  
HETATM    3  C   UNL     1      -8.248  10.491  71.609  1.00  0.00     5.300 A  
HETATM    4  C   UNL     1      -7.924  11.715  72.093  1.00  0.00    14.296 A  
HETATM    5  N   UNL     1      -9.039  12.484  71.913  1.00  0.00    18.094 NA 
HETATM    6  C   UNL     1      -8.975  13.915  72.114  1.00  0.00    10.937 C  
HETATM    7  C   UNL     1     -10.084  11.712  71.403  1.00  0.00     8.471 A  
HETATM    8  C   UNL     1     -11.416  11.980  71.112  1.00  0.00     1.709 A  
HETATM    9  C   UNL     1     -12.149  10.913  70.543  1.00  0.00    -0.464 A  
HETATM   10  C   UNL     1     -11.578   9.651  70.169  1.00  0.00    -0.193 A  
HETATM   11  C   UNL     1     -10.219   9.378  70.383  1.00  0.00    -0.310 A  
HETATM   12  C   UNL     1      -9.319   8.090  69.974  1.00  0.00    -0.156 C  
HETATM   13  C   UNL     1      -9.577  10.451  71.141  1.00  0.00     2.538 A  
HETATM   14  C   UNL     1      -8.767   7.043  68.625  1.00  0.00    -0.123 C  
HETATM   15  C   UNL     1      -7.129   7.287  68.165  1.00  0.00    -0.081 C  
HETATM   16  C   UNL     1      -6.866   8.775  67.916  1.00  0.00    -0.070 C  
HETATM   17  C   UNL     1      -6.030   6.522  67.404  1.00  0.00    -0.020 C  
HETATM   18  N   UNL     1      -7.732   9.571  68.760  1.00  0.00    -0.079 NA 
HETATM   19  C   UNL     1      -8.917   9.928  67.912  1.00  0.00    -0.128 C  
ENDROOT
BRANCH  17  20
HETATM   20  N   UNL     1      -6.211   6.054  66.067  1.00  0.00    -0.036 N  
HETATM   21  H   UNL     1      -5.475   6.078  65.361  1.00  0.00     0.000 HD 
HETATM   22  C   UNL     1      -7.460   5.574  65.826  1.00  0.00    -0.081 C  
HETATM   23  O   UNL     1      -8.486   6.047  66.300  1.00  0.00    -0.120 OA 
BRANCH  22  24
HETATM   24  O   UNL     1      -7.357   4.431  65.145  1.00  0.00    -0.070 OA 
BRANCH  24  25
HETATM   25  C   UNL     1      -7.174   3.266  65.982  1.00  0.00    -0.071 C  
BRANCH  25  26
HETATM   26  C   UNL     1      -8.501   2.703  66.371  1.00  0.00    -0.105 A  
HETATM   27  C   UNL     1      -8.645   2.089  67.613  1.00  0.00    -0.110 A  
HETATM   28  C   UNL     1      -9.891   1.625  68.023  1.00  0.00     0.220 A  
HETATM   29  C   UNL     1     -10.999   1.767  67.189  1.00  0.00     6.184 A  
HETATM   30  C   UNL     1     -10.861   2.369  65.940  1.00  0.00     4.037 A  
HETATM   31  C   UNL     1      -9.615   2.837  65.528  1.00  0.00     0.103 A  
ENDBRANCH  25  26
ENDBRANCH  24  25
ENDBRANCH  22  24
ENDBRANCH  17  20
TORSDOF 4
ENDMDL
MODEL      176
REMARK 921   NORMALIZED FREE ENERGY PREDICTED BY IDOCK:   58.81 KCAL/MOL
REMARK 922        TOTAL FREE ENERGY PREDICTED BY IDOCK:   71.98 KCAL/MOL
REMARK 923 INTER-LIGAND FREE ENERGY PREDICTED BY IDOCK:   69.41 KCAL/MOL
REMARK 924 INTRA-LIGAND FREE ENERGY PREDICTED BY IDOCK:    2.58 KCAL/MOL
REMARK 927      BINDING AFFINITY PREDICTED BY RF-SCORE:    0.00 PKD
ROOT
HETATM    1  C   UNL     1      -6.909   7.219  66.734  1.00  0.00    -0.065 C  
HETATM    2  C   UNL     1      -5.552   6.538  66.821  1.00  0.00    -0.013 C  
HETATM    3  C   UNL     1      -5.830   5.174  67.124  1.00  0.00    -0.025 A  
HETATM    4  C   UNL     1      -5.195   4.312  67.957  1.00  0.00    -0.008 A  
HETATM    5  N   UNL     1      -6.019   3.226  68.053  1.00  0.00    -0.026 NA 
HETATM    6  C   UNL     1      -5.757   2.202  69.041  1.00  0.00    -0.022 C  
HETATM    7  C   UNL     1      -7.119   3.375  67.207  1.00  0.00    -0.058 A  
HETATM    8  C   UNL     1      -8.191   2.553  66.881  1.00  0.00    -0.084 A  
HETATM    9  C   UNL     1      -9.148   3.109  66.001  1.00  0.00    -0.148 A  
HETATM   10  C   UNL     1      -9.121   4.465  65.532  1.00  0.00    -0.140 A  
HETATM   11  C   UNL     1      -8.090   5.341  65.904  1.00  0.00    -0.110 A  
HETATM   12  C   UNL     1      -7.879   6.920  65.595  1.00  0.00    -0.109 C  
HETATM   13  C   UNL     1      -7.049   4.642  66.655  1.00  0.00    -0.071 A  
HETATM   14  C   UNL     1      -8.595   8.561  65.729  1.00  0.00    -0.190 C  
HETATM   15  C   UNL     1      -7.872   9.552  66.933  1.00  0.00    -0.101 C  
HETATM   16  C   UNL     1      -7.822   8.808  68.271  1.00  0.00    -0.101 C  
HETATM   17  C   UNL     1      -7.775  11.051  67.270  1.00  0.00    -0.118 C  
HETATM   18  N   UNL     1      -7.705   7.385  68.033  1.00  0.00    -0.114 NA 
HETATM   19  C   UNL     1      -9.101   6.839  68.103  1.00  0.00    -0.123 C  
ENDROOT
BRANCH  17  20
HETATM   20  N   UNL     1      -8.931  11.868  67.461  1.00  0.00    -0.166 N  
HETATM   21  H   UNL     1      -8.937  12.701  68.049  1.00  0.00     0.000 HD 
HETATM   22  C   UNL     1     -10.023  11.428  66.782  1.00  0.00    -0.208 C  
HETATM   23  O   UNL     1     -10.306  10.246  66.618  1.00  0.00    -0.227 OA 
BRANCH  22  24
HETATM   24  O   UNL     1     -10.616  12.471  66.198  1.00  0.00    -0.247 OA 
BRANCH  24  25
HETATM   25  C   UNL     1     -12.058  12.464  66.313  1.00  0.00    -0.180 C  
BRANCH  25  26
HETATM   26  C   UNL     1     -12.620  11.268  65.618  1.00  0.00     3.284 A  
HETATM   27  C   UNL     1     -13.132  10.217  66.375  1.00  0.00    13.328 A  
HETATM   28  C   UNL     1     -13.726   9.127  65.746  1.00  0.00    24.980 A  
HETATM   29  C   UNL     1     -13.807   9.081  64.355  1.00  0.00    19.415 A  
HETATM   30  C   UNL     1     -13.286  10.123  63.590  1.00  0.00     9.205 A  
HETATM   31  C   UNL     1     -12.693  11.217  64.217  1.00  0.00     1.851 A  
ENDBRANCH  25  26
ENDBRANCH  24  25
ENDBRANCH  22  24
ENDBRANCH  17  20
TORSDOF 4
ENDMDL
