MODEL        1
REMARK 921   NORMALIZED FREE ENERGY PREDICTED BY IDOCK:   -5.81 KCAL/MOL
REMARK 922        TOTAL FREE ENERGY PREDICTED BY IDOCK:   -6.24 KCAL/MOL
REMARK 923 INTER-LIGAND FREE ENERGY PREDICTED BY IDOCK:   -6.15 KCAL/MOL
REMARK 924 INTRA-LIGAND FREE ENERGY PREDICTED BY IDOCK:   -0.09 KCAL/MOL
REMARK 927      BINDING AFFINITY PREDICTED BY RF-SCORE:    0.00 PKD
ROOT
HETATM    1  C   UNL     1     -10.620  16.525  68.850  1.00  0.00    -0.326 C  
HETATM    2  O   UNL     1     -11.806  15.797  68.537  1.00  0.00    -0.363 OA 
ENDROOT
BRANCH   2   3
HETATM    3  C   UNL     1     -12.027  14.709  69.357  1.00  0.00    -0.313 A  
HETATM    4  C   UNL     1     -11.703  13.431  68.875  1.00  0.00    -0.328 A  
HETATM    5  O   UNL     1     -11.175  13.339  67.564  1.00  0.00    -0.262 OA 
HETATM    6  C   UNL     1     -10.922  12.120  66.958  1.00  0.00    -0.271 C  
HETATM    7  O   UNL     1     -10.545  12.021  65.796  1.00  0.00    -0.247 OA 
HETATM    8  C   UNL     1     -11.107  10.916  67.787  1.00  0.00    -0.371 C  
HETATM    9  C   UNL     1     -11.549  10.977  69.044  1.00  0.00    -0.392 C  
HETATM   10  C   UNL     1     -11.901  12.266  69.624  1.00  0.00    -0.393 A  
HETATM   11  C   UNL     1     -12.465  12.342  70.904  1.00  0.00    -0.371 A  
HETATM   12  C   UNL     1     -12.885  13.596  71.386  1.00  0.00    -0.442 A  
HETATM   13  C   UNL     1     -12.662  14.731  70.608  1.00  0.00    -0.358 A  
HETATM   14  O   UNL     1     -13.181  15.823  71.241  1.00  0.00    -0.496 OA 
HETATM   15  C   UNL     1     -13.731  15.400  72.406  1.00  0.00    -0.542 A  
HETATM   16  C   UNL     1     -13.557  14.045  72.555  1.00  0.00    -0.670 A  
ENDBRANCH   2   3
TORSDOF 1
ENDMDL
MODEL        2
REMARK 921   NORMALIZED FREE ENERGY PREDICTED BY IDOCK:   -5.76 KCAL/MOL
REMARK 922        TOTAL FREE ENERGY PREDICTED BY IDOCK:   -6.19 KCAL/MOL
REMARK 923 INTER-LIGAND FREE ENERGY PREDICTED BY IDOCK:   -6.10 KCAL/MOL
REMARK 924 INTRA-LIGAND FREE ENERGY PREDICTED BY IDOCK:   -0.09 KCAL/MOL
REMARK 927      BINDING AFFINITY PREDICTED BY RF-SCORE:    0.00 PKD
ROOT
HETATM    1  C   UNL     1     -10.887  15.980  69.959  1.00  0.00    -0.353 C  
HETATM    2  O   UNL     1     -11.929  15.533  69.094  1.00  0.00    -0.348 OA 
ENDROOT
BRANCH   2   3
HETATM    3  C   UNL     1     -11.721  14.272  68.572  1.00  0.00    -0.341 A  
HETATM    4  C   UNL     1     -11.409  14.155  67.207  1.00  0.00    -0.332 A  
HETATM    5  O   UNL     1     -11.338  15.348  66.446  1.00  0.00    -0.236 OA 
HETATM    6  C   UNL     1     -11.141  15.334  65.077  1.00  0.00    -0.426 C  
HETATM    7  O   UNL     1     -11.160  16.351  64.392  1.00  0.00    -0.825 OA 
HETATM    8  C   UNL     1     -10.882  14.023  64.457  1.00  0.00    -0.362 C  
HETATM    9  C   UNL     1     -10.887  12.888  65.159  1.00  0.00    -0.320 C  
HETATM   10  C   UNL     1     -11.193  12.923  66.583  1.00  0.00    -0.342 A  
HETATM   11  C   UNL     1     -11.307  11.734  67.316  1.00  0.00    -0.379 A  
HETATM   12  C   UNL     1     -11.705  11.806  68.665  1.00  0.00    -0.389 A  
HETATM   13  C   UNL     1     -11.903  13.056  69.248  1.00  0.00    -0.316 A  
HETATM   14  O   UNL     1     -12.323  12.894  70.537  1.00  0.00    -0.342 OA 
HETATM   15  C   UNL     1     -12.395  11.562  70.780  1.00  0.00    -0.375 A  
HETATM   16  C   UNL     1     -12.006  10.850  69.672  1.00  0.00    -0.414 A  
ENDBRANCH   2   3
TORSDOF 1
ENDMDL
MODEL        3
REMARK 921   NORMALIZED FREE ENERGY PREDICTED BY IDOCK:   -5.71 KCAL/MOL
REMARK 922        TOTAL FREE ENERGY PREDICTED BY IDOCK:   -6.14 KCAL/MOL
REMARK 923 INTER-LIGAND FREE ENERGY PREDICTED BY IDOCK:   -6.09 KCAL/MOL
REMARK 924 INTRA-LIGAND FREE ENERGY PREDICTED BY IDOCK:   -0.05 KCAL/MOL
REMARK 927      BINDING AFFINITY PREDICTED BY RF-SCORE:    0.00 PKD
ROOT
HETATM    1  C   UNL     1     -11.837  14.786  64.283  1.00  0.00    -0.319 C  
HETATM    2  O   UNL     1     -10.655  14.696  65.075  1.00  0.00    -0.390 OA 
ENDROOT
BRANCH   2   3
HETATM    3  C   UNL     1     -10.742  15.350  66.288  1.00  0.00    -0.312 A  
HETATM    4  C   UNL     1     -11.087  14.604  67.427  1.00  0.00    -0.326 A  
HETATM    5  O   UNL     1     -11.337  13.220  67.254  1.00  0.00    -0.288 OA 
HETATM    6  C   UNL     1     -11.784  12.420  68.290  1.00  0.00    -0.345 C  
HETATM    7  O   UNL     1     -12.085  11.241  68.138  1.00  0.00    -0.635 OA 
HETATM    8  C   UNL     1     -11.871  13.045  69.621  1.00  0.00    -0.385 C  
HETATM    9  C   UNL     1     -11.587  14.332  69.824  1.00  0.00    -0.350 C  
HETATM   10  C   UNL     1     -11.212  15.175  68.697  1.00  0.00    -0.295 A  
HETATM   11  C   UNL     1     -11.013  16.551  68.871  1.00  0.00    -0.325 A  
HETATM   12  C   UNL     1     -10.752  17.346  67.738  1.00  0.00    -0.332 A  
HETATM   13  C   UNL     1     -10.630  16.733  66.493  1.00  0.00    -0.198 A  
HETATM   14  O   UNL     1     -10.422  17.685  65.537  1.00  0.00    -0.636 OA 
HETATM   15  C   UNL     1     -10.413  18.892  66.156  1.00  0.00    -0.457 A  
HETATM   16  C   UNL     1     -10.589  18.739  67.510  1.00  0.00    -0.497 A  
ENDBRANCH   2   3
TORSDOF 1
ENDMDL
MODEL        4
REMARK 921   NORMALIZED FREE ENERGY PREDICTED BY IDOCK:   -5.67 KCAL/MOL
REMARK 922        TOTAL FREE ENERGY PREDICTED BY IDOCK:   -6.10 KCAL/MOL
REMARK 923 INTER-LIGAND FREE ENERGY PREDICTED BY IDOCK:   -6.04 KCAL/MOL
REMARK 924 INTRA-LIGAND FREE ENERGY PREDICTED BY IDOCK:   -0.06 KCAL/MOL
REMARK 927      BINDING AFFINITY PREDICTED BY RF-SCORE:    0.00 PKD
ROOT
HETATM    1  C   UNL     1     -11.060  10.748  67.726  1.00  0.00    -0.318 C  
HETATM    2  O   UNL     1     -12.155  11.645  67.903  1.00  0.00    -0.613 OA 
ENDROOT
BRANCH   2   3
HETATM    3  C   UNL     1     -11.787  12.975  67.954  1.00  0.00    -0.343 A  
HETATM    4  C   UNL     1     -11.970  13.674  69.158  1.00  0.00    -0.351 A  
HETATM    5  O   UNL     1     -12.533  12.967  70.248  1.00  0.00    -0.249 OA 
HETATM    6  C   UNL     1     -12.850  13.591  71.442  1.00  0.00    -0.355 C  
HETATM    7  O   UNL     1     -13.414  13.013  72.365  1.00  0.00    -0.567 OA 
HETATM    8  C   UNL     1     -12.457  15.004  71.577  1.00  0.00    -0.400 C  
HETATM    9  C   UNL     1     -11.873  15.680  70.586  1.00  0.00    -0.409 C  
HETATM   10  C   UNL     1     -11.640  15.025  69.306  1.00  0.00    -0.338 A  
HETATM   11  C   UNL     1     -11.125  15.746  68.220  1.00  0.00    -0.342 A  
HETATM   12  C   UNL     1     -11.011  15.102  66.973  1.00  0.00    -0.322 A  
HETATM   13  C   UNL     1     -11.345  13.753  66.873  1.00  0.00    -0.328 A  
HETATM   14  O   UNL     1     -11.203  13.345  65.578  1.00  0.00    -0.288 OA 
HETATM   15  C   UNL     1     -10.786  14.414  64.856  1.00  0.00    -0.426 A  
HETATM   16  C   UNL     1     -10.631  15.512  65.667  1.00  0.00    -0.389 A  
ENDBRANCH   2   3
TORSDOF 1
ENDMDL
MODEL        5
REMARK 921   NORMALIZED FREE ENERGY PREDICTED BY IDOCK:   -5.65 KCAL/MOL
REMARK 922        TOTAL FREE ENERGY PREDICTED BY IDOCK:   -6.08 KCAL/MOL
REMARK 923 INTER-LIGAND FREE ENERGY PREDICTED BY IDOCK:   -5.98 KCAL/MOL
REMARK 924 INTRA-LIGAND FREE ENERGY PREDICTED BY IDOCK:   -0.09 KCAL/MOL
REMARK 927      BINDING AFFINITY PREDICTED BY RF-SCORE:    0.00 PKD
ROOT
HETATM    1  C   UNL     1     -11.280  14.881  69.188  1.00  0.00    -0.279 C  
HETATM    2  O   UNL     1     -12.270  14.024  68.625  1.00  0.00    -0.332 OA 
ENDROOT
BRANCH   2   3
HETATM    3  C   UNL     1     -11.756  12.889  68.028  1.00  0.00    -0.356 A  
HETATM    4  C   UNL     1     -11.651  12.859  66.629  1.00  0.00    -0.372 A  
HETATM    5  O   UNL     1     -12.094  13.999  65.913  1.00  0.00    -0.384 OA 
HETATM    6  C   UNL     1     -12.130  14.028  64.530  1.00  0.00    -0.459 C  
HETATM    7  O   UNL     1     -12.588  14.973  63.896  1.00  0.00    -0.813 OA 
HETATM    8  C   UNL     1     -11.568  12.862  63.826  1.00  0.00    -0.538 C  
HETATM    9  C   UNL     1     -11.092  11.798  64.476  1.00  0.00    -0.376 C  
HETATM   10  C   UNL     1     -11.155  11.754  65.930  1.00  0.00    -0.355 A  
HETATM   11  C   UNL     1     -10.758  10.604  66.626  1.00  0.00    -0.246 A  
HETATM   12  C   UNL     1     -10.931  10.564  68.023  1.00  0.00    -0.345 A  
HETATM   13  C   UNL     1     -11.423  11.691  68.678  1.00  0.00    -0.290 A  
HETATM   14  O   UNL     1     -11.551  11.422  70.010  1.00  0.00    -0.298 OA 
HETATM   15  C   UNL     1     -11.150  10.143  70.210  1.00  0.00    -0.317 A  
HETATM   16  C   UNL     1     -10.738   9.577  69.027  1.00  0.00    -0.224 A  
ENDBRANCH   2   3
TORSDOF 1
ENDMDL
MODEL        6
REMARK 921   NORMALIZED FREE ENERGY PREDICTED BY IDOCK:   -5.63 KCAL/MOL
REMARK 922        TOTAL FREE ENERGY PREDICTED BY IDOCK:   -6.06 KCAL/MOL
REMARK 923 INTER-LIGAND FREE ENERGY PREDICTED BY IDOCK:   -6.02 KCAL/MOL
REMARK 924 INTRA-LIGAND FREE ENERGY PREDICTED BY IDOCK:   -0.03 KCAL/MOL
REMARK 927      BINDING AFFINITY PREDICTED BY RF-SCORE:    0.00 PKD
ROOT
HETATM    1  C   UNL     1      -9.328  17.584  68.210  1.00  0.00    -0.281 C  
HETATM    2  O   UNL     1     -10.718  17.380  67.964  1.00  0.00    -0.387 OA 
ENDROOT
BRANCH   2   3
HETATM    3  C   UNL     1     -11.100  16.053  67.973  1.00  0.00    -0.334 A  
HETATM    4  C   UNL     1     -11.550  15.495  69.181  1.00  0.00    -0.362 A  
HETATM    5  O   UNL     1     -11.572  16.333  70.323  1.00  0.00    -0.306 OA 
HETATM    6  C   UNL     1     -11.899  15.852  71.579  1.00  0.00    -0.468 C  
HETATM    7  O   UNL     1     -11.842  16.543  72.590  1.00  0.00    -0.541 OA 
HETATM    8  C   UNL     1     -12.346  14.450  71.658  1.00  0.00    -0.415 C  
HETATM    9  C   UNL     1     -12.388  13.654  70.588  1.00  0.00    -0.440 C  
HETATM   10  C   UNL     1     -11.947  14.159  69.295  1.00  0.00    -0.382 A  
HETATM   11  C   UNL     1     -11.884  13.309  68.182  1.00  0.00    -0.388 A  
HETATM   12  C   UNL     1     -11.355  13.810  66.977  1.00  0.00    -0.345 A  
HETATM   13  C   UNL     1     -10.977  15.150  66.907  1.00  0.00    -0.323 A  
HETATM   14  O   UNL     1     -10.456  15.410  65.672  1.00  0.00    -0.319 OA 
HETATM   15  C   UNL     1     -10.495  14.257  64.960  1.00  0.00    -0.435 A  
HETATM   16  C   UNL     1     -11.058  13.250  65.706  1.00  0.00    -0.296 A  
ENDBRANCH   2   3
TORSDOF 1
ENDMDL
MODEL        7
REMARK 921   NORMALIZED FREE ENERGY PREDICTED BY IDOCK:   -5.63 KCAL/MOL
REMARK 922        TOTAL FREE ENERGY PREDICTED BY IDOCK:   -6.05 KCAL/MOL
REMARK 923 INTER-LIGAND FREE ENERGY PREDICTED BY IDOCK:   -5.97 KCAL/MOL
REMARK 924 INTRA-LIGAND FREE ENERGY PREDICTED BY IDOCK:   -0.08 KCAL/MOL
REMARK 927      BINDING AFFINITY PREDICTED BY RF-SCORE:    0.00 PKD
ROOT
HETATM    1  C   UNL     1     -12.571  12.807  65.011  1.00  0.00    -0.468 C  
HETATM    2  O   UNL     1     -11.348  12.860  65.742  1.00  0.00    -0.297 OA 
ENDROOT
BRANCH   2   3
HETATM    3  C   UNL     1     -11.488  13.317  67.038  1.00  0.00    -0.339 A  
HETATM    4  C   UNL     1     -11.221  14.670  67.302  1.00  0.00    -0.337 A  
HETATM    5  O   UNL     1     -10.811  15.482  66.216  1.00  0.00    -0.313 OA 
HETATM    6  C   UNL     1     -10.424  16.800  66.390  1.00  0.00    -0.269 C  
HETATM    7  O   UNL     1      -9.988  17.491  65.476  1.00  0.00    -0.552 OA 
HETATM    8  C   UNL     1     -10.577  17.363  67.743  1.00  0.00    -0.371 C  
HETATM    9  C   UNL     1     -11.015  16.637  68.773  1.00  0.00    -0.309 C  
HETATM   10  C   UNL     1     -11.323  15.226  68.581  1.00  0.00    -0.327 A  
HETATM   11  C   UNL     1     -11.683  14.421  69.670  1.00  0.00    -0.362 A  
HETATM   12  C   UNL     1     -11.872  13.041  69.460  1.00  0.00    -0.385 A  
HETATM   13  C   UNL     1     -11.766  12.532  68.167  1.00  0.00    -0.348 A  
HETATM   14  O   UNL     1     -11.943  11.179  68.197  1.00  0.00    -0.615 OA 
HETATM   15  C   UNL     1     -12.157  10.822  69.487  1.00  0.00    -0.272 A  
HETATM   16  C   UNL     1     -12.146  11.929  70.300  1.00  0.00    -0.409 A  
ENDBRANCH   2   3
TORSDOF 1
ENDMDL
MODEL        8
REMARK 921   NORMALIZED FREE ENERGY PREDICTED BY IDOCK:   -5.57 KCAL/MOL
REMARK 922        TOTAL FREE ENERGY PREDICTED BY IDOCK:   -5.99 KCAL/MOL
REMARK 923 INTER-LIGAND FREE ENERGY PREDICTED BY IDOCK:   -5.94 KCAL/MOL
REMARK 924 INTRA-LIGAND FREE ENERGY PREDICTED BY IDOCK:   -0.05 KCAL/MOL
REMARK 927      BINDING AFFINITY PREDICTED BY RF-SCORE:    0.00 PKD
ROOT
HETATM    1  C   UNL     1     -10.587  16.763  68.824  1.00  0.00    -0.348 C  
HETATM    2  O   UNL     1     -11.780  16.070  68.467  1.00  0.00    -0.375 OA 
ENDROOT
BRANCH   2   3
HETATM    3  C   UNL     1     -11.772  14.730  68.803  1.00  0.00    -0.323 A  
HETATM    4  C   UNL     1     -12.358  14.342  70.019  1.00  0.00    -0.346 A  
HETATM    5  O   UNL     1     -12.914  15.358  70.834  1.00  0.00    -0.437 OA 
HETATM    6  C   UNL     1     -13.419  15.093  72.094  1.00  0.00    -0.424 C  
HETATM    7  O   UNL     1     -13.827  15.972  72.845  1.00  0.00    -0.572 OA 
HETATM    8  C   UNL     1     -13.470  13.679  72.506  1.00  0.00    -0.675 C  
HETATM    9  C   UNL     1     -13.005  12.695  71.734  1.00  0.00    -0.417 C  
HETATM   10  C   UNL     1     -12.389  13.013  70.453  1.00  0.00    -0.351 A  
HETATM   11  C   UNL     1     -11.800  12.006  69.676  1.00  0.00    -0.401 A  
HETATM   12  C   UNL     1     -11.127  12.369  68.494  1.00  0.00    -0.296 A  
HETATM   13  C   UNL     1     -11.126  13.705  68.097  1.00  0.00    -0.256 A  
HETATM   14  O   UNL     1     -10.386  13.838  66.958  1.00  0.00    -0.257 OA 
HETATM   15  C   UNL     1      -9.915  12.611  66.628  1.00  0.00    -0.242 A  
HETATM   16  C   UNL     1     -10.359  11.669  67.525  1.00  0.00    -0.220 A  
ENDBRANCH   2   3
TORSDOF 1
ENDMDL
MODEL        9
REMARK 921   NORMALIZED FREE ENERGY PREDICTED BY IDOCK:   -5.57 KCAL/MOL
REMARK 922        TOTAL FREE ENERGY PREDICTED BY IDOCK:   -5.99 KCAL/MOL
REMARK 923 INTER-LIGAND FREE ENERGY PREDICTED BY IDOCK:   -5.89 KCAL/MOL
REMARK 924 INTRA-LIGAND FREE ENERGY PREDICTED BY IDOCK:   -0.10 KCAL/MOL
REMARK 927      BINDING AFFINITY PREDICTED BY RF-SCORE:    0.00 PKD
ROOT
HETATM    1  C   UNL     1     -11.532  11.684  67.563  1.00  0.00    -0.289 C  
HETATM    2  O   UNL     1     -10.868  11.955  68.795  1.00  0.00    -0.216 OA 
ENDROOT
BRANCH   2   3
HETATM    3  C   UNL     1     -11.711  12.005  69.887  1.00  0.00    -0.299 A  
HETATM    4  C   UNL     1     -12.056  13.262  70.410  1.00  0.00    -0.327 A  
HETATM    5  O   UNL     1     -11.504  14.406  69.784  1.00  0.00    -0.262 OA 
HETATM    6  C   UNL     1     -11.697  15.682  70.285  1.00  0.00    -0.357 C  
HETATM    7  O   UNL     1     -11.159  16.673  69.805  1.00  0.00    -0.295 OA 
HETATM    8  C   UNL     1     -12.612  15.812  71.432  1.00  0.00    -0.516 C  
HETATM    9  C   UNL     1     -13.191  14.756  72.007  1.00  0.00    -0.442 C  
HETATM   10  C   UNL     1     -12.893  13.416  71.519  1.00  0.00    -0.427 A  
HETATM   11  C   UNL     1     -13.407  12.289  72.174  1.00  0.00    -0.473 A  
HETATM   12  C   UNL     1     -13.013  11.011  71.733  1.00  0.00    -0.544 A  
HETATM   13  C   UNL     1     -12.182  10.905  70.619  1.00  0.00    -0.376 A  
HETATM   14  O   UNL     1     -11.892   9.590  70.395  1.00  0.00    -0.228 OA 
HETATM   15  C   UNL     1     -12.523   8.862  71.348  1.00  0.00    -0.304 A  
HETATM   16  C   UNL     1     -13.243   9.683  72.182  1.00  0.00    -0.535 A  
ENDBRANCH   2   3
TORSDOF 1
ENDMDL
MODEL       10
REMARK 921   NORMALIZED FREE ENERGY PREDICTED BY IDOCK:   -5.57 KCAL/MOL
REMARK 922        TOTAL FREE ENERGY PREDICTED BY IDOCK:   -5.99 KCAL/MOL
REMARK 923 INTER-LIGAND FREE ENERGY PREDICTED BY IDOCK:   -5.89 KCAL/MOL
REMARK 924 INTRA-LIGAND FREE ENERGY PREDICTED BY IDOCK:   -0.09 KCAL/MOL
REMARK 927      BINDING AFFINITY PREDICTED BY RF-SCORE:    0.00 PKD
ROOT
HETATM    1  C   UNL     1     -11.378  11.844  67.335  1.00  0.00    -0.324 C  
HETATM    2  O   UNL     1     -10.748  12.010  68.603  1.00  0.00    -0.223 OA 
ENDROOT
BRANCH   2   3
HETATM    3  C   UNL     1     -11.456  11.467  69.656  1.00  0.00    -0.309 A  
HETATM    4  C   UNL     1     -12.189  12.330  70.486  1.00  0.00    -0.300 A  
HETATM    5  O   UNL     1     -12.145  13.716  70.193  1.00  0.00    -0.327 OA 
HETATM    6  C   UNL     1     -12.745  14.658  71.010  1.00  0.00    -0.339 C  
HETATM    7  O   UNL     1     -12.646  15.865  70.818  1.00  0.00    -0.411 OA 
HETATM    8  C   UNL     1     -13.545  14.146  72.137  1.00  0.00    -0.568 C  
HETATM    9  C   UNL     1     -13.650  12.843  72.403  1.00  0.00    -0.577 C  
HETATM   10  C   UNL     1     -12.928  11.879  71.584  1.00  0.00    -0.447 A  
HETATM   11  C   UNL     1     -12.941  10.516  71.910  1.00  0.00    -0.553 A  
HETATM   12  C   UNL     1     -12.148   9.631  71.154  1.00  0.00    -0.448 A  
HETATM   13  C   UNL     1     -11.432  10.125  70.065  1.00  0.00    -0.277 A  
HETATM   14  O   UNL     1     -10.705   9.114  69.505  1.00  0.00    -0.228 OA 
HETATM   15  C   UNL     1     -10.945   7.990  70.223  1.00  0.00    -0.242 A  
HETATM   16  C   UNL     1     -11.841   8.246  71.233  1.00  0.00    -0.319 A  
ENDBRANCH   2   3
TORSDOF 1
ENDMDL
MODEL       11
REMARK 921   NORMALIZED FREE ENERGY PREDICTED BY IDOCK:   -5.55 KCAL/MOL
REMARK 922        TOTAL FREE ENERGY PREDICTED BY IDOCK:   -5.97 KCAL/MOL
REMARK 923 INTER-LIGAND FREE ENERGY PREDICTED BY IDOCK:   -5.89 KCAL/MOL
REMARK 924 INTRA-LIGAND FREE ENERGY PREDICTED BY IDOCK:   -0.08 KCAL/MOL
REMARK 927      BINDING AFFINITY PREDICTED BY RF-SCORE:    0.00 PKD
ROOT
HETATM    1  C   UNL     1      -9.616  17.483  68.725  1.00  0.00    -0.277 C  
HETATM    2  O   UNL     1     -10.999  17.181  68.555  1.00  0.00    -0.317 OA 
ENDROOT
BRANCH   2   3
HETATM    3  C   UNL     1     -11.357  15.924  69.001  1.00  0.00    -0.371 A  
HETATM    4  C   UNL     1     -11.446  14.882  68.065  1.00  0.00    -0.337 A  
HETATM    5  O   UNL     1     -11.172  15.192  66.710  1.00  0.00    -0.331 OA 
HETATM    6  C   UNL     1     -11.334  14.263  65.697  1.00  0.00    -0.317 C  
HETATM    7  O   UNL     1     -11.182  14.538  64.512  1.00  0.00    -0.360 OA 
HETATM    8  C   UNL     1     -11.685  12.891  66.104  1.00  0.00    -0.451 C  
HETATM    9  C   UNL     1     -11.894  12.557  67.379  1.00  0.00    -0.381 C  
HETATM   10  C   UNL     1     -11.812  13.578  68.415  1.00  0.00    -0.408 A  
HETATM   11  C   UNL     1     -12.130  13.271  69.745  1.00  0.00    -0.355 A  
HETATM   12  C   UNL     1     -12.137  14.309  70.697  1.00  0.00    -0.417 A  
HETATM   13  C   UNL     1     -11.760  15.592  70.303  1.00  0.00    -0.346 A  
HETATM   14  O   UNL     1     -11.879  16.444  71.363  1.00  0.00    -0.401 OA 
HETATM   15  C   UNL     1     -12.327  15.723  72.420  1.00  0.00    -0.456 A  
HETATM   16  C   UNL     1     -12.481  14.403  72.072  1.00  0.00    -0.368 A  
ENDBRANCH   2   3
TORSDOF 1
ENDMDL
MODEL       12
REMARK 921   NORMALIZED FREE ENERGY PREDICTED BY IDOCK:   -5.52 KCAL/MOL
REMARK 922        TOTAL FREE ENERGY PREDICTED BY IDOCK:   -5.93 KCAL/MOL
REMARK 923 INTER-LIGAND FREE ENERGY PREDICTED BY IDOCK:   -5.84 KCAL/MOL
REMARK 924 INTRA-LIGAND FREE ENERGY PREDICTED BY IDOCK:   -0.09 KCAL/MOL
REMARK 927      BINDING AFFINITY PREDICTED BY RF-SCORE:    0.00 PKD
ROOT
HETATM    1  C   UNL     1     -12.059  16.102  72.788  1.00  0.00    -0.553 C  
HETATM    2  O   UNL     1     -12.780  15.880  71.579  1.00  0.00    -0.460 OA 
ENDROOT
BRANCH   2   3
HETATM    3  C   UNL     1     -12.322  14.805  70.842  1.00  0.00    -0.319 A  
HETATM    4  C   UNL     1     -11.605  15.060  69.663  1.00  0.00    -0.304 A  
HETATM    5  O   UNL     1     -11.405  16.414  69.295  1.00  0.00    -0.300 OA 
HETATM    6  C   UNL     1     -10.804  16.769  68.101  1.00  0.00    -0.353 C  
HETATM    7  O   UNL     1     -10.699  17.933  67.729  1.00  0.00    -0.400 OA 
HETATM    8  C   UNL     1     -10.263  15.673  67.278  1.00  0.00    -0.266 C  
HETATM    9  C   UNL     1     -10.387  14.391  67.627  1.00  0.00    -0.237 C  
HETATM   10  C   UNL     1     -11.110  14.041  68.843  1.00  0.00    -0.296 A  
HETATM   11  C   UNL     1     -11.342  12.699  69.172  1.00  0.00    -0.339 A  
HETATM   12  C   UNL     1     -12.133  12.405  70.300  1.00  0.00    -0.377 A  
HETATM   13  C   UNL     1     -12.600  13.453  71.092  1.00  0.00    -0.345 A  
HETATM   14  O   UNL     1     -13.374  12.950  72.098  1.00  0.00    -0.512 OA 
HETATM   15  C   UNL     1     -13.407  11.603  71.955  1.00  0.00    -0.300 A  
HETATM   16  C   UNL     1     -12.644  11.214  70.881  1.00  0.00    -0.483 A  
ENDBRANCH   2   3
TORSDOF 1
ENDMDL
MODEL       13
REMARK 921   NORMALIZED FREE ENERGY PREDICTED BY IDOCK:   -5.52 KCAL/MOL
REMARK 922        TOTAL FREE ENERGY PREDICTED BY IDOCK:   -5.93 KCAL/MOL
REMARK 923 INTER-LIGAND FREE ENERGY PREDICTED BY IDOCK:   -5.89 KCAL/MOL
REMARK 924 INTRA-LIGAND FREE ENERGY PREDICTED BY IDOCK:   -0.04 KCAL/MOL
REMARK 927      BINDING AFFINITY PREDICTED BY RF-SCORE:    0.00 PKD
ROOT
HETATM    1  C   UNL     1     -14.381   8.536  72.187  1.00  0.00    -0.436 C  
HETATM    2  O   UNL     1     -13.088   9.015  72.551  1.00  0.00    -0.433 OA 
ENDROOT
BRANCH   2   3
HETATM    3  C   UNL     1     -12.377   9.562  71.501  1.00  0.00    -0.380 A  
HETATM    4  C   UNL     1     -12.466  10.946  71.282  1.00  0.00    -0.388 A  
HETATM    5  O   UNL     1     -13.293  11.697  72.152  1.00  0.00    -0.491 OA 
HETATM    6  C   UNL     1     -13.530  13.046  71.958  1.00  0.00    -0.492 C  
HETATM    7  O   UNL     1     -14.308  13.691  72.651  1.00  0.00    -0.703 OA 
HETATM    8  C   UNL     1     -12.780  13.702  70.873  1.00  0.00    -0.382 C  
HETATM    9  C   UNL     1     -11.950  13.030  70.073  1.00  0.00    -0.383 C  
HETATM   10  C   UNL     1     -11.794  11.591  70.239  1.00  0.00    -0.431 A  
HETATM   11  C   UNL     1     -11.010  10.851  69.344  1.00  0.00    -0.304 A  
HETATM   12  C   UNL     1     -10.968   9.450  69.478  1.00  0.00    -0.193 A  
HETATM   13  C   UNL     1     -11.648   8.850  70.536  1.00  0.00    -0.160 A  
HETATM   14  O   UNL     1     -11.510   7.495  70.453  1.00  0.00    -0.269 OA 
HETATM   15  C   UNL     1     -10.757   7.226  69.359  1.00  0.00    -0.225 A  
HETATM   16  C   UNL     1     -10.378   8.391  68.737  1.00  0.00    -0.225 A  
ENDBRANCH   2   3
TORSDOF 1
ENDMDL
MODEL       14
REMARK 921   NORMALIZED FREE ENERGY PREDICTED BY IDOCK:   -5.46 KCAL/MOL
REMARK 922        TOTAL FREE ENERGY PREDICTED BY IDOCK:   -5.88 KCAL/MOL
REMARK 923 INTER-LIGAND FREE ENERGY PREDICTED BY IDOCK:   -5.80 KCAL/MOL
REMARK 924 INTRA-LIGAND FREE ENERGY PREDICTED BY IDOCK:   -0.07 KCAL/MOL
REMARK 927      BINDING AFFINITY PREDICTED BY RF-SCORE:    0.00 PKD
ROOT
HETATM    1  C   UNL     1     -10.665  16.390  69.324  1.00  0.00    -0.325 C  
HETATM    2  O   UNL     1     -11.871  15.752  68.907  1.00  0.00    -0.393 OA 
ENDROOT
BRANCH   2   3
HETATM    3  C   UNL     1     -11.969  14.431  69.296  1.00  0.00    -0.324 A  
HETATM    4  C   UNL     1     -11.608  13.434  68.375  1.00  0.00    -0.332 A  
HETATM    5  O   UNL     1     -11.173  13.852  67.093  1.00  0.00    -0.296 OA 
HETATM    6  C   UNL     1     -10.895  12.949  66.082  1.00  0.00    -0.279 C  
HETATM    7  O   UNL     1     -10.598  13.295  64.944  1.00  0.00    -0.325 OA 
HETATM    8  C   UNL     1     -10.950  11.520  66.435  1.00  0.00    -0.336 C  
HETATM    9  C   UNL     1     -11.302  11.099  67.651  1.00  0.00    -0.356 C  
HETATM   10  C   UNL     1     -11.683  12.069  68.668  1.00  0.00    -0.380 A  
HETATM   11  C   UNL     1     -12.156  11.644  69.917  1.00  0.00    -0.373 A  
HETATM   12  C   UNL     1     -12.611  12.611  70.834  1.00  0.00    -0.338 A  
HETATM   13  C   UNL     1     -12.511  13.961  70.501  1.00  0.00    -0.352 A  
HETATM   14  O   UNL     1     -13.044  14.716  71.506  1.00  0.00    -0.313 OA 
HETATM   15  C   UNL     1     -13.482  13.868  72.468  1.00  0.00    -0.572 A  
HETATM   16  C   UNL     1     -13.221  12.566  72.116  1.00  0.00    -0.508 A  
ENDBRANCH   2   3
TORSDOF 1
ENDMDL
MODEL       15
REMARK 921   NORMALIZED FREE ENERGY PREDICTED BY IDOCK:   -5.45 KCAL/MOL
REMARK 922        TOTAL FREE ENERGY PREDICTED BY IDOCK:   -5.86 KCAL/MOL
REMARK 923 INTER-LIGAND FREE ENERGY PREDICTED BY IDOCK:   -5.84 KCAL/MOL
REMARK 924 INTRA-LIGAND FREE ENERGY PREDICTED BY IDOCK:   -0.02 KCAL/MOL
REMARK 927      BINDING AFFINITY PREDICTED BY RF-SCORE:    0.00 PKD
ROOT
HETATM    1  C   UNL     1     -11.840  11.766  63.952  1.00  0.00    -0.349 C  
HETATM    2  O   UNL     1     -12.577  12.267  65.065  1.00  0.00    -0.575 OA 
ENDROOT
BRANCH   2   3
HETATM    3  C   UNL     1     -11.789  12.646  66.134  1.00  0.00    -0.418 A  
HETATM    4  C   UNL     1     -11.331  13.972  66.190  1.00  0.00    -0.321 A  
HETATM    5  O   UNL     1     -11.702  14.840  65.133  1.00  0.00    -0.358 OA 
HETATM    6  C   UNL     1     -11.218  16.133  65.041  1.00  0.00    -0.220 C  
HETATM    7  O   UNL     1     -11.462  16.868  64.091  1.00  0.00    -1.174 OA 
HETATM    8  C   UNL     1     -10.395  16.615  66.164  1.00  0.00    -0.340 C  
HETATM    9  C   UNL     1     -10.077  15.838  67.201  1.00  0.00    -0.251 C  
HETATM   10  C   UNL     1     -10.520  14.450  67.224  1.00  0.00    -0.269 A  
HETATM   11  C   UNL     1     -10.109  13.588  68.250  1.00  0.00    -0.247 A  
HETATM   12  C   UNL     1     -10.475  12.230  68.181  1.00  0.00    -0.228 A  
HETATM   13  C   UNL     1     -11.290  11.800  67.136  1.00  0.00    -0.322 A  
HETATM   14  O   UNL     1     -11.484  10.452  67.237  1.00  0.00    -0.315 OA 
HETATM   15  C   UNL     1     -10.803  10.021  68.327  1.00  0.00    -0.241 A  
HETATM   16  C   UNL     1     -10.184  11.075  68.955  1.00  0.00    -0.217 A  
ENDBRANCH   2   3
TORSDOF 1
ENDMDL
MODEL       16
REMARK 921   NORMALIZED FREE ENERGY PREDICTED BY IDOCK:   -5.38 KCAL/MOL
REMARK 922        TOTAL FREE ENERGY PREDICTED BY IDOCK:   -5.78 KCAL/MOL
REMARK 923 INTER-LIGAND FREE ENERGY PREDICTED BY IDOCK:   -6.15 KCAL/MOL
REMARK 924 INTRA-LIGAND FREE ENERGY PREDICTED BY IDOCK:    0.36 KCAL/MOL
REMARK 927      BINDING AFFINITY PREDICTED BY RF-SCORE:    0.00 PKD
ROOT
HETATM    1  C   UNL     1     -12.177  11.182  71.304  1.00  0.00    -0.223 C  
HETATM    2  O   UNL     1     -13.184  12.181  71.448  1.00  0.00    -0.276 OA 
ENDROOT
BRANCH   2   3
HETATM    3  C   UNL     1     -12.728  13.469  71.253  1.00  0.00    -0.348 A  
HETATM    4  C   UNL     1     -12.262  13.828  69.978  1.00  0.00    -0.342 A  
HETATM    5  O   UNL     1     -12.281  12.834  68.969  1.00  0.00    -0.196 OA 
HETATM    6  C   UNL     1     -11.748  13.055  67.711  1.00  0.00    -0.359 C  
HETATM    7  O   UNL     1     -11.680  12.181  66.854  1.00  0.00    -0.483 OA 
HETATM    8  C   UNL     1     -11.270  14.419  67.423  1.00  0.00    -0.337 C  
HETATM    9  C   UNL     1     -11.294  15.391  68.337  1.00  0.00    -0.345 C  
HETATM   10  C   UNL     1     -11.770  15.103  69.683  1.00  0.00    -0.353 A  
HETATM   11  C   UNL     1     -11.704  16.080  70.686  1.00  0.00    -0.376 A  
HETATM   12  C   UNL     1     -12.080  15.731  71.997  1.00  0.00    -0.562 A  
HETATM   13  C   UNL     1     -12.570  14.450  72.244  1.00  0.00    -0.280 A  
HETATM   14  O   UNL     1     -12.830  14.313  73.577  1.00  0.00    -0.453 OA 
HETATM   15  C   UNL     1     -12.511  15.485  74.179  1.00  0.00    -0.662 A  
HETATM   16  C   UNL     1     -12.066  16.396  73.252  1.00  0.00    -0.553 A  
ENDBRANCH   2   3
TORSDOF 1
ENDMDL
MODEL       17
REMARK 921   NORMALIZED FREE ENERGY PREDICTED BY IDOCK:   -5.36 KCAL/MOL
REMARK 922        TOTAL FREE ENERGY PREDICTED BY IDOCK:   -5.77 KCAL/MOL
REMARK 923 INTER-LIGAND FREE ENERGY PREDICTED BY IDOCK:   -5.72 KCAL/MOL
REMARK 924 INTRA-LIGAND FREE ENERGY PREDICTED BY IDOCK:   -0.05 KCAL/MOL
REMARK 927      BINDING AFFINITY PREDICTED BY RF-SCORE:    0.00 PKD
ROOT
HETATM    1  C   UNL     1     -11.919  16.040  72.041  1.00  0.00    -0.537 C  
HETATM    2  O   UNL     1     -12.824  15.623  71.021  1.00  0.00    -0.467 OA 
ENDROOT
BRANCH   2   3
HETATM    3  C   UNL     1     -12.214  14.989  69.956  1.00  0.00    -0.328 A  
HETATM    4  C   UNL     1     -12.184  13.585  69.941  1.00  0.00    -0.292 A  
HETATM    5  O   UNL     1     -12.777  12.905  71.034  1.00  0.00    -0.333 OA 
HETATM    6  C   UNL     1     -12.708  11.529  71.165  1.00  0.00    -0.356 C  
HETATM    7  O   UNL     1     -13.142  10.932  72.145  1.00  0.00    -0.463 OA 
HETATM    8  C   UNL     1     -12.098  10.785  70.050  1.00  0.00    -0.423 C  
HETATM    9  C   UNL     1     -11.582  11.397  68.982  1.00  0.00    -0.383 C  
HETATM   10  C   UNL     1     -11.581  12.852  68.915  1.00  0.00    -0.360 A  
HETATM   11  C   UNL     1     -10.952  13.516  67.853  1.00  0.00    -0.275 A  
HETATM   12  C   UNL     1     -10.885  14.922  67.879  1.00  0.00    -0.276 A  
HETATM   13  C   UNL     1     -11.505  15.612  68.919  1.00  0.00    -0.361 A  
HETATM   14  O   UNL     1     -11.281  16.951  68.771  1.00  0.00    -0.228 OA 
HETATM   15  C   UNL     1     -10.528  17.120  67.658  1.00  0.00    -0.355 A  
HETATM   16  C   UNL     1     -10.275  15.910  67.059  1.00  0.00    -0.283 A  
ENDBRANCH   2   3
TORSDOF 1
ENDMDL
MODEL       18
REMARK 921   NORMALIZED FREE ENERGY PREDICTED BY IDOCK:   -5.35 KCAL/MOL
REMARK 922        TOTAL FREE ENERGY PREDICTED BY IDOCK:   -5.76 KCAL/MOL
REMARK 923 INTER-LIGAND FREE ENERGY PREDICTED BY IDOCK:   -5.71 KCAL/MOL
REMARK 924 INTRA-LIGAND FREE ENERGY PREDICTED BY IDOCK:   -0.05 KCAL/MOL
REMARK 927      BINDING AFFINITY PREDICTED BY RF-SCORE:    0.00 PKD
ROOT
HETATM    1  C   UNL     1     -10.966  10.412  69.054  1.00  0.00    -0.238 C  
HETATM    2  O   UNL     1     -12.089  11.031  68.431  1.00  0.00    -0.594 OA 
ENDROOT
BRANCH   2   3
HETATM    3  C   UNL     1     -11.891  12.360  68.112  1.00  0.00    -0.315 A  
HETATM    4  C   UNL     1     -11.471  12.680  66.811  1.00  0.00    -0.351 A  
HETATM    5  O   UNL     1     -11.265  11.610  65.906  1.00  0.00    -0.305 OA 
HETATM    6  C   UNL     1     -10.753  11.811  64.636  1.00  0.00    -0.310 C  
HETATM    7  O   UNL     1     -10.490  10.889  63.872  1.00  0.00    -0.363 OA 
HETATM    8  C   UNL     1     -10.546  13.208  64.217  1.00  0.00    -0.432 C  
HETATM    9  C   UNL     1     -10.786  14.239  65.029  1.00  0.00    -0.435 C  
HETATM   10  C   UNL     1     -11.233  13.993  66.394  1.00  0.00    -0.321 A  
HETATM   11  C   UNL     1     -11.388  15.056  67.295  1.00  0.00    -0.337 A  
HETATM   12  C   UNL     1     -11.723  14.767  68.632  1.00  0.00    -0.356 A  
HETATM   13  C   UNL     1     -11.957  13.443  69.001  1.00  0.00    -0.315 A  
HETATM   14  O   UNL     1     -12.221  13.386  70.339  1.00  0.00    -0.343 OA 
HETATM   15  C   UNL     1     -12.156  14.650  70.824  1.00  0.00    -0.320 A  
HETATM   16  C   UNL     1     -11.875  15.539  69.815  1.00  0.00    -0.376 A  
ENDBRANCH   2   3
TORSDOF 1
ENDMDL
MODEL       19
REMARK 921   NORMALIZED FREE ENERGY PREDICTED BY IDOCK:   -5.35 KCAL/MOL
REMARK 922        TOTAL FREE ENERGY PREDICTED BY IDOCK:   -5.76 KCAL/MOL
REMARK 923 INTER-LIGAND FREE ENERGY PREDICTED BY IDOCK:   -5.78 KCAL/MOL
REMARK 924 INTRA-LIGAND FREE ENERGY PREDICTED BY IDOCK:    0.02 KCAL/MOL
REMARK 927      BINDING AFFINITY PREDICTED BY RF-SCORE:    0.00 PKD
ROOT
HETATM    1  C   UNL     1     -11.468  11.369  69.742  1.00  0.00    -0.300 C  
HETATM    2  O   UNL     1     -12.181  11.121  68.532  1.00  0.00    -0.600 OA 
ENDROOT
BRANCH   2   3
HETATM    3  C   UNL     1     -11.379  10.725  67.480  1.00  0.00    -0.205 A  
HETATM    4  C   UNL     1     -11.409  11.478  66.295  1.00  0.00    -0.153 A  
HETATM    5  O   UNL     1     -12.275  12.598  66.252  1.00  0.00    -0.562 OA 
HETATM    6  C   UNL     1     -12.456  13.342  65.099  1.00  0.00    -0.470 C  
HETATM    7  O   UNL     1     -13.262  14.261  65.020  1.00  0.00    -0.638 OA 
HETATM    8  C   UNL     1     -11.609  12.993  63.944  1.00  0.00    -0.508 C  
HETATM    9  C   UNL     1     -10.744  11.978  63.976  1.00  0.00    -0.426 C  
HETATM   10  C   UNL     1     -10.644  11.151  65.171  1.00  0.00    -0.319 A  
HETATM   11  C   UNL     1      -9.820  10.018  65.188  1.00  0.00    -0.388 A  
HETATM   12  C   UNL     1      -9.830   9.189  66.326  1.00  0.00    -0.359 A  
HETATM   13  C   UNL     1     -10.603   9.557  67.425  1.00  0.00    -0.271 A  
HETATM   14  O   UNL     1     -10.501   8.599  68.392  1.00  0.00    -0.213 OA 
HETATM   15  C   UNL     1      -9.679   7.629  67.923  1.00  0.00    -0.148 A  
HETATM   16  C   UNL     1      -9.221   7.952  66.668  1.00  0.00    -0.221 A  
ENDBRANCH   2   3
TORSDOF 1
ENDMDL
MODEL       20
REMARK 921   NORMALIZED FREE ENERGY PREDICTED BY IDOCK:   -5.32 KCAL/MOL
REMARK 922        TOTAL FREE ENERGY PREDICTED BY IDOCK:   -5.73 KCAL/MOL
REMARK 923 INTER-LIGAND FREE ENERGY PREDICTED BY IDOCK:   -5.70 KCAL/MOL
REMARK 924 INTRA-LIGAND FREE ENERGY PREDICTED BY IDOCK:   -0.02 KCAL/MOL
REMARK 927      BINDING AFFINITY PREDICTED BY RF-SCORE:    0.00 PKD
ROOT
HETATM    1  C   UNL     1     -10.221  16.030  65.697  1.00  0.00    -0.386 C  
HETATM    2  O   UNL     1     -11.435  15.286  65.614  1.00  0.00    -0.260 OA 
ENDROOT
BRANCH   2   3
HETATM    3  C   UNL     1     -11.318  13.974  66.031  1.00  0.00    -0.328 A  
HETATM    4  C   UNL     1     -11.560  13.677  67.382  1.00  0.00    -0.356 A  
HETATM    5  O   UNL     1     -11.901  14.752  68.239  1.00  0.00    -0.320 OA 
HETATM    6  C   UNL     1     -12.057  14.582  69.604  1.00  0.00    -0.323 C  
HETATM    7  O   UNL     1     -12.269  15.515  70.370  1.00  0.00    -0.362 OA 
HETATM    8  C   UNL     1     -11.976  13.202  70.114  1.00  0.00    -0.381 C  
HETATM    9  C   UNL     1     -11.712  12.163  69.320  1.00  0.00    -0.386 C  
HETATM   10  C   UNL     1     -11.456  12.384  67.903  1.00  0.00    -0.385 A  
HETATM   11  C   UNL     1     -11.074  11.321  67.073  1.00  0.00    -0.356 A  
HETATM   12  C   UNL     1     -10.737  11.594  65.734  1.00  0.00    -0.331 A  
HETATM   13  C   UNL     1     -10.862  12.898  65.256  1.00  0.00    -0.292 A  
HETATM   14  O   UNL     1     -10.446  12.946  63.956  1.00  0.00    -0.415 OA 
HETATM   15  C   UNL     1     -10.058  11.696  63.604  1.00  0.00    -0.402 A  
HETATM   16  C   UNL     1     -10.237  10.823  64.650  1.00  0.00    -0.419 A  
ENDBRANCH   2   3
TORSDOF 1
ENDMDL
MODEL       21
REMARK 921   NORMALIZED FREE ENERGY PREDICTED BY IDOCK:   -5.31 KCAL/MOL
REMARK 922        TOTAL FREE ENERGY PREDICTED BY IDOCK:   -5.71 KCAL/MOL
REMARK 923 INTER-LIGAND FREE ENERGY PREDICTED BY IDOCK:   -5.68 KCAL/MOL
REMARK 924 INTRA-LIGAND FREE ENERGY PREDICTED BY IDOCK:   -0.03 KCAL/MOL
REMARK 927      BINDING AFFINITY PREDICTED BY RF-SCORE:    0.00 PKD
ROOT
HETATM    1  C   UNL     1     -10.120  20.053  66.900  1.00  0.00    -0.467 C  
HETATM    2  O   UNL     1      -9.308  19.286  66.014  1.00  0.00    -0.419 OA 
ENDROOT
BRANCH   2   3
HETATM    3  C   UNL     1      -8.922  18.062  66.524  1.00  0.00    -0.265 A  
HETATM    4  C   UNL     1      -9.553  16.906  66.038  1.00  0.00    -0.209 A  
HETATM    5  O   UNL     1     -10.560  17.072  65.055  1.00  0.00    -0.703 OA 
HETATM    6  C   UNL     1     -11.313  16.008  64.588  1.00  0.00    -0.306 C  
HETATM    7  O   UNL     1     -12.243  16.146  63.801  1.00  0.00    -0.934 OA 
HETATM    8  C   UNL     1     -10.936  14.667  65.068  1.00  0.00    -0.415 C  
HETATM    9  C   UNL     1      -9.954  14.476  65.951  1.00  0.00    -0.352 C  
HETATM   10  C   UNL     1      -9.242  15.623  66.499  1.00  0.00    -0.325 A  
HETATM   11  C   UNL     1      -8.281  15.452  67.504  1.00  0.00    -0.187 A  
HETATM   12  C   UNL     1      -7.690  16.594  68.078  1.00  0.00    -0.168 A  
HETATM   13  C   UNL     1      -8.026  17.852  67.583  1.00  0.00    -0.219 A  
HETATM   14  O   UNL     1      -7.377  18.812  68.305  1.00  0.00    -0.254 OA 
HETATM   15  C   UNL     1      -6.638  18.183  69.251  1.00  0.00    -0.234 A  
HETATM   16  C   UNL     1      -6.776  16.820  69.142  1.00  0.00    -0.223 A  
ENDBRANCH   2   3
TORSDOF 1
ENDMDL
MODEL       22
REMARK 921   NORMALIZED FREE ENERGY PREDICTED BY IDOCK:   -5.30 KCAL/MOL
REMARK 922        TOTAL FREE ENERGY PREDICTED BY IDOCK:   -5.70 KCAL/MOL
REMARK 923 INTER-LIGAND FREE ENERGY PREDICTED BY IDOCK:   -5.62 KCAL/MOL
REMARK 924 INTRA-LIGAND FREE ENERGY PREDICTED BY IDOCK:   -0.08 KCAL/MOL
REMARK 927      BINDING AFFINITY PREDICTED BY RF-SCORE:    0.00 PKD
ROOT
HETATM    1  C   UNL     1     -10.317  10.201  67.477  1.00  0.00    -0.230 C  
HETATM    2  O   UNL     1     -11.595  10.824  67.363  1.00  0.00    -0.485 OA 
ENDROOT
BRANCH   2   3
HETATM    3  C   UNL     1     -11.568  12.194  67.533  1.00  0.00    -0.343 A  
HETATM    4  C   UNL     1     -11.909  12.719  68.789  1.00  0.00    -0.307 A  
HETATM    5  O   UNL     1     -12.272  11.803  69.807  1.00  0.00    -0.269 OA 
HETATM    6  C   UNL     1     -12.725  12.223  71.045  1.00  0.00    -0.225 C  
HETATM    7  O   UNL     1     -13.121  11.446  71.907  1.00  0.00    -0.492 OA 
HETATM    8  C   UNL     1     -12.693  13.673  71.307  1.00  0.00    -0.443 C  
HETATM    9  C   UNL     1     -12.302  14.555  70.386  1.00  0.00    -0.400 C  
HETATM   10  C   UNL     1     -11.923  14.092  69.058  1.00  0.00    -0.392 A  
HETATM   11  C   UNL     1     -11.611  15.009  68.045  1.00  0.00    -0.356 A  
HETATM   12  C   UNL     1     -11.350  14.524  66.749  1.00  0.00    -0.358 A  
HETATM   13  C   UNL     1     -11.340  13.148  66.529  1.00  0.00    -0.315 A  
HETATM   14  O   UNL     1     -11.111  12.902  65.206  1.00  0.00    -0.279 OA 
HETATM   15  C   UNL     1     -10.977  14.099  64.584  1.00  0.00    -0.382 A  
HETATM   16  C   UNL     1     -11.093  15.126  65.488  1.00  0.00    -0.347 A  
ENDBRANCH   2   3
TORSDOF 1
ENDMDL
MODEL       23
REMARK 921   NORMALIZED FREE ENERGY PREDICTED BY IDOCK:   -5.28 KCAL/MOL
REMARK 922        TOTAL FREE ENERGY PREDICTED BY IDOCK:   -5.68 KCAL/MOL
REMARK 923 INTER-LIGAND FREE ENERGY PREDICTED BY IDOCK:   -5.63 KCAL/MOL
REMARK 924 INTRA-LIGAND FREE ENERGY PREDICTED BY IDOCK:   -0.05 KCAL/MOL
REMARK 927      BINDING AFFINITY PREDICTED BY RF-SCORE:    0.00 PKD
ROOT
HETATM    1  C   UNL     1     -11.153  15.490  70.758  1.00  0.00    -0.351 C  
HETATM    2  O   UNL     1     -12.015  15.899  69.699  1.00  0.00    -0.335 OA 
ENDROOT
BRANCH   2   3
HETATM    3  C   UNL     1     -11.358  16.184  68.519  1.00  0.00    -0.359 A  
HETATM    4  C   UNL     1     -11.267  15.178  67.544  1.00  0.00    -0.330 A  
HETATM    5  O   UNL     1     -11.851  13.922  67.841  1.00  0.00    -0.343 OA 
HETATM    6  C   UNL     1     -11.725  12.835  66.993  1.00  0.00    -0.374 C  
HETATM    7  O   UNL     1     -12.152  11.721  67.274  1.00  0.00    -0.595 OA 
HETATM    8  C   UNL     1     -11.061  13.075  65.700  1.00  0.00    -0.301 C  
HETATM    9  C   UNL     1     -10.551  14.263  65.370  1.00  0.00    -0.367 C  
HETATM   10  C   UNL     1     -10.612  15.364  66.323  1.00  0.00    -0.311 A  
HETATM   11  C   UNL     1      -9.991  16.588  66.038  1.00  0.00    -0.359 A  
HETATM   12  C   UNL     1      -9.985  17.591  67.026  1.00  0.00    -0.311 A  
HETATM   13  C   UNL     1     -10.656  17.363  68.227  1.00  0.00    -0.366 A  
HETATM   14  O   UNL     1     -10.487  18.439  69.051  1.00  0.00    -0.187 OA 
HETATM   15  C   UNL     1      -9.720  19.342  68.394  1.00  0.00    -0.408 A  
HETATM   16  C   UNL     1      -9.402  18.881  67.139  1.00  0.00    -0.328 A  
ENDBRANCH   2   3
TORSDOF 1
ENDMDL
MODEL       24
REMARK 921   NORMALIZED FREE ENERGY PREDICTED BY IDOCK:   -5.27 KCAL/MOL
REMARK 922        TOTAL FREE ENERGY PREDICTED BY IDOCK:   -5.67 KCAL/MOL
REMARK 923 INTER-LIGAND FREE ENERGY PREDICTED BY IDOCK:   -5.58 KCAL/MOL
REMARK 924 INTRA-LIGAND FREE ENERGY PREDICTED BY IDOCK:   -0.10 KCAL/MOL
REMARK 927      BINDING AFFINITY PREDICTED BY RF-SCORE:    0.00 PKD
ROOT
HETATM    1  C   UNL     1     -11.577  15.559  64.262  1.00  0.00    -0.194 C  
HETATM    2  O   UNL     1     -10.409  15.508  65.077  1.00  0.00    -0.378 OA 
ENDROOT
BRANCH   2   3
HETATM    3  C   UNL     1     -10.639  15.811  66.405  1.00  0.00    -0.307 A  
HETATM    4  C   UNL     1     -10.234  17.067  66.884  1.00  0.00    -0.305 A  
HETATM    5  O   UNL     1      -9.601  17.945  65.971  1.00  0.00    -0.502 OA 
HETATM    6  C   UNL     1      -9.072  19.161  66.368  1.00  0.00    -0.343 C  
HETATM    7  O   UNL     1      -8.449  19.895  65.609  1.00  0.00    -0.330 OA 
HETATM    8  C   UNL     1      -9.308  19.562  67.766  1.00  0.00    -0.405 C  
HETATM    9  C   UNL     1      -9.950  18.779  68.634  1.00  0.00    -0.444 C  
HETATM   10  C   UNL     1     -10.411  17.462  68.214  1.00  0.00    -0.385 A  
HETATM   11  C   UNL     1     -10.994  16.583  69.137  1.00  0.00    -0.303 A  
HETATM   12  C   UNL     1     -11.332  15.284  68.714  1.00  0.00    -0.318 A  
HETATM   13  C   UNL     1     -11.143  14.935  67.378  1.00  0.00    -0.325 A  
HETATM   14  O   UNL     1     -11.493  13.628  67.197  1.00  0.00    -0.311 OA 
HETATM   15  C   UNL     1     -11.898  13.142  68.395  1.00  0.00    -0.351 A  
HETATM   16  C   UNL     1     -11.840  14.123  69.356  1.00  0.00    -0.378 A  
ENDBRANCH   2   3
TORSDOF 1
ENDMDL
MODEL       25
REMARK 921   NORMALIZED FREE ENERGY PREDICTED BY IDOCK:   -5.22 KCAL/MOL
REMARK 922        TOTAL FREE ENERGY PREDICTED BY IDOCK:   -5.62 KCAL/MOL
REMARK 923 INTER-LIGAND FREE ENERGY PREDICTED BY IDOCK:   -5.58 KCAL/MOL
REMARK 924 INTRA-LIGAND FREE ENERGY PREDICTED BY IDOCK:   -0.03 KCAL/MOL
REMARK 927      BINDING AFFINITY PREDICTED BY RF-SCORE:    0.00 PKD
ROOT
HETATM    1  C   UNL     1     -12.322  13.584  65.217  1.00  0.00    -0.467 C  
HETATM    2  O   UNL     1     -11.435  13.713  66.326  1.00  0.00    -0.316 OA 
ENDROOT
BRANCH   2   3
HETATM    3  C   UNL     1     -11.431  12.620  67.170  1.00  0.00    -0.346 A  
HETATM    4  C   UNL     1     -11.845  12.800  68.499  1.00  0.00    -0.306 A  
HETATM    5  O   UNL     1     -12.234  14.103  68.895  1.00  0.00    -0.328 OA 
HETATM    6  C   UNL     1     -12.558  14.407  70.206  1.00  0.00    -0.323 C  
HETATM    7  O   UNL     1     -12.815  15.545  70.581  1.00  0.00    -0.458 OA 
HETATM    8  C   UNL     1     -12.603  13.281  71.156  1.00  0.00    -0.412 C  
HETATM    9  C   UNL     1     -12.296  12.033  70.797  1.00  0.00    -0.403 C  
HETATM   10  C   UNL     1     -11.865  11.759  69.433  1.00  0.00    -0.398 A  
HETATM   11  C   UNL     1     -11.438  10.476  69.065  1.00  0.00    -0.304 A  
HETATM   12  C   UNL     1     -10.932  10.278  67.766  1.00  0.00    -0.360 A  
HETATM   13  C   UNL     1     -10.937  11.342  66.866  1.00  0.00    -0.299 A  
HETATM   14  O   UNL     1     -10.369  10.945  65.691  1.00  0.00    -0.250 OA 
HETATM   15  C   UNL     1     -10.001   9.648  65.831  1.00  0.00    -0.281 A  
HETATM   16  C   UNL     1     -10.344   9.183  67.077  1.00  0.00    -0.333 A  
ENDBRANCH   2   3
TORSDOF 1
ENDMDL
MODEL       26
REMARK 921   NORMALIZED FREE ENERGY PREDICTED BY IDOCK:   -5.20 KCAL/MOL
REMARK 922        TOTAL FREE ENERGY PREDICTED BY IDOCK:   -5.60 KCAL/MOL
REMARK 923 INTER-LIGAND FREE ENERGY PREDICTED BY IDOCK:   -5.51 KCAL/MOL
REMARK 924 INTRA-LIGAND FREE ENERGY PREDICTED BY IDOCK:   -0.09 KCAL/MOL
REMARK 927      BINDING AFFINITY PREDICTED BY RF-SCORE:    0.00 PKD
ROOT
HETATM    1  C   UNL     1     -12.754  11.917  63.331  1.00  0.00    -0.366 C  
HETATM    2  O   UNL     1     -11.422  12.394  63.156  1.00  0.00    -0.389 OA 
ENDROOT
BRANCH   2   3
HETATM    3  C   UNL     1     -10.681  12.426  64.321  1.00  0.00    -0.357 A  
HETATM    4  C   UNL     1     -10.541  13.652  64.991  1.00  0.00    -0.383 A  
HETATM    5  O   UNL     1     -11.165  14.788  64.419  1.00  0.00    -0.292 OA 
HETATM    6  C   UNL     1     -11.001  16.058  64.943  1.00  0.00    -0.384 C  
HETATM    7  O   UNL     1     -11.465  17.061  64.413  1.00  0.00    -1.048 OA 
HETATM    8  C   UNL     1     -10.247  16.163  66.205  1.00  0.00    -0.351 C  
HETATM    9  C   UNL     1      -9.696  15.101  66.796  1.00  0.00    -0.255 C  
HETATM   10  C   UNL     1      -9.802  13.790  66.170  1.00  0.00    -0.310 A  
HETATM   11  C   UNL     1      -9.142  12.683  66.720  1.00  0.00    -0.214 A  
HETATM   12  C   UNL     1      -9.186  11.457  66.029  1.00  0.00    -0.229 A  
HETATM   13  C   UNL     1      -9.940  11.364  64.860  1.00  0.00    -0.265 A  
HETATM   14  O   UNL     1      -9.810  10.110  64.335  1.00  0.00    -0.322 OA 
HETATM   15  C   UNL     1      -8.984   9.409  65.149  1.00  0.00    -0.212 A  
HETATM   16  C   UNL     1      -8.590  10.181  66.216  1.00  0.00    -0.138 A  
ENDBRANCH   2   3
TORSDOF 1
ENDMDL
MODEL       27
REMARK 921   NORMALIZED FREE ENERGY PREDICTED BY IDOCK:   -5.19 KCAL/MOL
REMARK 922        TOTAL FREE ENERGY PREDICTED BY IDOCK:   -5.58 KCAL/MOL
REMARK 923 INTER-LIGAND FREE ENERGY PREDICTED BY IDOCK:   -5.53 KCAL/MOL
REMARK 924 INTRA-LIGAND FREE ENERGY PREDICTED BY IDOCK:   -0.05 KCAL/MOL
REMARK 927      BINDING AFFINITY PREDICTED BY RF-SCORE:    0.00 PKD
ROOT
HETATM    1  C   UNL     1     -11.680  12.816  67.795  1.00  0.00    -0.359 C  
HETATM    2  O   UNL     1     -10.979  12.679  69.029  1.00  0.00    -0.238 OA 
ENDROOT
BRANCH   2   3
HETATM    3  C   UNL     1     -11.794  12.406  70.110  1.00  0.00    -0.262 A  
HETATM    4  C   UNL     1     -11.896  11.078  70.553  1.00  0.00    -0.367 A  
HETATM    5  O   UNL     1     -11.158  10.093  69.851  1.00  0.00    -0.254 OA 
HETATM    6  C   UNL     1     -11.271   8.745  70.141  1.00  0.00    -0.152 C  
HETATM    7  O   UNL     1     -10.705   7.875  69.490  1.00  0.00    -0.236 OA 
HETATM    8  C   UNL     1     -12.102   8.384  71.304  1.00  0.00    -0.315 C  
HETATM    9  C   UNL     1     -12.763   9.296  72.019  1.00  0.00    -0.479 C  
HETATM   10  C   UNL     1     -12.703  10.699  71.630  1.00  0.00    -0.531 A  
HETATM   11  C   UNL     1     -13.473  11.658  72.303  1.00  0.00    -0.098 A  
HETATM   12  C   UNL     1     -13.465  12.984  71.831  1.00  0.00    -0.498 A  
HETATM   13  C   UNL     1     -12.641  13.318  70.758  1.00  0.00    -0.280 A  
HETATM   14  O   UNL     1     -12.820  14.633  70.441  1.00  0.00    -0.342 OA 
HETATM   15  C   UNL     1     -13.746  15.138  71.293  1.00  0.00    -0.478 A  
HETATM   16  C   UNL     1     -14.158  14.174  72.181  1.00  0.00    -0.643 A  
ENDBRANCH   2   3
TORSDOF 1
ENDMDL
MODEL       28
REMARK 921   NORMALIZED FREE ENERGY PREDICTED BY IDOCK:   -5.13 KCAL/MOL
REMARK 922        TOTAL FREE ENERGY PREDICTED BY IDOCK:   -5.53 KCAL/MOL
REMARK 923 INTER-LIGAND FREE ENERGY PREDICTED BY IDOCK:   -5.48 KCAL/MOL
REMARK 924 INTRA-LIGAND FREE ENERGY PREDICTED BY IDOCK:   -0.05 KCAL/MOL
REMARK 927      BINDING AFFINITY PREDICTED BY RF-SCORE:    0.00 PKD
ROOT
HETATM    1  C   UNL     1     -10.294  10.107  67.751  1.00  0.00    -0.210 C  
HETATM    2  O   UNL     1     -11.515  10.807  67.523  1.00  0.00    -0.475 OA 
ENDROOT
BRANCH   2   3
HETATM    3  C   UNL     1     -11.804  11.757  68.483  1.00  0.00    -0.303 A  
HETATM    4  C   UNL     1     -11.526  13.103  68.197  1.00  0.00    -0.314 A  
HETATM    5  O   UNL     1     -10.953  13.401  66.936  1.00  0.00    -0.278 OA 
HETATM    6  C   UNL     1     -10.547  14.680  66.599  1.00  0.00    -0.289 C  
HETATM    7  O   UNL     1      -9.974  14.940  65.546  1.00  0.00    -0.341 OA 
HETATM    8  C   UNL     1     -10.852  15.750  67.565  1.00  0.00    -0.315 C  
HETATM    9  C   UNL     1     -11.442  15.506  68.736  1.00  0.00    -0.363 C  
HETATM   10  C   UNL     1     -11.772  14.136  69.106  1.00  0.00    -0.368 A  
HETATM   11  C   UNL     1     -12.295  13.847  70.374  1.00  0.00    -0.433 A  
HETATM   12  C   UNL     1     -12.503  12.501  70.730  1.00  0.00    -0.357 A  
HETATM   13  C   UNL     1     -12.251  11.504  69.789  1.00  0.00    -0.244 A  
HETATM   14  O   UNL     1     -12.476  10.282  70.352  1.00  0.00    -0.276 OA 
HETATM   15  C   UNL     1     -12.865  10.486  71.635  1.00  0.00    -0.475 A  
HETATM   16  C   UNL     1     -12.920  11.831  71.911  1.00  0.00    -0.435 A  
ENDBRANCH   2   3
TORSDOF 1
ENDMDL
MODEL       29
REMARK 921   NORMALIZED FREE ENERGY PREDICTED BY IDOCK:   -5.10 KCAL/MOL
REMARK 922        TOTAL FREE ENERGY PREDICTED BY IDOCK:   -5.49 KCAL/MOL
REMARK 923 INTER-LIGAND FREE ENERGY PREDICTED BY IDOCK:   -5.44 KCAL/MOL
REMARK 924 INTRA-LIGAND FREE ENERGY PREDICTED BY IDOCK:   -0.05 KCAL/MOL
REMARK 927      BINDING AFFINITY PREDICTED BY RF-SCORE:    0.00 PKD
ROOT
HETATM    1  C   UNL     1     -12.223  15.787  71.315  1.00  0.00    -0.438 C  
HETATM    2  O   UNL     1     -10.912  15.628  70.780  1.00  0.00    -0.324 OA 
ENDROOT
BRANCH   2   3
HETATM    3  C   UNL     1     -10.890  15.230  69.458  1.00  0.00    -0.271 A  
HETATM    4  C   UNL     1     -10.661  16.201  68.470  1.00  0.00    -0.284 A  
HETATM    5  O   UNL     1     -10.475  17.539  68.896  1.00  0.00    -0.349 OA 
HETATM    6  C   UNL     1     -10.347  18.584  67.997  1.00  0.00    -0.383 C  
HETATM    7  O   UNL     1     -10.270  19.756  68.348  1.00  0.00    -0.436 OA 
HETATM    8  C   UNL     1     -10.285  18.228  66.569  1.00  0.00    -0.409 C  
HETATM    9  C   UNL     1     -10.401  16.969  66.143  1.00  0.00    -0.326 C  
HETATM   10  C   UNL     1     -10.632  15.899  67.105  1.00  0.00    -0.316 A  
HETATM   11  C   UNL     1     -10.860  14.587  66.670  1.00  0.00    -0.311 A  
HETATM   12  C   UNL     1     -11.181  13.603  67.625  1.00  0.00    -0.303 A  
HETATM   13  C   UNL     1     -11.192  13.947  68.975  1.00  0.00    -0.274 A  
HETATM   14  O   UNL     1     -11.567  12.864  69.716  1.00  0.00    -0.278 OA 
HETATM   15  C   UNL     1     -11.796  11.840  68.858  1.00  0.00    -0.320 A  
HETATM   16  C   UNL     1     -11.552  12.233  67.564  1.00  0.00    -0.422 A  
ENDBRANCH   2   3
TORSDOF 1
ENDMDL
MODEL       30
REMARK 921   NORMALIZED FREE ENERGY PREDICTED BY IDOCK:   -5.10 KCAL/MOL
REMARK 922        TOTAL FREE ENERGY PREDICTED BY IDOCK:   -5.49 KCAL/MOL
REMARK 923 INTER-LIGAND FREE ENERGY PREDICTED BY IDOCK:   -5.51 KCAL/MOL
REMARK 924 INTRA-LIGAND FREE ENERGY PREDICTED BY IDOCK:    0.02 KCAL/MOL
REMARK 927      BINDING AFFINITY PREDICTED BY RF-SCORE:    0.00 PKD
ROOT
HETATM    1  C   UNL     1     -11.242   9.477  71.417  1.00  0.00    -0.382 C  
HETATM    2  O   UNL     1     -12.313  10.303  70.966  1.00  0.00    -0.317 OA 
ENDROOT
BRANCH   2   3
HETATM    3  C   UNL     1     -11.932  11.267  70.053  1.00  0.00    -0.368 A  
HETATM    4  C   UNL     1     -12.199  12.613  70.351  1.00  0.00    -0.288 A  
HETATM    5  O   UNL     1     -12.856  12.897  71.574  1.00  0.00    -0.358 OA 
HETATM    6  C   UNL     1     -13.256  14.178  71.912  1.00  0.00    -0.387 C  
HETATM    7  O   UNL     1     -13.899  14.428  72.925  1.00  0.00    -0.589 OA 
HETATM    8  C   UNL     1     -12.856  15.261  70.997  1.00  0.00    -0.505 C  
HETATM    9  C   UNL     1     -12.187  15.029  69.866  1.00  0.00    -0.351 C  
HETATM   10  C   UNL     1     -11.863  13.660  69.488  1.00  0.00    -0.394 A  
HETATM   11  C   UNL     1     -11.255  13.387  68.255  1.00  0.00    -0.310 A  
HETATM   12  C   UNL     1     -11.052  12.044  67.883  1.00  0.00    -0.289 A  
HETATM   13  C   UNL     1     -11.397  11.033  68.778  1.00  0.00    -0.283 A  
HETATM   14  O   UNL     1     -11.159   9.818  68.203  1.00  0.00    -0.215 OA 
HETATM   15  C   UNL     1     -10.672  10.042  66.958  1.00  0.00    -0.178 A  
HETATM   16  C   UNL     1     -10.566  11.391  66.719  1.00  0.00    -0.298 A  
ENDBRANCH   2   3
TORSDOF 1
ENDMDL
MODEL       31
REMARK 921   NORMALIZED FREE ENERGY PREDICTED BY IDOCK:   -5.09 KCAL/MOL
REMARK 922        TOTAL FREE ENERGY PREDICTED BY IDOCK:   -5.48 KCAL/MOL
REMARK 923 INTER-LIGAND FREE ENERGY PREDICTED BY IDOCK:   -5.41 KCAL/MOL
REMARK 924 INTRA-LIGAND FREE ENERGY PREDICTED BY IDOCK:   -0.07 KCAL/MOL
REMARK 927      BINDING AFFINITY PREDICTED BY RF-SCORE:    0.00 PKD
ROOT
HETATM    1  C   UNL     1     -13.661   9.591  71.370  1.00  0.00    -0.283 C  
HETATM    2  O   UNL     1     -12.414  10.269  71.503  1.00  0.00    -0.376 OA 
ENDROOT
BRANCH   2   3
HETATM    3  C   UNL     1     -12.357  11.474  70.831  1.00  0.00    -0.359 A  
HETATM    4  C   UNL     1     -11.786  11.498  69.548  1.00  0.00    -0.351 A  
HETATM    5  O   UNL     1     -11.292  10.277  69.026  1.00  0.00    -0.231 OA 
HETATM    6  C   UNL     1     -10.619  10.214  67.819  1.00  0.00    -0.256 C  
HETATM    7  O   UNL     1     -10.113   9.181  67.393  1.00  0.00    -0.197 OA 
HETATM    8  C   UNL     1     -10.547  11.458  67.033  1.00  0.00    -0.286 C  
HETATM    9  C   UNL     1     -11.054  12.611  67.474  1.00  0.00    -0.313 C  
HETATM   10  C   UNL     1     -11.671  12.669  68.793  1.00  0.00    -0.364 A  
HETATM   11  C   UNL     1     -12.115  13.890  69.318  1.00  0.00    -0.383 A  
HETATM   12  C   UNL     1     -12.612  13.921  70.635  1.00  0.00    -0.405 A  
HETATM   13  C   UNL     1     -12.713  12.728  71.349  1.00  0.00    -0.255 A  
HETATM   14  O   UNL     1     -13.174  12.990  72.607  1.00  0.00    -0.393 OA 
HETATM   15  C   UNL     1     -13.364  14.329  72.703  1.00  0.00    -0.525 A  
HETATM   16  C   UNL     1     -13.055  14.945  71.514  1.00  0.00    -0.434 A  
ENDBRANCH   2   3
TORSDOF 1
ENDMDL
MODEL       32
REMARK 921   NORMALIZED FREE ENERGY PREDICTED BY IDOCK:   -5.06 KCAL/MOL
REMARK 922        TOTAL FREE ENERGY PREDICTED BY IDOCK:   -5.45 KCAL/MOL
REMARK 923 INTER-LIGAND FREE ENERGY PREDICTED BY IDOCK:   -5.47 KCAL/MOL
REMARK 924 INTRA-LIGAND FREE ENERGY PREDICTED BY IDOCK:    0.03 KCAL/MOL
REMARK 927      BINDING AFFINITY PREDICTED BY RF-SCORE:    0.00 PKD
ROOT
HETATM    1  C   UNL     1     -11.678  15.254  71.874  1.00  0.00    -0.433 C  
HETATM    2  O   UNL     1     -12.696  14.634  71.093  1.00  0.00    -0.300 OA 
ENDROOT
BRANCH   2   3
HETATM    3  C   UNL     1     -12.285  13.482  70.450  1.00  0.00    -0.356 A  
HETATM    4  C   UNL     1     -11.656  13.602  69.200  1.00  0.00    -0.309 A  
HETATM    5  O   UNL     1     -11.491  14.905  68.670  1.00  0.00    -0.277 OA 
HETATM    6  C   UNL     1     -10.980  15.124  67.403  1.00  0.00    -0.314 C  
HETATM    7  O   UNL     1     -10.908  16.238  66.898  1.00  0.00    -0.271 OA 
HETATM    8  C   UNL     1     -10.492  13.941  66.672  1.00  0.00    -0.272 C  
HETATM    9  C   UNL     1     -10.583  12.707  67.170  1.00  0.00    -0.252 C  
HETATM   10  C   UNL     1     -11.215  12.497  68.466  1.00  0.00    -0.322 A  
HETATM   11  C   UNL     1     -11.415  11.200  68.960  1.00  0.00    -0.364 A  
HETATM   12  C   UNL     1     -12.121  11.036  70.167  1.00  0.00    -0.438 A  
HETATM   13  C   UNL     1     -12.536  12.167  70.868  1.00  0.00    -0.279 A  
HETATM   14  O   UNL     1     -13.232  11.782  71.977  1.00  0.00    -0.506 OA 
HETATM   15  C   UNL     1     -13.268  10.427  71.989  1.00  0.00    -0.392 A  
HETATM   16  C   UNL     1     -12.581   9.919  70.913  1.00  0.00    -0.392 A  
ENDBRANCH   2   3
TORSDOF 1
ENDMDL
MODEL       33
REMARK 921   NORMALIZED FREE ENERGY PREDICTED BY IDOCK:   -5.05 KCAL/MOL
REMARK 922        TOTAL FREE ENERGY PREDICTED BY IDOCK:   -5.43 KCAL/MOL
REMARK 923 INTER-LIGAND FREE ENERGY PREDICTED BY IDOCK:   -5.36 KCAL/MOL
REMARK 924 INTRA-LIGAND FREE ENERGY PREDICTED BY IDOCK:   -0.07 KCAL/MOL
REMARK 927      BINDING AFFINITY PREDICTED BY RF-SCORE:    0.00 PKD
ROOT
HETATM    1  C   UNL     1     -11.481  15.263  70.641  1.00  0.00    -0.319 C  
HETATM    2  O   UNL     1     -12.130  15.735  69.462  1.00  0.00    -0.353 OA 
ENDROOT
BRANCH   2   3
HETATM    3  C   UNL     1     -11.365  15.625  68.318  1.00  0.00    -0.356 A  
HETATM    4  C   UNL     1     -10.635  16.745  67.891  1.00  0.00    -0.350 A  
HETATM    5  O   UNL     1     -10.739  17.929  68.662  1.00  0.00    -0.229 OA 
HETATM    6  C   UNL     1     -10.144  19.115  68.269  1.00  0.00    -0.416 C  
HETATM    7  O   UNL     1     -10.294  20.168  68.879  1.00  0.00    -0.382 OA 
HETATM    8  C   UNL     1      -9.287  19.063  67.072  1.00  0.00    -0.345 C  
HETATM    9  C   UNL     1      -9.125  17.947  66.359  1.00  0.00    -0.253 C  
HETATM   10  C   UNL     1      -9.841  16.737  66.740  1.00  0.00    -0.282 A  
HETATM   11  C   UNL     1      -9.767  15.586  65.945  1.00  0.00    -0.392 A  
HETATM   12  C   UNL     1     -10.554  14.471  66.293  1.00  0.00    -0.304 A  
HETATM   13  C   UNL     1     -11.326  14.522  67.452  1.00  0.00    -0.356 A  
HETATM   14  O   UNL     1     -12.036  13.362  67.575  1.00  0.00    -0.347 OA 
HETATM   15  C   UNL     1     -11.730  12.579  66.511  1.00  0.00    -0.391 A  
HETATM   16  C   UNL     1     -10.808  13.203  65.705  1.00  0.00    -0.289 A  
ENDBRANCH   2   3
TORSDOF 1
ENDMDL
MODEL       34
REMARK 921   NORMALIZED FREE ENERGY PREDICTED BY IDOCK:   -5.04 KCAL/MOL
REMARK 922        TOTAL FREE ENERGY PREDICTED BY IDOCK:   -5.43 KCAL/MOL
REMARK 923 INTER-LIGAND FREE ENERGY PREDICTED BY IDOCK:   -5.53 KCAL/MOL
REMARK 924 INTRA-LIGAND FREE ENERGY PREDICTED BY IDOCK:    0.09 KCAL/MOL
REMARK 927      BINDING AFFINITY PREDICTED BY RF-SCORE:    0.00 PKD
ROOT
HETATM    1  C   UNL     1     -14.403   8.565  71.984  1.00  0.00    -0.447 C  
HETATM    2  O   UNL     1     -13.290   9.304  72.481  1.00  0.00    -0.457 OA 
ENDROOT
BRANCH   2   3
HETATM    3  C   UNL     1     -12.738  10.174  71.561  1.00  0.00    -0.436 A  
HETATM    4  C   UNL     1     -11.858   9.657  70.596  1.00  0.00    -0.256 A  
HETATM    5  O   UNL     1     -11.583   8.267  70.636  1.00  0.00    -0.271 OA 
HETATM    6  C   UNL     1     -10.652   7.679  69.798  1.00  0.00    -0.244 C  
HETATM    7  O   UNL     1     -10.341   6.496  69.876  1.00  0.00    -0.178 OA 
HETATM    8  C   UNL     1     -10.046   8.543  68.769  1.00  0.00    -0.210 C  
HETATM    9  C   UNL     1     -10.330   9.843  68.672  1.00  0.00    -0.217 C  
HETATM   10  C   UNL     1     -11.240  10.456  69.630  1.00  0.00    -0.333 A  
HETATM   11  C   UNL     1     -11.469  11.839  69.610  1.00  0.00    -0.341 A  
HETATM   12  C   UNL     1     -12.275  12.406  70.616  1.00  0.00    -0.368 A  
HETATM   13  C   UNL     1     -12.876  11.570  71.555  1.00  0.00    -0.380 A  
HETATM   14  O   UNL     1     -13.572  12.325  72.455  1.00  0.00    -0.431 OA 
HETATM   15  C   UNL     1     -13.420  13.625  72.103  1.00  0.00    -0.512 A  
HETATM   16  C   UNL     1     -12.652  13.729  70.969  1.00  0.00    -0.446 A  
ENDBRANCH   2   3
TORSDOF 1
ENDMDL
MODEL       35
REMARK 921   NORMALIZED FREE ENERGY PREDICTED BY IDOCK:   -5.04 KCAL/MOL
REMARK 922        TOTAL FREE ENERGY PREDICTED BY IDOCK:   -5.43 KCAL/MOL
REMARK 923 INTER-LIGAND FREE ENERGY PREDICTED BY IDOCK:   -5.51 KCAL/MOL
REMARK 924 INTRA-LIGAND FREE ENERGY PREDICTED BY IDOCK:    0.08 KCAL/MOL
REMARK 927      BINDING AFFINITY PREDICTED BY RF-SCORE:    0.00 PKD
ROOT
HETATM    1  C   UNL     1     -11.415   9.578  71.467  1.00  0.00    -0.395 C  
HETATM    2  O   UNL     1     -12.600  10.115  70.883  1.00  0.00    -0.326 OA 
ENDROOT
BRANCH   2   3
HETATM    3  C   UNL     1     -12.455  11.402  70.403  1.00  0.00    -0.261 A  
HETATM    4  C   UNL     1     -11.869  11.582  69.140  1.00  0.00    -0.340 A  
HETATM    5  O   UNL     1     -11.451  10.424  68.439  1.00  0.00    -0.259 OA 
HETATM    6  C   UNL     1     -10.769  10.500  67.237  1.00  0.00    -0.277 C  
HETATM    7  O   UNL     1     -10.328   9.513  66.659  1.00  0.00    -0.243 OA 
HETATM    8  C   UNL     1     -10.606  11.842  66.650  1.00  0.00    -0.273 C  
HETATM    9  C   UNL     1     -11.040  12.946  67.262  1.00  0.00    -0.309 C  
HETATM   10  C   UNL     1     -11.668  12.844  68.573  1.00  0.00    -0.374 A  
HETATM   11  C   UNL     1     -12.035  13.998  69.278  1.00  0.00    -0.396 A  
HETATM   12  C   UNL     1     -12.544  13.861  70.583  1.00  0.00    -0.405 A  
HETATM   13  C   UNL     1     -12.733  12.583  71.106  1.00  0.00    -0.245 A  
HETATM   14  O   UNL     1     -13.191  12.682  72.389  1.00  0.00    -0.448 OA 
HETATM   15  C   UNL     1     -13.292  14.000  72.688  1.00  0.00    -0.543 A  
HETATM   16  C   UNL     1     -12.929  14.767  71.608  1.00  0.00    -0.411 A  
ENDBRANCH   2   3
TORSDOF 1
ENDMDL
MODEL       36
REMARK 921   NORMALIZED FREE ENERGY PREDICTED BY IDOCK:   -4.98 KCAL/MOL
REMARK 922        TOTAL FREE ENERGY PREDICTED BY IDOCK:   -5.37 KCAL/MOL
REMARK 923 INTER-LIGAND FREE ENERGY PREDICTED BY IDOCK:   -5.32 KCAL/MOL
REMARK 924 INTRA-LIGAND FREE ENERGY PREDICTED BY IDOCK:   -0.05 KCAL/MOL
REMARK 927      BINDING AFFINITY PREDICTED BY RF-SCORE:    0.00 PKD
ROOT
HETATM    1  C   UNL     1     -10.922  16.334  69.625  1.00  0.00    -0.346 C  
HETATM    2  O   UNL     1     -12.084  15.700  69.096  1.00  0.00    -0.344 OA 
ENDROOT
BRANCH   2   3
HETATM    3  C   UNL     1     -11.813  14.609  68.295  1.00  0.00    -0.298 A  
HETATM    4  C   UNL     1     -11.973  13.324  68.837  1.00  0.00    -0.297 A  
HETATM    5  O   UNL     1     -12.397  13.229  70.185  1.00  0.00    -0.301 OA 
HETATM    6  C   UNL     1     -12.484  12.015  70.843  1.00  0.00    -0.288 C  
HETATM    7  O   UNL     1     -12.768  11.921  72.032  1.00  0.00    -0.204 OA 
HETATM    8  C   UNL     1     -12.238  10.805  70.039  1.00  0.00    -0.409 C  
HETATM    9  C   UNL     1     -11.892  10.862  68.752  1.00  0.00    -0.305 C  
HETATM   10  C   UNL     1     -11.713  12.158  68.110  1.00  0.00    -0.402 A  
HETATM   11  C   UNL     1     -11.249  12.242  66.791  1.00  0.00    -0.371 A  
HETATM   12  C   UNL     1     -10.991  13.513  66.242  1.00  0.00    -0.293 A  
HETATM   13  C   UNL     1     -11.272  14.648  67.001  1.00  0.00    -0.344 A  
HETATM   14  O   UNL     1     -10.910  15.762  66.300  1.00  0.00    -0.306 OA 
HETATM   15  C   UNL     1     -10.403  15.352  65.112  1.00  0.00    -0.374 A  
HETATM   16  C   UNL     1     -10.450  13.982  65.016  1.00  0.00    -0.440 A  
ENDBRANCH   2   3
TORSDOF 1
ENDMDL
MODEL       37
REMARK 921   NORMALIZED FREE ENERGY PREDICTED BY IDOCK:   -4.94 KCAL/MOL
REMARK 922        TOTAL FREE ENERGY PREDICTED BY IDOCK:   -5.32 KCAL/MOL
REMARK 923 INTER-LIGAND FREE ENERGY PREDICTED BY IDOCK:   -5.23 KCAL/MOL
REMARK 924 INTRA-LIGAND FREE ENERGY PREDICTED BY IDOCK:   -0.09 KCAL/MOL
REMARK 927      BINDING AFFINITY PREDICTED BY RF-SCORE:    0.00 PKD
ROOT
HETATM    1  C   UNL     1      -8.808  10.433  64.829  1.00  0.00    -0.193 C  
HETATM    2  O   UNL     1     -10.144  10.128  65.224  1.00  0.00    -0.319 OA 
ENDROOT
BRANCH   2   3
HETATM    3  C   UNL     1     -10.750  11.122  65.966  1.00  0.00    -0.211 A  
HETATM    4  C   UNL     1     -10.913  10.922  67.346  1.00  0.00    -0.293 A  
HETATM    5  O   UNL     1     -10.452   9.699  67.891  1.00  0.00    -0.216 OA 
HETATM    6  C   UNL     1     -10.659   9.361  69.217  1.00  0.00    -0.225 C  
HETATM    7  O   UNL     1     -10.342   8.273  69.684  1.00  0.00    -0.209 OA 
HETATM    8  C   UNL     1     -11.274  10.389  70.075  1.00  0.00    -0.385 C  
HETATM    9  C   UNL     1     -11.667  11.573  69.601  1.00  0.00    -0.419 C  
HETATM   10  C   UNL     1     -11.524  11.864  68.180  1.00  0.00    -0.384 A  
HETATM   11  C   UNL     1     -12.026  13.057  67.644  1.00  0.00    -0.353 A  
HETATM   12  C   UNL     1     -11.959  13.254  66.251  1.00  0.00    -0.471 A  
HETATM   13  C   UNL     1     -11.336  12.292  65.459  1.00  0.00    -0.349 A  
HETATM   14  O   UNL     1     -11.421  12.660  64.147  1.00  0.00    -0.335 OA 
HETATM   15  C   UNL     1     -12.091  13.837  64.094  1.00  0.00    -0.433 A  
HETATM   16  C   UNL     1     -12.424  14.258  65.359  1.00  0.00    -0.434 A  
ENDBRANCH   2   3
TORSDOF 1
ENDMDL
MODEL       38
REMARK 921   NORMALIZED FREE ENERGY PREDICTED BY IDOCK:   -4.93 KCAL/MOL
REMARK 922        TOTAL FREE ENERGY PREDICTED BY IDOCK:   -5.31 KCAL/MOL
REMARK 923 INTER-LIGAND FREE ENERGY PREDICTED BY IDOCK:   -5.22 KCAL/MOL
REMARK 924 INTRA-LIGAND FREE ENERGY PREDICTED BY IDOCK:   -0.08 KCAL/MOL
REMARK 927      BINDING AFFINITY PREDICTED BY RF-SCORE:    0.00 PKD
ROOT
HETATM    1  C   UNL     1      -9.454   9.913  66.185  1.00  0.00    -0.200 C  
HETATM    2  O   UNL     1     -10.865  10.061  66.333  1.00  0.00    -0.048 OA 
ENDROOT
BRANCH   2   3
HETATM    3  C   UNL     1     -11.280  11.372  66.465  1.00  0.00    -0.209 A  
HETATM    4  C   UNL     1     -11.539  11.864  67.754  1.00  0.00    -0.323 A  
HETATM    5  O   UNL     1     -11.368  10.974  68.844  1.00  0.00    -0.232 OA 
HETATM    6  C   UNL     1     -11.697  11.329  70.140  1.00  0.00    -0.343 C  
HETATM    7  O   UNL     1     -11.634  10.545  71.080  1.00  0.00    -0.307 OA 
HETATM    8  C   UNL     1     -12.118  12.724  70.360  1.00  0.00    -0.382 C  
HETATM    9  C   UNL     1     -12.234  13.600  69.360  1.00  0.00    -0.307 C  
HETATM   10  C   UNL     1     -11.974  13.172  67.992  1.00  0.00    -0.345 A  
HETATM   11  C   UNL     1     -12.192  14.046  66.918  1.00  0.00    -0.415 A  
HETATM   12  C   UNL     1     -12.027  13.561  65.606  1.00  0.00    -0.429 A  
HETATM   13  C   UNL     1     -11.586  12.253  65.417  1.00  0.00    -0.363 A  
HETATM   14  O   UNL     1     -11.538  11.980  64.081  1.00  0.00    -0.354 OA 
HETATM   15  C   UNL     1     -11.943  13.092  63.420  1.00  0.00    -0.520 A  
HETATM   16  C   UNL     1     -12.234  14.099  64.308  1.00  0.00    -0.449 A  
ENDBRANCH   2   3
TORSDOF 1
ENDMDL
MODEL       39
REMARK 921   NORMALIZED FREE ENERGY PREDICTED BY IDOCK:   -4.92 KCAL/MOL
REMARK 922        TOTAL FREE ENERGY PREDICTED BY IDOCK:   -5.30 KCAL/MOL
REMARK 923 INTER-LIGAND FREE ENERGY PREDICTED BY IDOCK:   -5.20 KCAL/MOL
REMARK 924 INTRA-LIGAND FREE ENERGY PREDICTED BY IDOCK:   -0.09 KCAL/MOL
REMARK 927      BINDING AFFINITY PREDICTED BY RF-SCORE:    0.00 PKD
ROOT
HETATM    1  C   UNL     1     -13.336  11.682  71.919  1.00  0.00    -0.298 C  
HETATM    2  O   UNL     1     -13.267  10.656  70.932  1.00  0.00    -0.317 OA 
ENDROOT
BRANCH   2   3
HETATM    3  C   UNL     1     -11.990  10.180  70.707  1.00  0.00    -0.348 A  
HETATM    4  C   UNL     1     -11.337  10.550  69.520  1.00  0.00    -0.278 A  
HETATM    5  O   UNL     1     -12.040  11.387  68.618  1.00  0.00    -0.518 OA 
HETATM    6  C   UNL     1     -11.527  11.723  67.378  1.00  0.00    -0.305 C  
HETATM    7  O   UNL     1     -12.156  12.376  66.553  1.00  0.00    -0.599 OA 
HETATM    8  C   UNL     1     -10.155  11.273  67.083  1.00  0.00    -0.223 C  
HETATM    9  C   UNL     1      -9.448  10.532  67.937  1.00  0.00    -0.157 C  
HETATM   10  C   UNL     1     -10.050  10.111  69.196  1.00  0.00    -0.226 A  
HETATM   11  C   UNL     1      -9.364   9.246  70.059  1.00  0.00    -0.232 A  
HETATM   12  C   UNL     1     -10.020   8.782  71.215  1.00  0.00    -0.333 A  
HETATM   13  C   UNL     1     -11.301   9.251  71.502  1.00  0.00    -0.385 A  
HETATM   14  O   UNL     1     -11.763   8.646  72.635  1.00  0.00    -0.325 OA 
HETATM   15  C   UNL     1     -10.797   7.799  73.069  1.00  0.00    -0.389 A  
HETATM   16  C   UNL     1      -9.698   7.860  72.247  1.00  0.00    -0.269 A  
ENDBRANCH   2   3
TORSDOF 1
ENDMDL
MODEL       40
REMARK 921   NORMALIZED FREE ENERGY PREDICTED BY IDOCK:   -4.89 KCAL/MOL
REMARK 922        TOTAL FREE ENERGY PREDICTED BY IDOCK:   -5.27 KCAL/MOL
REMARK 923 INTER-LIGAND FREE ENERGY PREDICTED BY IDOCK:   -5.18 KCAL/MOL
REMARK 924 INTRA-LIGAND FREE ENERGY PREDICTED BY IDOCK:   -0.10 KCAL/MOL
REMARK 927      BINDING AFFINITY PREDICTED BY RF-SCORE:    0.00 PKD
ROOT
HETATM    1  C   UNL     1      -8.904  11.285  68.191  1.00  0.00    -0.159 C  
HETATM    2  O   UNL     1     -10.312  11.367  67.983  1.00  0.00    -0.176 OA 
ENDROOT
BRANCH   2   3
HETATM    3  C   UNL     1     -10.950  12.266  68.814  1.00  0.00    -0.236 A  
HETATM    4  C   UNL     1     -11.667  11.769  69.914  1.00  0.00    -0.323 A  
HETATM    5  O   UNL     1     -11.698  10.364  70.096  1.00  0.00    -0.270 OA 
HETATM    6  C   UNL     1     -12.460   9.769  71.086  1.00  0.00    -0.350 C  
HETATM    7  O   UNL     1     -12.564   8.554  71.205  1.00  0.00    -0.259 OA 
HETATM    8  C   UNL     1     -13.144  10.671  72.029  1.00  0.00    -0.501 C  
HETATM    9  C   UNL     1     -13.086  12.000  71.915  1.00  0.00    -0.475 C  
HETATM   10  C   UNL     1     -12.355  12.597  70.806  1.00  0.00    -0.372 A  
HETATM   11  C   UNL     1     -12.370  13.984  70.608  1.00  0.00    -0.446 A  
HETATM   12  C   UNL     1     -11.736  14.513  69.466  1.00  0.00    -0.361 A  
HETATM   13  C   UNL     1     -11.057  13.650  68.608  1.00  0.00    -0.272 A  
HETATM   14  O   UNL     1     -10.559  14.360  67.554  1.00  0.00    -0.261 OA 
HETATM   15  C   UNL     1     -10.913  15.656  67.728  1.00  0.00    -0.316 A  
HETATM   16  C   UNL     1     -11.618  15.809  68.898  1.00  0.00    -0.400 A  
ENDBRANCH   2   3
TORSDOF 1
ENDMDL
MODEL       41
REMARK 921   NORMALIZED FREE ENERGY PREDICTED BY IDOCK:   -4.89 KCAL/MOL
REMARK 922        TOTAL FREE ENERGY PREDICTED BY IDOCK:   -5.26 KCAL/MOL
REMARK 923 INTER-LIGAND FREE ENERGY PREDICTED BY IDOCK:   -5.24 KCAL/MOL
REMARK 924 INTRA-LIGAND FREE ENERGY PREDICTED BY IDOCK:   -0.02 KCAL/MOL
REMARK 927      BINDING AFFINITY PREDICTED BY RF-SCORE:    0.00 PKD
ROOT
HETATM    1  C   UNL     1      -8.014  15.101  69.492  1.00  0.00    -0.175 C  
HETATM    2  O   UNL     1      -9.412  15.106  69.212  1.00  0.00    -0.220 OA 
ENDROOT
BRANCH   2   3
HETATM    3  C   UNL     1      -9.723  15.470  67.917  1.00  0.00    -0.211 A  
HETATM    4  C   UNL     1      -9.948  16.827  67.638  1.00  0.00    -0.262 A  
HETATM    5  O   UNL     1      -9.851  17.743  68.715  1.00  0.00    -0.332 OA 
HETATM    6  C   UNL     1     -10.156  19.084  68.568  1.00  0.00    -0.400 C  
HETATM    7  O   UNL     1     -10.158  19.873  69.507  1.00  0.00    -0.315 OA 
HETATM    8  C   UNL     1     -10.467  19.548  67.204  1.00  0.00    -0.592 C  
HETATM    9  C   UNL     1     -10.510  18.718  66.161  1.00  0.00    -0.499 C  
HETATM   10  C   UNL     1     -10.279  17.294  66.363  1.00  0.00    -0.333 A  
HETATM   11  C   UNL     1     -10.423  16.391  65.300  1.00  0.00    -0.285 A  
HETATM   12  C   UNL     1     -10.292  15.013  65.559  1.00  0.00    -0.397 A  
HETATM   13  C   UNL     1      -9.955  14.594  66.845  1.00  0.00    -0.253 A  
HETATM   14  O   UNL     1      -9.923  13.230  66.883  1.00  0.00    -0.240 OA 
HETATM   15  C   UNL     1     -10.237  12.778  65.645  1.00  0.00    -0.279 A  
HETATM   16  C   UNL     1     -10.451  13.831  64.788  1.00  0.00    -0.448 A  
ENDBRANCH   2   3
TORSDOF 1
ENDMDL
MODEL       42
REMARK 921   NORMALIZED FREE ENERGY PREDICTED BY IDOCK:   -4.88 KCAL/MOL
REMARK 922        TOTAL FREE ENERGY PREDICTED BY IDOCK:   -5.26 KCAL/MOL
REMARK 923 INTER-LIGAND FREE ENERGY PREDICTED BY IDOCK:   -5.29 KCAL/MOL
REMARK 924 INTRA-LIGAND FREE ENERGY PREDICTED BY IDOCK:    0.04 KCAL/MOL
REMARK 927      BINDING AFFINITY PREDICTED BY RF-SCORE:    0.00 PKD
ROOT
HETATM    1  C   UNL     1      -9.910  16.628  66.683  1.00  0.00    -0.274 C  
HETATM    2  O   UNL     1     -10.850  15.660  66.223  1.00  0.00    -0.315 OA 
ENDROOT
BRANCH   2   3
HETATM    3  C   UNL     1     -11.053  14.615  67.103  1.00  0.00    -0.326 A  
HETATM    4  C   UNL     1     -10.855  13.303  66.641  1.00  0.00    -0.281 A  
HETATM    5  O   UNL     1     -10.467  13.135  65.289  1.00  0.00    -0.291 OA 
HETATM    6  C   UNL     1     -10.348  11.884  64.709  1.00  0.00    -0.281 C  
HETATM    7  O   UNL     1     -10.095  11.723  63.521  1.00  0.00    -0.365 OA 
HETATM    8  C   UNL     1     -10.522  10.722  65.598  1.00  0.00    -0.255 C  
HETATM    9  C   UNL     1     -10.832  10.852  66.889  1.00  0.00    -0.307 C  
HETATM   10  C   UNL     1     -11.047  12.179  67.450  1.00  0.00    -0.330 A  
HETATM   11  C   UNL     1     -11.475  12.332  68.775  1.00  0.00    -0.360 A  
HETATM   12  C   UNL     1     -11.769  13.626  69.247  1.00  0.00    -0.376 A  
HETATM   13  C   UNL     1     -11.558  14.718  68.408  1.00  0.00    -0.324 A  
HETATM   14  O   UNL     1     -11.945  15.861  69.045  1.00  0.00    -0.378 OA 
HETATM   15  C   UNL     1     -12.400  15.512  70.273  1.00  0.00    -0.396 A  
HETATM   16  C   UNL     1     -12.294  14.155  70.457  1.00  0.00    -0.434 A  
ENDBRANCH   2   3
TORSDOF 1
ENDMDL
MODEL       43
REMARK 921   NORMALIZED FREE ENERGY PREDICTED BY IDOCK:   -4.87 KCAL/MOL
REMARK 922        TOTAL FREE ENERGY PREDICTED BY IDOCK:   -5.24 KCAL/MOL
REMARK 923 INTER-LIGAND FREE ENERGY PREDICTED BY IDOCK:   -5.21 KCAL/MOL
REMARK 924 INTRA-LIGAND FREE ENERGY PREDICTED BY IDOCK:   -0.04 KCAL/MOL
REMARK 927      BINDING AFFINITY PREDICTED BY RF-SCORE:    0.00 PKD
ROOT
HETATM    1  C   UNL     1     -10.058  13.029  68.411  1.00  0.00    -0.225 C  
HETATM    2  O   UNL     1     -11.305  13.641  68.093  1.00  0.00    -0.258 OA 
ENDROOT
BRANCH   2   3
HETATM    3  C   UNL     1     -11.339  14.225  66.842  1.00  0.00    -0.343 A  
HETATM    4  C   UNL     1     -11.000  15.583  66.728  1.00  0.00    -0.257 A  
HETATM    5  O   UNL     1     -10.651  16.274  67.915  1.00  0.00    -0.298 OA 
HETATM    6  C   UNL     1     -10.403  17.635  67.925  1.00  0.00    -0.371 C  
HETATM    7  O   UNL     1     -10.182  18.263  68.955  1.00  0.00    -0.386 OA 
HETATM    8  C   UNL     1     -10.393  18.318  66.620  1.00  0.00    -0.400 C  
HETATM    9  C   UNL     1     -10.662  17.680  65.479  1.00  0.00    -0.037 C  
HETATM   10  C   UNL     1     -11.015  16.267  65.509  1.00  0.00    -0.154 A  
HETATM   11  C   UNL     1     -11.403  15.605  64.336  1.00  0.00    -0.272 A  
HETATM   12  C   UNL     1     -11.836  14.268  64.425  1.00  0.00    -0.444 A  
HETATM   13  C   UNL     1     -11.797  13.624  65.660  1.00  0.00    -0.364 A  
HETATM   14  O   UNL     1     -12.296  12.360  65.527  1.00  0.00    -0.621 OA 
HETATM   15  C   UNL     1     -12.652  12.193  64.230  1.00  0.00    -0.331 A  
HETATM   16  C   UNL     1     -12.370  13.326  63.505  1.00  0.00    -0.442 A  
ENDBRANCH   2   3
TORSDOF 1
ENDMDL
MODEL       44
REMARK 921   NORMALIZED FREE ENERGY PREDICTED BY IDOCK:   -4.85 KCAL/MOL
REMARK 922        TOTAL FREE ENERGY PREDICTED BY IDOCK:   -5.22 KCAL/MOL
REMARK 923 INTER-LIGAND FREE ENERGY PREDICTED BY IDOCK:   -5.17 KCAL/MOL
REMARK 924 INTRA-LIGAND FREE ENERGY PREDICTED BY IDOCK:   -0.05 KCAL/MOL
REMARK 927      BINDING AFFINITY PREDICTED BY RF-SCORE:    0.00 PKD
ROOT
HETATM    1  C   UNL     1     -11.233  14.930  69.827  1.00  0.00    -0.280 C  
HETATM    2  O   UNL     1     -12.234  14.104  69.235  1.00  0.00    -0.332 OA 
ENDROOT
BRANCH   2   3
HETATM    3  C   UNL     1     -11.770  13.316  68.201  1.00  0.00    -0.362 A  
HETATM    4  C   UNL     1     -11.484  11.966  68.464  1.00  0.00    -0.295 A  
HETATM    5  O   UNL     1     -11.682  11.500  69.787  1.00  0.00    -0.300 OA 
HETATM    6  C   UNL     1     -11.332  10.218  70.174  1.00  0.00    -0.316 C  
HETATM    7  O   UNL     1     -11.419   9.826  71.332  1.00  0.00    -0.371 OA 
HETATM    8  C   UNL     1     -10.858   9.311  69.113  1.00  0.00    -0.154 C  
HETATM    9  C   UNL     1     -10.716   9.708  67.847  1.00  0.00    -0.302 C  
HETATM   10  C   UNL     1     -11.000  11.091  67.488  1.00  0.00    -0.338 A  
HETATM   11  C   UNL     1     -10.756  11.553  66.188  1.00  0.00    -0.324 A  
HETATM   12  C   UNL     1     -10.947  12.920  65.908  1.00  0.00    -0.300 A  
HETATM   13  C   UNL     1     -11.437  13.755  66.911  1.00  0.00    -0.347 A  
HETATM   14  O   UNL     1     -11.504  15.035  66.442  1.00  0.00    -0.321 OA 
HETATM   15  C   UNL     1     -11.062  15.026  65.160  1.00  0.00    -0.401 A  
HETATM   16  C   UNL     1     -10.728  13.750  64.776  1.00  0.00    -0.429 A  
ENDBRANCH   2   3
TORSDOF 1
ENDMDL
MODEL       45
REMARK 921   NORMALIZED FREE ENERGY PREDICTED BY IDOCK:   -4.82 KCAL/MOL
REMARK 922        TOTAL FREE ENERGY PREDICTED BY IDOCK:   -5.20 KCAL/MOL
REMARK 923 INTER-LIGAND FREE ENERGY PREDICTED BY IDOCK:   -5.15 KCAL/MOL
REMARK 924 INTRA-LIGAND FREE ENERGY PREDICTED BY IDOCK:   -0.05 KCAL/MOL
REMARK 927      BINDING AFFINITY PREDICTED BY RF-SCORE:    0.00 PKD
ROOT
HETATM    1  C   UNL     1      -9.449   9.339  68.078  1.00  0.00    -0.137 C  
HETATM    2  O   UNL     1     -10.723   9.503  67.461  1.00  0.00    -0.282 OA 
ENDROOT
BRANCH   2   3
HETATM    3  C   UNL     1     -11.072  10.820  67.237  1.00  0.00    -0.270 A  
HETATM    4  C   UNL     1     -10.898  11.348  65.947  1.00  0.00    -0.234 A  
HETATM    5  O   UNL     1     -10.363  10.491  64.954  1.00  0.00    -0.328 OA 
HETATM    6  C   UNL     1     -10.056  10.943  63.683  1.00  0.00    -0.355 C  
HETATM    7  O   UNL     1      -9.515  10.237  62.839  1.00  0.00    -0.302 OA 
HETATM    8  C   UNL     1     -10.430  12.332  63.364  1.00  0.00    -0.408 C  
HETATM    9  C   UNL     1     -10.988  13.145  64.263  1.00  0.00    -0.428 C  
HETATM   10  C   UNL     1     -11.210  12.672  65.623  1.00  0.00    -0.344 A  
HETATM   11  C   UNL     1     -11.697  13.541  66.609  1.00  0.00    -0.425 A  
HETATM   12  C   UNL     1     -11.801  13.073  67.933  1.00  0.00    -0.389 A  
HETATM   13  C   UNL     1     -11.485  11.744  68.209  1.00  0.00    -0.307 A  
HETATM   14  O   UNL     1     -11.613  11.517  69.549  1.00  0.00    -0.278 OA 
HETATM   15  C   UNL     1     -12.003  12.679  70.127  1.00  0.00    -0.299 A  
HETATM   16  C   UNL     1     -12.154  13.661  69.177  1.00  0.00    -0.361 A  
ENDBRANCH   2   3
TORSDOF 1
ENDMDL
MODEL       46
REMARK 921   NORMALIZED FREE ENERGY PREDICTED BY IDOCK:   -4.79 KCAL/MOL
REMARK 922        TOTAL FREE ENERGY PREDICTED BY IDOCK:   -5.16 KCAL/MOL
REMARK 923 INTER-LIGAND FREE ENERGY PREDICTED BY IDOCK:   -5.16 KCAL/MOL
REMARK 924 INTRA-LIGAND FREE ENERGY PREDICTED BY IDOCK:    0.00 KCAL/MOL
REMARK 927      BINDING AFFINITY PREDICTED BY RF-SCORE:    0.00 PKD
ROOT
HETATM    1  C   UNL     1     -10.827  11.681  67.517  1.00  0.00    -0.237 C  
HETATM    2  O   UNL     1     -12.039  12.432  67.556  1.00  0.00    -0.491 OA 
ENDROOT
BRANCH   2   3
HETATM    3  C   UNL     1     -12.026  13.471  68.465  1.00  0.00    -0.344 A  
HETATM    4  C   UNL     1     -11.530  14.717  68.050  1.00  0.00    -0.331 A  
HETATM    5  O   UNL     1     -11.062  14.827  66.717  1.00  0.00    -0.324 OA 
HETATM    6  C   UNL     1     -10.459  15.979  66.243  1.00  0.00    -0.320 C  
HETATM    7  O   UNL     1      -9.974  16.062  65.121  1.00  0.00    -0.443 OA 
HETATM    8  C   UNL     1     -10.438  17.139  67.152  1.00  0.00    -0.291 C  
HETATM    9  C   UNL     1     -10.923  17.081  68.393  1.00  0.00    -0.263 C  
HETATM   10  C   UNL     1     -11.464  15.826  68.899  1.00  0.00    -0.381 A  
HETATM   11  C   UNL     1     -11.881  15.716  70.232  1.00  0.00    -0.386 A  
HETATM   12  C   UNL     1     -12.301  14.460  70.709  1.00  0.00    -0.417 A  
HETATM   13  C   UNL     1     -12.357  13.384  69.826  1.00  0.00    -0.159 A  
HETATM   14  O   UNL     1     -12.746  12.263  70.501  1.00  0.00    -0.125 OA 
HETATM   15  C   UNL     1     -12.935  12.610  71.797  1.00  0.00    -0.313 A  
HETATM   16  C   UNL     1     -12.698  13.952  71.975  1.00  0.00    -0.338 A  
ENDBRANCH   2   3
TORSDOF 1
ENDMDL
MODEL       47
REMARK 921   NORMALIZED FREE ENERGY PREDICTED BY IDOCK:   -4.76 KCAL/MOL
REMARK 922        TOTAL FREE ENERGY PREDICTED BY IDOCK:   -5.13 KCAL/MOL
REMARK 923 INTER-LIGAND FREE ENERGY PREDICTED BY IDOCK:   -5.09 KCAL/MOL
REMARK 924 INTRA-LIGAND FREE ENERGY PREDICTED BY IDOCK:   -0.04 KCAL/MOL
REMARK 927      BINDING AFFINITY PREDICTED BY RF-SCORE:    0.00 PKD
ROOT
HETATM    1  C   UNL     1     -10.764  18.781  66.562  1.00  0.00    -0.268 C  
HETATM    2  O   UNL     1      -9.860  18.057  65.731  1.00  0.00    -0.539 OA 
ENDROOT
BRANCH   2   3
HETATM    3  C   UNL     1      -9.365  16.905  66.311  1.00  0.00    -0.262 A  
HETATM    4  C   UNL     1      -9.878  15.669  65.888  1.00  0.00    -0.350 A  
HETATM    5  O   UNL     1     -10.886  15.682  64.893  1.00  0.00    -0.426 OA 
HETATM    6  C   UNL     1     -11.529  14.527  64.484  1.00  0.00    -0.343 C  
HETATM    7  O   UNL     1     -12.460  14.532  63.686  1.00  0.00    -0.782 OA 
HETATM    8  C   UNL     1     -11.030  13.257  65.040  1.00  0.00    -0.328 C  
HETATM    9  C   UNL     1     -10.043  13.210  65.936  1.00  0.00    -0.292 C  
HETATM   10  C   UNL     1      -9.450  14.449  66.422  1.00  0.00    -0.309 A  
HETATM   11  C   UNL     1      -8.487  14.427  67.439  1.00  0.00    -0.216 A  
HETATM   12  C   UNL     1      -8.013  15.651  67.951  1.00  0.00    -0.151 A  
HETATM   13  C   UNL     1      -8.463  16.842  67.384  1.00  0.00    -0.189 A  
HETATM   14  O   UNL     1      -7.916  17.898  68.054  1.00  0.00    -0.236 OA 
HETATM   15  C   UNL     1      -7.129  17.396  69.037  1.00  0.00    -0.233 A  
HETATM   16  C   UNL     1      -7.136  16.022  69.004  1.00  0.00    -0.171 A  
ENDBRANCH   2   3
TORSDOF 1
ENDMDL
MODEL       48
REMARK 921   NORMALIZED FREE ENERGY PREDICTED BY IDOCK:   -4.73 KCAL/MOL
REMARK 922        TOTAL FREE ENERGY PREDICTED BY IDOCK:   -5.10 KCAL/MOL
REMARK 923 INTER-LIGAND FREE ENERGY PREDICTED BY IDOCK:   -5.06 KCAL/MOL
REMARK 924 INTRA-LIGAND FREE ENERGY PREDICTED BY IDOCK:   -0.04 KCAL/MOL
REMARK 927      BINDING AFFINITY PREDICTED BY RF-SCORE:    0.00 PKD
ROOT
HETATM    1  C   UNL     1      -7.766  15.565  69.232  1.00  0.00    -0.223 C  
HETATM    2  O   UNL     1      -9.191  15.620  69.219  1.00  0.00    -0.237 OA 
ENDROOT
BRANCH   2   3
HETATM    3  C   UNL     1      -9.717  16.251  68.109  1.00  0.00    -0.227 A  
HETATM    4  C   UNL     1     -10.064  15.469  66.996  1.00  0.00    -0.254 A  
HETATM    5  O   UNL     1      -9.839  14.072  67.079  1.00  0.00    -0.248 OA 
HETATM    6  C   UNL     1     -10.049  13.229  66.002  1.00  0.00    -0.299 C  
HETATM    7  O   UNL     1      -9.780  12.034  66.032  1.00  0.00    -0.232 OA 
HETATM    8  C   UNL     1     -10.639  13.831  64.794  1.00  0.00    -0.444 C  
HETATM    9  C   UNL     1     -10.914  15.134  64.707  1.00  0.00    -0.394 C  
HETATM   10  C   UNL     1     -10.592  16.015  65.822  1.00  0.00    -0.366 A  
HETATM   11  C   UNL     1     -10.775  17.400  65.712  1.00  0.00    -0.120 A  
HETATM   12  C   UNL     1     -10.357  18.225  66.773  1.00  0.00    -0.403 A  
HETATM   13  C   UNL     1      -9.842  17.636  67.927  1.00  0.00    -0.300 A  
HETATM   14  O   UNL     1      -9.462  18.612  68.802  1.00  0.00    -0.340 OA 
HETATM   15  C   UNL     1      -9.727  19.809  68.223  1.00  0.00    -0.395 A  
HETATM   16  C   UNL     1     -10.297  19.628  66.986  1.00  0.00    -0.581 A  
ENDBRANCH   2   3
TORSDOF 1
ENDMDL
MODEL       49
REMARK 921   NORMALIZED FREE ENERGY PREDICTED BY IDOCK:   -4.69 KCAL/MOL
REMARK 922        TOTAL FREE ENERGY PREDICTED BY IDOCK:   -5.06 KCAL/MOL
REMARK 923 INTER-LIGAND FREE ENERGY PREDICTED BY IDOCK:   -4.96 KCAL/MOL
REMARK 924 INTRA-LIGAND FREE ENERGY PREDICTED BY IDOCK:   -0.10 KCAL/MOL
REMARK 927      BINDING AFFINITY PREDICTED BY RF-SCORE:    0.00 PKD
ROOT
HETATM    1  C   UNL     1     -10.593   9.045  67.503  1.00  0.00    -0.237 C  
HETATM    2  O   UNL     1     -10.056   9.546  68.725  1.00  0.00    -0.175 OA 
ENDROOT
BRANCH   2   3
HETATM    3  C   UNL     1     -10.877   9.354  69.819  1.00  0.00    -0.232 A  
HETATM    4  C   UNL     1     -11.598  10.451  70.316  1.00  0.00    -0.327 A  
HETATM    5  O   UNL     1     -11.427  11.698  69.664  1.00  0.00    -0.277 OA 
HETATM    6  C   UNL     1     -12.010  12.860  70.138  1.00  0.00    -0.301 C  
HETATM    7  O   UNL     1     -11.805  13.959  69.636  1.00  0.00    -0.286 OA 
HETATM    8  C   UNL     1     -12.924  12.723  71.286  1.00  0.00    -0.310 C  
HETATM    9  C   UNL     1     -13.148  11.552  71.884  1.00  0.00    -0.492 C  
HETATM   10  C   UNL     1     -12.446  10.361  71.424  1.00  0.00    -0.521 A  
HETATM   11  C   UNL     1     -12.586   9.144  72.104  1.00  0.00    -0.451 A  
HETATM   12  C   UNL     1     -11.811   8.043  71.690  1.00  0.00    -0.329 A  
HETATM   13  C   UNL     1     -10.985   8.177  70.576  1.00  0.00    -0.243 A  
HETATM   14  O   UNL     1     -10.299   7.014  70.378  1.00  0.00    -0.199 OA 
HETATM   15  C   UNL     1     -10.675   6.146  71.349  1.00  0.00    -0.255 A  
HETATM   16  C   UNL     1     -11.618   6.719  72.167  1.00  0.00    -0.324 A  
ENDBRANCH   2   3
TORSDOF 1
ENDMDL
MODEL       50
REMARK 921   NORMALIZED FREE ENERGY PREDICTED BY IDOCK:   -4.67 KCAL/MOL
REMARK 922        TOTAL FREE ENERGY PREDICTED BY IDOCK:   -5.03 KCAL/MOL
REMARK 923 INTER-LIGAND FREE ENERGY PREDICTED BY IDOCK:   -4.99 KCAL/MOL
REMARK 924 INTRA-LIGAND FREE ENERGY PREDICTED BY IDOCK:   -0.04 KCAL/MOL
REMARK 927      BINDING AFFINITY PREDICTED BY RF-SCORE:    0.00 PKD
ROOT
HETATM    1  C   UNL     1      -8.962   9.527  66.190  1.00  0.00    -0.158 C  
HETATM    2  O   UNL     1     -10.378   9.682  66.247  1.00  0.00    -0.239 OA 
ENDROOT
BRANCH   2   3
HETATM    3  C   UNL     1     -10.821  10.383  67.352  1.00  0.00    -0.286 A  
HETATM    4  C   UNL     1     -11.211  11.721  67.182  1.00  0.00    -0.316 A  
HETATM    5  O   UNL     1     -11.114  12.274  65.881  1.00  0.00    -0.296 OA 
HETATM    6  C   UNL     1     -11.373  13.609  65.630  1.00  0.00    -0.299 C  
HETATM    7  O   UNL     1     -11.213  14.122  64.528  1.00  0.00    -0.373 OA 
HETATM    8  C   UNL     1     -11.880  14.411  66.758  1.00  0.00    -0.431 C  
HETATM    9  C   UNL     1     -12.035  13.902  67.981  1.00  0.00    -0.390 C  
HETATM   10  C   UNL     1     -11.662  12.518  68.240  1.00  0.00    -0.390 A  
HETATM   11  C   UNL     1     -11.718  11.995  69.539  1.00  0.00    -0.408 A  
HETATM   12  C   UNL     1     -11.252  10.685  69.763  1.00  0.00    -0.363 A  
HETATM   13  C   UNL     1     -10.817   9.926  68.678  1.00  0.00    -0.209 A  
HETATM   14  O   UNL     1     -10.373   8.714  69.123  1.00  0.00    -0.211 OA 
HETATM   15  C   UNL     1     -10.516   8.694  70.470  1.00  0.00    -0.206 A  
HETATM   16  C   UNL     1     -11.072   9.870  70.912  1.00  0.00    -0.418 A  
ENDBRANCH   2   3
TORSDOF 1
ENDMDL
MODEL       51
REMARK 921   NORMALIZED FREE ENERGY PREDICTED BY IDOCK:   -4.65 KCAL/MOL
REMARK 922        TOTAL FREE ENERGY PREDICTED BY IDOCK:   -5.01 KCAL/MOL
REMARK 923 INTER-LIGAND FREE ENERGY PREDICTED BY IDOCK:   -4.93 KCAL/MOL
REMARK 924 INTRA-LIGAND FREE ENERGY PREDICTED BY IDOCK:   -0.08 KCAL/MOL
REMARK 927      BINDING AFFINITY PREDICTED BY RF-SCORE:    0.00 PKD
ROOT
HETATM    1  C   UNL     1     -10.581   9.017  67.649  1.00  0.00    -0.231 C  
HETATM    2  O   UNL     1     -10.088   9.711  68.792  1.00  0.00    -0.167 OA 
ENDROOT
BRANCH   2   3
HETATM    3  C   UNL     1     -11.057  10.002  69.732  1.00  0.00    -0.274 A  
HETATM    4  C   UNL     1     -11.445  11.341  69.899  1.00  0.00    -0.293 A  
HETATM    5  O   UNL     1     -10.805  12.316  69.094  1.00  0.00    -0.194 OA 
HETATM    6  C   UNL     1     -11.040  13.670  69.255  1.00  0.00    -0.193 C  
HETATM    7  O   UNL     1     -10.434  14.529  68.625  1.00  0.00    -0.234 OA 
HETATM    8  C   UNL     1     -12.085  14.052  70.221  1.00  0.00    -0.425 C  
HETATM    9  C   UNL     1     -12.744  13.152  70.952  1.00  0.00    -0.313 C  
HETATM   10  C   UNL     1     -12.408  11.739  70.832  1.00  0.00    -0.420 A  
HETATM   11  C   UNL     1     -13.013  10.789  71.666  1.00  0.00    -0.581 A  
HETATM   12  C   UNL     1     -12.586   9.450  71.588  1.00  0.00    -0.460 A  
HETATM   13  C   UNL     1     -11.628   9.098  70.639  1.00  0.00    -0.235 A  
HETATM   14  O   UNL     1     -11.331   7.771  70.766  1.00  0.00    -0.276 OA 
HETATM   15  C   UNL     1     -12.083   7.278  71.780  1.00  0.00    -0.319 A  
HETATM   16  C   UNL     1     -12.887   8.261  72.305  1.00  0.00    -0.313 A  
ENDBRANCH   2   3
TORSDOF 1
ENDMDL
MODEL       52
REMARK 921   NORMALIZED FREE ENERGY PREDICTED BY IDOCK:   -4.64 KCAL/MOL
REMARK 922        TOTAL FREE ENERGY PREDICTED BY IDOCK:   -5.00 KCAL/MOL
REMARK 923 INTER-LIGAND FREE ENERGY PREDICTED BY IDOCK:   -4.91 KCAL/MOL
REMARK 924 INTRA-LIGAND FREE ENERGY PREDICTED BY IDOCK:   -0.09 KCAL/MOL
REMARK 927      BINDING AFFINITY PREDICTED BY RF-SCORE:    0.00 PKD
ROOT
HETATM    1  C   UNL     1      -8.987   9.588  65.667  1.00  0.00    -0.183 C  
HETATM    2  O   UNL     1     -10.369   9.496  66.007  1.00  0.00    -0.220 OA 
ENDROOT
BRANCH   2   3
HETATM    3  C   UNL     1     -10.783  10.439  66.927  1.00  0.00    -0.207 A  
HETATM    4  C   UNL     1     -10.896  10.056  68.273  1.00  0.00    -0.241 A  
HETATM    5  O   UNL     1     -10.584   8.714  68.602  1.00  0.00    -0.204 OA 
HETATM    6  C   UNL     1     -10.762   8.210  69.878  1.00  0.00    -0.241 C  
HETATM    7  O   UNL     1     -10.577   7.031  70.160  1.00  0.00    -0.215 OA 
HETATM    8  C   UNL     1     -11.174   9.169  70.918  1.00  0.00    -0.359 C  
HETATM    9  C   UNL     1     -11.420  10.452  70.648  1.00  0.00    -0.438 C  
HETATM   10  C   UNL     1     -11.318  10.933  69.277  1.00  0.00    -0.345 A  
HETATM   11  C   UNL     1     -11.673  12.250  68.955  1.00  0.00    -0.380 A  
HETATM   12  C   UNL     1     -11.658  12.645  67.603  1.00  0.00    -0.414 A  
HETATM   13  C   UNL     1     -11.224  11.739  66.637  1.00  0.00    -0.323 A  
HETATM   14  O   UNL     1     -11.330  12.309  65.402  1.00  0.00    -0.321 OA 
HETATM   15  C   UNL     1     -11.826  13.559  65.568  1.00  0.00    -0.363 A  
HETATM   16  C   UNL     1     -12.024  13.824  66.901  1.00  0.00    -0.460 A  
ENDBRANCH   2   3
TORSDOF 1
ENDMDL
MODEL       53
REMARK 921   NORMALIZED FREE ENERGY PREDICTED BY IDOCK:   -4.60 KCAL/MOL
REMARK 922        TOTAL FREE ENERGY PREDICTED BY IDOCK:   -4.97 KCAL/MOL
REMARK 923 INTER-LIGAND FREE ENERGY PREDICTED BY IDOCK:   -4.92 KCAL/MOL
REMARK 924 INTRA-LIGAND FREE ENERGY PREDICTED BY IDOCK:   -0.05 KCAL/MOL
REMARK 927      BINDING AFFINITY PREDICTED BY RF-SCORE:    0.00 PKD
ROOT
HETATM    1  C   UNL     1     -11.882  11.071  70.466  1.00  0.00    -0.367 C  
HETATM    2  O   UNL     1     -12.494  11.124  69.179  1.00  0.00    -0.418 OA 
ENDROOT
BRANCH   2   3
HETATM    3  C   UNL     1     -11.784  11.861  68.251  1.00  0.00    -0.321 A  
HETATM    4  C   UNL     1     -11.023  11.174  67.293  1.00  0.00    -0.296 A  
HETATM    5  O   UNL     1     -11.023   9.758  67.346  1.00  0.00    -0.259 OA 
HETATM    6  C   UNL     1     -10.224   8.992  66.515  1.00  0.00    -0.248 C  
HETATM    7  O   UNL     1     -10.150   7.771  66.605  1.00  0.00    -0.253 OA 
HETATM    8  C   UNL     1      -9.463   9.711  65.479  1.00  0.00    -0.330 C  
HETATM    9  C   UNL     1      -9.488  11.040  65.369  1.00  0.00    -0.257 C  
HETATM   10  C   UNL     1     -10.261  11.828  66.320  1.00  0.00    -0.255 A  
HETATM   11  C   UNL     1     -10.217  13.229  66.287  1.00  0.00    -0.296 A  
HETATM   12  C   UNL     1     -10.897  13.951  67.286  1.00  0.00    -0.292 A  
HETATM   13  C   UNL     1     -11.649  13.257  68.232  1.00  0.00    -0.334 A  
HETATM   14  O   UNL     1     -12.183  14.142  69.124  1.00  0.00    -0.335 OA 
HETATM   15  C   UNL     1     -11.782  15.384  68.760  1.00  0.00    -0.351 A  
HETATM   16  C   UNL     1     -11.009  15.326  67.625  1.00  0.00    -0.311 A  
ENDBRANCH   2   3
TORSDOF 1
ENDMDL
MODEL       54
REMARK 921   NORMALIZED FREE ENERGY PREDICTED BY IDOCK:   -4.60 KCAL/MOL
REMARK 922        TOTAL FREE ENERGY PREDICTED BY IDOCK:   -4.96 KCAL/MOL
REMARK 923 INTER-LIGAND FREE ENERGY PREDICTED BY IDOCK:   -4.89 KCAL/MOL
REMARK 924 INTRA-LIGAND FREE ENERGY PREDICTED BY IDOCK:   -0.07 KCAL/MOL
REMARK 927      BINDING AFFINITY PREDICTED BY RF-SCORE:    0.00 PKD
ROOT
HETATM    1  C   UNL     1      -8.887   8.218  68.038  1.00  0.00    -0.135 C  
HETATM    2  O   UNL     1     -10.308   8.317  68.098  1.00  0.00    -0.204 OA 
ENDROOT
BRANCH   2   3
HETATM    3  C   UNL     1     -10.778   9.614  68.147  1.00  0.00    -0.217 A  
HETATM    4  C   UNL     1     -11.393  10.058  69.329  1.00  0.00    -0.117 A  
HETATM    5  O   UNL     1     -11.503   9.136  70.398  1.00  0.00    -0.259 OA 
HETATM    6  C   UNL     1     -12.183   9.441  71.564  1.00  0.00    -0.369 C  
HETATM    7  O   UNL     1     -12.359   8.627  72.464  1.00  0.00    -0.390 OA 
HETATM    8  C   UNL     1     -12.685  10.820  71.698  1.00  0.00    -0.520 C  
HETATM    9  C   UNL     1     -12.546  11.727  70.729  1.00  0.00    -0.344 C  
HETATM   10  C   UNL     1     -11.911  11.349  69.473  1.00  0.00    -0.426 A  
HETATM   11  C   UNL     1     -11.849  12.254  68.405  1.00  0.00    -0.358 A  
HETATM   12  C   UNL     1     -11.319  11.817  67.176  1.00  0.00    -0.387 A  
HETATM   13  C   UNL     1     -10.809  10.524  67.080  1.00  0.00    -0.259 A  
HETATM   14  O   UNL     1     -10.389  10.297  65.801  1.00  0.00    -0.239 OA 
HETATM   15  C   UNL     1     -10.627  11.423  65.085  1.00  0.00    -0.293 A  
HETATM   16  C   UNL     1     -11.177  12.395  65.886  1.00  0.00    -0.373 A  
ENDBRANCH   2   3
TORSDOF 1
ENDMDL
MODEL       55
REMARK 921   NORMALIZED FREE ENERGY PREDICTED BY IDOCK:   -4.56 KCAL/MOL
REMARK 922        TOTAL FREE ENERGY PREDICTED BY IDOCK:   -4.91 KCAL/MOL
REMARK 923 INTER-LIGAND FREE ENERGY PREDICTED BY IDOCK:   -4.87 KCAL/MOL
REMARK 924 INTRA-LIGAND FREE ENERGY PREDICTED BY IDOCK:   -0.04 KCAL/MOL
REMARK 927      BINDING AFFINITY PREDICTED BY RF-SCORE:    0.00 PKD
ROOT
HETATM    1  C   UNL     1     -11.336  13.604  68.352  1.00  0.00    -0.295 C  
HETATM    2  O   UNL     1     -12.154  12.540  67.872  1.00  0.00    -0.384 OA 
ENDROOT
BRANCH   2   3
HETATM    3  C   UNL     1     -11.446  11.506  67.292  1.00  0.00    -0.263 A  
HETATM    4  C   UNL     1     -11.079  10.414  68.095  1.00  0.00    -0.285 A  
HETATM    5  O   UNL     1     -11.453  10.448  69.461  1.00  0.00    -0.246 OA 
HETATM    6  C   UNL     1     -11.051   9.474  70.357  1.00  0.00    -0.277 C  
HETATM    7  O   UNL     1     -11.294   9.532  71.557  1.00  0.00    -0.372 OA 
HETATM    8  C   UNL     1     -10.317   8.323  69.801  1.00  0.00    -0.216 C  
HETATM    9  C   UNL     1     -10.000   8.237  68.508  1.00  0.00    -0.206 C  
HETATM   10  C   UNL     1     -10.352   9.324  67.605  1.00  0.00    -0.311 A  
HETATM   11  C   UNL     1      -9.937   9.302  66.266  1.00  0.00    -0.357 A  
HETATM   12  C   UNL     1     -10.210  10.419  65.454  1.00  0.00    -0.329 A  
HETATM   13  C   UNL     1     -10.943  11.479  65.983  1.00  0.00    -0.259 A  
HETATM   14  O   UNL     1     -11.054  12.466  65.046  1.00  0.00    -0.288 OA 
HETATM   15  C   UNL     1     -10.401  12.050  63.933  1.00  0.00    -0.402 A  
HETATM   16  C   UNL     1      -9.884  10.791  64.122  1.00  0.00    -0.384 A  
ENDBRANCH   2   3
TORSDOF 1
ENDMDL
MODEL       56
REMARK 921   NORMALIZED FREE ENERGY PREDICTED BY IDOCK:   -4.55 KCAL/MOL
REMARK 922        TOTAL FREE ENERGY PREDICTED BY IDOCK:   -4.91 KCAL/MOL
REMARK 923 INTER-LIGAND FREE ENERGY PREDICTED BY IDOCK:   -4.82 KCAL/MOL
REMARK 924 INTRA-LIGAND FREE ENERGY PREDICTED BY IDOCK:   -0.09 KCAL/MOL
REMARK 927      BINDING AFFINITY PREDICTED BY RF-SCORE:    0.00 PKD
ROOT
HETATM    1  C   UNL     1      -9.134  11.656  68.216  1.00  0.00    -0.187 C  
HETATM    2  O   UNL     1      -9.991  12.778  68.417  1.00  0.00    -0.226 OA 
ENDROOT
BRANCH   2   3
HETATM    3  C   UNL     1     -10.116  13.593  67.309  1.00  0.00    -0.239 A  
HETATM    4  C   UNL     1      -9.363  14.778  67.263  1.00  0.00    -0.206 A  
HETATM    5  O   UNL     1      -8.526  15.067  68.369  1.00  0.00    -0.142 OA 
HETATM    6  C   UNL     1      -7.826  16.257  68.467  1.00  0.00    -0.192 C  
HETATM    7  O   UNL     1      -7.164  16.559  69.454  1.00  0.00    -0.231 OA 
HETATM    8  C   UNL     1      -7.889  17.162  67.307  1.00  0.00    -0.200 C  
HETATM    9  C   UNL     1      -8.624  16.889  66.228  1.00  0.00    -0.319 C  
HETATM   10  C   UNL     1      -9.429  15.674  66.192  1.00  0.00    -0.376 A  
HETATM   11  C   UNL     1     -10.288  15.420  65.115  1.00  0.00    -0.405 A  
HETATM   12  C   UNL     1     -11.124  14.288  65.167  1.00  0.00    -0.354 A  
HETATM   13  C   UNL     1     -11.020  13.419  66.251  1.00  0.00    -0.288 A  
HETATM   14  O   UNL     1     -11.943  12.421  66.122  1.00  0.00    -0.549 OA 
HETATM   15  C   UNL     1     -12.631  12.645  64.975  1.00  0.00    -0.430 A  
HETATM   16  C   UNL     1     -12.153  13.765  64.339  1.00  0.00    -0.474 A  
ENDBRANCH   2   3
TORSDOF 1
ENDMDL
MODEL       57
REMARK 921   NORMALIZED FREE ENERGY PREDICTED BY IDOCK:   -4.53 KCAL/MOL
REMARK 922        TOTAL FREE ENERGY PREDICTED BY IDOCK:   -4.89 KCAL/MOL
REMARK 923 INTER-LIGAND FREE ENERGY PREDICTED BY IDOCK:   -4.85 KCAL/MOL
REMARK 924 INTRA-LIGAND FREE ENERGY PREDICTED BY IDOCK:   -0.03 KCAL/MOL
REMARK 927      BINDING AFFINITY PREDICTED BY RF-SCORE:    0.00 PKD
ROOT
HETATM    1  C   UNL     1      -8.458  14.680  67.304  1.00  0.00    -0.215 C  
HETATM    2  O   UNL     1      -9.501  13.757  67.610  1.00  0.00    -0.204 OA 
ENDROOT
BRANCH   2   3
HETATM    3  C   UNL     1      -9.566  12.679  66.750  1.00  0.00    -0.241 A  
HETATM    4  C   UNL     1     -10.394  12.773  65.620  1.00  0.00    -0.279 A  
HETATM    5  O   UNL     1     -11.124  13.974  65.440  1.00  0.00    -0.303 OA 
HETATM    6  C   UNL     1     -12.045  14.127  64.419  1.00  0.00    -0.463 C  
HETATM    7  O   UNL     1     -12.745  15.127  64.299  1.00  0.00    -0.606 OA 
HETATM    8  C   UNL     1     -12.145  13.027  63.445  1.00  0.00    -0.591 C  
HETATM    9  C   UNL     1     -11.428  11.907  63.558  1.00  0.00    -0.523 C  
HETATM   10  C   UNL     1     -10.537  11.733  64.697  1.00  0.00    -0.359 A  
HETATM   11  C   UNL     1      -9.855  10.524  64.890  1.00  0.00    -0.379 A  
HETATM   12  C   UNL     1      -9.085  10.360  66.057  1.00  0.00    -0.187 A  
HETATM   13  C   UNL     1      -8.966  11.426  66.947  1.00  0.00    -0.171 A  
HETATM   14  O   UNL     1      -8.217  11.039  68.021  1.00  0.00    -0.115 OA 
HETATM   15  C   UNL     1      -7.861   9.745  67.828  1.00  0.00    -0.094 A  
HETATM   16  C   UNL     1      -8.349   9.287  66.628  1.00  0.00    -0.122 A  
ENDBRANCH   2   3
TORSDOF 1
ENDMDL
MODEL       58
REMARK 921   NORMALIZED FREE ENERGY PREDICTED BY IDOCK:   -4.53 KCAL/MOL
REMARK 922        TOTAL FREE ENERGY PREDICTED BY IDOCK:   -4.88 KCAL/MOL
REMARK 923 INTER-LIGAND FREE ENERGY PREDICTED BY IDOCK:   -4.85 KCAL/MOL
REMARK 924 INTRA-LIGAND FREE ENERGY PREDICTED BY IDOCK:   -0.03 KCAL/MOL
REMARK 927      BINDING AFFINITY PREDICTED BY RF-SCORE:    0.00 PKD
ROOT
HETATM    1  C   UNL     1      -6.089  15.978  67.651  1.00  0.00    -0.156 C  
HETATM    2  O   UNL     1      -6.710  16.531  66.492  1.00  0.00    -0.227 OA 
ENDROOT
BRANCH   2   3
HETATM    3  C   UNL     1      -8.078  16.681  66.608  1.00  0.00    -0.274 A  
HETATM    4  C   UNL     1      -8.596  17.972  66.799  1.00  0.00    -0.255 A  
HETATM    5  O   UNL     1      -7.673  19.045  66.874  1.00  0.00    -0.233 OA 
HETATM    6  C   UNL     1      -8.073  20.337  67.165  1.00  0.00    -0.335 C  
HETATM    7  O   UNL     1      -7.280  21.260  67.315  1.00  0.00    -0.508 OA 
HETATM    8  C   UNL     1      -9.523  20.576  67.270  1.00  0.00    -0.559 C  
HETATM    9  C   UNL     1     -10.418  19.594  67.148  1.00  0.00    -0.595 C  
HETATM   10  C   UNL     1      -9.964  18.226  66.939  1.00  0.00    -0.356 A  
HETATM   11  C   UNL     1     -10.881  17.167  66.913  1.00  0.00    -0.005 A  
HETATM   12  C   UNL     1     -10.393  15.850  66.811  1.00  0.00    -0.298 A  
HETATM   13  C   UNL     1      -9.022  15.645  66.668  1.00  0.00    -0.284 A  
HETATM   14  O   UNL     1      -8.766  14.304  66.631  1.00  0.00    -0.184 OA 
HETATM   15  C   UNL     1      -9.951  13.657  66.750  1.00  0.00    -0.270 A  
HETATM   16  C   UNL     1     -10.984  14.559  66.842  1.00  0.00    -0.316 A  
ENDBRANCH   2   3
TORSDOF 1
ENDMDL
MODEL       59
REMARK 921   NORMALIZED FREE ENERGY PREDICTED BY IDOCK:   -4.51 KCAL/MOL
REMARK 922        TOTAL FREE ENERGY PREDICTED BY IDOCK:   -4.86 KCAL/MOL
REMARK 923 INTER-LIGAND FREE ENERGY PREDICTED BY IDOCK:   -4.82 KCAL/MOL
REMARK 924 INTRA-LIGAND FREE ENERGY PREDICTED BY IDOCK:   -0.05 KCAL/MOL
REMARK 927      BINDING AFFINITY PREDICTED BY RF-SCORE:    0.00 PKD
ROOT
HETATM    1  C   UNL     1     -12.622   9.218  71.479  1.00  0.00    -0.352 C  
HETATM    2  O   UNL     1     -11.388   9.863  71.173  1.00  0.00    -0.357 OA 
ENDROOT
BRANCH   2   3
HETATM    3  C   UNL     1     -11.356  10.448  69.922  1.00  0.00    -0.302 A  
HETATM    4  C   UNL     1     -10.846   9.702  68.848  1.00  0.00    -0.174 A  
HETATM    5  O   UNL     1     -10.382   8.392  69.120  1.00  0.00    -0.215 OA 
HETATM    6  C   UNL     1      -9.766   7.616  68.154  1.00  0.00    -0.153 C  
HETATM    7  O   UNL     1      -9.284   6.514  68.394  1.00  0.00    -0.124 OA 
HETATM    8  C   UNL     1      -9.725   8.165  66.788  1.00  0.00    -0.303 C  
HETATM    9  C   UNL     1     -10.205   9.374  66.491  1.00  0.00    -0.308 C  
HETATM   10  C   UNL     1     -10.761  10.209  67.547  1.00  0.00    -0.347 A  
HETATM   11  C   UNL     1     -11.174  11.520  67.276  1.00  0.00    -0.365 A  
HETATM   12  C   UNL     1     -11.609  12.328  68.344  1.00  0.00    -0.377 A  
HETATM   13  C   UNL     1     -11.683  11.779  69.623  1.00  0.00    -0.344 A  
HETATM   14  O   UNL     1     -12.084  12.740  70.506  1.00  0.00    -0.367 OA 
HETATM   15  C   UNL     1     -12.263  13.888  69.809  1.00  0.00    -0.332 A  
HETATM   16  C   UNL     1     -12.007  13.686  68.474  1.00  0.00    -0.396 A  
ENDBRANCH   2   3
TORSDOF 1
ENDMDL
MODEL       60
REMARK 921   NORMALIZED FREE ENERGY PREDICTED BY IDOCK:   -4.51 KCAL/MOL
REMARK 922        TOTAL FREE ENERGY PREDICTED BY IDOCK:   -4.86 KCAL/MOL
REMARK 923 INTER-LIGAND FREE ENERGY PREDICTED BY IDOCK:   -4.85 KCAL/MOL
REMARK 924 INTRA-LIGAND FREE ENERGY PREDICTED BY IDOCK:   -0.02 KCAL/MOL
REMARK 927      BINDING AFFINITY PREDICTED BY RF-SCORE:    0.00 PKD
ROOT
HETATM    1  C   UNL     1     -11.164  11.766  68.673  1.00  0.00    -0.257 C  
HETATM    2  O   UNL     1     -11.693  10.926  67.649  1.00  0.00    -0.566 OA 
ENDROOT
BRANCH   2   3
HETATM    3  C   UNL     1     -11.309  11.289  66.373  1.00  0.00    -0.014 A  
HETATM    4  C   UNL     1     -10.377  10.482  65.700  1.00  0.00    -0.204 A  
HETATM    5  O   UNL     1      -9.878   9.346  66.384  1.00  0.00    -0.226 OA 
HETATM    6  C   UNL     1      -8.881   8.548  65.851  1.00  0.00    -0.182 C  
HETATM    7  O   UNL     1      -8.380   7.612  66.464  1.00  0.00    -0.119 OA 
HETATM    8  C   UNL     1      -8.444   8.859  64.479  1.00  0.00    -0.178 C  
HETATM    9  C   UNL     1      -8.938   9.889  63.790  1.00  0.00    -0.279 C  
HETATM   10  C   UNL     1      -9.917  10.771  64.412  1.00  0.00    -0.400 A  
HETATM   11  C   UNL     1     -10.369  11.917  63.745  1.00  0.00    -0.451 A  
HETATM   12  C   UNL     1     -11.236  12.797  64.421  1.00  0.00    -0.390 A  
HETATM   13  C   UNL     1     -11.673  12.466  65.702  1.00  0.00    -0.414 A  
HETATM   14  O   UNL     1     -12.465  13.468  66.184  1.00  0.00    -0.417 OA 
HETATM   15  C   UNL     1     -12.534  14.430  65.231  1.00  0.00    -0.356 A  
HETATM   16  C   UNL     1     -11.816  14.058  64.120  1.00  0.00    -0.393 A  
ENDBRANCH   2   3
TORSDOF 1
ENDMDL
MODEL       61
REMARK 921   NORMALIZED FREE ENERGY PREDICTED BY IDOCK:   -4.47 KCAL/MOL
REMARK 922        TOTAL FREE ENERGY PREDICTED BY IDOCK:   -4.82 KCAL/MOL
REMARK 923 INTER-LIGAND FREE ENERGY PREDICTED BY IDOCK:   -4.79 KCAL/MOL
REMARK 924 INTRA-LIGAND FREE ENERGY PREDICTED BY IDOCK:   -0.02 KCAL/MOL
REMARK 927      BINDING AFFINITY PREDICTED BY RF-SCORE:    0.00 PKD
ROOT
HETATM    1  C   UNL     1      -8.710  10.105  64.847  1.00  0.00    -0.181 C  
HETATM    2  O   UNL     1     -10.097   9.953  65.140  1.00  0.00    -0.309 OA 
ENDROOT
BRANCH   2   3
HETATM    3  C   UNL     1     -10.512  10.645  66.261  1.00  0.00    -0.203 A  
HETATM    4  C   UNL     1     -11.280  11.807  66.083  1.00  0.00    -0.306 A  
HETATM    5  O   UNL     1     -11.573  12.203  64.754  1.00  0.00    -0.331 OA 
HETATM    6  C   UNL     1     -12.231  13.387  64.469  1.00  0.00    -0.398 C  
HETATM    7  O   UNL     1     -12.418  13.785  63.325  1.00  0.00    -0.819 OA 
HETATM    8  C   UNL     1     -12.730  14.162  65.619  1.00  0.00    -0.469 C  
HETATM    9  C   UNL     1     -12.519  13.783  66.880  1.00  0.00    -0.196 C  
HETATM   10  C   UNL     1     -11.738  12.583  67.152  1.00  0.00    -0.425 A  
HETATM   11  C   UNL     1     -11.415  12.226  68.468  1.00  0.00    -0.349 A  
HETATM   12  C   UNL     1     -10.574  11.118  68.682  1.00  0.00    -0.222 A  
HETATM   13  C   UNL     1     -10.146  10.369  67.587  1.00  0.00    -0.188 A  
HETATM   14  O   UNL     1      -9.312   9.377  68.014  1.00  0.00    -0.130 OA 
HETATM   15  C   UNL     1      -9.202   9.484  69.360  1.00  0.00    -0.176 A  
HETATM   16  C   UNL     1      -9.974  10.523  69.824  1.00  0.00    -0.090 A  
ENDBRANCH   2   3
TORSDOF 1
ENDMDL
MODEL       62
REMARK 921   NORMALIZED FREE ENERGY PREDICTED BY IDOCK:   -4.45 KCAL/MOL
REMARK 922        TOTAL FREE ENERGY PREDICTED BY IDOCK:   -4.80 KCAL/MOL
REMARK 923 INTER-LIGAND FREE ENERGY PREDICTED BY IDOCK:   -4.71 KCAL/MOL
REMARK 924 INTRA-LIGAND FREE ENERGY PREDICTED BY IDOCK:   -0.09 KCAL/MOL
REMARK 927      BINDING AFFINITY PREDICTED BY RF-SCORE:    0.00 PKD
ROOT
HETATM    1  C   UNL     1     -10.860  19.679  66.490  1.00  0.00    -0.347 C  
HETATM    2  O   UNL     1     -10.320  18.481  65.936  1.00  0.00    -0.543 OA 
ENDROOT
BRANCH   2   3
HETATM    3  C   UNL     1      -9.521  17.771  66.810  1.00  0.00    -0.285 A  
HETATM    4  C   UNL     1      -8.133  17.771  66.597  1.00  0.00    -0.258 A  
HETATM    5  O   UNL     1      -7.639  18.496  65.485  1.00  0.00    -0.499 OA 
HETATM    6  C   UNL     1      -6.303  18.474  65.128  1.00  0.00    -0.168 C  
HETATM    7  O   UNL     1      -5.873  19.027  64.122  1.00  0.00    -0.365 OA 
HETATM    8  C   UNL     1      -5.386  17.760  66.034  1.00  0.00    -0.237 C  
HETATM    9  C   UNL     1      -5.816  17.115  67.120  1.00  0.00    -0.192 C  
HETATM   10  C   UNL     1      -7.241  17.074  67.418  1.00  0.00    -0.181 A  
HETATM   11  C   UNL     1      -7.723  16.315  68.494  1.00  0.00    -0.189 A  
HETATM   12  C   UNL     1      -9.114  16.219  68.686  1.00  0.00    -0.228 A  
HETATM   13  C   UNL     1      -9.965  16.936  67.846  1.00  0.00    -0.274 A  
HETATM   14  O   UNL     1     -11.262  16.667  68.179  1.00  0.00    -0.339 OA 
HETATM   15  C   UNL     1     -11.246  15.791  69.213  1.00  0.00    -0.324 A  
HETATM   16  C   UNL     1      -9.954  15.500  69.577  1.00  0.00    -0.280 A  
ENDBRANCH   2   3
TORSDOF 1
ENDMDL
MODEL       63
REMARK 921   NORMALIZED FREE ENERGY PREDICTED BY IDOCK:   -4.45 KCAL/MOL
REMARK 922        TOTAL FREE ENERGY PREDICTED BY IDOCK:   -4.80 KCAL/MOL
REMARK 923 INTER-LIGAND FREE ENERGY PREDICTED BY IDOCK:   -4.81 KCAL/MOL
REMARK 924 INTRA-LIGAND FREE ENERGY PREDICTED BY IDOCK:    0.01 KCAL/MOL
REMARK 927      BINDING AFFINITY PREDICTED BY RF-SCORE:    0.00 PKD
ROOT
HETATM    1  C   UNL     1     -10.751  19.573  66.345  1.00  0.00    -0.427 C  
HETATM    2  O   UNL     1     -10.654  19.423  67.759  1.00  0.00    -0.429 OA 
ENDROOT
BRANCH   2   3
HETATM    3  C   UNL     1      -9.834  18.385  68.157  1.00  0.00    -0.342 A  
HETATM    4  C   UNL     1      -8.459  18.633  68.295  1.00  0.00    -0.324 A  
HETATM    5  O   UNL     1      -7.996  19.939  68.003  1.00  0.00    -0.299 OA 
HETATM    6  C   UNL     1      -6.649  20.258  68.006  1.00  0.00    -0.292 C  
HETATM    7  O   UNL     1      -6.226  21.360  67.676  1.00  0.00    -0.416 OA 
HETATM    8  C   UNL     1      -5.719  19.206  68.451  1.00  0.00    -0.217 C  
HETATM    9  C   UNL     1      -6.134  17.983  68.786  1.00  0.00    -0.202 C  
HETATM   10  C   UNL     1      -7.547  17.646  68.680  1.00  0.00    -0.276 A  
HETATM   11  C   UNL     1      -7.988  16.339  68.926  1.00  0.00    -0.230 A  
HETATM   12  C   UNL     1      -9.346  16.031  68.713  1.00  0.00    -0.222 A  
HETATM   13  C   UNL     1     -10.220  17.048  68.335  1.00  0.00    -0.331 A  
HETATM   14  O   UNL     1     -11.467  16.525  68.143  1.00  0.00    -0.251 OA 
HETATM   15  C   UNL     1     -11.396  15.195  68.391  1.00  0.00    -0.315 A  
HETATM   16  C   UNL     1     -10.123  14.842  68.767  1.00  0.00    -0.241 A  
ENDBRANCH   2   3
TORSDOF 1
ENDMDL
MODEL       64
REMARK 921   NORMALIZED FREE ENERGY PREDICTED BY IDOCK:   -4.44 KCAL/MOL
REMARK 922        TOTAL FREE ENERGY PREDICTED BY IDOCK:   -4.79 KCAL/MOL
REMARK 923 INTER-LIGAND FREE ENERGY PREDICTED BY IDOCK:   -4.90 KCAL/MOL
REMARK 924 INTRA-LIGAND FREE ENERGY PREDICTED BY IDOCK:    0.11 KCAL/MOL
REMARK 927      BINDING AFFINITY PREDICTED BY RF-SCORE:    0.00 PKD
ROOT
HETATM    1  C   UNL     1     -12.355  15.627  64.311  1.00  0.00     0.087 C  
HETATM    2  O   UNL     1     -10.962  15.923  64.381  1.00  0.00    -0.489 OA 
ENDROOT
BRANCH   2   3
HETATM    3  C   UNL     1     -10.510  16.197  65.657  1.00  0.00    -0.383 A  
HETATM    4  C   UNL     1     -10.269  15.121  66.526  1.00  0.00    -0.276 A  
HETATM    5  O   UNL     1     -10.516  13.814  66.038  1.00  0.00    -0.285 OA 
HETATM    6  C   UNL     1     -10.410  12.696  66.847  1.00  0.00    -0.233 C  
HETATM    7  O   UNL     1     -10.702  11.569  66.464  1.00  0.00    -0.252 OA 
HETATM    8  C   UNL     1      -9.904  12.911  68.213  1.00  0.00    -0.228 C  
HETATM    9  C   UNL     1      -9.608  14.125  68.682  1.00  0.00    -0.179 C  
HETATM   10  C   UNL     1      -9.822  15.295  67.840  1.00  0.00    -0.216 A  
HETATM   11  C   UNL     1      -9.618  16.585  68.348  1.00  0.00    -0.233 A  
HETATM   12  C   UNL     1      -9.934  17.691  67.535  1.00  0.00    -0.322 A  
HETATM   13  C   UNL     1     -10.370  17.470  66.230  1.00  0.00    -0.335 A  
HETATM   14  O   UNL     1     -10.658  18.667  65.640  1.00  0.00    -0.610 OA 
HETATM   15  C   UNL     1     -10.414  19.642  66.550  1.00  0.00    -0.503 A  
HETATM   16  C   UNL     1      -9.946  19.099  67.722  1.00  0.00    -0.440 A  
ENDBRANCH   2   3
TORSDOF 1
ENDMDL
MODEL       65
REMARK 921   NORMALIZED FREE ENERGY PREDICTED BY IDOCK:   -4.42 KCAL/MOL
REMARK 922        TOTAL FREE ENERGY PREDICTED BY IDOCK:   -4.77 KCAL/MOL
REMARK 923 INTER-LIGAND FREE ENERGY PREDICTED BY IDOCK:   -5.03 KCAL/MOL
REMARK 924 INTRA-LIGAND FREE ENERGY PREDICTED BY IDOCK:    0.26 KCAL/MOL
REMARK 927      BINDING AFFINITY PREDICTED BY RF-SCORE:    0.00 PKD
ROOT
HETATM    1  C   UNL     1     -13.405  12.108  71.711  1.00  0.00    -0.242 C  
HETATM    2  O   UNL     1     -12.233  12.624  71.084  1.00  0.00    -0.248 OA 
ENDROOT
BRANCH   2   3
HETATM    3  C   UNL     1     -11.887  11.968  69.918  1.00  0.00    -0.331 A  
HETATM    4  C   UNL     1     -11.391  10.658  70.010  1.00  0.00    -0.324 A  
HETATM    5  O   UNL     1     -11.267  10.092  71.302  1.00  0.00    -0.341 OA 
HETATM    6  C   UNL     1     -10.692   8.850  71.508  1.00  0.00    -0.328 C  
HETATM    7  O   UNL     1     -10.501   8.382  72.625  1.00  0.00    -0.326 OA 
HETATM    8  C   UNL     1     -10.327   8.080  70.305  1.00  0.00    -0.212 C  
HETATM    9  C   UNL     1     -10.486   8.566  69.073  1.00  0.00    -0.216 C  
HETATM   10  C   UNL     1     -11.003   9.916  68.890  1.00  0.00    -0.214 A  
HETATM   11  C   UNL     1     -11.079  10.483  67.611  1.00  0.00    -0.375 A  
HETATM   12  C   UNL     1     -11.487  11.825  67.487  1.00  0.00    -0.373 A  
HETATM   13  C   UNL     1     -11.871  12.524  68.630  1.00  0.00    -0.297 A  
HETATM   14  O   UNL     1     -12.186  13.808  68.291  1.00  0.00    -0.335 OA 
HETATM   15  C   UNL     1     -12.006  13.935  66.954  1.00  0.00    -0.433 A  
HETATM   16  C   UNL     1     -11.599  12.741  66.408  1.00  0.00    -0.435 A  
ENDBRANCH   2   3
TORSDOF 1
ENDMDL
MODEL       66
REMARK 921   NORMALIZED FREE ENERGY PREDICTED BY IDOCK:   -4.42 KCAL/MOL
REMARK 922        TOTAL FREE ENERGY PREDICTED BY IDOCK:   -4.77 KCAL/MOL
REMARK 923 INTER-LIGAND FREE ENERGY PREDICTED BY IDOCK:   -4.94 KCAL/MOL
REMARK 924 INTRA-LIGAND FREE ENERGY PREDICTED BY IDOCK:    0.17 KCAL/MOL
REMARK 927      BINDING AFFINITY PREDICTED BY RF-SCORE:    0.00 PKD
ROOT
HETATM    1  C   UNL     1     -10.766  19.562  65.988  1.00  0.00    -0.430 C  
HETATM    2  O   UNL     1     -10.164  18.308  65.675  1.00  0.00    -0.573 OA 
ENDROOT
BRANCH   2   3
HETATM    3  C   UNL     1      -9.466  17.743  66.724  1.00  0.00    -0.285 A  
HETATM    4  C   UNL     1      -9.819  16.450  67.143  1.00  0.00    -0.249 A  
HETATM    5  O   UNL     1     -10.883  15.807  66.463  1.00  0.00    -0.304 OA 
HETATM    6  C   UNL     1     -11.375  14.578  66.866  1.00  0.00    -0.348 C  
HETATM    7  O   UNL     1     -12.348  14.047  66.342  1.00  0.00    -0.460 OA 
HETATM    8  C   UNL     1     -10.658  13.903  67.962  1.00  0.00    -0.252 C  
HETATM    9  C   UNL     1      -9.617  14.460  68.583  1.00  0.00    -0.208 C  
HETATM   10  C   UNL     1      -9.181  15.797  68.203  1.00  0.00    -0.189 A  
HETATM   11  C   UNL     1      -8.159  16.442  68.911  1.00  0.00    -0.236 A  
HETATM   12  C   UNL     1      -7.838  17.772  68.578  1.00  0.00    -0.290 A  
HETATM   13  C   UNL     1      -8.495  18.381  67.510  1.00  0.00    -0.253 A  
HETATM   14  O   UNL     1      -8.065  19.671  67.390  1.00  0.00    -0.272 OA 
HETATM   15  C   UNL     1      -7.149  19.890  68.364  1.00  0.00    -0.295 A  
HETATM   16  C   UNL     1      -6.955  18.751  69.108  1.00  0.00    -0.293 A  
ENDBRANCH   2   3
TORSDOF 1
ENDMDL
MODEL       67
REMARK 921   NORMALIZED FREE ENERGY PREDICTED BY IDOCK:   -4.35 KCAL/MOL
REMARK 922        TOTAL FREE ENERGY PREDICTED BY IDOCK:   -4.69 KCAL/MOL
REMARK 923 INTER-LIGAND FREE ENERGY PREDICTED BY IDOCK:   -4.66 KCAL/MOL
REMARK 924 INTRA-LIGAND FREE ENERGY PREDICTED BY IDOCK:   -0.03 KCAL/MOL
REMARK 927      BINDING AFFINITY PREDICTED BY RF-SCORE:    0.00 PKD
ROOT
HETATM    1  C   UNL     1      -7.587  14.008  67.530  1.00  0.00    -0.180 C  
HETATM    2  O   UNL     1      -8.972  13.690  67.647  1.00  0.00    -0.182 OA 
ENDROOT
BRANCH   2   3
HETATM    3  C   UNL     1      -9.746  14.169  66.609  1.00  0.00    -0.288 A  
HETATM    4  C   UNL     1     -10.206  13.259  65.643  1.00  0.00    -0.289 A  
HETATM    5  O   UNL     1      -9.834  11.900  65.791  1.00  0.00    -0.230 OA 
HETATM    6  C   UNL     1     -10.147  10.945  64.840  1.00  0.00    -0.312 C  
HETATM    7  O   UNL     1      -9.762   9.784  64.912  1.00  0.00    -0.296 OA 
HETATM    8  C   UNL     1     -10.999  11.380  63.719  1.00  0.00    -0.448 C  
HETATM    9  C   UNL     1     -11.411  12.642  63.584  1.00  0.00    -0.563 C  
HETATM   10  C   UNL     1     -10.985  13.647  64.549  1.00  0.00    -0.405 A  
HETATM   11  C   UNL     1     -11.320  14.996  64.367  1.00  0.00    -0.207 A  
HETATM   12  C   UNL     1     -10.803  15.949  65.266  1.00  0.00    -0.401 A  
HETATM   13  C   UNL     1     -10.036  15.516  66.346  1.00  0.00    -0.288 A  
HETATM   14  O   UNL     1      -9.605  16.598  67.058  1.00  0.00    -0.234 OA 
HETATM   15  C   UNL     1     -10.085  17.708  66.446  1.00  0.00    -0.356 A  
HETATM   16  C   UNL     1     -10.845  17.366  65.354  1.00  0.00     0.018 A  
ENDBRANCH   2   3
TORSDOF 1
ENDMDL
MODEL       68
REMARK 921   NORMALIZED FREE ENERGY PREDICTED BY IDOCK:   -4.32 KCAL/MOL
REMARK 922        TOTAL FREE ENERGY PREDICTED BY IDOCK:   -4.67 KCAL/MOL
REMARK 923 INTER-LIGAND FREE ENERGY PREDICTED BY IDOCK:   -4.64 KCAL/MOL
REMARK 924 INTRA-LIGAND FREE ENERGY PREDICTED BY IDOCK:   -0.03 KCAL/MOL
REMARK 927      BINDING AFFINITY PREDICTED BY RF-SCORE:    0.00 PKD
ROOT
HETATM    1  C   UNL     1     -10.302   9.324  71.635  1.00  0.00    -0.230 C  
HETATM    2  O   UNL     1     -11.429   9.814  70.913  1.00  0.00    -0.309 OA 
ENDROOT
BRANCH   2   3
HETATM    3  C   UNL     1     -11.134  10.233  69.630  1.00  0.00    -0.274 A  
HETATM    4  C   UNL     1     -11.349  11.581  69.301  1.00  0.00    -0.288 A  
HETATM    5  O   UNL     1     -11.868  12.429  70.310  1.00  0.00    -0.322 OA 
HETATM    6  C   UNL     1     -12.213  13.745  70.058  1.00  0.00    -0.342 C  
HETATM    7  O   UNL     1     -12.741  14.467  70.897  1.00  0.00    -0.321 OA 
HETATM    8  C   UNL     1     -11.897  14.268  68.717  1.00  0.00    -0.377 C  
HETATM    9  C   UNL     1     -11.355  13.507  67.764  1.00  0.00    -0.327 C  
HETATM   10  C   UNL     1     -11.093  12.099  68.028  1.00  0.00    -0.292 A  
HETATM   11  C   UNL     1     -10.623  11.259  67.009  1.00  0.00    -0.287 A  
HETATM   12  C   UNL     1     -10.479   9.884  67.277  1.00  0.00    -0.319 A  
HETATM   13  C   UNL     1     -10.740   9.413  68.563  1.00  0.00    -0.161 A  
HETATM   14  O   UNL     1     -10.582   8.058  68.589  1.00  0.00    -0.191 OA 
HETATM   15  C   UNL     1     -10.227   7.661  67.342  1.00  0.00    -0.251 A  
HETATM   16  C   UNL     1     -10.128   8.745  66.504  1.00  0.00    -0.349 A  
ENDBRANCH   2   3
TORSDOF 1
ENDMDL
MODEL       69
REMARK 921   NORMALIZED FREE ENERGY PREDICTED BY IDOCK:   -4.32 KCAL/MOL
REMARK 922        TOTAL FREE ENERGY PREDICTED BY IDOCK:   -4.67 KCAL/MOL
REMARK 923 INTER-LIGAND FREE ENERGY PREDICTED BY IDOCK:   -4.57 KCAL/MOL
REMARK 924 INTRA-LIGAND FREE ENERGY PREDICTED BY IDOCK:   -0.09 KCAL/MOL
REMARK 927      BINDING AFFINITY PREDICTED BY RF-SCORE:    0.00 PKD
ROOT
HETATM    1  C   UNL     1      -9.044   7.828  68.656  1.00  0.00    -0.136 C  
HETATM    2  O   UNL     1      -8.876   8.987  69.470  1.00  0.00    -0.137 OA 
ENDROOT
BRANCH   2   3
HETATM    3  C   UNL     1     -10.062   9.581  69.853  1.00  0.00    -0.232 A  
HETATM    4  C   UNL     1     -10.426  10.798  69.255  1.00  0.00    -0.217 A  
HETATM    5  O   UNL     1      -9.539  11.349  68.296  1.00  0.00    -0.179 OA 
HETATM    6  C   UNL     1      -9.753  12.592  67.728  1.00  0.00    -0.202 C  
HETATM    7  O   UNL     1      -8.955  13.119  66.961  1.00  0.00    -0.219 OA 
HETATM    8  C   UNL     1     -11.017  13.269  68.069  1.00  0.00    -0.266 C  
HETATM    9  C   UNL     1     -11.897  12.747  68.925  1.00  0.00    -0.351 C  
HETATM   10  C   UNL     1     -11.600  11.482  69.584  1.00  0.00    -0.403 A  
HETATM   11  C   UNL     1     -12.460  10.970  70.564  1.00  0.00    -0.432 A  
HETATM   12  C   UNL     1     -12.086   9.797  71.248  1.00  0.00    -0.470 A  
HETATM   13  C   UNL     1     -10.910   9.146  70.883  1.00  0.00    -0.278 A  
HETATM   14  O   UNL     1     -10.718   8.066  71.696  1.00  0.00    -0.221 OA 
HETATM   15  C   UNL     1     -11.752   8.024  72.572  1.00  0.00    -0.387 A  
HETATM   16  C   UNL     1     -12.632   9.051  72.327  1.00  0.00    -0.445 A  
ENDBRANCH   2   3
TORSDOF 1
ENDMDL
MODEL       70
REMARK 921   NORMALIZED FREE ENERGY PREDICTED BY IDOCK:   -4.32 KCAL/MOL
REMARK 922        TOTAL FREE ENERGY PREDICTED BY IDOCK:   -4.67 KCAL/MOL
REMARK 923 INTER-LIGAND FREE ENERGY PREDICTED BY IDOCK:   -4.62 KCAL/MOL
REMARK 924 INTRA-LIGAND FREE ENERGY PREDICTED BY IDOCK:   -0.04 KCAL/MOL
REMARK 927      BINDING AFFINITY PREDICTED BY RF-SCORE:    0.00 PKD
ROOT
HETATM    1  C   UNL     1     -11.075  11.761  63.376  1.00  0.00    -0.365 C  
HETATM    2  O   UNL     1      -9.921  11.777  64.213  1.00  0.00    -0.258 OA 
ENDROOT
BRANCH   2   3
HETATM    3  C   UNL     1     -10.142  12.322  65.463  1.00  0.00    -0.256 A  
HETATM    4  C   UNL     1     -10.287  11.452  66.555  1.00  0.00    -0.236 A  
HETATM    5  O   UNL     1     -10.208  10.060  66.302  1.00  0.00    -0.241 OA 
HETATM    6  C   UNL     1     -10.441   9.120  67.289  1.00  0.00    -0.265 C  
HETATM    7  O   UNL     1     -10.459   7.914  67.069  1.00  0.00    -0.315 OA 
HETATM    8  C   UNL     1     -10.654   9.630  68.655  1.00  0.00    -0.246 C  
HETATM    9  C   UNL     1     -10.678  10.935  68.933  1.00  0.00    -0.252 C  
HETATM   10  C   UNL     1     -10.526  11.905  67.857  1.00  0.00    -0.225 A  
HETATM   11  C   UNL     1     -10.653  13.277  68.111  1.00  0.00    -0.259 A  
HETATM   12  C   UNL     1     -10.601  14.174  67.027  1.00  0.00    -0.276 A  
HETATM   13  C   UNL     1     -10.355  13.678  65.748  1.00  0.00    -0.298 A  
HETATM   14  O   UNL     1     -10.389  14.706  64.850  1.00  0.00    -0.411 OA 
HETATM   15  C   UNL     1     -10.655  15.843  65.537  1.00  0.00    -0.401 A  
HETATM   16  C   UNL     1     -10.772  15.577  66.880  1.00  0.00    -0.317 A  
ENDBRANCH   2   3
TORSDOF 1
ENDMDL
MODEL       71
REMARK 921   NORMALIZED FREE ENERGY PREDICTED BY IDOCK:   -4.32 KCAL/MOL
REMARK 922        TOTAL FREE ENERGY PREDICTED BY IDOCK:   -4.66 KCAL/MOL
REMARK 923 INTER-LIGAND FREE ENERGY PREDICTED BY IDOCK:   -4.67 KCAL/MOL
REMARK 924 INTRA-LIGAND FREE ENERGY PREDICTED BY IDOCK:    0.01 KCAL/MOL
REMARK 927      BINDING AFFINITY PREDICTED BY RF-SCORE:    0.00 PKD
ROOT
HETATM    1  C   UNL     1     -13.088  10.467  71.006  1.00  0.00    -0.362 C  
HETATM    2  O   UNL     1     -11.828  10.980  70.582  1.00  0.00    -0.332 OA 
ENDROOT
BRANCH   2   3
HETATM    3  C   UNL     1     -11.264  10.284  69.531  1.00  0.00    -0.261 A  
HETATM    4  C   UNL     1     -11.194  10.910  68.276  1.00  0.00    -0.286 A  
HETATM    5  O   UNL     1     -11.720  12.221  68.166  1.00  0.00    -0.321 OA 
HETATM    6  C   UNL     1     -11.793  12.883  66.953  1.00  0.00    -0.379 C  
HETATM    7  O   UNL     1     -12.321  13.982  66.826  1.00  0.00    -0.439 OA 
HETATM    8  C   UNL     1     -11.183  12.211  65.792  1.00  0.00    -0.384 C  
HETATM    9  C   UNL     1     -10.630  11.000  65.879  1.00  0.00    -0.270 C  
HETATM   10  C   UNL     1     -10.653  10.285  67.148  1.00  0.00    -0.320 A  
HETATM   11  C   UNL     1     -10.172   8.972  67.235  1.00  0.00    -0.323 A  
HETATM   12  C   UNL     1     -10.306   8.281  68.455  1.00  0.00    -0.237 A  
HETATM   13  C   UNL     1     -10.846   8.946  69.555  1.00  0.00    -0.153 A  
HETATM   14  O   UNL     1     -10.923   8.084  70.611  1.00  0.00    -0.238 OA 
HETATM   15  C   UNL     1     -10.444   6.885  70.199  1.00  0.00    -0.209 A  
HETATM   16  C   UNL     1     -10.031   6.957  68.890  1.00  0.00    -0.158 A  
ENDBRANCH   2   3
TORSDOF 1
ENDMDL
MODEL       72
REMARK 921   NORMALIZED FREE ENERGY PREDICTED BY IDOCK:   -4.32 KCAL/MOL
REMARK 922        TOTAL FREE ENERGY PREDICTED BY IDOCK:   -4.66 KCAL/MOL
REMARK 923 INTER-LIGAND FREE ENERGY PREDICTED BY IDOCK:   -4.82 KCAL/MOL
REMARK 924 INTRA-LIGAND FREE ENERGY PREDICTED BY IDOCK:    0.16 KCAL/MOL
REMARK 927      BINDING AFFINITY PREDICTED BY RF-SCORE:    0.00 PKD
ROOT
HETATM    1  C   UNL     1     -12.098  13.167  66.035  1.00  0.00    -0.436 C  
HETATM    2  O   UNL     1     -11.143  13.445  67.057  1.00  0.00    -0.282 OA 
ENDROOT
BRANCH   2   3
HETATM    3  C   UNL     1     -11.383  12.782  68.244  1.00  0.00    -0.296 A  
HETATM    4  C   UNL     1     -11.072  11.415  68.321  1.00  0.00    -0.244 A  
HETATM    5  O   UNL     1     -10.538  10.797  67.164  1.00  0.00    -0.227 OA 
HETATM    6  C   UNL     1     -10.297   9.435  67.104  1.00  0.00    -0.258 C  
HETATM    7  O   UNL     1      -9.915   8.872  66.084  1.00  0.00    -0.291 OA 
HETATM    8  C   UNL     1     -10.503   8.670  68.346  1.00  0.00    -0.220 C  
HETATM    9  C   UNL     1     -10.951   9.237  69.467  1.00  0.00    -0.169 C  
HETATM   10  C   UNL     1     -11.289  10.654  69.474  1.00  0.00    -0.342 A  
HETATM   11  C   UNL     1     -11.860  11.245  70.609  1.00  0.00    -0.368 A  
HETATM   12  C   UNL     1     -12.266  12.591  70.540  1.00  0.00    -0.382 A  
HETATM   13  C   UNL     1     -12.025  13.313  69.373  1.00  0.00    -0.301 A  
HETATM   14  O   UNL     1     -12.533  14.573  69.506  1.00  0.00    -0.257 OA 
HETATM   15  C   UNL     1     -13.095  14.661  70.736  1.00  0.00    -0.323 A  
HETATM   16  C   UNL     1     -12.939  13.479  71.421  1.00  0.00    -0.421 A  
ENDBRANCH   2   3
TORSDOF 1
ENDMDL
MODEL       73
REMARK 921   NORMALIZED FREE ENERGY PREDICTED BY IDOCK:   -4.30 KCAL/MOL
REMARK 922        TOTAL FREE ENERGY PREDICTED BY IDOCK:   -4.64 KCAL/MOL
REMARK 923 INTER-LIGAND FREE ENERGY PREDICTED BY IDOCK:   -4.67 KCAL/MOL
REMARK 924 INTRA-LIGAND FREE ENERGY PREDICTED BY IDOCK:    0.03 KCAL/MOL
REMARK 927      BINDING AFFINITY PREDICTED BY RF-SCORE:    0.00 PKD
ROOT
HETATM    1  C   UNL     1     -10.659  19.581  66.161  1.00  0.00    -0.487 C  
HETATM    2  O   UNL     1     -10.209  19.743  67.505  1.00  0.00    -0.384 OA 
ENDROOT
BRANCH   2   3
HETATM    3  C   UNL     1      -9.072  19.018  67.806  1.00  0.00    -0.292 A  
HETATM    4  C   UNL     1      -9.218  17.679  68.204  1.00  0.00    -0.282 A  
HETATM    5  O   UNL     1     -10.533  17.157  68.281  1.00  0.00    -0.333 OA 
HETATM    6  C   UNL     1     -10.791  15.886  68.761  1.00  0.00    -0.284 C  
HETATM    7  O   UNL     1     -11.927  15.449  68.913  1.00  0.00    -0.336 OA 
HETATM    8  C   UNL     1      -9.622  15.045  69.074  1.00  0.00    -0.225 C  
HETATM    9  C   UNL     1      -8.370  15.491  68.956  1.00  0.00    -0.227 C  
HETATM   10  C   UNL     1      -8.131  16.867  68.541  1.00  0.00    -0.244 A  
HETATM   11  C   UNL     1      -6.830  17.387  68.513  1.00  0.00    -0.203 A  
HETATM   12  C   UNL     1      -6.652  18.749  68.205  1.00  0.00    -0.235 A  
HETATM   13  C   UNL     1      -7.764  19.520  67.869  1.00  0.00    -0.289 A  
HETATM   14  O   UNL     1      -7.372  20.809  67.651  1.00  0.00    -0.308 OA 
HETATM   15  C   UNL     1      -6.032  20.870  67.845  1.00  0.00    -0.322 A  
HETATM   16  C   UNL     1      -5.537  19.629  68.165  1.00  0.00    -0.221 A  
ENDBRANCH   2   3
TORSDOF 1
ENDMDL
MODEL       74
REMARK 921   NORMALIZED FREE ENERGY PREDICTED BY IDOCK:   -4.28 KCAL/MOL
REMARK 922        TOTAL FREE ENERGY PREDICTED BY IDOCK:   -4.62 KCAL/MOL
REMARK 923 INTER-LIGAND FREE ENERGY PREDICTED BY IDOCK:   -4.58 KCAL/MOL
REMARK 924 INTRA-LIGAND FREE ENERGY PREDICTED BY IDOCK:   -0.05 KCAL/MOL
REMARK 927      BINDING AFFINITY PREDICTED BY RF-SCORE:    0.00 PKD
ROOT
HETATM    1  C   UNL     1      -9.694  10.420  65.210  1.00  0.00    -0.278 C  
HETATM    2  O   UNL     1      -9.078  11.045  66.334  1.00  0.00    -0.167 OA 
ENDROOT
BRANCH   2   3
HETATM    3  C   UNL     1      -9.899  11.934  67.000  1.00  0.00    -0.192 A  
HETATM    4  C   UNL     1     -10.505  11.518  68.196  1.00  0.00    -0.193 A  
HETATM    5  O   UNL     1     -10.242  10.199  68.641  1.00  0.00    -0.162 OA 
HETATM    6  C   UNL     1     -10.872   9.658  69.748  1.00  0.00    -0.250 C  
HETATM    7  O   UNL     1     -10.720   8.493  70.097  1.00  0.00    -0.230 OA 
HETATM    8  C   UNL     1     -11.739  10.561  70.525  1.00  0.00    -0.443 C  
HETATM    9  C   UNL     1     -11.960  11.826  70.162  1.00  0.00    -0.421 C  
HETATM   10  C   UNL     1     -11.361  12.340  68.937  1.00  0.00    -0.337 A  
HETATM   11  C   UNL     1     -11.664  13.630  68.482  1.00  0.00    -0.392 A  
HETATM   12  C   UNL     1     -11.145  14.050  67.242  1.00  0.00    -0.314 A  
HETATM   13  C   UNL     1     -10.292  13.201  66.541  1.00  0.00    -0.283 A  
HETATM   14  O   UNL     1      -9.944  13.784  65.357  1.00  0.00    -0.294 OA 
HETATM   15  C   UNL     1     -10.564  14.987  65.295  1.00  0.00    -0.397 A  
HETATM   16  C   UNL     1     -11.297  15.210  66.436  1.00  0.00    -0.225 A  
ENDBRANCH   2   3
TORSDOF 1
ENDMDL
MODEL       75
REMARK 921   NORMALIZED FREE ENERGY PREDICTED BY IDOCK:   -4.27 KCAL/MOL
REMARK 922        TOTAL FREE ENERGY PREDICTED BY IDOCK:   -4.61 KCAL/MOL
REMARK 923 INTER-LIGAND FREE ENERGY PREDICTED BY IDOCK:   -4.53 KCAL/MOL
REMARK 924 INTRA-LIGAND FREE ENERGY PREDICTED BY IDOCK:   -0.08 KCAL/MOL
REMARK 927      BINDING AFFINITY PREDICTED BY RF-SCORE:    0.00 PKD
ROOT
HETATM    1  C   UNL     1     -14.283   9.068  72.263  1.00  0.00    -0.356 C  
HETATM    2  O   UNL     1     -12.894   9.189  72.558  1.00  0.00    -0.388 OA 
ENDROOT
BRANCH   2   3
HETATM    3  C   UNL     1     -12.069   8.980  71.470  1.00  0.00    -0.340 A  
HETATM    4  C   UNL     1     -11.480   7.716  71.311  1.00  0.00    -0.269 A  
HETATM    5  O   UNL     1     -11.763   6.732  72.290  1.00  0.00    -0.281 OA 
HETATM    6  C   UNL     1     -11.151   5.491  72.282  1.00  0.00    -0.237 C  
HETATM    7  O   UNL     1     -11.321   4.659  73.167  1.00  0.00    -0.289 OA 
HETATM    8  C   UNL     1     -10.281   5.187  71.132  1.00  0.00    -0.291 C  
HETATM    9  C   UNL     1     -10.041   6.075  70.165  1.00  0.00    -0.249 C  
HETATM   10  C   UNL     1     -10.622   7.409  70.250  1.00  0.00    -0.241 A  
HETATM   11  C   UNL     1     -10.299   8.389  69.302  1.00  0.00    -0.220 A  
HETATM   12  C   UNL     1     -10.800   9.693  69.478  1.00  0.00    -0.253 A  
HETATM   13  C   UNL     1     -11.657   9.951  70.546  1.00  0.00    -0.309 A  
HETATM   14  O   UNL     1     -11.986  11.276  70.552  1.00  0.00    -0.343 OA 
HETATM   15  C   UNL     1     -11.350  11.862  69.508  1.00  0.00    -0.236 A  
HETATM   16  C   UNL     1     -10.627  10.930  68.802  1.00  0.00    -0.231 A  
ENDBRANCH   2   3
TORSDOF 1
ENDMDL
MODEL       76
REMARK 921   NORMALIZED FREE ENERGY PREDICTED BY IDOCK:   -4.26 KCAL/MOL
REMARK 922        TOTAL FREE ENERGY PREDICTED BY IDOCK:   -4.60 KCAL/MOL
REMARK 923 INTER-LIGAND FREE ENERGY PREDICTED BY IDOCK:   -4.57 KCAL/MOL
REMARK 924 INTRA-LIGAND FREE ENERGY PREDICTED BY IDOCK:   -0.03 KCAL/MOL
REMARK 927      BINDING AFFINITY PREDICTED BY RF-SCORE:    0.00 PKD
ROOT
HETATM    1  C   UNL     1     -10.571   8.140  67.064  1.00  0.00    -0.275 C  
HETATM    2  O   UNL     1      -9.748   8.628  68.121  1.00  0.00    -0.151 OA 
ENDROOT
BRANCH   2   3
HETATM    3  C   UNL     1     -10.456   9.149  69.187  1.00  0.00    -0.217 A  
HETATM    4  C   UNL     1     -10.797   8.292  70.246  1.00  0.00    -0.240 A  
HETATM    5  O   UNL     1     -10.400   6.935  70.147  1.00  0.00    -0.193 OA 
HETATM    6  C   UNL     1     -10.776   5.990  71.084  1.00  0.00    -0.264 C  
HETATM    7  O   UNL     1     -10.512   4.798  70.970  1.00  0.00    -0.162 OA 
HETATM    8  C   UNL     1     -11.508   6.481  72.265  1.00  0.00    -0.326 C  
HETATM    9  C   UNL     1     -11.846   7.763  72.412  1.00  0.00    -0.371 C  
HETATM   10  C   UNL     1     -11.521   8.720  71.363  1.00  0.00    -0.366 A  
HETATM   11  C   UNL     1     -11.959  10.049  71.449  1.00  0.00    -0.470 A  
HETATM   12  C   UNL     1     -11.712  10.915  70.367  1.00  0.00    -0.444 A  
HETATM   13  C   UNL     1     -10.981  10.446  69.277  1.00  0.00    -0.242 A  
HETATM   14  O   UNL     1     -10.897  11.428  68.332  1.00  0.00    -0.183 OA 
HETATM   15  C   UNL     1     -11.565  12.509  68.803  1.00  0.00    -0.322 A  
HETATM   16  C   UNL     1     -12.065  12.256  70.057  1.00  0.00    -0.346 A  
ENDBRANCH   2   3
TORSDOF 1
ENDMDL
MODEL       77
REMARK 921   NORMALIZED FREE ENERGY PREDICTED BY IDOCK:   -4.26 KCAL/MOL
REMARK 922        TOTAL FREE ENERGY PREDICTED BY IDOCK:   -4.60 KCAL/MOL
REMARK 923 INTER-LIGAND FREE ENERGY PREDICTED BY IDOCK:   -4.50 KCAL/MOL
REMARK 924 INTRA-LIGAND FREE ENERGY PREDICTED BY IDOCK:   -0.09 KCAL/MOL
REMARK 927      BINDING AFFINITY PREDICTED BY RF-SCORE:    0.00 PKD
ROOT
HETATM    1  C   UNL     1     -12.236  13.765  63.914  1.00  0.00    -0.351 C  
HETATM    2  O   UNL     1     -10.975  13.992  64.538  1.00  0.00    -0.389 OA 
ENDROOT
BRANCH   2   3
HETATM    3  C   UNL     1     -10.844  13.389  65.774  1.00  0.00    -0.275 A  
HETATM    4  C   UNL     1     -10.871  14.199  66.920  1.00  0.00    -0.296 A  
HETATM    5  O   UNL     1     -11.021  15.595  66.734  1.00  0.00    -0.310 OA 
HETATM    6  C   UNL     1     -10.956  16.488  67.789  1.00  0.00    -0.252 C  
HETATM    7  O   UNL     1     -11.000  17.704  67.635  1.00  0.00    -0.296 OA 
HETATM    8  C   UNL     1     -10.847  15.912  69.140  1.00  0.00    -0.268 C  
HETATM    9  C   UNL     1     -10.761  14.597  69.350  1.00  0.00    -0.237 C  
HETATM   10  C   UNL     1     -10.735  13.685  68.214  1.00  0.00    -0.266 A  
HETATM   11  C   UNL     1     -10.539  12.311  68.407  1.00  0.00    -0.250 A  
HETATM   12  C   UNL     1     -10.418  11.479  67.277  1.00  0.00    -0.246 A  
HETATM   13  C   UNL     1     -10.567  12.034  66.007  1.00  0.00    -0.268 A  
HETATM   14  O   UNL     1     -10.370  11.066  65.065  1.00  0.00    -0.276 OA 
HETATM   15  C   UNL     1     -10.097   9.909  65.715  1.00  0.00    -0.247 A  
HETATM   16  C   UNL     1     -10.136  10.101  67.075  1.00  0.00    -0.277 A  
ENDBRANCH   2   3
TORSDOF 1
ENDMDL
MODEL       78
REMARK 921   NORMALIZED FREE ENERGY PREDICTED BY IDOCK:   -4.25 KCAL/MOL
REMARK 922        TOTAL FREE ENERGY PREDICTED BY IDOCK:   -4.59 KCAL/MOL
REMARK 923 INTER-LIGAND FREE ENERGY PREDICTED BY IDOCK:   -4.57 KCAL/MOL
REMARK 924 INTRA-LIGAND FREE ENERGY PREDICTED BY IDOCK:   -0.02 KCAL/MOL
REMARK 927      BINDING AFFINITY PREDICTED BY RF-SCORE:    0.00 PKD
ROOT
HETATM    1  C   UNL     1     -12.333  12.006  63.571  1.00  0.00    -0.551 C  
HETATM    2  O   UNL     1     -10.951  12.333  63.442  1.00  0.00    -0.441 OA 
ENDROOT
BRANCH   2   3
HETATM    3  C   UNL     1     -10.399  12.892  64.578  1.00  0.00    -0.357 A  
HETATM    4  C   UNL     1      -9.832  12.036  65.536  1.00  0.00    -0.229 A  
HETATM    5  O   UNL     1      -9.872  10.644  65.279  1.00  0.00    -0.235 OA 
HETATM    6  C   UNL     1      -9.436   9.713  66.205  1.00  0.00    -0.217 C  
HETATM    7  O   UNL     1      -9.540   8.504  66.033  1.00  0.00    -0.227 OA 
HETATM    8  C   UNL     1      -8.806  10.239  67.429  1.00  0.00    -0.134 C  
HETATM    9  C   UNL     1      -8.704  11.547  67.672  1.00  0.00    -0.142 C  
HETATM   10  C   UNL     1      -9.259  12.503  66.724  1.00  0.00    -0.217 A  
HETATM   11  C   UNL     1      -9.256  13.875  67.010  1.00  0.00    -0.257 A  
HETATM   12  C   UNL     1      -9.894  14.755  66.115  1.00  0.00    -0.335 A  
HETATM   13  C   UNL     1     -10.446  14.246  64.941  1.00  0.00    -0.430 A  
HETATM   14  O   UNL     1     -11.046  15.257  64.247  1.00  0.00    -0.179 OA 
HETATM   15  C   UNL     1     -10.886  16.397  64.962  1.00  0.00    -0.273 A  
HETATM   16  C   UNL     1     -10.167  16.149  66.107  1.00  0.00    -0.351 A  
ENDBRANCH   2   3
TORSDOF 1
ENDMDL
MODEL       79
REMARK 921   NORMALIZED FREE ENERGY PREDICTED BY IDOCK:   -4.24 KCAL/MOL
REMARK 922        TOTAL FREE ENERGY PREDICTED BY IDOCK:   -4.58 KCAL/MOL
REMARK 923 INTER-LIGAND FREE ENERGY PREDICTED BY IDOCK:   -4.49 KCAL/MOL
REMARK 924 INTRA-LIGAND FREE ENERGY PREDICTED BY IDOCK:   -0.09 KCAL/MOL
REMARK 927      BINDING AFFINITY PREDICTED BY RF-SCORE:    0.00 PKD
ROOT
HETATM    1  C   UNL     1      -6.069  17.032  67.144  1.00  0.00    -0.164 C  
HETATM    2  O   UNL     1      -7.145  16.719  66.262  1.00  0.00    -0.215 OA 
ENDROOT
BRANCH   2   3
HETATM    3  C   UNL     1      -8.396  16.931  66.808  1.00  0.00    -0.235 A  
HETATM    4  C   UNL     1      -9.169  15.813  67.163  1.00  0.00    -0.210 A  
HETATM    5  O   UNL     1      -8.615  14.531  66.927  1.00  0.00    -0.216 OA 
HETATM    6  C   UNL     1      -9.335  13.369  67.144  1.00  0.00    -0.240 C  
HETATM    7  O   UNL     1      -8.902  12.257  66.866  1.00  0.00    -0.198 OA 
HETATM    8  C   UNL     1     -10.668  13.519  67.754  1.00  0.00    -0.262 C  
HETATM    9  C   UNL     1     -11.192  14.712  68.040  1.00  0.00    -0.307 C  
HETATM   10  C   UNL     1     -10.450  15.923  67.711  1.00  0.00    -0.287 A  
HETATM   11  C   UNL     1     -11.026  17.186  67.906  1.00  0.00    -0.208 A  
HETATM   12  C   UNL     1     -10.318  18.326  67.480  1.00  0.00    -0.415 A  
HETATM   13  C   UNL     1      -9.040  18.169  66.945  1.00  0.00    -0.274 A  
HETATM   14  O   UNL     1      -8.557  19.388  66.562  1.00  0.00    -0.311 OA 
HETATM   15  C   UNL     1      -9.508  20.312  66.843  1.00  0.00    -0.397 A  
HETATM   16  C   UNL     1     -10.599  19.717  67.428  1.00  0.00    -0.553 A  
ENDBRANCH   2   3
TORSDOF 1
ENDMDL
MODEL       80
REMARK 921   NORMALIZED FREE ENERGY PREDICTED BY IDOCK:   -4.24 KCAL/MOL
REMARK 922        TOTAL FREE ENERGY PREDICTED BY IDOCK:   -4.58 KCAL/MOL
REMARK 923 INTER-LIGAND FREE ENERGY PREDICTED BY IDOCK:   -4.52 KCAL/MOL
REMARK 924 INTRA-LIGAND FREE ENERGY PREDICTED BY IDOCK:   -0.06 KCAL/MOL
REMARK 927      BINDING AFFINITY PREDICTED BY RF-SCORE:    0.00 PKD
ROOT
HETATM    1  C   UNL     1      -7.089  14.653  69.251  1.00  0.00    -0.150 C  
HETATM    2  O   UNL     1      -8.306  15.317  69.585  1.00  0.00    -0.235 OA 
ENDROOT
BRANCH   2   3
HETATM    3  C   UNL     1      -9.031  15.743  68.490  1.00  0.00    -0.194 A  
HETATM    4  C   UNL     1      -8.856  17.063  68.045  1.00  0.00    -0.223 A  
HETATM    5  O   UNL     1      -7.947  17.882  68.759  1.00  0.00    -0.292 OA 
HETATM    6  C   UNL     1      -7.782  19.224  68.466  1.00  0.00    -0.345 C  
HETATM    7  O   UNL     1      -7.063  19.966  69.127  1.00  0.00    -0.327 OA 
HETATM    8  C   UNL     1      -8.503  19.740  67.289  1.00  0.00    -0.363 C  
HETATM    9  C   UNL     1      -9.322  18.977  66.564  1.00  0.00    -0.365 C  
HETATM   10  C   UNL     1      -9.552  17.592  66.954  1.00  0.00    -0.286 A  
HETATM   11  C   UNL     1     -10.488  16.805  66.268  1.00  0.00    -0.264 A  
HETATM   12  C   UNL     1     -10.755  15.506  66.740  1.00  0.00    -0.305 A  
HETATM   13  C   UNL     1     -10.032  15.018  67.828  1.00  0.00    -0.229 A  
HETATM   14  O   UNL     1     -10.478  13.766  68.142  1.00  0.00    -0.237 OA 
HETATM   15  C   UNL     1     -11.472  13.454  67.275  1.00  0.00    -0.340 A  
HETATM   16  C   UNL     1     -11.667  14.478  66.379  1.00  0.00    -0.372 A  
ENDBRANCH   2   3
TORSDOF 1
ENDMDL
MODEL       81
REMARK 921   NORMALIZED FREE ENERGY PREDICTED BY IDOCK:   -4.23 KCAL/MOL
REMARK 922        TOTAL FREE ENERGY PREDICTED BY IDOCK:   -4.57 KCAL/MOL
REMARK 923 INTER-LIGAND FREE ENERGY PREDICTED BY IDOCK:   -4.69 KCAL/MOL
REMARK 924 INTRA-LIGAND FREE ENERGY PREDICTED BY IDOCK:    0.12 KCAL/MOL
REMARK 927      BINDING AFFINITY PREDICTED BY RF-SCORE:    0.00 PKD
ROOT
HETATM    1  C   UNL     1      -9.263  15.080  66.670  1.00  0.00    -0.276 C  
HETATM    2  O   UNL     1      -9.316  14.789  68.064  1.00  0.00    -0.189 OA 
ENDROOT
BRANCH   2   3
HETATM    3  C   UNL     1     -10.182  13.764  68.391  1.00  0.00    -0.248 A  
HETATM    4  C   UNL     1     -11.089  13.964  69.443  1.00  0.00    -0.180 A  
HETATM    5  O   UNL     1     -11.050  15.211  70.115  1.00  0.00    -0.252 OA 
HETATM    6  C   UNL     1     -11.829  15.469  71.230  1.00  0.00    -0.399 C  
HETATM    7  O   UNL     1     -11.746  16.510  71.872  1.00  0.00    -0.458 OA 
HETATM    8  C   UNL     1     -12.799  14.430  71.616  1.00  0.00    -0.416 C  
HETATM    9  C   UNL     1     -12.897  13.268  70.967  1.00  0.00    -0.311 C  
HETATM   10  C   UNL     1     -11.998  12.985  69.857  1.00  0.00    -0.381 A  
HETATM   11  C   UNL     1     -12.013  11.731  69.229  1.00  0.00    -0.354 A  
HETATM   12  C   UNL     1     -11.059  11.463  68.229  1.00  0.00    -0.300 A  
HETATM   13  C   UNL     1     -10.177  12.471  67.845  1.00  0.00    -0.219 A  
HETATM   14  O   UNL     1      -9.318  11.987  66.901  1.00  0.00    -0.188 OA 
HETATM   15  C   UNL     1      -9.639  10.688  66.683  1.00  0.00    -0.175 A  
HETATM   16  C   UNL     1     -10.714  10.322  67.456  1.00  0.00    -0.348 A  
ENDBRANCH   2   3
TORSDOF 1
ENDMDL
MODEL       82
REMARK 921   NORMALIZED FREE ENERGY PREDICTED BY IDOCK:   -4.23 KCAL/MOL
REMARK 922        TOTAL FREE ENERGY PREDICTED BY IDOCK:   -4.57 KCAL/MOL
REMARK 923 INTER-LIGAND FREE ENERGY PREDICTED BY IDOCK:   -4.48 KCAL/MOL
REMARK 924 INTRA-LIGAND FREE ENERGY PREDICTED BY IDOCK:   -0.09 KCAL/MOL
REMARK 927      BINDING AFFINITY PREDICTED BY RF-SCORE:    0.00 PKD
ROOT
HETATM    1  C   UNL     1     -12.755  12.035  63.339  1.00  0.00    -0.398 C  
HETATM    2  O   UNL     1     -11.482  12.645  63.540  1.00  0.00    -0.461 OA 
ENDROOT
BRANCH   2   3
HETATM    3  C   UNL     1     -10.658  11.950  64.403  1.00  0.00    -0.319 A  
HETATM    4  C   UNL     1     -10.549  12.397  65.730  1.00  0.00    -0.256 A  
HETATM    5  O   UNL     1     -11.290  13.548  66.097  1.00  0.00    -0.300 OA 
HETATM    6  C   UNL     1     -11.171  14.129  67.347  1.00  0.00    -0.318 C  
HETATM    7  O   UNL     1     -11.740  15.171  67.653  1.00  0.00    -0.329 OA 
HETATM    8  C   UNL     1     -10.331  13.422  68.330  1.00  0.00    -0.253 C  
HETATM    9  C   UNL     1      -9.667  12.305  68.029  1.00  0.00    -0.205 C  
HETATM   10  C   UNL     1      -9.733  11.769  66.676  1.00  0.00    -0.219 A  
HETATM   11  C   UNL     1      -8.961  10.658  66.311  1.00  0.00    -0.180 A  
HETATM   12  C   UNL     1      -8.976  10.234  64.968  1.00  0.00    -0.225 A  
HETATM   13  C   UNL     1      -9.809  10.886  64.061  1.00  0.00    -0.322 A  
HETATM   14  O   UNL     1      -9.636  10.347  62.819  1.00  0.00    -0.315 OA 
HETATM   15  C   UNL     1      -8.706   9.367  62.923  1.00  0.00    -0.224 A  
HETATM   16  C   UNL     1      -8.284   9.241  64.225  1.00  0.00    -0.153 A  
ENDBRANCH   2   3
TORSDOF 1
ENDMDL
MODEL       83
REMARK 921   NORMALIZED FREE ENERGY PREDICTED BY IDOCK:   -4.22 KCAL/MOL
REMARK 922        TOTAL FREE ENERGY PREDICTED BY IDOCK:   -4.56 KCAL/MOL
REMARK 923 INTER-LIGAND FREE ENERGY PREDICTED BY IDOCK:   -4.53 KCAL/MOL
REMARK 924 INTRA-LIGAND FREE ENERGY PREDICTED BY IDOCK:   -0.03 KCAL/MOL
REMARK 927      BINDING AFFINITY PREDICTED BY RF-SCORE:    0.00 PKD
ROOT
HETATM    1  C   UNL     1      -7.953   8.026  69.560  1.00  0.00    -0.115 C  
HETATM    2  O   UNL     1      -8.353   9.066  70.449  1.00  0.00    -0.127 OA 
ENDROOT
BRANCH   2   3
HETATM    3  C   UNL     1      -9.438   8.742  71.239  1.00  0.00    -0.250 A  
HETATM    4  C   UNL     1     -10.612   9.502  71.108  1.00  0.00    -0.318 A  
HETATM    5  O   UNL     1     -10.603  10.567  70.174  1.00  0.00    -0.246 OA 
HETATM    6  C   UNL     1     -11.670  11.438  70.045  1.00  0.00    -0.334 C  
HETATM    7  O   UNL     1     -11.646  12.414  69.303  1.00  0.00    -0.282 OA 
HETATM    8  C   UNL     1     -12.875  11.134  70.837  1.00  0.00    -0.374 C  
HETATM    9  C   UNL     1     -12.931  10.104  71.682  1.00  0.00    -0.561 C  
HETATM   10  C   UNL     1     -11.759   9.260  71.871  1.00  0.00    -0.420 A  
HETATM   11  C   UNL     1     -11.762   8.239  72.830  1.00  0.00    -0.305 A  
HETATM   12  C   UNL     1     -10.576   7.513  73.052  1.00  0.00    -0.422 A  
HETATM   13  C   UNL     1      -9.459   7.784  72.264  1.00  0.00    -0.170 A  
HETATM   14  O   UNL     1      -8.416   7.004  72.673  1.00  0.00    -0.112 OA 
HETATM   15  C   UNL     1      -8.853   6.245  73.708  1.00  0.00    -0.124 A  
HETATM   16  C   UNL     1     -10.178   6.502  73.966  1.00  0.00    -0.374 A  
ENDBRANCH   2   3
TORSDOF 1
ENDMDL
MODEL       84
REMARK 921   NORMALIZED FREE ENERGY PREDICTED BY IDOCK:   -4.18 KCAL/MOL
REMARK 922        TOTAL FREE ENERGY PREDICTED BY IDOCK:   -4.52 KCAL/MOL
REMARK 923 INTER-LIGAND FREE ENERGY PREDICTED BY IDOCK:   -4.56 KCAL/MOL
REMARK 924 INTRA-LIGAND FREE ENERGY PREDICTED BY IDOCK:    0.04 KCAL/MOL
REMARK 927      BINDING AFFINITY PREDICTED BY RF-SCORE:    0.00 PKD
ROOT
HETATM    1  C   UNL     1      -8.601  19.734  66.080  1.00  0.00    -0.338 C  
HETATM    2  O   UNL     1      -9.549  19.040  66.888  1.00  0.00    -0.300 OA 
ENDROOT
BRANCH   2   3
HETATM    3  C   UNL     1      -9.451  17.664  66.811  1.00  0.00    -0.280 A  
HETATM    4  C   UNL     1      -8.520  17.013  67.635  1.00  0.00    -0.205 A  
HETATM    5  O   UNL     1      -7.727  17.816  68.492  1.00  0.00    -0.271 OA 
HETATM    6  C   UNL     1      -6.711  17.282  69.265  1.00  0.00    -0.230 C  
HETATM    7  O   UNL     1      -5.962  17.973  69.947  1.00  0.00    -0.240 OA 
HETATM    8  C   UNL     1      -6.569  15.816  69.255  1.00  0.00    -0.160 C  
HETATM    9  C   UNL     1      -7.340  15.030  68.500  1.00  0.00    -0.117 C  
HETATM   10  C   UNL     1      -8.337  15.627  67.622  1.00  0.00    -0.168 A  
HETATM   11  C   UNL     1      -9.084  14.828  66.745  1.00  0.00    -0.291 A  
HETATM   12  C   UNL     1      -9.964  15.454  65.842  1.00  0.00    -0.374 A  
HETATM   13  C   UNL     1     -10.118  16.838  65.894  1.00  0.00    -0.304 A  
HETATM   14  O   UNL     1     -10.978  17.235  64.911  1.00  0.00    -0.815 OA 
HETATM   15  C   UNL     1     -11.368  16.127  64.235  1.00  0.00    -0.088 A  
HETATM   16  C   UNL     1     -10.793  15.005  64.779  1.00  0.00    -0.375 A  
ENDBRANCH   2   3
TORSDOF 1
ENDMDL
MODEL       85
REMARK 921   NORMALIZED FREE ENERGY PREDICTED BY IDOCK:   -4.16 KCAL/MOL
REMARK 922        TOTAL FREE ENERGY PREDICTED BY IDOCK:   -4.50 KCAL/MOL
REMARK 923 INTER-LIGAND FREE ENERGY PREDICTED BY IDOCK:   -4.46 KCAL/MOL
REMARK 924 INTRA-LIGAND FREE ENERGY PREDICTED BY IDOCK:   -0.04 KCAL/MOL
REMARK 927      BINDING AFFINITY PREDICTED BY RF-SCORE:    0.00 PKD
ROOT
HETATM    1  C   UNL     1     -10.344  16.827  65.844  1.00  0.00    -0.328 C  
HETATM    2  O   UNL     1     -10.986  15.836  66.644  1.00  0.00    -0.286 OA 
ENDROOT
BRANCH   2   3
HETATM    3  C   UNL     1     -10.652  14.540  66.304  1.00  0.00    -0.304 A  
HETATM    4  C   UNL     1      -9.586  13.924  66.979  1.00  0.00    -0.254 A  
HETATM    5  O   UNL     1      -8.908  14.683  67.965  1.00  0.00    -0.159 OA 
HETATM    6  C   UNL     1      -7.781  14.207  68.611  1.00  0.00    -0.135 C  
HETATM    7  O   UNL     1      -7.135  14.881  69.405  1.00  0.00    -0.150 OA 
HETATM    8  C   UNL     1      -7.386  12.817  68.319  1.00  0.00    -0.117 C  
HETATM    9  C   UNL     1      -8.040  12.060  67.437  1.00  0.00    -0.168 C  
HETATM   10  C   UNL     1      -9.165  12.621  66.699  1.00  0.00    -0.218 A  
HETATM   11  C   UNL     1      -9.798  11.878  65.694  1.00  0.00    -0.266 A  
HETATM   12  C   UNL     1     -10.813  12.493  64.935  1.00  0.00    -0.327 A  
HETATM   13  C   UNL     1     -11.205  13.792  65.253  1.00  0.00    -0.307 A  
HETATM   14  O   UNL     1     -12.163  14.204  64.373  1.00  0.00    -0.484 OA 
HETATM   15  C   UNL     1     -12.384  13.190  63.502  1.00  0.00    -0.398 A  
HETATM   16  C   UNL     1     -11.598  12.107  63.815  1.00  0.00    -0.557 A  
ENDBRANCH   2   3
TORSDOF 1
ENDMDL
MODEL       86
REMARK 921   NORMALIZED FREE ENERGY PREDICTED BY IDOCK:   -4.14 KCAL/MOL
REMARK 922        TOTAL FREE ENERGY PREDICTED BY IDOCK:   -4.48 KCAL/MOL
REMARK 923 INTER-LIGAND FREE ENERGY PREDICTED BY IDOCK:   -4.72 KCAL/MOL
REMARK 924 INTRA-LIGAND FREE ENERGY PREDICTED BY IDOCK:    0.24 KCAL/MOL
REMARK 927      BINDING AFFINITY PREDICTED BY RF-SCORE:    0.00 PKD
ROOT
HETATM    1  C   UNL     1     -12.034  11.771  64.417  1.00  0.00    -0.152 C  
HETATM    2  O   UNL     1     -10.610  11.830  64.467  1.00  0.00    -0.278 OA 
ENDROOT
BRANCH   2   3
HETATM    3  C   UNL     1     -10.113  12.402  65.622  1.00  0.00    -0.257 A  
HETATM    4  C   UNL     1     -10.263  13.787  65.801  1.00  0.00    -0.311 A  
HETATM    5  O   UNL     1     -10.911  14.514  64.772  1.00  0.00    -0.399 OA 
HETATM    6  C   UNL     1     -11.016  15.894  64.803  1.00  0.00    -0.375 C  
HETATM    7  O   UNL     1     -11.498  16.545  63.883  1.00  0.00    -1.145 OA 
HETATM    8  C   UNL     1     -10.533  16.569  66.021  1.00  0.00    -0.320 C  
HETATM    9  C   UNL     1      -9.970  15.902  67.030  1.00  0.00    -0.248 C  
HETATM   10  C   UNL     1      -9.784  14.461  66.928  1.00  0.00    -0.266 A  
HETATM   11  C   UNL     1      -9.102  13.757  67.930  1.00  0.00    -0.193 A  
HETATM   12  C   UNL     1      -8.854  12.384  67.744  1.00  0.00    -0.176 A  
HETATM   13  C   UNL     1      -9.356  11.752  66.608  1.00  0.00    -0.198 A  
HETATM   14  O   UNL     1      -8.966  10.444  66.607  1.00  0.00    -0.140 OA 
HETATM   15  C   UNL     1      -8.224  10.236  67.723  1.00  0.00    -0.110 A  
HETATM   16  C   UNL     1      -8.143  11.389  68.467  1.00  0.00    -0.149 A  
ENDBRANCH   2   3
TORSDOF 1
ENDMDL
MODEL       87
REMARK 921   NORMALIZED FREE ENERGY PREDICTED BY IDOCK:   -4.14 KCAL/MOL
REMARK 922        TOTAL FREE ENERGY PREDICTED BY IDOCK:   -4.48 KCAL/MOL
REMARK 923 INTER-LIGAND FREE ENERGY PREDICTED BY IDOCK:   -4.57 KCAL/MOL
REMARK 924 INTRA-LIGAND FREE ENERGY PREDICTED BY IDOCK:    0.09 KCAL/MOL
REMARK 927      BINDING AFFINITY PREDICTED BY RF-SCORE:    0.00 PKD
ROOT
HETATM    1  C   UNL     1      -9.354  12.306  68.140  1.00  0.00    -0.205 C  
HETATM    2  O   UNL     1      -9.899  13.539  68.604  1.00  0.00    -0.209 OA 
ENDROOT
BRANCH   2   3
HETATM    3  C   UNL     1      -9.660  14.609  67.763  1.00  0.00    -0.213 A  
HETATM    4  C   UNL     1     -10.476  14.765  66.631  1.00  0.00    -0.286 A  
HETATM    5  O   UNL     1     -11.493  13.802  66.417  1.00  0.00    -0.316 OA 
HETATM    6  C   UNL     1     -12.280  13.807  65.279  1.00  0.00    -0.439 C  
HETATM    7  O   UNL     1     -13.106  12.934  65.039  1.00  0.00    -0.794 OA 
HETATM    8  C   UNL     1     -12.100  14.938  64.352  1.00  0.00    -0.417 C  
HETATM    9  C   UNL     1     -11.189  15.890  64.558  1.00  0.00    -0.324 C  
HETATM   10  C   UNL     1     -10.307  15.807  65.715  1.00  0.00    -0.390 A  
HETATM   11  C   UNL     1      -9.275  16.739  65.892  1.00  0.00    -0.142 A  
HETATM   12  C   UNL     1      -8.382  16.564  66.967  1.00  0.00    -0.220 A  
HETATM   13  C   UNL     1      -8.593  15.514  67.859  1.00  0.00    -0.155 A  
HETATM   14  O   UNL     1      -7.595  15.504  68.790  1.00  0.00    -0.132 OA 
HETATM   15  C   UNL     1      -6.754  16.527  68.502  1.00  0.00    -0.145 A  
HETATM   16  C   UNL     1      -7.203  17.223  67.405  1.00  0.00    -0.183 A  
ENDBRANCH   2   3
TORSDOF 1
ENDMDL
MODEL       88
REMARK 921   NORMALIZED FREE ENERGY PREDICTED BY IDOCK:   -4.12 KCAL/MOL
REMARK 922        TOTAL FREE ENERGY PREDICTED BY IDOCK:   -4.46 KCAL/MOL
REMARK 923 INTER-LIGAND FREE ENERGY PREDICTED BY IDOCK:   -4.37 KCAL/MOL
REMARK 924 INTRA-LIGAND FREE ENERGY PREDICTED BY IDOCK:   -0.09 KCAL/MOL
REMARK 927      BINDING AFFINITY PREDICTED BY RF-SCORE:    0.00 PKD
ROOT
HETATM    1  C   UNL     1     -10.076  15.229  67.177  1.00  0.00    -0.240 C  
HETATM    2  O   UNL     1      -9.997  16.008  68.368  1.00  0.00    -0.214 OA 
ENDROOT
BRANCH   2   3
HETATM    3  C   UNL     1      -9.187  17.121  68.258  1.00  0.00    -0.262 A  
HETATM    4  C   UNL     1      -7.886  17.056  68.780  1.00  0.00    -0.253 A  
HETATM    5  O   UNL     1      -7.488  15.847  69.402  1.00  0.00    -0.219 OA 
HETATM    6  C   UNL     1      -6.266  15.717  70.039  1.00  0.00    -0.135 C  
HETATM    7  O   UNL     1      -5.941  14.707  70.653  1.00  0.00    -0.166 OA 
HETATM    8  C   UNL     1      -5.338  16.856  69.935  1.00  0.00    -0.188 C  
HETATM    9  C   UNL     1      -5.665  17.987  69.306  1.00  0.00    -0.213 C  
HETATM   10  C   UNL     1      -6.995  18.132  68.728  1.00  0.00    -0.276 A  
HETATM   11  C   UNL     1      -7.394  19.348  68.157  1.00  0.00    -0.330 A  
HETATM   12  C   UNL     1      -8.720  19.480  67.702  1.00  0.00    -0.361 A  
HETATM   13  C   UNL     1      -9.572  18.378  67.768  1.00  0.00    -0.287 A  
HETATM   14  O   UNL     1     -10.810  18.736  67.319  1.00  0.00    -0.443 OA 
HETATM   15  C   UNL     1     -10.759  20.045  66.972  1.00  0.00    -0.237 A  
HETATM   16  C   UNL     1      -9.493  20.544  67.166  1.00  0.00    -0.544 A  
ENDBRANCH   2   3
TORSDOF 1
ENDMDL
MODEL       89
REMARK 921   NORMALIZED FREE ENERGY PREDICTED BY IDOCK:   -4.10 KCAL/MOL
REMARK 922        TOTAL FREE ENERGY PREDICTED BY IDOCK:   -4.43 KCAL/MOL
REMARK 923 INTER-LIGAND FREE ENERGY PREDICTED BY IDOCK:   -4.38 KCAL/MOL
REMARK 924 INTRA-LIGAND FREE ENERGY PREDICTED BY IDOCK:   -0.05 KCAL/MOL
REMARK 927      BINDING AFFINITY PREDICTED BY RF-SCORE:    0.00 PKD
ROOT
HETATM    1  C   UNL     1      -8.853   9.993  65.922  1.00  0.00    -0.144 C  
HETATM    2  O   UNL     1      -8.507  10.818  67.032  1.00  0.00    -0.125 OA 
ENDROOT
BRANCH   2   3
HETATM    3  C   UNL     1      -9.575  11.133  67.850  1.00  0.00    -0.175 A  
HETATM    4  C   UNL     1     -10.261  12.336  67.620  1.00  0.00    -0.203 A  
HETATM    5  O   UNL     1      -9.804  13.161  66.563  1.00  0.00    -0.253 OA 
HETATM    6  C   UNL     1     -10.344  14.412  66.322  1.00  0.00    -0.295 C  
HETATM    7  O   UNL     1      -9.906  15.172  65.466  1.00  0.00    -0.338 OA 
HETATM    8  C   UNL     1     -11.508  14.801  67.138  1.00  0.00    -0.375 C  
HETATM    9  C   UNL     1     -11.996  14.019  68.103  1.00  0.00    -0.382 C  
HETATM   10  C   UNL     1     -11.346  12.749  68.400  1.00  0.00    -0.331 A  
HETATM   11  C   UNL     1     -11.777  11.963  69.477  1.00  0.00    -0.410 A  
HETATM   12  C   UNL     1     -11.059  10.794  69.792  1.00  0.00    -0.346 A  
HETATM   13  C   UNL     1      -9.988  10.418  68.984  1.00  0.00    -0.214 A  
HETATM   14  O   UNL     1      -9.412   9.289  69.492  1.00  0.00    -0.160 OA 
HETATM   15  C   UNL     1     -10.098   8.945  70.609  1.00  0.00    -0.212 A  
HETATM   16  C   UNL     1     -11.133   9.823  70.826  1.00  0.00    -0.415 A  
ENDBRANCH   2   3
TORSDOF 1
ENDMDL
MODEL       90
REMARK 921   NORMALIZED FREE ENERGY PREDICTED BY IDOCK:   -4.08 KCAL/MOL
REMARK 922        TOTAL FREE ENERGY PREDICTED BY IDOCK:   -4.41 KCAL/MOL
REMARK 923 INTER-LIGAND FREE ENERGY PREDICTED BY IDOCK:   -4.34 KCAL/MOL
REMARK 924 INTRA-LIGAND FREE ENERGY PREDICTED BY IDOCK:   -0.07 KCAL/MOL
REMARK 927      BINDING AFFINITY PREDICTED BY RF-SCORE:    0.00 PKD
ROOT
HETATM    1  C   UNL     1     -12.392  11.055  70.798  1.00  0.00    -0.398 C  
HETATM    2  O   UNL     1     -11.125  10.401  70.813  1.00  0.00    -0.304 OA 
ENDROOT
BRANCH   2   3
HETATM    3  C   UNL     1     -10.918   9.556  69.740  1.00  0.00    -0.223 A  
HETATM    4  C   UNL     1     -10.847   8.175  69.981  1.00  0.00    -0.233 A  
HETATM    5  O   UNL     1     -10.982   7.734  71.321  1.00  0.00    -0.231 OA 
HETATM    6  C   UNL     1     -10.823   6.406  71.676  1.00  0.00    -0.247 C  
HETATM    7  O   UNL     1     -10.854   6.021  72.839  1.00  0.00    -0.232 OA 
HETATM    8  C   UNL     1     -10.631   5.443  70.577  1.00  0.00    -0.312 C  
HETATM    9  C   UNL     1     -10.556   5.824  69.301  1.00  0.00    -0.376 C  
HETATM   10  C   UNL     1     -10.630   7.239  68.964  1.00  0.00    -0.214 A  
HETATM   11  C   UNL     1     -10.448   7.668  67.642  1.00  0.00    -0.313 A  
HETATM   12  C   UNL     1     -10.425   9.050  67.376  1.00  0.00    -0.338 A  
HETATM   13  C   UNL     1     -10.653   9.946  68.419  1.00  0.00    -0.222 A  
HETATM   14  O   UNL     1     -10.544  11.224  67.951  1.00  0.00    -0.180 OA 
HETATM   15  C   UNL     1     -10.248  11.153  66.630  1.00  0.00    -0.232 A  
HETATM   16  C   UNL     1     -10.186   9.843  66.221  1.00  0.00    -0.282 A  
ENDBRANCH   2   3
TORSDOF 1
ENDMDL
MODEL       91
REMARK 921   NORMALIZED FREE ENERGY PREDICTED BY IDOCK:   -4.05 KCAL/MOL
REMARK 922        TOTAL FREE ENERGY PREDICTED BY IDOCK:   -4.38 KCAL/MOL
REMARK 923 INTER-LIGAND FREE ENERGY PREDICTED BY IDOCK:   -4.36 KCAL/MOL
REMARK 924 INTRA-LIGAND FREE ENERGY PREDICTED BY IDOCK:   -0.02 KCAL/MOL
REMARK 927      BINDING AFFINITY PREDICTED BY RF-SCORE:    0.00 PKD
ROOT
HETATM    1  C   UNL     1     -11.374  12.054  68.608  1.00  0.00    -0.277 C  
HETATM    2  O   UNL     1     -11.816  10.892  67.910  1.00  0.00    -0.590 OA 
ENDROOT
BRANCH   2   3
HETATM    3  C   UNL     1     -11.075  10.599  66.782  1.00  0.00    -0.030 A  
HETATM    4  C   UNL     1     -10.195   9.505  66.826  1.00  0.00    -0.243 A  
HETATM    5  O   UNL     1     -10.117   8.774  68.036  1.00  0.00    -0.178 OA 
HETATM    6  C   UNL     1      -9.207   7.746  68.215  1.00  0.00    -0.139 C  
HETATM    7  O   UNL     1      -9.069   7.159  69.283  1.00  0.00    -0.139 OA 
HETATM    8  C   UNL     1      -8.403   7.360  67.043  1.00  0.00    -0.121 C  
HETATM    9  C   UNL     1      -8.497   7.995  65.873  1.00  0.00    -0.154 C  
HETATM   10  C   UNL     1      -9.393   9.136  65.741  1.00  0.00    -0.309 A  
HETATM   11  C   UNL     1      -9.429   9.881  64.555  1.00  0.00    -0.328 A  
HETATM   12  C   UNL     1     -10.232  11.036  64.504  1.00  0.00    -0.406 A  
HETATM   13  C   UNL     1     -11.020  11.363  65.607  1.00  0.00    -0.190 A  
HETATM   14  O   UNL     1     -11.680  12.532  65.362  1.00  0.00    -0.360 OA 
HETATM   15  C   UNL     1     -11.322  12.953  64.124  1.00  0.00    -0.393 A  
HETATM   16  C   UNL     1     -10.453  12.060  63.545  1.00  0.00    -0.505 A  
ENDBRANCH   2   3
TORSDOF 1
ENDMDL
MODEL       92
REMARK 921   NORMALIZED FREE ENERGY PREDICTED BY IDOCK:   -4.05 KCAL/MOL
REMARK 922        TOTAL FREE ENERGY PREDICTED BY IDOCK:   -4.37 KCAL/MOL
REMARK 923 INTER-LIGAND FREE ENERGY PREDICTED BY IDOCK:   -4.28 KCAL/MOL
REMARK 924 INTRA-LIGAND FREE ENERGY PREDICTED BY IDOCK:   -0.09 KCAL/MOL
REMARK 927      BINDING AFFINITY PREDICTED BY RF-SCORE:    0.00 PKD
ROOT
HETATM    1  C   UNL     1      -6.320  16.212  67.271  1.00  0.00    -0.169 C  
HETATM    2  O   UNL     1      -7.642  16.027  67.773  1.00  0.00    -0.129 OA 
ENDROOT
BRANCH   2   3
HETATM    3  C   UNL     1      -8.219  14.828  67.403  1.00  0.00    -0.196 A  
HETATM    4  C   UNL     1      -9.253  14.849  66.453  1.00  0.00    -0.284 A  
HETATM    5  O   UNL     1      -9.648  16.110  65.941  1.00  0.00    -0.320 OA 
HETATM    6  C   UNL     1     -10.725  16.248  65.082  1.00  0.00    -0.331 C  
HETATM    7  O   UNL     1     -11.131  17.338  64.696  1.00  0.00    -1.052 OA 
HETATM    8  C   UNL     1     -11.370  15.006  64.621  1.00  0.00    -0.357 C  
HETATM    9  C   UNL     1     -10.982  13.802  65.043  1.00  0.00    -0.359 C  
HETATM   10  C   UNL     1      -9.909  13.692  66.022  1.00  0.00    -0.290 A  
HETATM   11  C   UNL     1      -9.557  12.445  66.557  1.00  0.00    -0.242 A  
HETATM   12  C   UNL     1      -8.586  12.394  67.575  1.00  0.00    -0.177 A  
HETATM   13  C   UNL     1      -7.954  13.572  67.969  1.00  0.00    -0.151 A  
HETATM   14  O   UNL     1      -7.088  13.303  68.989  1.00  0.00    -0.103 OA 
HETATM   15  C   UNL     1      -7.161  11.975  69.249  1.00  0.00     0.019 A  
HETATM   16  C   UNL     1      -8.049  11.366  68.395  1.00  0.00    -0.145 A  
ENDBRANCH   2   3
TORSDOF 1
ENDMDL
MODEL       93
REMARK 921   NORMALIZED FREE ENERGY PREDICTED BY IDOCK:   -4.04 KCAL/MOL
REMARK 922        TOTAL FREE ENERGY PREDICTED BY IDOCK:   -4.37 KCAL/MOL
REMARK 923 INTER-LIGAND FREE ENERGY PREDICTED BY IDOCK:   -4.28 KCAL/MOL
REMARK 924 INTRA-LIGAND FREE ENERGY PREDICTED BY IDOCK:   -0.09 KCAL/MOL
REMARK 927      BINDING AFFINITY PREDICTED BY RF-SCORE:    0.00 PKD
ROOT
HETATM    1  C   UNL     1      -9.417  11.336  66.202  1.00  0.00    -0.208 C  
HETATM    2  O   UNL     1      -8.944  12.168  67.259  1.00  0.00    -0.171 OA 
ENDROOT
BRANCH   2   3
HETATM    3  C   UNL     1      -9.947  12.712  68.036  1.00  0.00    -0.220 A  
HETATM    4  C   UNL     1     -10.245  14.076  67.886  1.00  0.00    -0.240 A  
HETATM    5  O   UNL     1      -9.483  14.814  66.947  1.00  0.00    -0.220 OA 
HETATM    6  C   UNL     1      -9.626  16.182  66.799  1.00  0.00    -0.240 C  
HETATM    7  O   UNL     1      -8.918  16.848  66.053  1.00  0.00    -0.458 OA 
HETATM    8  C   UNL     1     -10.701  16.825  67.576  1.00  0.00    -0.275 C  
HETATM    9  C   UNL     1     -11.471  16.144  68.426  1.00  0.00    -0.298 C  
HETATM   10  C   UNL     1     -11.234  14.721  68.634  1.00  0.00    -0.288 A  
HETATM   11  C   UNL     1     -11.961  14.011  69.598  1.00  0.00    -0.393 A  
HETATM   12  C   UNL     1     -11.631  12.663  69.839  1.00  0.00    -0.248 A  
HETATM   13  C   UNL     1     -10.642  12.059  69.065  1.00  0.00    -0.098 A  
HETATM   14  O   UNL     1     -10.454  10.776  69.492  1.00  0.00    -0.220 OA 
HETATM   15  C   UNL     1     -11.305  10.558  70.524  1.00  0.00    -0.314 A  
HETATM   16  C   UNL     1     -12.066  11.677  70.764  1.00  0.00    -0.383 A  
ENDBRANCH   2   3
TORSDOF 1
ENDMDL
MODEL       94
REMARK 921   NORMALIZED FREE ENERGY PREDICTED BY IDOCK:   -4.00 KCAL/MOL
REMARK 922        TOTAL FREE ENERGY PREDICTED BY IDOCK:   -4.32 KCAL/MOL
REMARK 923 INTER-LIGAND FREE ENERGY PREDICTED BY IDOCK:   -4.27 KCAL/MOL
REMARK 924 INTRA-LIGAND FREE ENERGY PREDICTED BY IDOCK:   -0.05 KCAL/MOL
REMARK 927      BINDING AFFINITY PREDICTED BY RF-SCORE:    0.00 PKD
ROOT
HETATM    1  C   UNL     1     -10.759   5.521  71.528  1.00  0.00    -0.222 C  
HETATM    2  O   UNL     1     -11.315   6.113  70.356  1.00  0.00    -0.352 OA 
ENDROOT
BRANCH   2   3
HETATM    3  C   UNL     1     -11.364   7.493  70.394  1.00  0.00    -0.233 A  
HETATM    4  C   UNL     1     -10.328   8.217  69.783  1.00  0.00    -0.216 A  
HETATM    5  O   UNL     1      -9.284   7.479  69.172  1.00  0.00    -0.145 OA 
HETATM    6  C   UNL     1      -8.167   8.095  68.636  1.00  0.00    -0.125 C  
HETATM    7  O   UNL     1      -7.217   7.468  68.178  1.00  0.00    -0.085 OA 
HETATM    8  C   UNL     1      -8.166   9.568  68.615  1.00  0.00    -0.112 C  
HETATM    9  C   UNL     1      -9.163  10.289  69.133  1.00  0.00    -0.203 C  
HETATM   10  C   UNL     1     -10.281   9.614  69.778  1.00  0.00    -0.262 A  
HETATM   11  C   UNL     1     -11.284  10.353  70.421  1.00  0.00    -0.399 A  
HETATM   12  C   UNL     1     -12.292   9.661  71.119  1.00  0.00    -0.427 A  
HETATM   13  C   UNL     1     -12.302   8.268  71.092  1.00  0.00    -0.206 A  
HETATM   14  O   UNL     1     -13.330   7.807  71.863  1.00  0.00    -0.318 OA 
HETATM   15  C   UNL     1     -13.970   8.884  72.380  1.00  0.00    -0.448 A  
HETATM   16  C   UNL     1     -13.387  10.047  71.938  1.00  0.00    -0.516 A  
ENDBRANCH   2   3
TORSDOF 1
ENDMDL
MODEL       95
REMARK 921   NORMALIZED FREE ENERGY PREDICTED BY IDOCK:   -3.96 KCAL/MOL
REMARK 922        TOTAL FREE ENERGY PREDICTED BY IDOCK:   -4.29 KCAL/MOL
REMARK 923 INTER-LIGAND FREE ENERGY PREDICTED BY IDOCK:   -4.39 KCAL/MOL
REMARK 924 INTRA-LIGAND FREE ENERGY PREDICTED BY IDOCK:    0.10 KCAL/MOL
REMARK 927      BINDING AFFINITY PREDICTED BY RF-SCORE:    0.00 PKD
ROOT
HETATM    1  C   UNL     1     -12.841  11.432  71.077  1.00  0.00    -0.286 C  
HETATM    2  O   UNL     1     -11.685  12.001  70.467  1.00  0.00    -0.227 OA 
ENDROOT
BRANCH   2   3
HETATM    3  C   UNL     1     -11.417  11.508  69.205  1.00  0.00    -0.305 A  
HETATM    4  C   UNL     1     -10.770  10.267  69.095  1.00  0.00    -0.228 A  
HETATM    5  O   UNL     1     -10.421   9.600  70.295  1.00  0.00    -0.242 OA 
HETATM    6  C   UNL     1      -9.689   8.425  70.295  1.00  0.00    -0.172 C  
HETATM    7  O   UNL     1      -9.308   7.880  71.325  1.00  0.00    -0.143 OA 
HETATM    8  C   UNL     1      -9.395   7.826  68.981  1.00  0.00    -0.150 C  
HETATM    9  C   UNL     1      -9.761   8.404  67.836  1.00  0.00    -0.189 C  
HETATM   10  C   UNL     1     -10.445   9.690  67.863  1.00  0.00    -0.296 A  
HETATM   11  C   UNL     1     -10.744  10.363  66.671  1.00  0.00    -0.198 A  
HETATM   12  C   UNL     1     -11.313  11.649  66.744  1.00  0.00    -0.354 A  
HETATM   13  C   UNL     1     -11.626  12.183  67.993  1.00  0.00    -0.348 A  
HETATM   14  O   UNL     1     -12.123  13.444  67.835  1.00  0.00    -0.338 OA 
HETATM   15  C   UNL     1     -12.128  13.720  66.508  1.00  0.00    -0.443 A  
HETATM   16  C   UNL     1     -11.662  12.644  65.792  1.00  0.00    -0.466 A  
ENDBRANCH   2   3
TORSDOF 1
ENDMDL
MODEL       96
REMARK 921   NORMALIZED FREE ENERGY PREDICTED BY IDOCK:   -3.95 KCAL/MOL
REMARK 922        TOTAL FREE ENERGY PREDICTED BY IDOCK:   -4.27 KCAL/MOL
REMARK 923 INTER-LIGAND FREE ENERGY PREDICTED BY IDOCK:   -4.29 KCAL/MOL
REMARK 924 INTRA-LIGAND FREE ENERGY PREDICTED BY IDOCK:    0.02 KCAL/MOL
REMARK 927      BINDING AFFINITY PREDICTED BY RF-SCORE:    0.00 PKD
ROOT
HETATM    1  C   UNL     1      -7.998   6.945  69.453  1.00  0.00    -0.115 C  
HETATM    2  O   UNL     1      -9.355   7.110  69.047  1.00  0.00    -0.142 OA 
ENDROOT
BRANCH   2   3
HETATM    3  C   UNL     1     -10.241   7.252  70.097  1.00  0.00    -0.203 A  
HETATM    4  C   UNL     1     -10.856   8.500  70.288  1.00  0.00    -0.238 A  
HETATM    5  O   UNL     1     -10.517   9.543  69.391  1.00  0.00    -0.201 OA 
HETATM    6  C   UNL     1     -10.987  10.834  69.557  1.00  0.00    -0.266 C  
HETATM    7  O   UNL     1     -10.638  11.766  68.840  1.00  0.00    -0.212 OA 
HETATM    8  C   UNL     1     -11.961  11.053  70.640  1.00  0.00    -0.464 C  
HETATM    9  C   UNL     1     -12.342  10.075  71.465  1.00  0.00    -0.513 C  
HETATM   10  C   UNL     1     -11.757   8.748  71.328  1.00  0.00    -0.356 A  
HETATM   11  C   UNL     1     -12.063   7.736  72.248  1.00  0.00    -0.332 A  
HETATM   12  C   UNL     1     -11.399   6.499  72.141  1.00  0.00    -0.321 A  
HETATM   13  C   UNL     1     -10.514   6.295  71.085  1.00  0.00    -0.223 A  
HETATM   14  O   UNL     1      -9.954   5.054  71.196  1.00  0.00    -0.186 OA 
HETATM   15  C   UNL     1     -10.469   4.470  72.306  1.00  0.00    -0.145 A  
HETATM   16  C   UNL     1     -11.378   5.305  72.911  1.00  0.00    -0.368 A  
ENDBRANCH   2   3
TORSDOF 1
ENDMDL
MODEL       97
REMARK 921   NORMALIZED FREE ENERGY PREDICTED BY IDOCK:   -3.93 KCAL/MOL
REMARK 922        TOTAL FREE ENERGY PREDICTED BY IDOCK:   -4.25 KCAL/MOL
REMARK 923 INTER-LIGAND FREE ENERGY PREDICTED BY IDOCK:   -4.19 KCAL/MOL
REMARK 924 INTRA-LIGAND FREE ENERGY PREDICTED BY IDOCK:   -0.06 KCAL/MOL
REMARK 927      BINDING AFFINITY PREDICTED BY RF-SCORE:    0.00 PKD
ROOT
HETATM    1  C   UNL     1      -9.978   7.378  66.850  1.00  0.00    -0.236 C  
HETATM    2  O   UNL     1      -9.466   7.910  68.069  1.00  0.00    -0.147 OA 
ENDROOT
BRANCH   2   3
HETATM    3  C   UNL     1     -10.055   7.383  69.202  1.00  0.00    -0.189 A  
HETATM    4  C   UNL     1     -10.837   8.229  70.004  1.00  0.00    -0.232 A  
HETATM    5  O   UNL     1     -10.963   9.582  69.604  1.00  0.00    -0.236 OA 
HETATM    6  C   UNL     1     -11.623  10.519  70.379  1.00  0.00    -0.342 C  
HETATM    7  O   UNL     1     -11.670  11.709  70.088  1.00  0.00    -0.323 OA 
HETATM    8  C   UNL     1     -12.302  10.020  71.588  1.00  0.00    -0.486 C  
HETATM    9  C   UNL     1     -12.248   8.740  71.959  1.00  0.00    -0.447 C  
HETATM   10  C   UNL     1     -11.464   7.794  71.176  1.00  0.00    -0.295 A  
HETATM   11  C   UNL     1     -11.307   6.470  71.606  1.00  0.00    -0.332 A  
HETATM   12  C   UNL     1     -10.460   5.616  70.875  1.00  0.00    -0.323 A  
HETATM   13  C   UNL     1      -9.860   6.091  69.710  1.00  0.00    -0.165 A  
HETATM   14  O   UNL     1      -9.053   5.121  69.189  1.00  0.00    -0.098 OA 
HETATM   15  C   UNL     1      -9.129   4.041  70.004  1.00  0.00    -0.119 A  
HETATM   16  C   UNL     1      -9.996   4.283  71.042  1.00  0.00    -0.223 A  
ENDBRANCH   2   3
TORSDOF 1
ENDMDL
MODEL       98
REMARK 921   NORMALIZED FREE ENERGY PREDICTED BY IDOCK:   -3.92 KCAL/MOL
REMARK 922        TOTAL FREE ENERGY PREDICTED BY IDOCK:   -4.24 KCAL/MOL
REMARK 923 INTER-LIGAND FREE ENERGY PREDICTED BY IDOCK:   -4.27 KCAL/MOL
REMARK 924 INTRA-LIGAND FREE ENERGY PREDICTED BY IDOCK:    0.03 KCAL/MOL
REMARK 927      BINDING AFFINITY PREDICTED BY RF-SCORE:    0.00 PKD
ROOT
HETATM    1  C   UNL     1      -9.965   8.729  66.842  1.00  0.00    -0.257 C  
HETATM    2  O   UNL     1     -10.683   9.790  67.469  1.00  0.00    -0.264 OA 
ENDROOT
BRANCH   2   3
HETATM    3  C   UNL     1     -10.064  11.020  67.372  1.00  0.00    -0.186 A  
HETATM    4  C   UNL     1     -10.670  12.013  66.586  1.00  0.00    -0.245 A  
HETATM    5  O   UNL     1     -11.881  11.683  65.930  1.00  0.00    -0.342 OA 
HETATM    6  C   UNL     1     -12.501  12.554  65.051  1.00  0.00    -0.420 C  
HETATM    7  O   UNL     1     -13.503  12.252  64.412  1.00  0.00    -0.686 OA 
HETATM    8  C   UNL     1     -11.911  13.898  64.921  1.00  0.00    -0.412 C  
HETATM    9  C   UNL     1     -10.802  14.255  65.571  1.00  0.00    -0.325 C  
HETATM   10  C   UNL     1     -10.116  13.286  66.415  1.00  0.00    -0.290 A  
HETATM   11  C   UNL     1      -8.895  13.608  67.021  1.00  0.00    -0.233 A  
HETATM   12  C   UNL     1      -8.214  12.610  67.745  1.00  0.00    -0.171 A  
HETATM   13  C   UNL     1      -8.806  11.358  67.894  1.00  0.00    -0.149 A  
HETATM   14  O   UNL     1      -7.963  10.537  68.587  1.00  0.00    -0.109 OA 
HETATM   15  C   UNL     1      -6.846  11.247  68.876  1.00  0.00    -0.086 A  
HETATM   16  C   UNL     1      -6.956  12.532  68.402  1.00  0.00    -0.096 A  
ENDBRANCH   2   3
TORSDOF 1
ENDMDL
MODEL       99
REMARK 921   NORMALIZED FREE ENERGY PREDICTED BY IDOCK:   -3.91 KCAL/MOL
REMARK 922        TOTAL FREE ENERGY PREDICTED BY IDOCK:   -4.23 KCAL/MOL
REMARK 923 INTER-LIGAND FREE ENERGY PREDICTED BY IDOCK:   -4.23 KCAL/MOL
REMARK 924 INTRA-LIGAND FREE ENERGY PREDICTED BY IDOCK:    0.00 KCAL/MOL
REMARK 927      BINDING AFFINITY PREDICTED BY RF-SCORE:    0.00 PKD
ROOT
HETATM    1  C   UNL     1     -10.830  19.427  67.515  1.00  0.00    -0.404 C  
HETATM    2  O   UNL     1     -10.408  18.510  68.522  1.00  0.00    -0.361 OA 
ENDROOT
BRANCH   2   3
HETATM    3  C   UNL     1      -9.613  17.485  68.049  1.00  0.00    -0.282 A  
HETATM    4  C   UNL     1     -10.044  16.162  68.239  1.00  0.00    -0.232 A  
HETATM    5  O   UNL     1     -11.271  15.963  68.918  1.00  0.00    -0.297 OA 
HETATM    6  C   UNL     1     -11.730  14.700  69.248  1.00  0.00    -0.312 C  
HETATM    7  O   UNL     1     -12.746  14.513  69.908  1.00  0.00    -0.255 OA 
HETATM    8  C   UNL     1     -10.947  13.557  68.747  1.00  0.00    -0.291 C  
HETATM    9  C   UNL     1      -9.817  13.715  68.055  1.00  0.00    -0.244 C  
HETATM   10  C   UNL     1      -9.305  15.056  67.807  1.00  0.00    -0.186 A  
HETATM   11  C   UNL     1      -8.068  15.241  67.175  1.00  0.00    -0.248 A  
HETATM   12  C   UNL     1      -7.562  16.549  67.046  1.00  0.00    -0.240 A  
HETATM   13  C   UNL     1      -8.335  17.621  67.485  1.00  0.00    -0.218 A  
HETATM   14  O   UNL     1      -7.642  18.783  67.305  1.00  0.00    -0.221 OA 
HETATM   15  C   UNL     1      -6.442  18.465  66.763  1.00  0.00    -0.184 A  
HETATM   16  C   UNL     1      -6.349  17.109  66.562  1.00  0.00    -0.253 A  
ENDBRANCH   2   3
TORSDOF 1
ENDMDL
MODEL      100
REMARK 921   NORMALIZED FREE ENERGY PREDICTED BY IDOCK:   -3.87 KCAL/MOL
REMARK 922        TOTAL FREE ENERGY PREDICTED BY IDOCK:   -4.19 KCAL/MOL
REMARK 923 INTER-LIGAND FREE ENERGY PREDICTED BY IDOCK:   -4.20 KCAL/MOL
REMARK 924 INTRA-LIGAND FREE ENERGY PREDICTED BY IDOCK:    0.01 KCAL/MOL
REMARK 927      BINDING AFFINITY PREDICTED BY RF-SCORE:    0.00 PKD
ROOT
HETATM    1  C   UNL     1     -12.568  13.322  65.087  1.00  0.00    -0.453 C  
HETATM    2  O   UNL     1     -12.397  12.830  66.414  1.00  0.00    -0.500 OA 
ENDROOT
BRANCH   2   3
HETATM    3  C   UNL     1     -11.200  13.195  66.998  1.00  0.00    -0.294 A  
HETATM    4  C   UNL     1     -10.073  12.389  66.773  1.00  0.00    -0.214 A  
HETATM    5  O   UNL     1     -10.240  11.238  65.965  1.00  0.00    -0.231 OA 
HETATM    6  C   UNL     1      -9.219  10.325  65.769  1.00  0.00    -0.175 C  
HETATM    7  O   UNL     1      -9.371   9.282  65.142  1.00  0.00    -0.240 OA 
HETATM    8  C   UNL     1      -7.904  10.667  66.338  1.00  0.00    -0.144 C  
HETATM    9  C   UNL     1      -7.704  11.773  67.056  1.00  0.00    -0.158 C  
HETATM   10  C   UNL     1      -8.820  12.668  67.329  1.00  0.00    -0.196 A  
HETATM   11  C   UNL     1      -8.655  13.779  68.167  1.00  0.00    -0.175 A  
HETATM   12  C   UNL     1      -9.782  14.560  68.487  1.00  0.00    -0.224 A  
HETATM   13  C   UNL     1     -11.010  14.248  67.905  1.00  0.00    -0.267 A  
HETATM   14  O   UNL     1     -11.966  15.099  68.382  1.00  0.00    -0.299 OA 
HETATM   15  C   UNL     1     -11.366  15.941  69.257  1.00  0.00    -0.355 A  
HETATM   16  C   UNL     1     -10.021  15.669  69.342  1.00  0.00    -0.279 A  
ENDBRANCH   2   3
TORSDOF 1
ENDMDL
MODEL      101
REMARK 921   NORMALIZED FREE ENERGY PREDICTED BY IDOCK:   -3.85 KCAL/MOL
REMARK 922        TOTAL FREE ENERGY PREDICTED BY IDOCK:   -4.17 KCAL/MOL
REMARK 923 INTER-LIGAND FREE ENERGY PREDICTED BY IDOCK:   -4.15 KCAL/MOL
REMARK 924 INTRA-LIGAND FREE ENERGY PREDICTED BY IDOCK:   -0.02 KCAL/MOL
REMARK 927      BINDING AFFINITY PREDICTED BY RF-SCORE:    0.00 PKD
ROOT
HETATM    1  C   UNL     1      -8.646   7.504  69.336  1.00  0.00    -0.133 C  
HETATM    2  O   UNL     1      -9.937   7.523  68.733  1.00  0.00    -0.163 OA 
ENDROOT
BRANCH   2   3
HETATM    3  C   UNL     1     -10.452   8.791  68.551  1.00  0.00    -0.175 A  
HETATM    4  C   UNL     1     -10.177   9.459  67.346  1.00  0.00    -0.239 A  
HETATM    5  O   UNL     1      -9.373   8.787  66.393  1.00  0.00    -0.171 OA 
HETATM    6  C   UNL     1      -8.958   9.397  65.222  1.00  0.00    -0.204 C  
HETATM    7  O   UNL     1      -8.195   8.860  64.427  1.00  0.00    -0.148 OA 
HETATM    8  C   UNL     1      -9.495  10.742  64.948  1.00  0.00    -0.288 C  
HETATM    9  C   UNL     1     -10.300  11.376  65.803  1.00  0.00    -0.304 C  
HETATM   10  C   UNL     1     -10.642  10.748  67.072  1.00  0.00    -0.312 A  
HETATM   11  C   UNL     1     -11.399  11.440  68.028  1.00  0.00    -0.372 A  
HETATM   12  C   UNL     1     -11.621  10.838  69.281  1.00  0.00    -0.376 A  
HETATM   13  C   UNL     1     -11.144   9.549  69.508  1.00  0.00    -0.142 A  
HETATM   14  O   UNL     1     -11.429   9.179  70.791  1.00  0.00    -0.267 OA 
HETATM   15  C   UNL     1     -12.077  10.213  71.381  1.00  0.00    -0.382 A  
HETATM   16  C   UNL     1     -12.241  11.248  70.492  1.00  0.00    -0.474 A  
ENDBRANCH   2   3
TORSDOF 1
ENDMDL
MODEL      102
REMARK 921   NORMALIZED FREE ENERGY PREDICTED BY IDOCK:   -3.85 KCAL/MOL
REMARK 922        TOTAL FREE ENERGY PREDICTED BY IDOCK:   -4.16 KCAL/MOL
REMARK 923 INTER-LIGAND FREE ENERGY PREDICTED BY IDOCK:   -4.19 KCAL/MOL
REMARK 924 INTRA-LIGAND FREE ENERGY PREDICTED BY IDOCK:    0.02 KCAL/MOL
REMARK 927      BINDING AFFINITY PREDICTED BY RF-SCORE:    0.00 PKD
ROOT
HETATM    1  C   UNL     1     -10.231  11.453  66.924  1.00  0.00    -0.219 C  
HETATM    2  O   UNL     1      -9.470  11.313  68.122  1.00  0.00    -0.170 OA 
ENDROOT
BRANCH   2   3
HETATM    3  C   UNL     1      -9.952  10.346  68.982  1.00  0.00    -0.214 A  
HETATM    4  C   UNL     1     -10.962  10.703  69.891  1.00  0.00    -0.274 A  
HETATM    5  O   UNL     1     -11.417  12.045  69.873  1.00  0.00    -0.253 OA 
HETATM    6  C   UNL     1     -12.331  12.522  70.795  1.00  0.00    -0.286 C  
HETATM    7  O   UNL     1     -12.672  13.698  70.846  1.00  0.00    -0.335 OA 
HETATM    8  C   UNL     1     -12.911  11.537  71.725  1.00  0.00    -0.500 C  
HETATM    9  C   UNL     1     -12.543  10.255  71.727  1.00  0.00    -0.488 C  
HETATM   10  C   UNL     1     -11.507   9.801  70.809  1.00  0.00    -0.417 A  
HETATM   11  C   UNL     1     -11.031   8.483  70.867  1.00  0.00    -0.292 A  
HETATM   12  C   UNL     1      -9.959   8.113  70.032  1.00  0.00    -0.192 A  
HETATM   13  C   UNL     1      -9.452   9.044  69.128  1.00  0.00    -0.153 A  
HETATM   14  O   UNL     1      -8.398   8.494  68.455  1.00  0.00    -0.121 OA 
HETATM   15  C   UNL     1      -8.228   7.232  68.920  1.00  0.00    -0.125 A  
HETATM   16  C   UNL     1      -9.174   6.940  69.874  1.00  0.00    -0.147 A  
ENDBRANCH   2   3
TORSDOF 1
ENDMDL
MODEL      103
REMARK 921   NORMALIZED FREE ENERGY PREDICTED BY IDOCK:   -3.84 KCAL/MOL
REMARK 922        TOTAL FREE ENERGY PREDICTED BY IDOCK:   -4.15 KCAL/MOL
REMARK 923 INTER-LIGAND FREE ENERGY PREDICTED BY IDOCK:   -4.15 KCAL/MOL
REMARK 924 INTRA-LIGAND FREE ENERGY PREDICTED BY IDOCK:   -0.00 KCAL/MOL
REMARK 927      BINDING AFFINITY PREDICTED BY RF-SCORE:    0.00 PKD
ROOT
HETATM    1  C   UNL     1      -6.436  15.723  69.671  1.00  0.00    -0.181 C  
HETATM    2  O   UNL     1      -6.912  15.990  68.354  1.00  0.00    -0.116 OA 
ENDROOT
BRANCH   2   3
HETATM    3  C   UNL     1      -8.119  16.661  68.321  1.00  0.00    -0.198 A  
HETATM    4  C   UNL     1      -8.128  18.001  67.900  1.00  0.00    -0.243 A  
HETATM    5  O   UNL     1      -6.888  18.585  67.545  1.00  0.00    -0.201 OA 
HETATM    6  C   UNL     1      -6.775  19.925  67.219  1.00  0.00    -0.210 C  
HETATM    7  O   UNL     1      -5.698  20.466  66.991  1.00  0.00    -0.170 OA 
HETATM    8  C   UNL     1      -8.028  20.696  67.134  1.00  0.00    -0.323 C  
HETATM    9  C   UNL     1      -9.217  20.156  67.408  1.00  0.00    -0.495 C  
HETATM   10  C   UNL     1      -9.296  18.768  67.843  1.00  0.00    -0.331 A  
HETATM   11  C   UNL     1     -10.521  18.213  68.236  1.00  0.00    -0.333 A  
HETATM   12  C   UNL     1     -10.538  16.901  68.747  1.00  0.00    -0.355 A  
HETATM   13  C   UNL     1      -9.351  16.171  68.780  1.00  0.00    -0.229 A  
HETATM   14  O   UNL     1      -9.585  14.952  69.347  1.00  0.00    -0.167 OA 
HETATM   15  C   UNL     1     -10.898  14.897  69.676  1.00  0.00    -0.253 A  
HETATM   16  C   UNL     1     -11.534  16.059  69.309  1.00  0.00    -0.350 A  
ENDBRANCH   2   3
TORSDOF 1
ENDMDL
MODEL      104
REMARK 921   NORMALIZED FREE ENERGY PREDICTED BY IDOCK:   -3.83 KCAL/MOL
REMARK 922        TOTAL FREE ENERGY PREDICTED BY IDOCK:   -4.15 KCAL/MOL
REMARK 923 INTER-LIGAND FREE ENERGY PREDICTED BY IDOCK:   -4.07 KCAL/MOL
REMARK 924 INTRA-LIGAND FREE ENERGY PREDICTED BY IDOCK:   -0.08 KCAL/MOL
REMARK 927      BINDING AFFINITY PREDICTED BY RF-SCORE:    0.00 PKD
ROOT
HETATM    1  C   UNL     1      -6.872  13.857  68.622  1.00  0.00    -0.101 C  
HETATM    2  O   UNL     1      -7.399  14.359  67.396  1.00  0.00    -0.184 OA 
ENDROOT
BRANCH   2   3
HETATM    3  C   UNL     1      -8.752  14.631  67.437  1.00  0.00    -0.197 A  
HETATM    4  C   UNL     1      -9.643  13.672  66.928  1.00  0.00    -0.262 A  
HETATM    5  O   UNL     1      -9.091  12.483  66.391  1.00  0.00    -0.208 OA 
HETATM    6  C   UNL     1      -9.874  11.525  65.772  1.00  0.00    -0.234 C  
HETATM    7  O   UNL     1      -9.404  10.531  65.229  1.00  0.00    -0.185 OA 
HETATM    8  C   UNL     1     -11.332  11.736  65.805  1.00  0.00    -0.309 C  
HETATM    9  C   UNL     1     -11.883  12.820  66.355  1.00  0.00    -0.472 C  
HETATM   10  C   UNL     1     -11.029  13.859  66.913  1.00  0.00    -0.300 A  
HETATM   11  C   UNL     1     -11.582  15.051  67.399  1.00  0.00    -0.304 A  
HETATM   12  C   UNL     1     -10.715  16.072  67.836  1.00  0.00    -0.316 A  
HETATM   13  C   UNL     1      -9.341  15.839  67.838  1.00  0.00    -0.200 A  
HETATM   14  O   UNL     1      -8.692  16.965  68.255  1.00  0.00    -0.218 OA 
HETATM   15  C   UNL     1      -9.631  17.908  68.514  1.00  0.00    -0.326 A  
HETATM   16  C   UNL     1     -10.890  17.405  68.295  1.00  0.00    -0.256 A  
ENDBRANCH   2   3
TORSDOF 1
ENDMDL
MODEL      105
REMARK 921   NORMALIZED FREE ENERGY PREDICTED BY IDOCK:   -3.83 KCAL/MOL
REMARK 922        TOTAL FREE ENERGY PREDICTED BY IDOCK:   -4.15 KCAL/MOL
REMARK 923 INTER-LIGAND FREE ENERGY PREDICTED BY IDOCK:   -4.12 KCAL/MOL
REMARK 924 INTRA-LIGAND FREE ENERGY PREDICTED BY IDOCK:   -0.03 KCAL/MOL
REMARK 927      BINDING AFFINITY PREDICTED BY RF-SCORE:    0.00 PKD
ROOT
HETATM    1  C   UNL     1      -7.089  13.606  67.626  1.00  0.00    -0.170 C  
HETATM    2  O   UNL     1      -7.982  12.547  67.964  1.00  0.00    -0.131 OA 
ENDROOT
BRANCH   2   3
HETATM    3  C   UNL     1      -8.760  12.112  66.909  1.00  0.00    -0.194 A  
HETATM    4  C   UNL     1     -10.010  12.718  66.704  1.00  0.00    -0.245 A  
HETATM    5  O   UNL     1     -10.400  13.739  67.606  1.00  0.00    -0.235 OA 
HETATM    6  C   UNL     1     -11.652  14.325  67.554  1.00  0.00    -0.363 C  
HETATM    7  O   UNL     1     -12.035  15.149  68.377  1.00  0.00    -0.299 OA 
HETATM    8  C   UNL     1     -12.524  13.930  66.434  1.00  0.00    -0.414 C  
HETATM    9  C   UNL     1     -12.160  13.012  65.536  1.00  0.00    -0.501 C  
HETATM   10  C   UNL     1     -10.874  12.341  65.672  1.00  0.00    -0.321 A  
HETATM   11  C   UNL     1     -10.518  11.301  64.802  1.00  0.00    -0.384 A  
HETATM   12  C   UNL     1      -9.313  10.610  65.030  1.00  0.00    -0.259 A  
HETATM   13  C   UNL     1      -8.479  11.025  66.067  1.00  0.00    -0.158 A  
HETATM   14  O   UNL     1      -7.396  10.197  66.136  1.00  0.00    -0.104 OA 
HETATM   15  C   UNL     1      -7.530   9.264  65.163  1.00  0.00    -0.105 A  
HETATM   16  C   UNL     1      -8.678   9.484  64.441  1.00  0.00    -0.235 A  
ENDBRANCH   2   3
TORSDOF 1
ENDMDL
MODEL      106
REMARK 921   NORMALIZED FREE ENERGY PREDICTED BY IDOCK:   -3.81 KCAL/MOL
REMARK 922        TOTAL FREE ENERGY PREDICTED BY IDOCK:   -4.13 KCAL/MOL
REMARK 923 INTER-LIGAND FREE ENERGY PREDICTED BY IDOCK:   -4.09 KCAL/MOL
REMARK 924 INTRA-LIGAND FREE ENERGY PREDICTED BY IDOCK:   -0.04 KCAL/MOL
REMARK 927      BINDING AFFINITY PREDICTED BY RF-SCORE:    0.00 PKD
ROOT
HETATM    1  C   UNL     1      -8.751  10.386  64.893  1.00  0.00    -0.184 C  
HETATM    2  O   UNL     1     -10.078  10.012  65.254  1.00  0.00    -0.321 OA 
ENDROOT
BRANCH   2   3
HETATM    3  C   UNL     1     -10.210   9.612  66.569  1.00  0.00    -0.224 A  
HETATM    4  C   UNL     1     -10.787  10.505  67.485  1.00  0.00    -0.301 A  
HETATM    5  O   UNL     1     -11.190  11.774  67.001  1.00  0.00    -0.289 OA 
HETATM    6  C   UNL     1     -11.671  12.762  67.842  1.00  0.00    -0.357 C  
HETATM    7  O   UNL     1     -11.945  13.892  67.452  1.00  0.00    -0.385 OA 
HETATM    8  C   UNL     1     -11.867  12.394  69.255  1.00  0.00    -0.361 C  
HETATM    9  C   UNL     1     -11.549  11.187  69.728  1.00  0.00    -0.409 C  
HETATM   10  C   UNL     1     -10.953  10.198  68.839  1.00  0.00    -0.261 A  
HETATM   11  C   UNL     1     -10.516   8.964  69.339  1.00  0.00    -0.228 A  
HETATM   12  C   UNL     1      -9.853   8.077  68.468  1.00  0.00    -0.185 A  
HETATM   13  C   UNL     1      -9.716   8.423  67.125  1.00  0.00    -0.190 A  
HETATM   14  O   UNL     1      -9.011   7.449  66.477  1.00  0.00    -0.145 OA 
HETATM   15  C   UNL     1      -8.699   6.494  67.387  1.00  0.00    -0.117 A  
HETATM   16  C   UNL     1      -9.211   6.819  68.620  1.00  0.00    -0.132 A  
ENDBRANCH   2   3
TORSDOF 1
ENDMDL
MODEL      107
REMARK 921   NORMALIZED FREE ENERGY PREDICTED BY IDOCK:   -3.80 KCAL/MOL
REMARK 922        TOTAL FREE ENERGY PREDICTED BY IDOCK:   -4.11 KCAL/MOL
REMARK 923 INTER-LIGAND FREE ENERGY PREDICTED BY IDOCK:   -4.08 KCAL/MOL
REMARK 924 INTRA-LIGAND FREE ENERGY PREDICTED BY IDOCK:   -0.03 KCAL/MOL
REMARK 927      BINDING AFFINITY PREDICTED BY RF-SCORE:    0.00 PKD
ROOT
HETATM    1  C   UNL     1     -11.718  16.007  70.447  1.00  0.00    -0.309 C  
HETATM    2  O   UNL     1     -10.747  14.976  70.288  1.00  0.00    -0.218 OA 
ENDROOT
BRANCH   2   3
HETATM    3  C   UNL     1     -10.254  14.863  69.003  1.00  0.00    -0.243 A  
HETATM    4  C   UNL     1     -10.483  13.668  68.302  1.00  0.00    -0.249 A  
HETATM    5  O   UNL     1     -11.201  12.644  68.967  1.00  0.00    -0.256 OA 
HETATM    6  C   UNL     1     -11.388  11.394  68.403  1.00  0.00    -0.281 C  
HETATM    7  O   UNL     1     -11.933  10.471  68.998  1.00  0.00    -0.229 OA 
HETATM    8  C   UNL     1     -10.914  11.212  67.020  1.00  0.00    -0.348 C  
HETATM    9  C   UNL     1     -10.285  12.178  66.349  1.00  0.00    -0.245 C  
HETATM   10  C   UNL     1     -10.015  13.452  67.002  1.00  0.00    -0.246 A  
HETATM   11  C   UNL     1      -9.264  14.441  66.352  1.00  0.00    -0.242 A  
HETATM   12  C   UNL     1      -8.940  15.617  67.056  1.00  0.00    -0.244 A  
HETATM   13  C   UNL     1      -9.433  15.792  68.348  1.00  0.00    -0.196 A  
HETATM   14  O   UNL     1      -8.965  16.969  68.855  1.00  0.00    -0.267 OA 
HETATM   15  C   UNL     1      -8.182  17.542  67.908  1.00  0.00    -0.231 A  
HETATM   16  C   UNL     1      -8.151  16.765  66.776  1.00  0.00    -0.273 A  
ENDBRANCH   2   3
TORSDOF 1
ENDMDL
MODEL      108
REMARK 921   NORMALIZED FREE ENERGY PREDICTED BY IDOCK:   -3.79 KCAL/MOL
REMARK 922        TOTAL FREE ENERGY PREDICTED BY IDOCK:   -4.10 KCAL/MOL
REMARK 923 INTER-LIGAND FREE ENERGY PREDICTED BY IDOCK:   -4.15 KCAL/MOL
REMARK 924 INTRA-LIGAND FREE ENERGY PREDICTED BY IDOCK:    0.04 KCAL/MOL
REMARK 927      BINDING AFFINITY PREDICTED BY RF-SCORE:    0.00 PKD
ROOT
HETATM    1  C   UNL     1     -12.338  11.594  70.024  1.00  0.00    -0.187 C  
HETATM    2  O   UNL     1     -10.934  11.654  69.789  1.00  0.00    -0.108 OA 
ENDROOT
BRANCH   2   3
HETATM    3  C   UNL     1     -10.593  11.776  68.456  1.00  0.00    -0.217 A  
HETATM    4  C   UNL     1     -10.589  13.057  67.881  1.00  0.00    -0.229 A  
HETATM    5  O   UNL     1     -10.948  14.149  68.709  1.00  0.00    -0.241 OA 
HETATM    6  C   UNL     1     -11.076  15.435  68.213  1.00  0.00    -0.309 C  
HETATM    7  O   UNL     1     -11.466  16.375  68.896  1.00  0.00    -0.311 OA 
HETATM    8  C   UNL     1     -10.699  15.644  66.804  1.00  0.00    -0.300 C  
HETATM    9  C   UNL     1     -10.303  14.642  66.016  1.00  0.00    -0.317 C  
HETATM   10  C   UNL     1     -10.270  13.283  66.538  1.00  0.00    -0.283 A  
HETATM   11  C   UNL     1      -9.959  12.204  65.699  1.00  0.00    -0.271 A  
HETATM   12  C   UNL     1     -10.039  10.898  66.217  1.00  0.00    -0.284 A  
HETATM   13  C   UNL     1     -10.354  10.721  67.563  1.00  0.00    -0.206 A  
HETATM   14  O   UNL     1     -10.419   9.386  67.841  1.00  0.00    -0.219 OA 
HETATM   15  C   UNL     1     -10.153   8.714  66.695  1.00  0.00    -0.294 A  
HETATM   16  C   UNL     1      -9.891   9.594  65.672  1.00  0.00    -0.369 A  
ENDBRANCH   2   3
TORSDOF 1
ENDMDL
MODEL      109
REMARK 921   NORMALIZED FREE ENERGY PREDICTED BY IDOCK:   -3.76 KCAL/MOL
REMARK 922        TOTAL FREE ENERGY PREDICTED BY IDOCK:   -4.07 KCAL/MOL
REMARK 923 INTER-LIGAND FREE ENERGY PREDICTED BY IDOCK:   -4.11 KCAL/MOL
REMARK 924 INTRA-LIGAND FREE ENERGY PREDICTED BY IDOCK:    0.04 KCAL/MOL
REMARK 927      BINDING AFFINITY PREDICTED BY RF-SCORE:    0.00 PKD
ROOT
HETATM    1  C   UNL     1     -11.237   7.824  72.048  1.00  0.00    -0.278 C  
HETATM    2  O   UNL     1     -10.314   8.764  71.503  1.00  0.00    -0.247 OA 
ENDROOT
BRANCH   2   3
HETATM    3  C   UNL     1     -10.291   8.792  70.123  1.00  0.00    -0.208 A  
HETATM    4  C   UNL     1     -10.752   9.947  69.470  1.00  0.00    -0.242 A  
HETATM    5  O   UNL     1     -11.224  11.012  70.276  1.00  0.00    -0.256 OA 
HETATM    6  C   UNL     1     -11.794  12.148  69.729  1.00  0.00    -0.327 C  
HETATM    7  O   UNL     1     -12.283  13.041  70.412  1.00  0.00    -0.351 OA 
HETATM    8  C   UNL     1     -11.776  12.260  68.260  1.00  0.00    -0.392 C  
HETATM    9  C   UNL     1     -11.286  11.296  67.478  1.00  0.00    -0.360 C  
HETATM   10  C   UNL     1     -10.780  10.068  68.077  1.00  0.00    -0.303 A  
HETATM   11  C   UNL     1     -10.359   9.002  67.270  1.00  0.00    -0.342 A  
HETATM   12  C   UNL     1      -9.974   7.797  67.887  1.00  0.00    -0.212 A  
HETATM   13  C   UNL     1      -9.955   7.723  69.279  1.00  0.00    -0.182 A  
HETATM   14  O   UNL     1      -9.596   6.463  69.661  1.00  0.00    -0.146 OA 
HETATM   15  C   UNL     1      -9.390   5.736  68.536  1.00  0.00    -0.121 A  
HETATM   16  C   UNL     1      -9.586   6.513  67.419  1.00  0.00    -0.142 A  
ENDBRANCH   2   3
TORSDOF 1
ENDMDL
MODEL      110
REMARK 921   NORMALIZED FREE ENERGY PREDICTED BY IDOCK:   -3.76 KCAL/MOL
REMARK 922        TOTAL FREE ENERGY PREDICTED BY IDOCK:   -4.07 KCAL/MOL
REMARK 923 INTER-LIGAND FREE ENERGY PREDICTED BY IDOCK:   -4.08 KCAL/MOL
REMARK 924 INTRA-LIGAND FREE ENERGY PREDICTED BY IDOCK:    0.01 KCAL/MOL
REMARK 927      BINDING AFFINITY PREDICTED BY RF-SCORE:    0.00 PKD
ROOT
HETATM    1  C   UNL     1      -7.034  14.704  69.639  1.00  0.00    -0.149 C  
HETATM    2  O   UNL     1      -8.309  15.339  69.700  1.00  0.00    -0.235 OA 
ENDROOT
BRANCH   2   3
HETATM    3  C   UNL     1      -8.768  15.793  68.479  1.00  0.00    -0.184 A  
HETATM    4  C   UNL     1      -9.865  15.141  67.892  1.00  0.00    -0.216 A  
HETATM    5  O   UNL     1     -10.428  14.045  68.591  1.00  0.00    -0.239 OA 
HETATM    6  C   UNL     1     -11.441  13.273  68.051  1.00  0.00    -0.309 C  
HETATM    7  O   UNL     1     -11.881  12.272  68.605  1.00  0.00    -0.310 OA 
HETATM    8  C   UNL     1     -12.000  13.718  66.763  1.00  0.00    -0.465 C  
HETATM    9  C   UNL     1     -11.527  14.781  66.109  1.00  0.00    -0.311 C  
HETATM   10  C   UNL     1     -10.395  15.518  66.655  1.00  0.00    -0.287 A  
HETATM   11  C   UNL     1      -9.817  16.571  65.934  1.00  0.00    -0.324 A  
HETATM   12  C   UNL     1      -8.662  17.191  66.448  1.00  0.00    -0.291 A  
HETATM   13  C   UNL     1      -8.172  16.787  67.689  1.00  0.00    -0.181 A  
HETATM   14  O   UNL     1      -7.032  17.482  67.974  1.00  0.00    -0.186 OA 
HETATM   15  C   UNL     1      -6.790  18.317  66.934  1.00  0.00    -0.188 A  
HETATM   16  C   UNL     1      -7.772  18.194  65.981  1.00  0.00    -0.204 A  
ENDBRANCH   2   3
TORSDOF 1
ENDMDL
MODEL      111
REMARK 921   NORMALIZED FREE ENERGY PREDICTED BY IDOCK:   -3.76 KCAL/MOL
REMARK 922        TOTAL FREE ENERGY PREDICTED BY IDOCK:   -4.07 KCAL/MOL
REMARK 923 INTER-LIGAND FREE ENERGY PREDICTED BY IDOCK:   -3.99 KCAL/MOL
REMARK 924 INTRA-LIGAND FREE ENERGY PREDICTED BY IDOCK:   -0.08 KCAL/MOL
REMARK 927      BINDING AFFINITY PREDICTED BY RF-SCORE:    0.00 PKD
ROOT
HETATM    1  C   UNL     1      -9.653  16.769  66.460  1.00  0.00    -0.266 C  
HETATM    2  O   UNL     1     -10.108  15.772  67.372  1.00  0.00    -0.239 OA 
ENDROOT
BRANCH   2   3
HETATM    3  C   UNL     1      -9.434  14.571  67.271  1.00  0.00    -0.217 A  
HETATM    4  C   UNL     1     -10.012  13.540  66.513  1.00  0.00    -0.287 A  
HETATM    5  O   UNL     1     -11.266  13.797  65.905  1.00  0.00    -0.299 OA 
HETATM    6  C   UNL     1     -11.967  12.816  65.226  1.00  0.00    -0.429 C  
HETATM    7  O   UNL     1     -13.089  12.998  64.767  1.00  0.00    -0.742 OA 
HETATM    8  C   UNL     1     -11.293  11.517  65.054  1.00  0.00    -0.168 C  
HETATM    9  C   UNL     1     -10.088  11.266  65.568  1.00  0.00    -0.306 C  
HETATM   10  C   UNL     1      -9.414  12.285  66.361  1.00  0.00    -0.240 A  
HETATM   11  C   UNL     1      -8.197  12.005  66.997  1.00  0.00    -0.169 A  
HETATM   12  C   UNL     1      -7.631  12.984  67.836  1.00  0.00    -0.144 A  
HETATM   13  C   UNL     1      -8.258  14.222  67.953  1.00  0.00    -0.156 A  
HETATM   14  O   UNL     1      -7.570  14.997  68.842  1.00  0.00    -0.124 OA 
HETATM   15  C   UNL     1      -6.519  14.269  69.292  1.00  0.00    -0.115 A  
HETATM   16  C   UNL     1      -6.496  13.034  68.690  1.00  0.00    -0.087 A  
ENDBRANCH   2   3
TORSDOF 1
ENDMDL
MODEL      112
REMARK 921   NORMALIZED FREE ENERGY PREDICTED BY IDOCK:   -3.73 KCAL/MOL
REMARK 922        TOTAL FREE ENERGY PREDICTED BY IDOCK:   -4.04 KCAL/MOL
REMARK 923 INTER-LIGAND FREE ENERGY PREDICTED BY IDOCK:   -3.95 KCAL/MOL
REMARK 924 INTRA-LIGAND FREE ENERGY PREDICTED BY IDOCK:   -0.09 KCAL/MOL
REMARK 927      BINDING AFFINITY PREDICTED BY RF-SCORE:    0.00 PKD
ROOT
HETATM    1  C   UNL     1      -9.286   5.414  70.298  1.00  0.00    -0.154 C  
HETATM    2  O   UNL     1     -10.506   5.906  69.748  1.00  0.00    -0.218 OA 
ENDROOT
BRANCH   2   3
HETATM    3  C   UNL     1     -10.409   7.179  69.221  1.00  0.00    -0.203 A  
HETATM    4  C   UNL     1     -11.005   8.240  69.921  1.00  0.00    -0.166 A  
HETATM    5  O   UNL     1     -11.682   7.933  71.127  1.00  0.00    -0.281 OA 
HETATM    6  C   UNL     1     -12.389   8.888  71.836  1.00  0.00    -0.376 C  
HETATM    7  O   UNL     1     -13.048   8.622  72.835  1.00  0.00    -0.265 OA 
HETATM    8  C   UNL     1     -12.304  10.275  71.347  1.00  0.00    -0.502 C  
HETATM    9  C   UNL     1     -11.627  10.603  70.245  1.00  0.00    -0.424 C  
HETATM   10  C   UNL     1     -10.972   9.562  69.465  1.00  0.00    -0.217 A  
HETATM   11  C   UNL     1     -10.346   9.870  68.249  1.00  0.00    -0.232 A  
HETATM   12  C   UNL     1      -9.814   8.820  67.476  1.00  0.00    -0.232 A  
HETATM   13  C   UNL     1      -9.864   7.519  67.974  1.00  0.00    -0.151 A  
HETATM   14  O   UNL     1      -9.337   6.661  67.052  1.00  0.00    -0.132 OA 
HETATM   15  C   UNL     1      -8.956   7.396  65.978  1.00  0.00    -0.121 A  
HETATM   16  C   UNL     1      -9.206   8.729  66.195  1.00  0.00    -0.273 A  
ENDBRANCH   2   3
TORSDOF 1
ENDMDL
MODEL      113
REMARK 921   NORMALIZED FREE ENERGY PREDICTED BY IDOCK:   -3.71 KCAL/MOL
REMARK 922        TOTAL FREE ENERGY PREDICTED BY IDOCK:   -4.02 KCAL/MOL
REMARK 923 INTER-LIGAND FREE ENERGY PREDICTED BY IDOCK:   -3.97 KCAL/MOL
REMARK 924 INTRA-LIGAND FREE ENERGY PREDICTED BY IDOCK:   -0.05 KCAL/MOL
REMARK 927      BINDING AFFINITY PREDICTED BY RF-SCORE:    0.00 PKD
ROOT
HETATM    1  C   UNL     1      -7.822   3.921  71.494  1.00  0.00    -0.061 C  
HETATM    2  O   UNL     1      -9.206   3.672  71.259  1.00  0.00    -0.106 OA 
ENDROOT
BRANCH   2   3
HETATM    3  C   UNL     1      -9.919   4.790  70.872  1.00  0.00    -0.213 A  
HETATM    4  C   UNL     1     -10.121   5.013  69.500  1.00  0.00    -0.231 A  
HETATM    5  O   UNL     1      -9.568   4.074  68.594  1.00  0.00    -0.158 OA 
HETATM    6  C   UNL     1      -9.621   4.257  67.224  1.00  0.00    -0.189 C  
HETATM    7  O   UNL     1      -9.076   3.499  66.430  1.00  0.00    -0.141 OA 
HETATM    8  C   UNL     1     -10.393   5.415  66.739  1.00  0.00    -0.321 C  
HETATM    9  C   UNL     1     -10.973   6.284  67.568  1.00  0.00    -0.444 C  
HETATM   10  C   UNL     1     -10.818   6.120  69.008  1.00  0.00    -0.416 A  
HETATM   11  C   UNL     1     -11.329   7.079  69.893  1.00  0.00    -0.260 A  
HETATM   12  C   UNL     1     -11.070   6.936  71.270  1.00  0.00    -0.293 A  
HETATM   13  C   UNL     1     -10.376   5.813  71.716  1.00  0.00    -0.221 A  
HETATM   14  O   UNL     1     -10.199   5.897  73.067  1.00  0.00    -0.179 OA 
HETATM   15  C   UNL     1     -10.767   7.055  73.484  1.00  0.00    -0.332 A  
HETATM   16  C   UNL     1     -11.335   7.721  72.424  1.00  0.00    -0.400 A  
ENDBRANCH   2   3
TORSDOF 1
ENDMDL
MODEL      114
REMARK 921   NORMALIZED FREE ENERGY PREDICTED BY IDOCK:   -3.69 KCAL/MOL
REMARK 922        TOTAL FREE ENERGY PREDICTED BY IDOCK:   -4.00 KCAL/MOL
REMARK 923 INTER-LIGAND FREE ENERGY PREDICTED BY IDOCK:   -4.12 KCAL/MOL
REMARK 924 INTRA-LIGAND FREE ENERGY PREDICTED BY IDOCK:    0.12 KCAL/MOL
REMARK 927      BINDING AFFINITY PREDICTED BY RF-SCORE:    0.00 PKD
ROOT
HETATM    1  C   UNL     1     -10.092   9.188  71.626  1.00  0.00    -0.276 C  
HETATM    2  O   UNL     1     -10.893   9.844  70.646  1.00  0.00    -0.301 OA 
ENDROOT
BRANCH   2   3
HETATM    3  C   UNL     1     -10.624   9.453  69.349  1.00  0.00    -0.221 A  
HETATM    4  C   UNL     1     -10.429  10.447  68.377  1.00  0.00    -0.189 A  
HETATM    5  O   UNL     1     -10.532  11.798  68.791  1.00  0.00    -0.214 OA 
HETATM    6  C   UNL     1     -10.460  12.848  67.893  1.00  0.00    -0.224 C  
HETATM    7  O   UNL     1     -10.631  14.017  68.221  1.00  0.00    -0.236 OA 
HETATM    8  C   UNL     1     -10.144  12.506  66.495  1.00  0.00    -0.250 C  
HETATM    9  C   UNL     1      -9.986  11.245  66.088  1.00  0.00    -0.268 C  
HETATM   10  C   UNL     1     -10.163  10.153  67.036  1.00  0.00    -0.290 A  
HETATM   11  C   UNL     1     -10.105   8.821  66.607  1.00  0.00    -0.358 A  
HETATM   12  C   UNL     1     -10.382   7.798  67.534  1.00  0.00    -0.333 A  
HETATM   13  C   UNL     1     -10.636   8.137  68.862  1.00  0.00    -0.140 A  
HETATM   14  O   UNL     1     -10.921   7.006  69.572  1.00  0.00    -0.243 OA 
HETATM   15  C   UNL     1     -10.854   5.957  68.716  1.00  0.00    -0.283 A  
HETATM   16  C   UNL     1     -10.505   6.385  67.458  1.00  0.00    -0.290 A  
ENDBRANCH   2   3
TORSDOF 1
ENDMDL
MODEL      115
REMARK 921   NORMALIZED FREE ENERGY PREDICTED BY IDOCK:   -3.67 KCAL/MOL
REMARK 922        TOTAL FREE ENERGY PREDICTED BY IDOCK:   -3.98 KCAL/MOL
REMARK 923 INTER-LIGAND FREE ENERGY PREDICTED BY IDOCK:   -3.97 KCAL/MOL
REMARK 924 INTRA-LIGAND FREE ENERGY PREDICTED BY IDOCK:   -0.01 KCAL/MOL
REMARK 927      BINDING AFFINITY PREDICTED BY RF-SCORE:    0.00 PKD
ROOT
HETATM    1  C   UNL     1     -13.750   7.674  71.671  1.00  0.00    -0.374 C  
HETATM    2  O   UNL     1     -12.695   6.863  71.159  1.00  0.00    -0.369 OA 
ENDROOT
BRANCH   2   3
HETATM    3  C   UNL     1     -11.446   7.198  71.641  1.00  0.00    -0.266 A  
HETATM    4  C   UNL     1     -10.701   8.170  70.954  1.00  0.00    -0.221 A  
HETATM    5  O   UNL     1     -11.281   8.741  69.794  1.00  0.00    -0.144 OA 
HETATM    6  C   UNL     1     -10.589   9.628  68.988  1.00  0.00    -0.218 C  
HETATM    7  O   UNL     1     -11.043  10.066  67.937  1.00  0.00    -0.275 OA 
HETATM    8  C   UNL     1      -9.259  10.053  69.459  1.00  0.00    -0.238 C  
HETATM    9  C   UNL     1      -8.712   9.575  70.578  1.00  0.00    -0.247 C  
HETATM   10  C   UNL     1      -9.423   8.568  71.356  1.00  0.00    -0.279 A  
HETATM   11  C   UNL     1      -8.822   7.977  72.475  1.00  0.00    -0.237 A  
HETATM   12  C   UNL     1      -9.501   6.936  73.137  1.00  0.00    -0.174 A  
HETATM   13  C   UNL     1     -10.776   6.576  72.706  1.00  0.00    -0.240 A  
HETATM   14  O   UNL     1     -11.228   5.527  73.454  1.00  0.00    -0.271 OA 
HETATM   15  C   UNL     1     -10.260   5.216  74.350  1.00  0.00    -0.273 A  
HETATM   16  C   UNL     1      -9.188   6.064  74.214  1.00  0.00    -0.141 A  
ENDBRANCH   2   3
TORSDOF 1
ENDMDL
MODEL      116
REMARK 921   NORMALIZED FREE ENERGY PREDICTED BY IDOCK:   -3.65 KCAL/MOL
REMARK 922        TOTAL FREE ENERGY PREDICTED BY IDOCK:   -3.95 KCAL/MOL
REMARK 923 INTER-LIGAND FREE ENERGY PREDICTED BY IDOCK:   -3.95 KCAL/MOL
REMARK 924 INTRA-LIGAND FREE ENERGY PREDICTED BY IDOCK:   -0.01 KCAL/MOL
REMARK 927      BINDING AFFINITY PREDICTED BY RF-SCORE:    0.00 PKD
ROOT
HETATM    1  C   UNL     1     -10.598  18.109  67.777  1.00  0.00    -0.389 C  
HETATM    2  O   UNL     1     -10.568  17.044  68.724  1.00  0.00    -0.330 OA 
ENDROOT
BRANCH   2   3
HETATM    3  C   UNL     1      -9.943  15.902  68.263  1.00  0.00    -0.222 A  
HETATM    4  C   UNL     1      -8.556  15.780  68.443  1.00  0.00    -0.171 A  
HETATM    5  O   UNL     1      -7.879  16.849  69.081  1.00  0.00    -0.217 OA 
HETATM    6  C   UNL     1      -6.502  16.872  69.211  1.00  0.00    -0.228 C  
HETATM    7  O   UNL     1      -5.895  17.827  69.684  1.00  0.00    -0.222 OA 
HETATM    8  C   UNL     1      -5.773  15.671  68.768  1.00  0.00    -0.096 C  
HETATM    9  C   UNL     1      -6.390  14.625  68.215  1.00  0.00    -0.124 C  
HETATM   10  C   UNL     1      -7.830  14.669  68.001  1.00  0.00    -0.136 A  
HETATM   11  C   UNL     1      -8.482  13.626  67.328  1.00  0.00    -0.203 A  
HETATM   12  C   UNL     1      -9.857  13.754  67.052  1.00  0.00    -0.251 A  
HETATM   13  C   UNL     1     -10.541  14.876  67.516  1.00  0.00    -0.266 A  
HETATM   14  O   UNL     1     -11.840  14.818  67.103  1.00  0.00    -0.374 OA 
HETATM   15  C   UNL     1     -11.991  13.680  66.383  1.00  0.00    -0.426 A  
HETATM   16  C   UNL     1     -10.810  12.979  66.339  1.00  0.00    -0.294 A  
ENDBRANCH   2   3
TORSDOF 1
ENDMDL
MODEL      117
REMARK 921   NORMALIZED FREE ENERGY PREDICTED BY IDOCK:   -3.65 KCAL/MOL
REMARK 922        TOTAL FREE ENERGY PREDICTED BY IDOCK:   -3.95 KCAL/MOL
REMARK 923 INTER-LIGAND FREE ENERGY PREDICTED BY IDOCK:   -3.90 KCAL/MOL
REMARK 924 INTRA-LIGAND FREE ENERGY PREDICTED BY IDOCK:   -0.05 KCAL/MOL
REMARK 927      BINDING AFFINITY PREDICTED BY RF-SCORE:    0.00 PKD
ROOT
HETATM    1  C   UNL     1     -10.941   9.309  71.460  1.00  0.00    -0.375 C  
HETATM    2  O   UNL     1     -11.771   8.334  70.834  1.00  0.00    -0.280 OA 
ENDROOT
BRANCH   2   3
HETATM    3  C   UNL     1     -11.076   7.401  70.088  1.00  0.00    -0.246 A  
HETATM    4  C   UNL     1     -10.764   6.168  70.683  1.00  0.00    -0.275 A  
HETATM    5  O   UNL     1     -11.176   5.963  72.023  1.00  0.00    -0.264 OA 
HETATM    6  C   UNL     1     -10.828   4.826  72.731  1.00  0.00    -0.210 C  
HETATM    7  O   UNL     1     -11.104   4.670  73.916  1.00  0.00    -0.288 OA 
HETATM    8  C   UNL     1     -10.111   3.775  71.989  1.00  0.00    -0.209 C  
HETATM    9  C   UNL     1      -9.760   3.918  70.710  1.00  0.00    -0.255 C  
HETATM   10  C   UNL     1     -10.054   5.165  70.016  1.00  0.00    -0.345 A  
HETATM   11  C   UNL     1      -9.602   5.376  68.707  1.00  0.00    -0.182 A  
HETATM   12  C   UNL     1      -9.819   6.632  68.109  1.00  0.00    -0.135 A  
HETATM   13  C   UNL     1     -10.537   7.601  68.809  1.00  0.00    -0.145 A  
HETATM   14  O   UNL     1     -10.592   8.747  68.069  1.00  0.00    -0.219 OA 
HETATM   15  C   UNL     1      -9.920   8.522  66.914  1.00  0.00    -0.265 A  
HETATM   16  C   UNL     1      -9.444   7.233  66.878  1.00  0.00    -0.208 A  
ENDBRANCH   2   3
TORSDOF 1
ENDMDL
MODEL      118
REMARK 921   NORMALIZED FREE ENERGY PREDICTED BY IDOCK:   -3.61 KCAL/MOL
REMARK 922        TOTAL FREE ENERGY PREDICTED BY IDOCK:   -3.91 KCAL/MOL
REMARK 923 INTER-LIGAND FREE ENERGY PREDICTED BY IDOCK:   -4.07 KCAL/MOL
REMARK 924 INTRA-LIGAND FREE ENERGY PREDICTED BY IDOCK:    0.16 KCAL/MOL
REMARK 927      BINDING AFFINITY PREDICTED BY RF-SCORE:    0.00 PKD
ROOT
HETATM    1  C   UNL     1     -10.204  11.242  67.439  1.00  0.00    -0.188 C  
HETATM    2  O   UNL     1      -9.763  11.282  68.795  1.00  0.00    -0.205 OA 
ENDROOT
BRANCH   2   3
HETATM    3  C   UNL     1     -10.459  10.434  69.635  1.00  0.00    -0.243 A  
HETATM    4  C   UNL     1     -10.177   9.059  69.580  1.00  0.00    -0.206 A  
HETATM    5  O   UNL     1      -9.198   8.626  68.652  1.00  0.00    -0.139 OA 
HETATM    6  C   UNL     1      -8.924   7.285  68.448  1.00  0.00    -0.126 C  
HETATM    7  O   UNL     1      -8.141   6.890  67.591  1.00  0.00    -0.111 OA 
HETATM    8  C   UNL     1      -9.608   6.325  69.332  1.00  0.00    -0.157 C  
HETATM    9  C   UNL     1     -10.493   6.710  70.253  1.00  0.00    -0.247 C  
HETATM   10  C   UNL     1     -10.835   8.120  70.381  1.00  0.00    -0.237 A  
HETATM   11  C   UNL     1     -11.837   8.533  71.269  1.00  0.00    -0.335 A  
HETATM   12  C   UNL     1     -12.208   9.891  71.288  1.00  0.00    -0.480 A  
HETATM   13  C   UNL     1     -11.521  10.793  70.477  1.00  0.00    -0.275 A  
HETATM   14  O   UNL     1     -12.067  12.036  70.619  1.00  0.00    -0.373 OA 
HETATM   15  C   UNL     1     -13.089  11.937  71.503  1.00  0.00    -0.275 A  
HETATM   16  C   UNL     1     -13.205  10.646  71.962  1.00  0.00    -0.473 A  
ENDBRANCH   2   3
TORSDOF 1
ENDMDL
MODEL      119
REMARK 921   NORMALIZED FREE ENERGY PREDICTED BY IDOCK:   -3.60 KCAL/MOL
REMARK 922        TOTAL FREE ENERGY PREDICTED BY IDOCK:   -3.91 KCAL/MOL
REMARK 923 INTER-LIGAND FREE ENERGY PREDICTED BY IDOCK:   -3.84 KCAL/MOL
REMARK 924 INTRA-LIGAND FREE ENERGY PREDICTED BY IDOCK:   -0.07 KCAL/MOL
REMARK 927      BINDING AFFINITY PREDICTED BY RF-SCORE:    0.00 PKD
ROOT
HETATM    1  C   UNL     1      -8.784   5.524  68.562  1.00  0.00    -0.105 C  
HETATM    2  O   UNL     1     -10.128   5.802  68.947  1.00  0.00    -0.157 OA 
ENDROOT
BRANCH   2   3
HETATM    3  C   UNL     1     -10.247   6.821  69.872  1.00  0.00    -0.190 A  
HETATM    4  C   UNL     1     -10.341   6.482  71.231  1.00  0.00    -0.204 A  
HETATM    5  O   UNL     1     -10.319   5.106  71.568  1.00  0.00    -0.210 OA 
HETATM    6  C   UNL     1     -10.510   4.665  72.865  1.00  0.00    -0.194 C  
HETATM    7  O   UNL     1     -10.577   3.477  73.160  1.00  0.00    -0.166 OA 
HETATM    8  C   UNL     1     -10.614   5.699  73.910  1.00  0.00    -0.285 C  
HETATM    9  C   UNL     1     -10.581   7.003  73.628  1.00  0.00    -0.383 C  
HETATM   10  C   UNL     1     -10.476   7.439  72.242  1.00  0.00    -0.260 A  
HETATM   11  C   UNL     1     -10.545   8.800  71.916  1.00  0.00    -0.425 A  
HETATM   12  C   UNL     1     -10.543   9.173  70.558  1.00  0.00    -0.287 A  
HETATM   13  C   UNL     1     -10.400   8.185  69.585  1.00  0.00    -0.221 A  
HETATM   14  O   UNL     1     -10.467   8.757  68.347  1.00  0.00    -0.207 OA 
HETATM   15  C   UNL     1     -10.652  10.089  68.519  1.00  0.00    -0.215 A  
HETATM   16  C   UNL     1     -10.683  10.400  69.857  1.00  0.00    -0.331 A  
ENDBRANCH   2   3
TORSDOF 1
ENDMDL
MODEL      120
REMARK 921   NORMALIZED FREE ENERGY PREDICTED BY IDOCK:   -3.56 KCAL/MOL
REMARK 922        TOTAL FREE ENERGY PREDICTED BY IDOCK:   -3.86 KCAL/MOL
REMARK 923 INTER-LIGAND FREE ENERGY PREDICTED BY IDOCK:   -3.78 KCAL/MOL
REMARK 924 INTRA-LIGAND FREE ENERGY PREDICTED BY IDOCK:   -0.07 KCAL/MOL
REMARK 927      BINDING AFFINITY PREDICTED BY RF-SCORE:    0.00 PKD
ROOT
HETATM    1  C   UNL     1     -11.783   8.234  72.210  1.00  0.00    -0.388 C  
HETATM    2  O   UNL     1     -12.151   7.182  71.320  1.00  0.00    -0.312 OA 
ENDROOT
BRANCH   2   3
HETATM    3  C   UNL     1     -11.195   6.193  71.196  1.00  0.00    -0.292 A  
HETATM    4  C   UNL     1     -10.522   6.065  69.970  1.00  0.00    -0.250 A  
HETATM    5  O   UNL     1     -10.877   6.958  68.929  1.00  0.00    -0.229 OA 
HETATM    6  C   UNL     1     -10.349   6.847  67.655  1.00  0.00    -0.205 C  
HETATM    7  O   UNL     1     -10.707   7.558  66.723  1.00  0.00    -0.319 OA 
HETATM    8  C   UNL     1      -9.300   5.832  67.457  1.00  0.00    -0.111 C  
HETATM    9  C   UNL     1      -8.905   5.015  68.435  1.00  0.00    -0.111 C  
HETATM   10  C   UNL     1      -9.548   5.089  69.741  1.00  0.00    -0.240 A  
HETATM   11  C   UNL     1      -9.222   4.171  70.749  1.00  0.00    -0.197 A  
HETATM   12  C   UNL     1      -9.938   4.213  71.960  1.00  0.00    -0.250 A  
HETATM   13  C   UNL     1     -10.897   5.207  72.147  1.00  0.00    -0.151 A  
HETATM   14  O   UNL     1     -11.495   5.037  73.362  1.00  0.00    -0.323 OA 
HETATM   15  C   UNL     1     -10.933   3.951  73.947  1.00  0.00    -0.205 A  
HETATM   16  C   UNL     1      -9.957   3.421  73.139  1.00  0.00    -0.202 A  
ENDBRANCH   2   3
TORSDOF 1
ENDMDL
MODEL      121
REMARK 921   NORMALIZED FREE ENERGY PREDICTED BY IDOCK:   -3.51 KCAL/MOL
REMARK 922        TOTAL FREE ENERGY PREDICTED BY IDOCK:   -3.80 KCAL/MOL
REMARK 923 INTER-LIGAND FREE ENERGY PREDICTED BY IDOCK:   -3.82 KCAL/MOL
REMARK 924 INTRA-LIGAND FREE ENERGY PREDICTED BY IDOCK:    0.02 KCAL/MOL
REMARK 927      BINDING AFFINITY PREDICTED BY RF-SCORE:    0.00 PKD
ROOT
HETATM    1  C   UNL     1     -11.129  11.391  69.428  1.00  0.00    -0.241 C  
HETATM    2  O   UNL     1     -10.738  10.713  70.620  1.00  0.00     0.024 OA 
ENDROOT
BRANCH   2   3
HETATM    3  C   UNL     1     -11.086   9.377  70.645  1.00  0.00    -0.289 A  
HETATM    4  C   UNL     1     -10.213   8.447  70.059  1.00  0.00    -0.202 A  
HETATM    5  O   UNL     1      -9.026   8.944  69.466  1.00  0.00    -0.140 OA 
HETATM    6  C   UNL     1      -8.153   8.125  68.773  1.00  0.00    -0.120 C  
HETATM    7  O   UNL     1      -7.167   8.552  68.183  1.00  0.00    -0.083 OA 
HETATM    8  C   UNL     1      -8.447   6.681  68.785  1.00  0.00    -0.123 C  
HETATM    9  C   UNL     1      -9.528   6.178  69.384  1.00  0.00    -0.153 C  
HETATM   10  C   UNL     1     -10.481   7.075  70.023  1.00  0.00    -0.233 A  
HETATM   11  C   UNL     1     -11.674   6.578  70.566  1.00  0.00    -0.438 A  
HETATM   12  C   UNL     1     -12.614   7.490  71.083  1.00  0.00    -0.293 A  
HETATM   13  C   UNL     1     -12.302   8.848  71.104  1.00  0.00    -0.235 A  
HETATM   14  O   UNL     1     -13.362   9.549  71.602  1.00  0.00    -0.371 OA 
HETATM   15  C   UNL     1     -14.341   8.659  71.894  1.00  0.00    -0.405 A  
HETATM   16  C   UNL     1     -13.927   7.379  71.616  1.00  0.00    -0.523 A  
ENDBRANCH   2   3
TORSDOF 1
ENDMDL
MODEL      122
REMARK 921   NORMALIZED FREE ENERGY PREDICTED BY IDOCK:   -3.49 KCAL/MOL
REMARK 922        TOTAL FREE ENERGY PREDICTED BY IDOCK:   -3.79 KCAL/MOL
REMARK 923 INTER-LIGAND FREE ENERGY PREDICTED BY IDOCK:   -3.72 KCAL/MOL
REMARK 924 INTRA-LIGAND FREE ENERGY PREDICTED BY IDOCK:   -0.07 KCAL/MOL
REMARK 927      BINDING AFFINITY PREDICTED BY RF-SCORE:    0.00 PKD
ROOT
HETATM    1  C   UNL     1     -11.141  17.101  64.893  1.00  0.00     0.272 C  
HETATM    2  O   UNL     1     -10.092  16.137  64.865  1.00  0.00    -0.416 OA 
ENDROOT
BRANCH   2   3
HETATM    3  C   UNL     1     -10.093  15.275  65.944  1.00  0.00    -0.334 A  
HETATM    4  C   UNL     1      -9.255  15.564  67.032  1.00  0.00    -0.225 A  
HETATM    5  O   UNL     1      -8.447  16.725  66.948  1.00  0.00    -0.185 OA 
HETATM    6  C   UNL     1      -7.513  17.041  67.919  1.00  0.00    -0.168 C  
HETATM    7  O   UNL     1      -6.749  17.994  67.821  1.00  0.00    -0.193 OA 
HETATM    8  C   UNL     1      -7.481  16.180  69.115  1.00  0.00    -0.221 C  
HETATM    9  C   UNL     1      -8.270  15.112  69.246  1.00  0.00    -0.216 C  
HETATM   10  C   UNL     1      -9.176  14.748  68.165  1.00  0.00    -0.195 A  
HETATM   11  C   UNL     1      -9.936  13.573  68.238  1.00  0.00    -0.237 A  
HETATM   12  C   UNL     1     -10.722  13.204  67.129  1.00  0.00    -0.263 A  
HETATM   13  C   UNL     1     -10.775  14.051  66.024  1.00  0.00    -0.294 A  
HETATM   14  O   UNL     1     -11.553  13.485  65.056  1.00  0.00    -0.312 OA 
HETATM   15  C   UNL     1     -11.992  12.292  65.528  1.00  0.00    -0.321 A  
HETATM   16  C   UNL     1     -11.529  12.081  66.804  1.00  0.00    -0.410 A  
ENDBRANCH   2   3
TORSDOF 1
ENDMDL
MODEL      123
REMARK 921   NORMALIZED FREE ENERGY PREDICTED BY IDOCK:   -3.46 KCAL/MOL
REMARK 922        TOTAL FREE ENERGY PREDICTED BY IDOCK:   -3.75 KCAL/MOL
REMARK 923 INTER-LIGAND FREE ENERGY PREDICTED BY IDOCK:   -3.67 KCAL/MOL
REMARK 924 INTRA-LIGAND FREE ENERGY PREDICTED BY IDOCK:   -0.08 KCAL/MOL
REMARK 927      BINDING AFFINITY PREDICTED BY RF-SCORE:    0.00 PKD
ROOT
HETATM    1  C   UNL     1      -6.797   8.830  71.422  1.00  0.00    -0.084 C  
HETATM    2  O   UNL     1      -7.970   9.492  70.956  1.00  0.00    -0.321 OA 
ENDROOT
BRANCH   2   3
HETATM    3  C   UNL     1      -8.994   8.635  70.600  1.00  0.00    -0.171 A  
HETATM    4  C   UNL     1      -9.331   8.523  69.242  1.00  0.00    -0.154 A  
HETATM    5  O   UNL     1      -8.602   9.311  68.317  1.00  0.00    -0.123 OA 
HETATM    6  C   UNL     1      -8.925   9.352  66.973  1.00  0.00    -0.130 C  
HETATM    7  O   UNL     1      -8.359  10.090  66.175  1.00  0.00    -0.117 OA 
HETATM    8  C   UNL     1      -9.989   8.439  66.518  1.00  0.00    -0.335 C  
HETATM    9  C   UNL     1     -10.654   7.644  67.358  1.00  0.00    -0.356 C  
HETATM   10  C   UNL     1     -10.359   7.693  68.784  1.00  0.00    -0.218 A  
HETATM   11  C   UNL     1     -11.117   6.945  69.694  1.00  0.00    -0.302 A  
HETATM   12  C   UNL     1     -10.866   7.098  71.071  1.00  0.00    -0.262 A  
HETATM   13  C   UNL     1      -9.828   7.932  71.483  1.00  0.00    -0.165 A  
HETATM   14  O   UNL     1      -9.788   7.968  72.847  1.00  0.00    -0.253 OA 
HETATM   15  C   UNL     1     -10.785   7.173  73.307  1.00  0.00    -0.361 A  
HETATM   16  C   UNL     1     -11.463   6.597  72.259  1.00  0.00    -0.319 A  
ENDBRANCH   2   3
TORSDOF 1
ENDMDL
MODEL      124
REMARK 921   NORMALIZED FREE ENERGY PREDICTED BY IDOCK:   -3.41 KCAL/MOL
REMARK 922        TOTAL FREE ENERGY PREDICTED BY IDOCK:   -3.70 KCAL/MOL
REMARK 923 INTER-LIGAND FREE ENERGY PREDICTED BY IDOCK:   -3.89 KCAL/MOL
REMARK 924 INTRA-LIGAND FREE ENERGY PREDICTED BY IDOCK:    0.19 KCAL/MOL
REMARK 927      BINDING AFFINITY PREDICTED BY RF-SCORE:    0.00 PKD
ROOT
HETATM    1  C   UNL     1     -11.272  13.779  67.760  1.00  0.00    -0.288 C  
HETATM    2  O   UNL     1     -10.171  12.916  68.034  1.00  0.00    -0.217 OA 
ENDROOT
BRANCH   2   3
HETATM    3  C   UNL     1     -10.528  11.728  68.643  1.00  0.00    -0.222 A  
HETATM    4  C   UNL     1     -10.129  10.523  68.043  1.00  0.00    -0.165 A  
HETATM    5  O   UNL     1      -9.390  10.603  66.837  1.00  0.00    -0.157 OA 
HETATM    6  C   UNL     1      -9.042   9.476  66.114  1.00  0.00    -0.166 C  
HETATM    7  O   UNL     1      -8.476   9.531  65.027  1.00  0.00    -0.136 OA 
HETATM    8  C   UNL     1      -9.364   8.172  66.720  1.00  0.00    -0.233 C  
HETATM    9  C   UNL     1     -10.009   8.067  67.883  1.00  0.00    -0.223 C  
HETATM   10  C   UNL     1     -10.450   9.270  68.575  1.00  0.00    -0.240 A  
HETATM   11  C   UNL     1     -11.220   9.180  69.743  1.00  0.00    -0.073 A  
HETATM   12  C   UNL     1     -11.712  10.364  70.323  1.00  0.00    -0.406 A  
HETATM   13  C   UNL     1     -11.362  11.591  69.762  1.00  0.00    -0.226 A  
HETATM   14  O   UNL     1     -11.977  12.596  70.451  1.00  0.00    -0.338 OA 
HETATM   15  C   UNL     1     -12.713  12.028  71.436  1.00  0.00    -0.275 A  
HETATM   16  C   UNL     1     -12.569  10.661  71.417  1.00  0.00    -0.526 A  
ENDBRANCH   2   3
TORSDOF 1
ENDMDL
MODEL      125
REMARK 921   NORMALIZED FREE ENERGY PREDICTED BY IDOCK:   -3.40 KCAL/MOL
REMARK 922        TOTAL FREE ENERGY PREDICTED BY IDOCK:   -3.69 KCAL/MOL
REMARK 923 INTER-LIGAND FREE ENERGY PREDICTED BY IDOCK:   -3.65 KCAL/MOL
REMARK 924 INTRA-LIGAND FREE ENERGY PREDICTED BY IDOCK:   -0.04 KCAL/MOL
REMARK 927      BINDING AFFINITY PREDICTED BY RF-SCORE:    0.00 PKD
ROOT
HETATM    1  C   UNL     1     -11.480  11.762  66.943  1.00  0.00    -0.293 C  
HETATM    2  O   UNL     1     -10.521  12.141  67.927  1.00  0.00    -0.199 OA 
ENDROOT
BRANCH   2   3
HETATM    3  C   UNL     1     -10.311  11.186  68.903  1.00  0.00    -0.201 A  
HETATM    4  C   UNL     1      -9.144  10.409  68.838  1.00  0.00    -0.173 A  
HETATM    5  O   UNL     1      -8.254  10.649  67.762  1.00  0.00    -0.110 OA 
HETATM    6  C   UNL     1      -7.132   9.869  67.549  1.00  0.00    -0.088 C  
HETATM    7  O   UNL     1      -6.398  10.009  66.577  1.00  0.00    -0.067 OA 
HETATM    8  C   UNL     1      -6.830   8.849  68.569  1.00  0.00    -0.064 C  
HETATM    9  C   UNL     1      -7.620   8.639  69.624  1.00  0.00    -0.080 C  
HETATM   10  C   UNL     1      -8.847   9.410  69.770  1.00  0.00    -0.193 A  
HETATM   11  C   UNL     1      -9.742   9.133  70.812  1.00  0.00    -0.337 A  
HETATM   12  C   UNL     1     -10.964   9.831  70.859  1.00  0.00    -0.411 A  
HETATM   13  C   UNL     1     -11.215  10.823  69.912  1.00  0.00    -0.300 A  
HETATM   14  O   UNL     1     -12.464  11.336  70.114  1.00  0.00    -0.275 OA 
HETATM   15  C   UNL     1     -13.009  10.686  71.170  1.00  0.00    -0.387 A  
HETATM   16  C   UNL     1     -12.123   9.767  71.679  1.00  0.00    -0.475 A  
ENDBRANCH   2   3
TORSDOF 1
ENDMDL
MODEL      126
REMARK 921   NORMALIZED FREE ENERGY PREDICTED BY IDOCK:   -3.40 KCAL/MOL
REMARK 922        TOTAL FREE ENERGY PREDICTED BY IDOCK:   -3.69 KCAL/MOL
REMARK 923 INTER-LIGAND FREE ENERGY PREDICTED BY IDOCK:   -3.66 KCAL/MOL
REMARK 924 INTRA-LIGAND FREE ENERGY PREDICTED BY IDOCK:   -0.02 KCAL/MOL
REMARK 927      BINDING AFFINITY PREDICTED BY RF-SCORE:    0.00 PKD
ROOT
HETATM    1  C   UNL     1     -10.879   9.601  71.406  1.00  0.00    -0.224 C  
HETATM    2  O   UNL     1      -9.662   8.879  71.230  1.00  0.00    -0.235 OA 
ENDROOT
BRANCH   2   3
HETATM    3  C   UNL     1      -9.839   7.532  70.981  1.00  0.00    -0.179 A  
HETATM    4  C   UNL     1      -9.953   7.108  69.648  1.00  0.00    -0.174 A  
HETATM    5  O   UNL     1      -9.889   8.097  68.636  1.00  0.00    -0.173 OA 
HETATM    6  C   UNL     1     -10.095   7.796  67.301  1.00  0.00    -0.238 C  
HETATM    7  O   UNL     1     -10.125   8.652  66.424  1.00  0.00    -0.284 OA 
HETATM    8  C   UNL     1     -10.260   6.372  66.959  1.00  0.00    -0.264 C  
HETATM    9  C   UNL     1     -10.268   5.413  67.887  1.00  0.00    -0.219 C  
HETATM   10  C   UNL     1     -10.147   5.769  69.294  1.00  0.00    -0.268 A  
HETATM   11  C   UNL     1     -10.258   4.788  70.289  1.00  0.00    -0.262 A  
HETATM   12  C   UNL     1     -10.237   5.188  71.639  1.00  0.00    -0.276 A  
HETATM   13  C   UNL     1     -10.036   6.532  71.945  1.00  0.00    -0.182 A  
HETATM   14  O   UNL     1     -10.094   6.703  73.298  1.00  0.00    -0.179 OA 
HETATM   15  C   UNL     1     -10.332   5.490  73.855  1.00  0.00    -0.261 A  
HETATM   16  C   UNL     1     -10.406   4.521  72.882  1.00  0.00    -0.243 A  
ENDBRANCH   2   3
TORSDOF 1
ENDMDL
MODEL      127
REMARK 921   NORMALIZED FREE ENERGY PREDICTED BY IDOCK:   -3.39 KCAL/MOL
REMARK 922        TOTAL FREE ENERGY PREDICTED BY IDOCK:   -3.68 KCAL/MOL
REMARK 923 INTER-LIGAND FREE ENERGY PREDICTED BY IDOCK:   -3.59 KCAL/MOL
REMARK 924 INTRA-LIGAND FREE ENERGY PREDICTED BY IDOCK:   -0.09 KCAL/MOL
REMARK 927      BINDING AFFINITY PREDICTED BY RF-SCORE:    0.00 PKD
ROOT
HETATM    1  C   UNL     1      -9.096   8.648  68.000  1.00  0.00    -0.140 C  
HETATM    2  O   UNL     1     -10.265   7.848  68.161  1.00  0.00    -0.192 OA 
ENDROOT
BRANCH   2   3
HETATM    3  C   UNL     1     -10.556   7.540  69.476  1.00  0.00    -0.236 A  
HETATM    4  C   UNL     1     -10.186   6.277  69.965  1.00  0.00    -0.188 A  
HETATM    5  O   UNL     1      -9.543   5.389  69.068  1.00  0.00    -0.125 OA 
HETATM    6  C   UNL     1      -9.233   4.087  69.421  1.00  0.00    -0.148 C  
HETATM    7  O   UNL     1      -8.752   3.281  68.632  1.00  0.00    -0.086 OA 
HETATM    8  C   UNL     1      -9.489   3.699  70.819  1.00  0.00    -0.238 C  
HETATM    9  C   UNL     1     -10.042   4.534  71.701  1.00  0.00    -0.249 C  
HETATM   10  C   UNL     1     -10.447   5.867  71.276  1.00  0.00    -0.289 A  
HETATM   11  C   UNL     1     -11.125   6.721  72.157  1.00  0.00    -0.284 A  
HETATM   12  C   UNL     1     -11.589   7.960  71.677  1.00  0.00    -0.311 A  
HETATM   13  C   UNL     1     -11.301   8.330  70.364  1.00  0.00    -0.175 A  
HETATM   14  O   UNL     1     -11.877   9.538  70.097  1.00  0.00    -0.142 OA 
HETATM   15  C   UNL     1     -12.528   9.939  71.216  1.00  0.00    -0.381 A  
HETATM   16  C   UNL     1     -12.365   9.018  72.223  1.00  0.00    -0.402 A  
ENDBRANCH   2   3
TORSDOF 1
ENDMDL
MODEL      128
REMARK 921   NORMALIZED FREE ENERGY PREDICTED BY IDOCK:   -3.37 KCAL/MOL
REMARK 922        TOTAL FREE ENERGY PREDICTED BY IDOCK:   -3.66 KCAL/MOL
REMARK 923 INTER-LIGAND FREE ENERGY PREDICTED BY IDOCK:   -3.72 KCAL/MOL
REMARK 924 INTRA-LIGAND FREE ENERGY PREDICTED BY IDOCK:    0.06 KCAL/MOL
REMARK 927      BINDING AFFINITY PREDICTED BY RF-SCORE:    0.00 PKD
ROOT
HETATM    1  C   UNL     1      -6.476  11.534  67.216  1.00  0.00    -0.110 C  
HETATM    2  O   UNL     1      -7.784  11.630  67.774  1.00  0.00    -0.114 OA 
ENDROOT
BRANCH   2   3
HETATM    3  C   UNL     1      -8.566  12.615  67.202  1.00  0.00    -0.199 A  
HETATM    4  C   UNL     1      -9.239  12.325  66.005  1.00  0.00    -0.085 A  
HETATM    5  O   UNL     1      -9.062  11.033  65.450  1.00  0.00    -0.198 OA 
HETATM    6  C   UNL     1      -9.596  10.683  64.222  1.00  0.00    -0.296 C  
HETATM    7  O   UNL     1      -9.384   9.599  63.690  1.00  0.00    -0.211 OA 
HETATM    8  C   UNL     1     -10.467  11.676  63.569  1.00  0.00    -0.498 C  
HETATM    9  C   UNL     1     -10.696  12.879  64.097  1.00  0.00    -0.443 C  
HETATM   10  C   UNL     1     -10.043  13.257  65.343  1.00  0.00    -0.267 A  
HETATM   11  C   UNL     1     -10.187  14.552  65.859  1.00  0.00    -0.339 A  
HETATM   12  C   UNL     1      -9.458  14.908  67.010  1.00  0.00    -0.239 A  
HETATM   13  C   UNL     1      -8.673  13.944  67.640  1.00  0.00    -0.187 A  
HETATM   14  O   UNL     1      -8.025  14.509  68.700  1.00  0.00    -0.135 OA 
HETATM   15  C   UNL     1      -8.384  15.815  68.751  1.00  0.00    -0.195 A  
HETATM   16  C   UNL     1      -9.279  16.107  67.750  1.00  0.00    -0.202 A  
ENDBRANCH   2   3
TORSDOF 1
ENDMDL
MODEL      129
REMARK 921   NORMALIZED FREE ENERGY PREDICTED BY IDOCK:   -3.34 KCAL/MOL
REMARK 922        TOTAL FREE ENERGY PREDICTED BY IDOCK:   -3.63 KCAL/MOL
REMARK 923 INTER-LIGAND FREE ENERGY PREDICTED BY IDOCK:   -3.56 KCAL/MOL
REMARK 924 INTRA-LIGAND FREE ENERGY PREDICTED BY IDOCK:   -0.06 KCAL/MOL
REMARK 927      BINDING AFFINITY PREDICTED BY RF-SCORE:    0.00 PKD
ROOT
HETATM    1  C   UNL     1      -6.716  12.837  68.790  1.00  0.00    -0.093 C  
HETATM    2  O   UNL     1      -7.271  13.297  67.560  1.00  0.00    -0.151 OA 
ENDROOT
BRANCH   2   3
HETATM    3  C   UNL     1      -8.565  12.870  67.335  1.00  0.00    -0.195 A  
HETATM    4  C   UNL     1      -8.764  11.714  66.564  1.00  0.00    -0.182 A  
HETATM    5  O   UNL     1      -7.616  11.060  66.053  1.00  0.00    -0.129 OA 
HETATM    6  C   UNL     1      -7.708   9.977  65.197  1.00  0.00    -0.137 C  
HETATM    7  O   UNL     1      -6.728   9.453  64.680  1.00  0.00    -0.083 OA 
HETATM    8  C   UNL     1      -9.059   9.449  64.937  1.00  0.00    -0.258 C  
HETATM    9  C   UNL     1     -10.155  10.011  65.452  1.00  0.00    -0.317 C  
HETATM   10  C   UNL     1     -10.035  11.209  66.271  1.00  0.00    -0.261 A  
HETATM   11  C   UNL     1     -11.179  11.874  66.733  1.00  0.00    -0.384 A  
HETATM   12  C   UNL     1     -11.022  13.085  67.435  1.00  0.00    -0.284 A  
HETATM   13  C   UNL     1      -9.736  13.547  67.709  1.00  0.00    -0.226 A  
HETATM   14  O   UNL     1      -9.814  14.747  68.354  1.00  0.00    -0.208 OA 
HETATM   15  C   UNL     1     -11.127  15.055  68.491  1.00  0.00    -0.272 A  
HETATM   16  C   UNL     1     -11.912  14.057  67.964  1.00  0.00    -0.386 A  
ENDBRANCH   2   3
TORSDOF 1
ENDMDL
MODEL      130
REMARK 921   NORMALIZED FREE ENERGY PREDICTED BY IDOCK:   -3.28 KCAL/MOL
REMARK 922        TOTAL FREE ENERGY PREDICTED BY IDOCK:   -3.56 KCAL/MOL
REMARK 923 INTER-LIGAND FREE ENERGY PREDICTED BY IDOCK:   -3.51 KCAL/MOL
REMARK 924 INTRA-LIGAND FREE ENERGY PREDICTED BY IDOCK:   -0.05 KCAL/MOL
REMARK 927      BINDING AFFINITY PREDICTED BY RF-SCORE:    0.00 PKD
ROOT
HETATM    1  C   UNL     1     -11.728  15.830  68.669  1.00  0.00    -0.344 C  
HETATM    2  O   UNL     1     -10.591  15.661  69.513  1.00  0.00    -0.225 OA 
ENDROOT
BRANCH   2   3
HETATM    3  C   UNL     1      -9.462  15.221  68.852  1.00  0.00    -0.218 A  
HETATM    4  C   UNL     1      -8.477  16.162  68.510  1.00  0.00    -0.197 A  
HETATM    5  O   UNL     1      -8.713  17.515  68.860  1.00  0.00    -0.240 OA 
HETATM    6  C   UNL     1      -7.856  18.532  68.477  1.00  0.00    -0.318 C  
HETATM    7  O   UNL     1      -8.087  19.715  68.699  1.00  0.00    -0.342 OA 
HETATM    8  C   UNL     1      -6.613  18.131  67.794  1.00  0.00    -0.189 C  
HETATM    9  C   UNL     1      -6.339  16.858  67.502  1.00  0.00    -0.179 C  
HETATM   10  C   UNL     1      -7.305  15.818  67.830  1.00  0.00    -0.151 A  
HETATM   11  C   UNL     1      -7.083  14.491  67.439  1.00  0.00    -0.138 A  
HETATM   12  C   UNL     1      -8.088  13.535  67.686  1.00  0.00    -0.180 A  
HETATM   13  C   UNL     1      -9.237  13.922  68.372  1.00  0.00    -0.194 A  
HETATM   14  O   UNL     1     -10.090  12.860  68.463  1.00  0.00    -0.233 OA 
HETATM   15  C   UNL     1      -9.501  11.807  67.844  1.00  0.00    -0.191 A  
HETATM   16  C   UNL     1      -8.261  12.161  67.369  1.00  0.00    -0.175 A  
ENDBRANCH   2   3
TORSDOF 1
ENDMDL
MODEL      131
REMARK 921   NORMALIZED FREE ENERGY PREDICTED BY IDOCK:   -3.26 KCAL/MOL
REMARK 922        TOTAL FREE ENERGY PREDICTED BY IDOCK:   -3.54 KCAL/MOL
REMARK 923 INTER-LIGAND FREE ENERGY PREDICTED BY IDOCK:   -3.85 KCAL/MOL
REMARK 924 INTRA-LIGAND FREE ENERGY PREDICTED BY IDOCK:    0.30 KCAL/MOL
REMARK 927      BINDING AFFINITY PREDICTED BY RF-SCORE:    0.00 PKD
ROOT
HETATM    1  C   UNL     1     -10.361   8.618  67.076  1.00  0.00    -0.298 C  
HETATM    2  O   UNL     1     -11.061   9.755  67.578  1.00  0.00    -0.234 OA 
ENDROOT
BRANCH   2   3
HETATM    3  C   UNL     1     -10.464  10.961  67.269  1.00  0.00    -0.232 A  
HETATM    4  C   UNL     1      -9.231  11.270  67.865  1.00  0.00    -0.157 A  
HETATM    5  O   UNL     1      -8.678  10.321  68.760  1.00  0.00    -0.128 OA 
HETATM    6  C   UNL     1      -7.522  10.574  69.477  1.00  0.00    -0.146 C  
HETATM    7  O   UNL     1      -7.077   9.799  70.316  1.00  0.00    -0.111 OA 
HETATM    8  C   UNL     1      -6.816  11.831  69.174  1.00  0.00    -0.106 C  
HETATM    9  C   UNL     1      -7.284  12.718  68.294  1.00  0.00    -0.114 C  
HETATM   10  C   UNL     1      -8.554  12.470  67.626  1.00  0.00    -0.178 A  
HETATM   11  C   UNL     1      -9.114  13.436  66.778  1.00  0.00    -0.221 A  
HETATM   12  C   UNL     1     -10.390  13.200  66.233  1.00  0.00    -0.291 A  
HETATM   13  C   UNL     1     -11.025  11.987  66.493  1.00  0.00    -0.295 A  
HETATM   14  O   UNL     1     -12.259  11.986  65.908  1.00  0.00    -0.531 OA 
HETATM   15  C   UNL     1     -12.417  13.178  65.283  1.00  0.00    -0.495 A  
HETATM   16  C   UNL     1     -11.291  13.952  65.432  1.00  0.00    -0.311 A  
ENDBRANCH   2   3
TORSDOF 1
ENDMDL
MODEL      132
REMARK 921   NORMALIZED FREE ENERGY PREDICTED BY IDOCK:   -3.26 KCAL/MOL
REMARK 922        TOTAL FREE ENERGY PREDICTED BY IDOCK:   -3.54 KCAL/MOL
REMARK 923 INTER-LIGAND FREE ENERGY PREDICTED BY IDOCK:   -3.93 KCAL/MOL
REMARK 924 INTRA-LIGAND FREE ENERGY PREDICTED BY IDOCK:    0.39 KCAL/MOL
REMARK 927      BINDING AFFINITY PREDICTED BY RF-SCORE:    0.00 PKD
ROOT
HETATM    1  C   UNL     1     -10.745  15.480  66.437  1.00  0.00    -0.303 C  
HETATM    2  O   UNL     1     -10.510  15.674  67.830  1.00  0.00    -0.261 OA 
ENDROOT
BRANCH   2   3
HETATM    3  C   UNL     1      -9.368  16.398  68.110  1.00  0.00    -0.209 A  
HETATM    4  C   UNL     1      -9.301  17.734  67.681  1.00  0.00    -0.250 A  
HETATM    5  O   UNL     1     -10.414  18.253  66.974  1.00  0.00    -0.378 OA 
HETATM    6  C   UNL     1     -10.405  19.520  66.419  1.00  0.00    -0.496 C  
HETATM    7  O   UNL     1     -11.324  19.953  65.734  1.00  0.00     0.059 OA 
HETATM    8  C   UNL     1      -9.229  20.361  66.705  1.00  0.00    -0.372 C  
HETATM    9  C   UNL     1      -8.191  19.918  67.416  1.00  0.00    -0.356 C  
HETATM   10  C   UNL     1      -8.185  18.546  67.906  1.00  0.00    -0.277 A  
HETATM   11  C   UNL     1      -7.061  18.028  68.563  1.00  0.00    -0.257 A  
HETATM   12  C   UNL     1      -7.056  16.669  68.929  1.00  0.00    -0.205 A  
HETATM   13  C   UNL     1      -8.194  15.899  68.692  1.00  0.00    -0.182 A  
HETATM   14  O   UNL     1      -7.959  14.612  69.081  1.00  0.00    -0.148 OA 
HETATM   15  C   UNL     1      -6.692  14.552  69.559  1.00  0.00    -0.151 A  
HETATM   16  C   UNL     1      -6.101  15.792  69.510  1.00  0.00    -0.147 A  
ENDBRANCH   2   3
TORSDOF 1
ENDMDL
MODEL      133
REMARK 921   NORMALIZED FREE ENERGY PREDICTED BY IDOCK:   -3.23 KCAL/MOL
REMARK 922        TOTAL FREE ENERGY PREDICTED BY IDOCK:   -3.51 KCAL/MOL
REMARK 923 INTER-LIGAND FREE ENERGY PREDICTED BY IDOCK:   -3.58 KCAL/MOL
REMARK 924 INTRA-LIGAND FREE ENERGY PREDICTED BY IDOCK:    0.07 KCAL/MOL
REMARK 927      BINDING AFFINITY PREDICTED BY RF-SCORE:    0.00 PKD
ROOT
HETATM    1  C   UNL     1      -8.634  18.476  68.276  1.00  0.00    -0.318 C  
HETATM    2  O   UNL     1      -9.285  17.281  68.702  1.00  0.00    -0.265 OA 
ENDROOT
BRANCH   2   3
HETATM    3  C   UNL     1      -8.546  16.134  68.492  1.00  0.00    -0.202 A  
HETATM    4  C   UNL     1      -9.142  15.073  67.792  1.00  0.00    -0.180 A  
HETATM    5  O   UNL     1     -10.478  15.244  67.353  1.00  0.00    -0.260 OA 
HETATM    6  C   UNL     1     -11.188  14.223  66.748  1.00  0.00    -0.332 C  
HETATM    7  O   UNL     1     -12.370  14.328  66.438  1.00  0.00    -0.448 OA 
HETATM    8  C   UNL     1     -10.451  12.979  66.465  1.00  0.00    -0.284 C  
HETATM    9  C   UNL     1      -9.176  12.810  66.817  1.00  0.00    -0.225 C  
HETATM   10  C   UNL     1      -8.481  13.867  67.540  1.00  0.00    -0.200 A  
HETATM   11  C   UNL     1      -7.176  13.669  68.011  1.00  0.00    -0.130 A  
HETATM   12  C   UNL     1      -6.577  14.676  68.792  1.00  0.00    -0.090 A  
HETATM   13  C   UNL     1      -7.271  15.864  69.013  1.00  0.00    -0.177 A  
HETATM   14  O   UNL     1      -6.532  16.677  69.824  1.00  0.00    -0.220 OA 
HETATM   15  C   UNL     1      -5.383  16.022  70.122  1.00  0.00    -0.157 A  
HETATM   16  C   UNL     1      -5.350  14.799  69.496  1.00  0.00    -0.091 A  
ENDBRANCH   2   3
TORSDOF 1
ENDMDL
MODEL      134
REMARK 921   NORMALIZED FREE ENERGY PREDICTED BY IDOCK:   -3.22 KCAL/MOL
REMARK 922        TOTAL FREE ENERGY PREDICTED BY IDOCK:   -3.50 KCAL/MOL
REMARK 923 INTER-LIGAND FREE ENERGY PREDICTED BY IDOCK:   -3.46 KCAL/MOL
REMARK 924 INTRA-LIGAND FREE ENERGY PREDICTED BY IDOCK:   -0.04 KCAL/MOL
REMARK 927      BINDING AFFINITY PREDICTED BY RF-SCORE:    0.00 PKD
ROOT
HETATM    1  C   UNL     1      -7.957   8.706  66.356  1.00  0.00    -0.099 C  
HETATM    2  O   UNL     1      -9.118   8.010  66.805  1.00  0.00    -0.140 OA 
ENDROOT
BRANCH   2   3
HETATM    3  C   UNL     1      -9.285   8.024  68.176  1.00  0.00    -0.133 A  
HETATM    4  C   UNL     1     -10.090   9.026  68.741  1.00  0.00    -0.199 A  
HETATM    5  O   UNL     1     -10.675   9.971  67.864  1.00  0.00    -0.236 OA 
HETATM    6  C   UNL     1     -11.397  11.056  68.329  1.00  0.00    -0.299 C  
HETATM    7  O   UNL     1     -11.838  11.928  67.589  1.00  0.00    -0.534 OA 
HETATM    8  C   UNL     1     -11.641  11.118  69.781  1.00  0.00    -0.409 C  
HETATM    9  C   UNL     1     -11.150  10.209  70.625  1.00  0.00    -0.397 C  
HETATM   10  C   UNL     1     -10.311   9.131  70.118  1.00  0.00    -0.244 A  
HETATM   11  C   UNL     1      -9.700   8.229  70.999  1.00  0.00    -0.201 A  
HETATM   12  C   UNL     1      -8.816   7.266  70.477  1.00  0.00    -0.153 A  
HETATM   13  C   UNL     1      -8.630   7.193  69.097  1.00  0.00    -0.133 A  
HETATM   14  O   UNL     1      -7.708   6.227  68.814  1.00  0.00    -0.097 OA 
HETATM   15  C   UNL     1      -7.305   5.688  69.990  1.00  0.00    -0.069 A  
HETATM   16  C   UNL     1      -7.969   6.274  71.041  1.00  0.00    -0.116 A  
ENDBRANCH   2   3
TORSDOF 1
ENDMDL
MODEL      135
REMARK 921   NORMALIZED FREE ENERGY PREDICTED BY IDOCK:   -3.20 KCAL/MOL
REMARK 922        TOTAL FREE ENERGY PREDICTED BY IDOCK:   -3.48 KCAL/MOL
REMARK 923 INTER-LIGAND FREE ENERGY PREDICTED BY IDOCK:   -3.46 KCAL/MOL
REMARK 924 INTRA-LIGAND FREE ENERGY PREDICTED BY IDOCK:   -0.03 KCAL/MOL
REMARK 927      BINDING AFFINITY PREDICTED BY RF-SCORE:    0.00 PKD
ROOT
HETATM    1  C   UNL     1      -6.451   7.819  72.253  1.00  0.00    -0.057 C  
HETATM    2  O   UNL     1      -7.611   8.470  72.768  1.00  0.00    -0.283 OA 
ENDROOT
BRANCH   2   3
HETATM    3  C   UNL     1      -8.639   8.590  71.853  1.00  0.00    -0.188 A  
HETATM    4  C   UNL     1      -9.761   7.758  71.996  1.00  0.00    -0.173 A  
HETATM    5  O   UNL     1      -9.761   6.835  73.071  1.00  0.00    -0.155 OA 
HETATM    6  C   UNL     1     -10.770   5.902  73.237  1.00  0.00    -0.265 C  
HETATM    7  O   UNL     1     -10.744   5.043  74.112  1.00  0.00    -0.289 OA 
HETATM    8  C   UNL     1     -11.915   5.991  72.314  1.00  0.00    -0.259 C  
HETATM    9  C   UNL     1     -11.967   6.888  71.327  1.00  0.00    -0.402 C  
HETATM   10  C   UNL     1     -10.847   7.794  71.116  1.00  0.00    -0.254 A  
HETATM   11  C   UNL     1     -10.836   8.671  70.023  1.00  0.00    -0.226 A  
HETATM   12  C   UNL     1      -9.690   9.457  69.796  1.00  0.00    -0.215 A  
HETATM   13  C   UNL     1      -8.634   9.393  70.703  1.00  0.00    -0.198 A  
HETATM   14  O   UNL     1      -7.617  10.196  70.272  1.00  0.00    -0.187 OA 
HETATM   15  C   UNL     1      -8.011  10.766  69.107  1.00  0.00    -0.134 A  
HETATM   16  C   UNL     1      -9.283  10.364  68.781  1.00  0.00    -0.172 A  
ENDBRANCH   2   3
TORSDOF 1
ENDMDL
MODEL      136
REMARK 921   NORMALIZED FREE ENERGY PREDICTED BY IDOCK:   -3.20 KCAL/MOL
REMARK 922        TOTAL FREE ENERGY PREDICTED BY IDOCK:   -3.48 KCAL/MOL
REMARK 923 INTER-LIGAND FREE ENERGY PREDICTED BY IDOCK:   -3.71 KCAL/MOL
REMARK 924 INTRA-LIGAND FREE ENERGY PREDICTED BY IDOCK:    0.23 KCAL/MOL
REMARK 927      BINDING AFFINITY PREDICTED BY RF-SCORE:    0.00 PKD
ROOT
HETATM    1  C   UNL     1      -7.129   7.565  68.151  1.00  0.00    -0.084 C  
HETATM    2  O   UNL     1      -7.487   8.565  69.101  1.00  0.00    -0.084 OA 
ENDROOT
BRANCH   2   3
HETATM    3  C   UNL     1      -8.606   9.295  68.751  1.00  0.00    -0.131 A  
HETATM    4  C   UNL     1      -9.648   9.411  69.686  1.00  0.00    -0.188 A  
HETATM    5  O   UNL     1      -9.486   8.758  70.933  1.00  0.00    -0.179 OA 
HETATM    6  C   UNL     1     -10.495   8.724  71.880  1.00  0.00    -0.353 C  
HETATM    7  O   UNL     1     -10.403   8.094  72.927  1.00  0.00    -0.318 OA 
HETATM    8  C   UNL     1     -11.708   9.507  71.586  1.00  0.00    -0.460 C  
HETATM    9  C   UNL     1     -11.864  10.179  70.443  1.00  0.00    -0.373 C  
HETATM   10  C   UNL     1     -10.825  10.117  69.423  1.00  0.00    -0.274 A  
HETATM   11  C   UNL     1     -11.015  10.728  68.176  1.00  0.00    -0.308 A  
HETATM   12  C   UNL     1     -10.031  10.559  67.183  1.00  0.00    -0.234 A  
HETATM   13  C   UNL     1      -8.871   9.852  67.491  1.00  0.00    -0.128 A  
HETATM   14  O   UNL     1      -8.080   9.772  66.381  1.00  0.00    -0.114 OA 
HETATM   15  C   UNL     1      -8.721  10.415  65.374  1.00  0.00    -0.180 A  
HETATM   16  C   UNL     1      -9.913  10.935  65.818  1.00  0.00    -0.299 A  
ENDBRANCH   2   3
TORSDOF 1
ENDMDL
MODEL      137
REMARK 921   NORMALIZED FREE ENERGY PREDICTED BY IDOCK:   -3.17 KCAL/MOL
REMARK 922        TOTAL FREE ENERGY PREDICTED BY IDOCK:   -3.45 KCAL/MOL
REMARK 923 INTER-LIGAND FREE ENERGY PREDICTED BY IDOCK:   -4.07 KCAL/MOL
REMARK 924 INTRA-LIGAND FREE ENERGY PREDICTED BY IDOCK:    0.62 KCAL/MOL
REMARK 927      BINDING AFFINITY PREDICTED BY RF-SCORE:    0.00 PKD
ROOT
HETATM    1  C   UNL     1     -12.571  12.050  63.348  1.00  0.00    -0.469 C  
HETATM    2  O   UNL     1     -11.240  11.544  63.277  1.00  0.00    -0.329 OA 
ENDROOT
BRANCH   2   3
HETATM    3  C   UNL     1     -10.556  11.598  64.476  1.00  0.00    -0.318 A  
HETATM    4  C   UNL     1      -9.446  10.756  64.651  1.00  0.00    -0.251 A  
HETATM    5  O   UNL     1      -9.104   9.890  63.584  1.00  0.00    -0.241 OA 
HETATM    6  C   UNL     1      -8.096   8.949  63.696  1.00  0.00    -0.167 C  
HETATM    7  O   UNL     1      -7.842   8.137  62.813  1.00  0.00    -0.126 OA 
HETATM    8  C   UNL     1      -7.303   8.971  64.938  1.00  0.00    -0.100 C  
HETATM    9  C   UNL     1      -7.567   9.814  65.937  1.00  0.00    -0.103 C  
HETATM   10  C   UNL     1      -8.696  10.728  65.831  1.00  0.00    -0.189 A  
HETATM   11  C   UNL     1      -9.054  11.547  66.911  1.00  0.00    -0.181 A  
HETATM   12  C   UNL     1     -10.212  12.340  66.804  1.00  0.00    -0.229 A  
HETATM   13  C   UNL     1     -10.926  12.341  65.607  1.00  0.00    -0.299 A  
HETATM   14  O   UNL     1     -12.026  13.138  65.736  1.00  0.00    -0.377 OA 
HETATM   15  C   UNL     1     -12.024  13.641  66.995  1.00  0.00    -0.406 A  
HETATM   16  C   UNL     1     -10.920  13.200  67.686  1.00  0.00    -0.282 A  
ENDBRANCH   2   3
TORSDOF 1
ENDMDL
MODEL      138
REMARK 921   NORMALIZED FREE ENERGY PREDICTED BY IDOCK:   -3.17 KCAL/MOL
REMARK 922        TOTAL FREE ENERGY PREDICTED BY IDOCK:   -3.45 KCAL/MOL
REMARK 923 INTER-LIGAND FREE ENERGY PREDICTED BY IDOCK:   -3.41 KCAL/MOL
REMARK 924 INTRA-LIGAND FREE ENERGY PREDICTED BY IDOCK:   -0.03 KCAL/MOL
REMARK 927      BINDING AFFINITY PREDICTED BY RF-SCORE:    0.00 PKD
ROOT
HETATM    1  C   UNL     1      -7.239   6.637  69.309  1.00  0.00    -0.090 C  
HETATM    2  O   UNL     1      -8.623   6.438  69.031  1.00  0.00    -0.123 OA 
ENDROOT
BRANCH   2   3
HETATM    3  C   UNL     1      -9.455   7.358  69.639  1.00  0.00    -0.156 A  
HETATM    4  C   UNL     1      -9.804   8.517  68.927  1.00  0.00    -0.176 A  
HETATM    5  O   UNL     1      -9.268   8.674  67.625  1.00  0.00    -0.134 OA 
HETATM    6  C   UNL     1      -9.466   9.826  66.884  1.00  0.00    -0.160 C  
HETATM    7  O   UNL     1      -8.941  10.012  65.792  1.00  0.00    -0.146 OA 
HETATM    8  C   UNL     1     -10.369  10.838  67.459  1.00  0.00    -0.244 C  
HETATM    9  C   UNL     1     -10.934  10.690  68.659  1.00  0.00    -0.291 C  
HETATM   10  C   UNL     1     -10.630   9.511  69.460  1.00  0.00    -0.238 A  
HETATM   11  C   UNL     1     -11.128   9.388  70.764  1.00  0.00    -0.365 A  
HETATM   12  C   UNL     1     -10.728   8.283  71.539  1.00  0.00    -0.295 A  
HETATM   13  C   UNL     1      -9.909   7.312  70.965  1.00  0.00    -0.183 A  
HETATM   14  O   UNL     1      -9.611   6.361  71.898  1.00  0.00    -0.154 OA 
HETATM   15  C   UNL     1     -10.225   6.714  73.054  1.00  0.00    -0.205 A  
HETATM   16  C   UNL     1     -10.942   7.873  72.883  1.00  0.00    -0.452 A  
ENDBRANCH   2   3
TORSDOF 1
ENDMDL
MODEL      139
REMARK 921   NORMALIZED FREE ENERGY PREDICTED BY IDOCK:   -3.17 KCAL/MOL
REMARK 922        TOTAL FREE ENERGY PREDICTED BY IDOCK:   -3.44 KCAL/MOL
REMARK 923 INTER-LIGAND FREE ENERGY PREDICTED BY IDOCK:   -3.63 KCAL/MOL
REMARK 924 INTRA-LIGAND FREE ENERGY PREDICTED BY IDOCK:    0.18 KCAL/MOL
REMARK 927      BINDING AFFINITY PREDICTED BY RF-SCORE:    0.00 PKD
ROOT
HETATM    1  C   UNL     1      -7.204   8.429  70.689  1.00  0.00    -0.051 C  
HETATM    2  O   UNL     1      -7.854   9.311  71.601  1.00  0.00    -0.329 OA 
ENDROOT
BRANCH   2   3
HETATM    3  C   UNL     1      -9.129   8.914  71.952  1.00  0.00    -0.136 A  
HETATM    4  C   UNL     1      -9.274   7.836  72.840  1.00  0.00    -0.208 A  
HETATM    5  O   UNL     1      -8.092   7.214  73.314  1.00  0.00    -0.098 OA 
HETATM    6  C   UNL     1      -8.127   6.081  74.107  1.00  0.00    -0.102 C  
HETATM    7  O   UNL     1      -7.116   5.482  74.457  1.00  0.00    -0.081 OA 
HETATM    8  C   UNL     1      -9.456   5.618  74.546  1.00  0.00    -0.157 C  
HETATM    9  C   UNL     1     -10.583   6.220  74.161  1.00  0.00    -0.136 C  
HETATM   10  C   UNL     1     -10.521   7.352  73.246  1.00  0.00    -0.424 A  
HETATM   11  C   UNL     1     -11.696   7.930  72.747  1.00  0.00    -0.338 A  
HETATM   12  C   UNL     1     -11.591   8.955  71.787  1.00  0.00    -0.422 A  
HETATM   13  C   UNL     1     -10.327   9.410  71.416  1.00  0.00    -0.256 A  
HETATM   14  O   UNL     1     -10.456  10.367  70.451  1.00  0.00    -0.183 OA 
HETATM   15  C   UNL     1     -11.779  10.524  70.203  1.00  0.00    -0.326 A  
HETATM   16  C   UNL     1     -12.521   9.698  71.011  1.00  0.00    -0.382 A  
ENDBRANCH   2   3
TORSDOF 1
ENDMDL
MODEL      140
REMARK 921   NORMALIZED FREE ENERGY PREDICTED BY IDOCK:   -3.16 KCAL/MOL
REMARK 922        TOTAL FREE ENERGY PREDICTED BY IDOCK:   -3.44 KCAL/MOL
REMARK 923 INTER-LIGAND FREE ENERGY PREDICTED BY IDOCK:   -3.42 KCAL/MOL
REMARK 924 INTRA-LIGAND FREE ENERGY PREDICTED BY IDOCK:   -0.01 KCAL/MOL
REMARK 927      BINDING AFFINITY PREDICTED BY RF-SCORE:    0.00 PKD
ROOT
HETATM    1  C   UNL     1      -6.404  13.241  69.210  1.00  0.00    -0.108 C  
HETATM    2  O   UNL     1      -7.190  13.938  68.246  1.00  0.00    -0.091 OA 
ENDROOT
BRANCH   2   3
HETATM    3  C   UNL     1      -8.292  13.232  67.806  1.00  0.00    -0.171 A  
HETATM    4  C   UNL     1      -9.565  13.646  68.232  1.00  0.00    -0.215 A  
HETATM    5  O   UNL     1      -9.635  14.762  69.102  1.00  0.00    -0.199 OA 
HETATM    6  C   UNL     1     -10.829  15.183  69.660  1.00  0.00    -0.286 C  
HETATM    7  O   UNL     1     -10.895  16.094  70.479  1.00  0.00    -0.297 OA 
HETATM    8  C   UNL     1     -12.051  14.494  69.211  1.00  0.00    -0.325 C  
HETATM    9  C   UNL     1     -12.020  13.476  68.350  1.00  0.00    -0.378 C  
HETATM   10  C   UNL     1     -10.740  12.991  67.852  1.00  0.00    -0.249 A  
HETATM   11  C   UNL     1     -10.678  11.858  67.030  1.00  0.00    -0.280 A  
HETATM   12  C   UNL     1      -9.416  11.361  66.654  1.00  0.00    -0.206 A  
HETATM   13  C   UNL     1      -8.271  12.050  67.052  1.00  0.00    -0.169 A  
HETATM   14  O   UNL     1      -7.164  11.377  66.620  1.00  0.00    -0.140 OA 
HETATM   15  C   UNL     1      -7.588  10.273  65.958  1.00  0.00    -0.128 A  
HETATM   16  C   UNL     1      -8.961  10.226  65.931  1.00  0.00    -0.181 A  
ENDBRANCH   2   3
TORSDOF 1
ENDMDL
MODEL      141
REMARK 921   NORMALIZED FREE ENERGY PREDICTED BY IDOCK:   -3.16 KCAL/MOL
REMARK 922        TOTAL FREE ENERGY PREDICTED BY IDOCK:   -3.43 KCAL/MOL
REMARK 923 INTER-LIGAND FREE ENERGY PREDICTED BY IDOCK:   -3.34 KCAL/MOL
REMARK 924 INTRA-LIGAND FREE ENERGY PREDICTED BY IDOCK:   -0.10 KCAL/MOL
REMARK 927      BINDING AFFINITY PREDICTED BY RF-SCORE:    0.00 PKD
ROOT
HETATM    1  C   UNL     1      -6.801  11.125  69.236  1.00  0.00    -0.110 C  
HETATM    2  O   UNL     1      -8.224  11.062  69.175  1.00  0.00    -0.131 OA 
ENDROOT
BRANCH   2   3
HETATM    3  C   UNL     1      -8.714  10.636  67.956  1.00  0.00    -0.126 A  
HETATM    4  C   UNL     1      -9.281  11.589  67.094  1.00  0.00    -0.169 A  
HETATM    5  O   UNL     1      -9.323  12.933  67.538  1.00  0.00    -0.178 OA 
HETATM    6  C   UNL     1      -9.952  13.927  66.809  1.00  0.00    -0.269 C  
HETATM    7  O   UNL     1     -10.071  15.077  67.218  1.00  0.00    -0.234 OA 
HETATM    8  C   UNL     1     -10.472  13.550  65.483  1.00  0.00    -0.304 C  
HETATM    9  C   UNL     1     -10.396  12.303  65.016  1.00  0.00    -0.321 C  
HETATM   10  C   UNL     1      -9.815  11.256  65.845  1.00  0.00    -0.272 A  
HETATM   11  C   UNL     1      -9.820   9.922  65.416  1.00  0.00    -0.384 A  
HETATM   12  C   UNL     1      -9.341   8.927  66.290  1.00  0.00    -0.279 A  
HETATM   13  C   UNL     1      -8.813   9.306  67.523  1.00  0.00    -0.118 A  
HETATM   14  O   UNL     1      -8.450   8.190  68.222  1.00  0.00    -0.128 OA 
HETATM   15  C   UNL     1      -8.743   7.112  67.455  1.00  0.00    -0.120 A  
HETATM   16  C   UNL     1      -9.271   7.509  66.250  1.00  0.00    -0.194 A  
ENDBRANCH   2   3
TORSDOF 1
ENDMDL
MODEL      142
REMARK 921   NORMALIZED FREE ENERGY PREDICTED BY IDOCK:   -3.15 KCAL/MOL
REMARK 922        TOTAL FREE ENERGY PREDICTED BY IDOCK:   -3.43 KCAL/MOL
REMARK 923 INTER-LIGAND FREE ENERGY PREDICTED BY IDOCK:   -3.48 KCAL/MOL
REMARK 924 INTRA-LIGAND FREE ENERGY PREDICTED BY IDOCK:    0.05 KCAL/MOL
REMARK 927      BINDING AFFINITY PREDICTED BY RF-SCORE:    0.00 PKD
ROOT
HETATM    1  C   UNL     1      -8.464  10.295  64.760  1.00  0.00    -0.174 C  
HETATM    2  O   UNL     1      -9.721   9.723  65.112  1.00  0.00    -0.294 OA 
ENDROOT
BRANCH   2   3
HETATM    3  C   UNL     1     -10.023   9.815  66.457  1.00  0.00    -0.239 A  
HETATM    4  C   UNL     1     -10.351   8.639  67.150  1.00  0.00    -0.299 A  
HETATM    5  O   UNL     1     -10.363   7.427  66.418  1.00  0.00    -0.107 OA 
HETATM    6  C   UNL     1     -10.775   6.232  66.983  1.00  0.00    -0.362 C  
HETATM    7  O   UNL     1     -10.871   5.192  66.341  1.00  0.00    -0.283 OA 
HETATM    8  C   UNL     1     -11.082   6.250  68.424  1.00  0.00    -0.371 C  
HETATM    9  C   UNL     1     -11.024   7.368  69.151  1.00  0.00    -0.057 C  
HETATM   10  C   UNL     1     -10.682   8.630  68.509  1.00  0.00    -0.091 A  
HETATM   11  C   UNL     1     -10.719   9.830  69.232  1.00  0.00    -0.246 A  
HETATM   12  C   UNL     1     -10.481  11.039  68.550  1.00  0.00    -0.210 A  
HETATM   13  C   UNL     1     -10.149  11.000  67.197  1.00  0.00    -0.193 A  
HETATM   14  O   UNL     1     -10.004  12.274  66.729  1.00  0.00    -0.201 OA 
HETATM   15  C   UNL     1     -10.242  13.119  67.762  1.00  0.00    -0.231 A  
HETATM   16  C   UNL     1     -10.517  12.413  68.908  1.00  0.00    -0.118 A  
ENDBRANCH   2   3
TORSDOF 1
ENDMDL
MODEL      143
REMARK 921   NORMALIZED FREE ENERGY PREDICTED BY IDOCK:   -3.06 KCAL/MOL
REMARK 922        TOTAL FREE ENERGY PREDICTED BY IDOCK:   -3.33 KCAL/MOL
REMARK 923 INTER-LIGAND FREE ENERGY PREDICTED BY IDOCK:   -3.28 KCAL/MOL
REMARK 924 INTRA-LIGAND FREE ENERGY PREDICTED BY IDOCK:   -0.05 KCAL/MOL
REMARK 927      BINDING AFFINITY PREDICTED BY RF-SCORE:    0.00 PKD
ROOT
HETATM    1  C   UNL     1     -10.186   6.536  66.737  1.00  0.00    -0.191 C  
HETATM    2  O   UNL     1     -10.780   7.722  67.262  1.00  0.00    -0.307 OA 
ENDROOT
BRANCH   2   3
HETATM    3  C   UNL     1     -10.301   8.086  68.505  1.00  0.00    -0.199 A  
HETATM    4  C   UNL     1      -9.261   9.027  68.572  1.00  0.00    -0.136 A  
HETATM    5  O   UNL     1      -8.759   9.539  67.350  1.00  0.00    -0.125 OA 
HETATM    6  C   UNL     1      -7.669  10.389  67.303  1.00  0.00    -0.099 C  
HETATM    7  O   UNL     1      -7.171  10.774  66.251  1.00  0.00    -0.131 OA 
HETATM    8  C   UNL     1      -7.126  10.844  68.595  1.00  0.00    -0.080 C  
HETATM    9  C   UNL     1      -7.615  10.422  69.762  1.00  0.00    -0.141 C  
HETATM   10  C   UNL     1      -8.701   9.451  69.781  1.00  0.00    -0.189 A  
HETATM   11  C   UNL     1      -9.158   8.917  70.993  1.00  0.00    -0.303 A  
HETATM   12  C   UNL     1     -10.138   7.906  70.961  1.00  0.00    -0.212 A  
HETATM   13  C   UNL     1     -10.673   7.519  69.733  1.00  0.00    -0.242 A  
HETATM   14  O   UNL     1     -11.566   6.505  69.927  1.00  0.00    -0.409 OA 
HETATM   15  C   UNL     1     -11.605   6.242  71.256  1.00  0.00    -0.274 A  
HETATM   16  C   UNL     1     -10.764   7.088  71.939  1.00  0.00    -0.244 A  
ENDBRANCH   2   3
TORSDOF 1
ENDMDL
MODEL      144
REMARK 921   NORMALIZED FREE ENERGY PREDICTED BY IDOCK:   -3.05 KCAL/MOL
REMARK 922        TOTAL FREE ENERGY PREDICTED BY IDOCK:   -3.32 KCAL/MOL
REMARK 923 INTER-LIGAND FREE ENERGY PREDICTED BY IDOCK:   -3.27 KCAL/MOL
REMARK 924 INTRA-LIGAND FREE ENERGY PREDICTED BY IDOCK:   -0.05 KCAL/MOL
REMARK 927      BINDING AFFINITY PREDICTED BY RF-SCORE:    0.00 PKD
ROOT
HETATM    1  C   UNL     1      -6.274  12.310  67.266  1.00  0.00    -0.152 C  
HETATM    2  O   UNL     1      -7.113  12.559  68.392  1.00  0.00    -0.091 OA 
ENDROOT
BRANCH   2   3
HETATM    3  C   UNL     1      -7.976  13.624  68.223  1.00  0.00    -0.150 A  
HETATM    4  C   UNL     1      -9.281  13.363  67.775  1.00  0.00    -0.211 A  
HETATM    5  O   UNL     1      -9.627  12.015  67.512  1.00  0.00    -0.173 OA 
HETATM    6  C   UNL     1     -10.851  11.664  66.969  1.00  0.00    -0.266 C  
HETATM    7  O   UNL     1     -11.135  10.513  66.658  1.00  0.00    -0.111 OA 
HETATM    8  C   UNL     1     -11.833  12.748  66.791  1.00  0.00    -0.452 C  
HETATM    9  C   UNL     1     -11.554  14.019  67.083  1.00  0.00    -0.397 C  
HETATM   10  C   UNL     1     -10.224  14.373  67.562  1.00  0.00    -0.240 A  
HETATM   11  C   UNL     1      -9.877  15.714  67.775  1.00  0.00    -0.220 A  
HETATM   12  C   UNL     1      -8.552  16.022  68.139  1.00  0.00    -0.171 A  
HETATM   13  C   UNL     1      -7.648  14.982  68.346  1.00  0.00    -0.115 A  
HETATM   14  O   UNL     1      -6.422  15.502  68.647  1.00  0.00    -0.099 OA 
HETATM   15  C   UNL     1      -6.534  16.852  68.632  1.00  0.00    -0.169 A  
HETATM   16  C   UNL     1      -7.826  17.224  68.348  1.00  0.00    -0.254 A  
ENDBRANCH   2   3
TORSDOF 1
ENDMDL
MODEL      145
REMARK 921   NORMALIZED FREE ENERGY PREDICTED BY IDOCK:   -3.05 KCAL/MOL
REMARK 922        TOTAL FREE ENERGY PREDICTED BY IDOCK:   -3.32 KCAL/MOL
REMARK 923 INTER-LIGAND FREE ENERGY PREDICTED BY IDOCK:   -3.27 KCAL/MOL
REMARK 924 INTRA-LIGAND FREE ENERGY PREDICTED BY IDOCK:   -0.04 KCAL/MOL
REMARK 927      BINDING AFFINITY PREDICTED BY RF-SCORE:    0.00 PKD
ROOT
HETATM    1  C   UNL     1     -10.841   8.474  72.129  1.00  0.00    -0.357 C  
HETATM    2  O   UNL     1      -9.740   9.256  71.671  1.00  0.00    -0.257 OA 
ENDROOT
BRANCH   2   3
HETATM    3  C   UNL     1      -9.120   8.746  70.547  1.00  0.00    -0.177 A  
HETATM    4  C   UNL     1      -9.521   9.221  69.288  1.00  0.00    -0.160 A  
HETATM    5  O   UNL     1     -10.551  10.193  69.251  1.00  0.00    -0.202 OA 
HETATM    6  C   UNL     1     -11.089  10.647  68.059  1.00  0.00    -0.301 C  
HETATM    7  O   UNL     1     -12.036  11.424  68.011  1.00  0.00    -0.629 OA 
HETATM    8  C   UNL     1     -10.455  10.167  66.819  1.00  0.00    -0.270 C  
HETATM    9  C   UNL     1      -9.445   9.294  66.826  1.00  0.00    -0.228 C  
HETATM   10  C   UNL     1      -8.963   8.759  68.092  1.00  0.00    -0.141 A  
HETATM   11  C   UNL     1      -7.976   7.764  68.115  1.00  0.00    -0.122 A  
HETATM   12  C   UNL     1      -7.612   7.200  69.353  1.00  0.00    -0.098 A  
HETATM   13  C   UNL     1      -8.190   7.696  70.520  1.00  0.00    -0.121 A  
HETATM   14  O   UNL     1      -7.731   6.985  71.591  1.00  0.00    -0.092 OA 
HETATM   15  C   UNL     1      -6.874   6.045  71.122  1.00  0.00    -0.066 A  
HETATM   16  C   UNL     1      -6.748   6.148  69.758  1.00  0.00    -0.052 A  
ENDBRANCH   2   3
TORSDOF 1
ENDMDL
MODEL      146
REMARK 921   NORMALIZED FREE ENERGY PREDICTED BY IDOCK:   -3.04 KCAL/MOL
REMARK 922        TOTAL FREE ENERGY PREDICTED BY IDOCK:   -3.31 KCAL/MOL
REMARK 923 INTER-LIGAND FREE ENERGY PREDICTED BY IDOCK:   -3.46 KCAL/MOL
REMARK 924 INTRA-LIGAND FREE ENERGY PREDICTED BY IDOCK:    0.15 KCAL/MOL
REMARK 927      BINDING AFFINITY PREDICTED BY RF-SCORE:    0.00 PKD
ROOT
HETATM    1  C   UNL     1      -9.342   7.106  72.066  1.00  0.00    -0.137 C  
HETATM    2  O   UNL     1     -10.357   6.490  71.279  1.00  0.00    -0.201 OA 
ENDROOT
BRANCH   2   3
HETATM    3  C   UNL     1     -10.457   6.996  69.997  1.00  0.00    -0.215 A  
HETATM    4  C   UNL     1     -10.307   6.113  68.916  1.00  0.00    -0.208 A  
HETATM    5  O   UNL     1     -10.050   4.751  69.211  1.00  0.00    -0.205 OA 
HETATM    6  C   UNL     1      -9.783   3.823  68.221  1.00  0.00    -0.030 C  
HETATM    7  O   UNL     1      -9.476   2.661  68.463  1.00  0.00    -0.195 OA 
HETATM    8  C   UNL     1      -9.902   4.287  66.827  1.00  0.00    -0.230 C  
HETATM    9  C   UNL     1     -10.199   5.550  66.519  1.00  0.00    -0.273 C  
HETATM   10  C   UNL     1     -10.379   6.529  67.583  1.00  0.00    -0.239 A  
HETATM   11  C   UNL     1     -10.587   7.881  67.280  1.00  0.00    -0.365 A  
HETATM   12  C   UNL     1     -10.654   8.810  68.336  1.00  0.00    -0.185 A  
HETATM   13  C   UNL     1     -10.584   8.349  69.650  1.00  0.00    -0.219 A  
HETATM   14  O   UNL     1     -10.625   9.411  70.506  1.00  0.00    -0.228 OA 
HETATM   15  C   UNL     1     -10.718  10.538  69.757  1.00  0.00    -0.264 A  
HETATM   16  C   UNL     1     -10.763  10.224  68.420  1.00  0.00    -0.263 A  
ENDBRANCH   2   3
TORSDOF 1
ENDMDL
MODEL      147
REMARK 921   NORMALIZED FREE ENERGY PREDICTED BY IDOCK:   -3.04 KCAL/MOL
REMARK 922        TOTAL FREE ENERGY PREDICTED BY IDOCK:   -3.31 KCAL/MOL
REMARK 923 INTER-LIGAND FREE ENERGY PREDICTED BY IDOCK:   -3.46 KCAL/MOL
REMARK 924 INTRA-LIGAND FREE ENERGY PREDICTED BY IDOCK:    0.15 KCAL/MOL
REMARK 927      BINDING AFFINITY PREDICTED BY RF-SCORE:    0.00 PKD
ROOT
HETATM    1  C   UNL     1      -9.324   5.410  70.307  1.00  0.00    -0.154 C  
HETATM    2  O   UNL     1     -10.607   5.770  69.801  1.00  0.00    -0.260 OA 
ENDROOT
BRANCH   2   3
HETATM    3  C   UNL     1     -10.684   7.069  69.340  1.00  0.00    -0.238 A  
HETATM    4  C   UNL     1     -10.113   7.372  68.094  1.00  0.00    -0.179 A  
HETATM    5  O   UNL     1      -9.480   6.319  67.389  1.00  0.00    -0.115 OA 
HETATM    6  C   UNL     1      -8.797   6.535  66.204  1.00  0.00    -0.150 C  
HETATM    7  O   UNL     1      -8.174   5.652  65.626  1.00  0.00    -0.114 OA 
HETATM    8  C   UNL     1      -8.863   7.894  65.638  1.00  0.00    -0.121 C  
HETATM    9  C   UNL     1      -9.500   8.892  66.253  1.00  0.00    -0.304 C  
HETATM   10  C   UNL     1     -10.128   8.659  67.547  1.00  0.00    -0.277 A  
HETATM   11  C   UNL     1     -10.710   9.717  68.257  1.00  0.00    -0.277 A  
HETATM   12  C   UNL     1     -11.215   9.470  69.548  1.00  0.00    -0.105 A  
HETATM   13  C   UNL     1     -11.184   8.171  70.050  1.00  0.00    -0.084 A  
HETATM   14  O   UNL     1     -11.679   8.165  71.323  1.00  0.00    -0.272 OA 
HETATM   15  C   UNL     1     -12.021   9.439  71.635  1.00  0.00    -0.393 A  
HETATM   16  C   UNL     1     -11.777  10.277  70.574  1.00  0.00    -0.418 A  
ENDBRANCH   2   3
TORSDOF 1
ENDMDL
MODEL      148
REMARK 921   NORMALIZED FREE ENERGY PREDICTED BY IDOCK:   -3.02 KCAL/MOL
REMARK 922        TOTAL FREE ENERGY PREDICTED BY IDOCK:   -3.29 KCAL/MOL
REMARK 923 INTER-LIGAND FREE ENERGY PREDICTED BY IDOCK:   -3.55 KCAL/MOL
REMARK 924 INTRA-LIGAND FREE ENERGY PREDICTED BY IDOCK:    0.26 KCAL/MOL
REMARK 927      BINDING AFFINITY PREDICTED BY RF-SCORE:    0.00 PKD
ROOT
HETATM    1  C   UNL     1     -11.908   8.392  72.419  1.00  0.00    -0.384 C  
HETATM    2  O   UNL     1     -11.012   9.341  71.846  1.00  0.00    -0.363 OA 
ENDROOT
BRANCH   2   3
HETATM    3  C   UNL     1     -11.028   9.365  70.465  1.00  0.00    -0.274 A  
HETATM    4  C   UNL     1     -10.486   8.271  69.771  1.00  0.00    -0.220 A  
HETATM    5  O   UNL     1      -9.943   7.211  70.538  1.00  0.00    -0.187 OA 
HETATM    6  C   UNL     1      -9.292   6.139  69.953  1.00  0.00    -0.149 C  
HETATM    7  O   UNL     1      -8.744   5.257  70.604  1.00  0.00    -0.121 OA 
HETATM    8  C   UNL     1      -9.298   6.084  68.480  1.00  0.00    -0.118 C  
HETATM    9  C   UNL     1      -9.851   7.040  67.733  1.00  0.00    -0.166 C  
HETATM   10  C   UNL     1     -10.444   8.206  68.375  1.00  0.00    -0.205 A  
HETATM   11  C   UNL     1     -10.936   9.270  67.607  1.00  0.00    -0.071 A  
HETATM   12  C   UNL     1     -11.407  10.421  68.267  1.00  0.00    -0.292 A  
HETATM   13  C   UNL     1     -11.436  10.439  69.660  1.00  0.00    -0.262 A  
HETATM   14  O   UNL     1     -11.884  11.656  70.088  1.00  0.00    -0.330 OA 
HETATM   15  C   UNL     1     -12.137  12.409  68.990  1.00  0.00    -0.136 A  
HETATM   16  C   UNL     1     -11.883  11.691  67.846  1.00  0.00    -0.273 A  
ENDBRANCH   2   3
TORSDOF 1
ENDMDL
MODEL      149
REMARK 921   NORMALIZED FREE ENERGY PREDICTED BY IDOCK:   -3.01 KCAL/MOL
REMARK 922        TOTAL FREE ENERGY PREDICTED BY IDOCK:   -3.28 KCAL/MOL
REMARK 923 INTER-LIGAND FREE ENERGY PREDICTED BY IDOCK:   -3.66 KCAL/MOL
REMARK 924 INTRA-LIGAND FREE ENERGY PREDICTED BY IDOCK:    0.38 KCAL/MOL
REMARK 927      BINDING AFFINITY PREDICTED BY RF-SCORE:    0.00 PKD
ROOT
HETATM    1  C   UNL     1     -10.941  13.514  67.862  1.00  0.00    -0.256 C  
HETATM    2  O   UNL     1     -11.004  12.702  69.032  1.00  0.00    -0.238 OA 
ENDROOT
BRANCH   2   3
HETATM    3  C   UNL     1     -10.388  11.473  68.895  1.00  0.00    -0.169 A  
HETATM    4  C   UNL     1     -10.877  10.393  69.647  1.00  0.00    -0.277 A  
HETATM    5  O   UNL     1     -11.972  10.637  70.513  1.00  0.00    -0.291 OA 
HETATM    6  C   UNL     1     -12.459   9.668  71.372  1.00  0.00    -0.373 C  
HETATM    7  O   UNL     1     -13.349   9.887  72.185  1.00  0.00    -0.438 OA 
HETATM    8  C   UNL     1     -11.869   8.323  71.258  1.00  0.00    -0.319 C  
HETATM    9  C   UNL     1     -10.875   8.050  70.410  1.00  0.00    -0.247 C  
HETATM   10  C   UNL     1     -10.316   9.114  69.587  1.00  0.00    -0.226 A  
HETATM   11  C   UNL     1      -9.204   8.872  68.769  1.00  0.00    -0.140 A  
HETATM   12  C   UNL     1      -8.631   9.951  68.068  1.00  0.00    -0.121 A  
HETATM   13  C   UNL     1      -9.228  11.207  68.153  1.00  0.00    -0.166 A  
HETATM   14  O   UNL     1      -8.493  12.107  67.437  1.00  0.00    -0.156 OA 
HETATM   15  C   UNL     1      -7.439  11.443  66.903  1.00  0.00    -0.147 A  
HETATM   16  C   UNL     1      -7.488  10.112  67.241  1.00  0.00    -0.091 A  
ENDBRANCH   2   3
TORSDOF 1
ENDMDL
MODEL      150
REMARK 921   NORMALIZED FREE ENERGY PREDICTED BY IDOCK:   -2.96 KCAL/MOL
REMARK 922        TOTAL FREE ENERGY PREDICTED BY IDOCK:   -3.23 KCAL/MOL
REMARK 923 INTER-LIGAND FREE ENERGY PREDICTED BY IDOCK:   -3.59 KCAL/MOL
REMARK 924 INTRA-LIGAND FREE ENERGY PREDICTED BY IDOCK:    0.37 KCAL/MOL
REMARK 927      BINDING AFFINITY PREDICTED BY RF-SCORE:    0.00 PKD
ROOT
HETATM    1  C   UNL     1      -9.306   3.802  68.134  1.00  0.00    -0.173 C  
HETATM    2  O   UNL     1     -10.258   4.852  67.981  1.00  0.00    -0.122 OA 
ENDROOT
BRANCH   2   3
HETATM    3  C   UNL     1     -10.412   5.638  69.106  1.00  0.00    -0.269 A  
HETATM    4  C   UNL     1     -10.509   7.029  68.943  1.00  0.00    -0.203 A  
HETATM    5  O   UNL     1     -10.431   7.542  67.624  1.00  0.00    -0.223 OA 
HETATM    6  C   UNL     1     -10.411   8.901  67.366  1.00  0.00    -0.277 C  
HETATM    7  O   UNL     1     -10.260   9.362  66.239  1.00  0.00    -0.274 OA 
HETATM    8  C   UNL     1     -10.602   9.799  68.518  1.00  0.00    -0.252 C  
HETATM    9  C   UNL     1     -10.735   9.341  69.764  1.00  0.00    -0.245 C  
HETATM   10  C   UNL     1     -10.654   7.909  70.019  1.00  0.00    -0.242 A  
HETATM   11  C   UNL     1     -10.686   7.416  71.331  1.00  0.00    -0.239 A  
HETATM   12  C   UNL     1     -10.503   6.036  71.540  1.00  0.00    -0.278 A  
HETATM   13  C   UNL     1     -10.367   5.195  70.436  1.00  0.00    -0.256 A  
HETATM   14  O   UNL     1     -10.159   3.916  70.865  1.00  0.00    -0.129 OA 
HETATM   15  C   UNL     1     -10.158   3.932  72.220  1.00  0.00    -0.164 A  
HETATM   16  C   UNL     1     -10.387   5.204  72.686  1.00  0.00    -0.248 A  
ENDBRANCH   2   3
TORSDOF 1
ENDMDL
MODEL      151
REMARK 921   NORMALIZED FREE ENERGY PREDICTED BY IDOCK:   -2.94 KCAL/MOL
REMARK 922        TOTAL FREE ENERGY PREDICTED BY IDOCK:   -3.21 KCAL/MOL
REMARK 923 INTER-LIGAND FREE ENERGY PREDICTED BY IDOCK:   -3.16 KCAL/MOL
REMARK 924 INTRA-LIGAND FREE ENERGY PREDICTED BY IDOCK:   -0.04 KCAL/MOL
REMARK 927      BINDING AFFINITY PREDICTED BY RF-SCORE:    0.00 PKD
ROOT
HETATM    1  C   UNL     1     -10.295   9.292  67.112  1.00  0.00    -0.260 C  
HETATM    2  O   UNL     1     -10.073   9.416  68.515  1.00  0.00    -0.174 OA 
ENDROOT
BRANCH   2   3
HETATM    3  C   UNL     1      -9.792   8.221  69.146  1.00  0.00    -0.179 A  
HETATM    4  C   UNL     1     -10.696   7.744  70.109  1.00  0.00    -0.240 A  
HETATM    5  O   UNL     1     -11.841   8.532  70.381  1.00  0.00    -0.101 OA 
HETATM    6  C   UNL     1     -12.736   8.204  71.384  1.00  0.00    -0.268 C  
HETATM    7  O   UNL     1     -13.685   8.918  71.688  1.00  0.00    -0.381 OA 
HETATM    8  C   UNL     1     -12.514   6.924  72.079  1.00  0.00    -0.285 C  
HETATM    9  C   UNL     1     -11.475   6.134  71.804  1.00  0.00    -0.342 C  
HETATM   10  C   UNL     1     -10.494   6.551  70.811  1.00  0.00    -0.262 A  
HETATM   11  C   UNL     1      -9.342   5.788  70.582  1.00  0.00    -0.186 A  
HETATM   12  C   UNL     1      -8.370   6.278  69.689  1.00  0.00    -0.125 A  
HETATM   13  C   UNL     1      -8.616   7.469  69.007  1.00  0.00    -0.136 A  
HETATM   14  O   UNL     1      -7.535   7.778  68.233  1.00  0.00    -0.098 OA 
HETATM   15  C   UNL     1      -6.608   6.806  68.415  1.00  0.00    -0.059 A  
HETATM   16  C   UNL     1      -7.079   5.849  69.281  1.00  0.00    -0.066 A  
ENDBRANCH   2   3
TORSDOF 1
ENDMDL
MODEL      152
REMARK 921   NORMALIZED FREE ENERGY PREDICTED BY IDOCK:   -2.94 KCAL/MOL
REMARK 922        TOTAL FREE ENERGY PREDICTED BY IDOCK:   -3.20 KCAL/MOL
REMARK 923 INTER-LIGAND FREE ENERGY PREDICTED BY IDOCK:   -3.17 KCAL/MOL
REMARK 924 INTRA-LIGAND FREE ENERGY PREDICTED BY IDOCK:   -0.03 KCAL/MOL
REMARK 927      BINDING AFFINITY PREDICTED BY RF-SCORE:    0.00 PKD
ROOT
HETATM    1  C   UNL     1      -6.596   5.115  70.458  1.00  0.00    -0.035 C  
HETATM    2  O   UNL     1      -7.191   6.404  70.325  1.00  0.00    -0.075 OA 
ENDROOT
BRANCH   2   3
HETATM    3  C   UNL     1      -8.542   6.371  70.043  1.00  0.00    -0.135 A  
HETATM    4  C   UNL     1      -9.447   6.691  71.068  1.00  0.00    -0.164 A  
HETATM    5  O   UNL     1      -8.912   7.020  72.337  1.00  0.00    -0.129 OA 
HETATM    6  C   UNL     1      -9.719   7.248  73.438  1.00  0.00    -0.251 C  
HETATM    7  O   UNL     1      -9.271   7.451  74.561  1.00  0.00    -0.149 OA 
HETATM    8  C   UNL     1     -11.174   7.259  73.203  1.00  0.00    -0.263 C  
HETATM    9  C   UNL     1     -11.704   7.008  72.005  1.00  0.00    -0.332 C  
HETATM   10  C   UNL     1     -10.834   6.675  70.885  1.00  0.00    -0.297 A  
HETATM   11  C   UNL     1     -11.375   6.307  69.646  1.00  0.00    -0.492 A  
HETATM   12  C   UNL     1     -10.502   5.893  68.621  1.00  0.00    -0.302 A  
HETATM   13  C   UNL     1      -9.127   5.931  68.846  1.00  0.00    -0.120 A  
HETATM   14  O   UNL     1      -8.476   5.452  67.746  1.00  0.00    -0.106 OA 
HETATM   15  C   UNL     1      -9.414   5.109  66.830  1.00  0.00    -0.139 A  
HETATM   16  C   UNL     1     -10.673   5.380  67.308  1.00  0.00    -0.180 A  
ENDBRANCH   2   3
TORSDOF 1
ENDMDL
MODEL      153
REMARK 921   NORMALIZED FREE ENERGY PREDICTED BY IDOCK:   -2.89 KCAL/MOL
REMARK 922        TOTAL FREE ENERGY PREDICTED BY IDOCK:   -3.15 KCAL/MOL
REMARK 923 INTER-LIGAND FREE ENERGY PREDICTED BY IDOCK:   -3.10 KCAL/MOL
REMARK 924 INTRA-LIGAND FREE ENERGY PREDICTED BY IDOCK:   -0.05 KCAL/MOL
REMARK 927      BINDING AFFINITY PREDICTED BY RF-SCORE:    0.00 PKD
ROOT
HETATM    1  C   UNL     1     -10.561   9.014  69.379  1.00  0.00    -0.221 C  
HETATM    2  O   UNL     1      -9.333   8.381  69.730  1.00  0.00    -0.156 OA 
ENDROOT
BRANCH   2   3
HETATM    3  C   UNL     1      -9.478   7.079  70.167  1.00  0.00    -0.162 A  
HETATM    4  C   UNL     1      -9.295   6.038  69.242  1.00  0.00    -0.133 A  
HETATM    5  O   UNL     1      -8.980   6.395  67.907  1.00  0.00    -0.117 OA 
HETATM    6  C   UNL     1      -8.883   5.452  66.899  1.00  0.00    -0.111 C  
HETATM    7  O   UNL     1      -8.695   5.750  65.725  1.00  0.00    -0.145 OA 
HETATM    8  C   UNL     1      -8.997   4.038  67.300  1.00  0.00    -0.148 C  
HETATM    9  C   UNL     1      -9.237   3.671  68.560  1.00  0.00    -0.220 C  
HETATM   10  C   UNL     1      -9.431   4.689  69.583  1.00  0.00    -0.232 A  
HETATM   11  C   UNL     1      -9.787   4.328  70.890  1.00  0.00    -0.259 A  
HETATM   12  C   UNL     1     -10.066   5.345  71.822  1.00  0.00    -0.251 A  
HETATM   13  C   UNL     1      -9.910   6.676  71.440  1.00  0.00    -0.179 A  
HETATM   14  O   UNL     1     -10.271   7.490  72.474  1.00  0.00    -0.202 OA 
HETATM   15  C   UNL     1     -10.655   6.698  73.505  1.00  0.00    -0.311 A  
HETATM   16  C   UNL     1     -10.527   5.372  73.166  1.00  0.00    -0.251 A  
ENDBRANCH   2   3
TORSDOF 1
ENDMDL
MODEL      154
REMARK 921   NORMALIZED FREE ENERGY PREDICTED BY IDOCK:   -2.86 KCAL/MOL
REMARK 922        TOTAL FREE ENERGY PREDICTED BY IDOCK:   -3.12 KCAL/MOL
REMARK 923 INTER-LIGAND FREE ENERGY PREDICTED BY IDOCK:   -3.06 KCAL/MOL
REMARK 924 INTRA-LIGAND FREE ENERGY PREDICTED BY IDOCK:   -0.06 KCAL/MOL
REMARK 927      BINDING AFFINITY PREDICTED BY RF-SCORE:    0.00 PKD
ROOT
HETATM    1  C   UNL     1      -6.753  11.888  68.913  1.00  0.00    -0.095 C  
HETATM    2  O   UNL     1      -6.977  11.675  67.522  1.00  0.00    -0.087 OA 
ENDROOT
BRANCH   2   3
HETATM    3  C   UNL     1      -8.303  11.477  67.191  1.00  0.00    -0.160 A  
HETATM    4  C   UNL     1      -8.777  10.159  67.088  1.00  0.00    -0.129 A  
HETATM    5  O   UNL     1      -7.854   9.110  67.322  1.00  0.00    -0.098 OA 
HETATM    6  C   UNL     1      -8.194   7.780  67.144  1.00  0.00    -0.118 C  
HETATM    7  O   UNL     1      -7.386   6.866  67.260  1.00  0.00    -0.086 OA 
HETATM    8  C   UNL     1      -9.603   7.493  66.820  1.00  0.00    -0.265 C  
HETATM    9  C   UNL     1     -10.507   8.459  66.650  1.00  0.00    -0.221 C  
HETATM   10  C   UNL     1     -10.098   9.855  66.748  1.00  0.00    -0.292 A  
HETATM   11  C   UNL     1     -11.007  10.884  66.470  1.00  0.00    -0.187 A  
HETATM   12  C   UNL     1     -10.546  12.215  66.476  1.00  0.00    -0.269 A  
HETATM   13  C   UNL     1      -9.222  12.472  66.827  1.00  0.00    -0.217 A  
HETATM   14  O   UNL     1      -8.979  13.811  66.727  1.00  0.00    -0.238 OA 
HETATM   15  C   UNL     1     -10.125  14.407  66.316  1.00  0.00    -0.297 A  
HETATM   16  C   UNL     1     -11.124  13.475  66.168  1.00  0.00    -0.299 A  
ENDBRANCH   2   3
TORSDOF 1
ENDMDL
MODEL      155
REMARK 921   NORMALIZED FREE ENERGY PREDICTED BY IDOCK:   -2.85 KCAL/MOL
REMARK 922        TOTAL FREE ENERGY PREDICTED BY IDOCK:   -3.10 KCAL/MOL
REMARK 923 INTER-LIGAND FREE ENERGY PREDICTED BY IDOCK:   -3.01 KCAL/MOL
REMARK 924 INTRA-LIGAND FREE ENERGY PREDICTED BY IDOCK:   -0.09 KCAL/MOL
REMARK 927      BINDING AFFINITY PREDICTED BY RF-SCORE:    0.00 PKD
ROOT
HETATM    1  C   UNL     1      -6.095  10.183  64.693  1.00  0.00    -0.128 C  
HETATM    2  O   UNL     1      -6.519  10.309  66.048  1.00  0.00    -0.091 OA 
ENDROOT
BRANCH   2   3
HETATM    3  C   UNL     1      -7.768   9.774  66.296  1.00  0.00    -0.103 A  
HETATM    4  C   UNL     1      -8.846  10.653  66.488  1.00  0.00    -0.151 A  
HETATM    5  O   UNL     1      -8.579  12.043  66.424  1.00  0.00    -0.145 OA 
HETATM    6  C   UNL     1      -9.549  12.990  66.702  1.00  0.00    -0.259 C  
HETATM    7  O   UNL     1      -9.314  14.193  66.734  1.00  0.00    -0.261 OA 
HETATM    8  C   UNL     1     -10.914  12.491  66.946  1.00  0.00    -0.296 C  
HETATM    9  C   UNL     1     -11.206  11.189  66.956  1.00  0.00    -0.291 C  
HETATM   10  C   UNL     1     -10.145  10.210  66.756  1.00  0.00    -0.277 A  
HETATM   11  C   UNL     1     -10.411   8.839  66.867  1.00  0.00    -0.344 A  
HETATM   12  C   UNL     1      -9.339   7.931  66.769  1.00  0.00    -0.232 A  
HETATM   13  C   UNL     1      -8.062   8.417  66.494  1.00  0.00    -0.101 A  
HETATM   14  O   UNL     1      -7.175   7.379  66.485  1.00  0.00    -0.075 OA 
HETATM   15  C   UNL     1      -7.868   6.245  66.751  1.00  0.00    -0.104 A  
HETATM   16  C   UNL     1      -9.203   6.524  66.911  1.00  0.00    -0.153 A  
ENDBRANCH   2   3
TORSDOF 1
ENDMDL
MODEL      156
REMARK 921   NORMALIZED FREE ENERGY PREDICTED BY IDOCK:   -2.84 KCAL/MOL
REMARK 922        TOTAL FREE ENERGY PREDICTED BY IDOCK:   -3.10 KCAL/MOL
REMARK 923 INTER-LIGAND FREE ENERGY PREDICTED BY IDOCK:   -3.13 KCAL/MOL
REMARK 924 INTRA-LIGAND FREE ENERGY PREDICTED BY IDOCK:    0.04 KCAL/MOL
REMARK 927      BINDING AFFINITY PREDICTED BY RF-SCORE:    0.00 PKD
ROOT
HETATM    1  C   UNL     1      -6.842  10.265  69.665  1.00  0.00    -0.094 C  
HETATM    2  O   UNL     1      -8.184   9.951  70.030  1.00  0.00    -0.175 OA 
ENDROOT
BRANCH   2   3
HETATM    3  C   UNL     1      -9.025   9.748  68.954  1.00  0.00    -0.144 A  
HETATM    4  C   UNL     1      -9.536   8.458  68.738  1.00  0.00    -0.147 A  
HETATM    5  O   UNL     1      -9.144   7.437  69.639  1.00  0.00    -0.141 OA 
HETATM    6  C   UNL     1      -9.507   6.115  69.454  1.00  0.00    -0.138 C  
HETATM    7  O   UNL     1      -9.108   5.208  70.176  1.00  0.00    -0.122 OA 
HETATM    8  C   UNL     1     -10.429   5.830  68.341  1.00  0.00    -0.283 C  
HETATM    9  C   UNL     1     -10.860   6.781  67.510  1.00  0.00    -0.388 C  
HETATM   10  C   UNL     1     -10.384   8.148  67.670  1.00  0.00    -0.313 A  
HETATM   11  C   UNL     1     -10.740   9.140  66.746  1.00  0.00    -0.108 A  
HETATM   12  C   UNL     1     -10.178  10.424  66.879  1.00  0.00    -0.281 A  
HETATM   13  C   UNL     1      -9.342  10.688  67.963  1.00  0.00    -0.147 A  
HETATM   14  O   UNL     1      -8.877  11.969  67.874  1.00  0.00    -0.159 OA 
HETATM   15  C   UNL     1      -9.403  12.519  66.752  1.00  0.00    -0.230 A  
HETATM   16  C   UNL     1     -10.226  11.621  66.116  1.00  0.00    -0.263 A  
ENDBRANCH   2   3
TORSDOF 1
ENDMDL
MODEL      157
REMARK 921   NORMALIZED FREE ENERGY PREDICTED BY IDOCK:   -2.83 KCAL/MOL
REMARK 922        TOTAL FREE ENERGY PREDICTED BY IDOCK:   -3.09 KCAL/MOL
REMARK 923 INTER-LIGAND FREE ENERGY PREDICTED BY IDOCK:   -3.01 KCAL/MOL
REMARK 924 INTRA-LIGAND FREE ENERGY PREDICTED BY IDOCK:   -0.08 KCAL/MOL
REMARK 927      BINDING AFFINITY PREDICTED BY RF-SCORE:    0.00 PKD
ROOT
HETATM    1  C   UNL     1      -6.295   7.651  69.732  1.00  0.00    -0.031 C  
HETATM    2  O   UNL     1      -7.436   8.255  69.126  1.00  0.00    -0.082 OA 
ENDROOT
BRANCH   2   3
HETATM    3  C   UNL     1      -8.609   7.551  69.313  1.00  0.00    -0.136 A  
HETATM    4  C   UNL     1      -9.049   6.701  68.286  1.00  0.00    -0.123 A  
HETATM    5  O   UNL     1      -8.261   6.629  67.111  1.00  0.00    -0.112 OA 
HETATM    6  C   UNL     1      -8.661   5.903  66.002  1.00  0.00    -0.142 C  
HETATM    7  O   UNL     1      -8.033   5.898  64.949  1.00  0.00    -0.111 OA 
HETATM    8  C   UNL     1      -9.889   5.102  66.141  1.00  0.00    -0.204 C  
HETATM    9  C   UNL     1     -10.621   5.106  67.257  1.00  0.00    -0.139 C  
HETATM   10  C   UNL     1     -10.229   5.955  68.374  1.00  0.00    -0.236 A  
HETATM   11  C   UNL     1     -11.039   6.055  69.512  1.00  0.00    -0.468 A  
HETATM   12  C   UNL     1     -10.676   6.963  70.525  1.00  0.00    -0.267 A  
HETATM   13  C   UNL     1      -9.488   7.681  70.398  1.00  0.00    -0.164 A  
HETATM   14  O   UNL     1      -9.354   8.527  71.461  1.00  0.00    -0.178 OA 
HETATM   15  C   UNL     1     -10.437   8.359  72.258  1.00  0.00    -0.337 A  
HETATM   16  C   UNL     1     -11.269   7.395  71.742  1.00  0.00    -0.277 A  
ENDBRANCH   2   3
TORSDOF 1
ENDMDL
MODEL      158
REMARK 921   NORMALIZED FREE ENERGY PREDICTED BY IDOCK:   -2.80 KCAL/MOL
REMARK 922        TOTAL FREE ENERGY PREDICTED BY IDOCK:   -3.05 KCAL/MOL
REMARK 923 INTER-LIGAND FREE ENERGY PREDICTED BY IDOCK:   -3.08 KCAL/MOL
REMARK 924 INTRA-LIGAND FREE ENERGY PREDICTED BY IDOCK:    0.02 KCAL/MOL
REMARK 927      BINDING AFFINITY PREDICTED BY RF-SCORE:    0.00 PKD
ROOT
HETATM    1  C   UNL     1     -11.096  11.719  65.699  1.00  0.00    -0.285 C  
HETATM    2  O   UNL     1      -9.954  11.626  66.549  1.00  0.00    -0.197 OA 
ENDROOT
BRANCH   2   3
HETATM    3  C   UNL     1      -9.853  10.424  67.222  1.00  0.00    -0.178 A  
HETATM    4  C   UNL     1      -9.227   9.346  66.577  1.00  0.00    -0.159 A  
HETATM    5  O   UNL     1      -8.744   9.559  65.262  1.00  0.00    -0.145 OA 
HETATM    6  C   UNL     1      -8.207   8.534  64.503  1.00  0.00    -0.156 C  
HETATM    7  O   UNL     1      -7.862   8.682  63.336  1.00  0.00    -0.135 OA 
HETATM    8  C   UNL     1      -8.041   7.231  65.170  1.00  0.00    -0.128 C  
HETATM    9  C   UNL     1      -8.434   7.018  66.427  1.00  0.00    -0.130 C  
HETATM   10  C   UNL     1      -9.086   8.088  67.170  1.00  0.00    -0.159 A  
HETATM   11  C   UNL     1      -9.601   7.853  68.452  1.00  0.00    -0.155 A  
HETATM   12  C   UNL     1     -10.313   8.884  69.095  1.00  0.00    -0.230 A  
HETATM   13  C   UNL     1     -10.423  10.124  68.469  1.00  0.00    -0.195 A  
HETATM   14  O   UNL     1     -11.183  10.955  69.240  1.00  0.00    -0.222 OA 
HETATM   15  C   UNL     1     -11.559  10.262  70.343  1.00  0.00    -0.328 A  
HETATM   16  C   UNL     1     -11.033   8.993  70.315  1.00  0.00    -0.274 A  
ENDBRANCH   2   3
TORSDOF 1
ENDMDL
MODEL      159
REMARK 921   NORMALIZED FREE ENERGY PREDICTED BY IDOCK:   -2.76 KCAL/MOL
REMARK 922        TOTAL FREE ENERGY PREDICTED BY IDOCK:   -3.01 KCAL/MOL
REMARK 923 INTER-LIGAND FREE ENERGY PREDICTED BY IDOCK:   -2.97 KCAL/MOL
REMARK 924 INTRA-LIGAND FREE ENERGY PREDICTED BY IDOCK:   -0.04 KCAL/MOL
REMARK 927      BINDING AFFINITY PREDICTED BY RF-SCORE:    0.00 PKD
ROOT
HETATM    1  C   UNL     1     -11.134   6.445  69.011  1.00  0.00    -0.358 C  
HETATM    2  O   UNL     1     -11.285   6.590  67.600  1.00  0.00    -0.324 OA 
ENDROOT
BRANCH   2   3
HETATM    3  C   UNL     1     -10.352   7.428  67.020  1.00  0.00    -0.314 A  
HETATM    4  C   UNL     1      -9.296   6.853  66.295  1.00  0.00    -0.099 A  
HETATM    5  O   UNL     1      -9.249   5.439  66.214  1.00  0.00    -0.143 OA 
HETATM    6  C   UNL     1      -8.195   4.773  65.613  1.00  0.00    -0.113 C  
HETATM    7  O   UNL     1      -8.098   3.551  65.608  1.00  0.00    -0.092 OA 
HETATM    8  C   UNL     1      -7.178   5.605  64.946  1.00  0.00    -0.065 C  
HETATM    9  C   UNL     1      -7.228   6.938  64.959  1.00  0.00    -0.074 C  
HETATM   10  C   UNL     1      -8.297   7.614  65.682  1.00  0.00    -0.143 A  
HETATM   11  C   UNL     1      -8.308   9.011  65.795  1.00  0.00    -0.133 A  
HETATM   12  C   UNL     1      -9.301   9.618  66.588  1.00  0.00    -0.200 A  
HETATM   13  C   UNL     1     -10.281   8.820  67.176  1.00  0.00    -0.276 A  
HETATM   14  O   UNL     1     -11.110   9.601  67.928  1.00  0.00    -0.205 OA 
HETATM   15  C   UNL     1     -10.670  10.880  67.830  1.00  0.00    -0.235 A  
HETATM   16  C   UNL     1      -9.576  10.949  67.001  1.00  0.00    -0.197 A  
ENDBRANCH   2   3
TORSDOF 1
ENDMDL
MODEL      160
REMARK 921   NORMALIZED FREE ENERGY PREDICTED BY IDOCK:   -2.75 KCAL/MOL
REMARK 922        TOTAL FREE ENERGY PREDICTED BY IDOCK:   -3.01 KCAL/MOL
REMARK 923 INTER-LIGAND FREE ENERGY PREDICTED BY IDOCK:   -2.97 KCAL/MOL
REMARK 924 INTRA-LIGAND FREE ENERGY PREDICTED BY IDOCK:   -0.04 KCAL/MOL
REMARK 927      BINDING AFFINITY PREDICTED BY RF-SCORE:    0.00 PKD
ROOT
HETATM    1  C   UNL     1      -5.944   7.195  67.384  1.00  0.00    -0.029 C  
HETATM    2  O   UNL     1      -7.210   6.675  66.987  1.00  0.00    -0.077 OA 
ENDROOT
BRANCH   2   3
HETATM    3  C   UNL     1      -8.272   7.515  67.261  1.00  0.00    -0.115 A  
HETATM    4  C   UNL     1      -8.705   8.395  66.256  1.00  0.00    -0.142 A  
HETATM    5  O   UNL     1      -8.012   8.373  65.021  1.00  0.00    -0.122 OA 
HETATM    6  C   UNL     1      -8.292   9.271  64.006  1.00  0.00    -0.178 C  
HETATM    7  O   UNL     1      -7.648   9.320  62.964  1.00  0.00    -0.105 OA 
HETATM    8  C   UNL     1      -9.435  10.177  64.218  1.00  0.00    -0.366 C  
HETATM    9  C   UNL     1     -10.141  10.181  65.350  1.00  0.00    -0.342 C  
HETATM   10  C   UNL     1      -9.762   9.292  66.440  1.00  0.00    -0.325 A  
HETATM   11  C   UNL     1     -10.424   9.354  67.674  1.00  0.00    -0.328 A  
HETATM   12  C   UNL     1      -9.961   8.550  68.732  1.00  0.00    -0.197 A  
HETATM   13  C   UNL     1      -8.908   7.666  68.502  1.00  0.00    -0.130 A  
HETATM   14  O   UNL     1      -8.595   7.022  69.664  1.00  0.00    -0.132 OA 
HETATM   15  C   UNL     1      -9.430   7.484  70.627  1.00  0.00    -0.164 A  
HETATM   16  C   UNL     1     -10.303   8.407  70.104  1.00  0.00    -0.214 A  
ENDBRANCH   2   3
TORSDOF 1
ENDMDL
MODEL      161
REMARK 921   NORMALIZED FREE ENERGY PREDICTED BY IDOCK:   -2.75 KCAL/MOL
REMARK 922        TOTAL FREE ENERGY PREDICTED BY IDOCK:   -3.00 KCAL/MOL
REMARK 923 INTER-LIGAND FREE ENERGY PREDICTED BY IDOCK:   -2.92 KCAL/MOL
REMARK 924 INTRA-LIGAND FREE ENERGY PREDICTED BY IDOCK:   -0.08 KCAL/MOL
REMARK 927      BINDING AFFINITY PREDICTED BY RF-SCORE:    0.00 PKD
ROOT
HETATM    1  C   UNL     1     -10.538   8.969  69.343  1.00  0.00    -0.221 C  
HETATM    2  O   UNL     1      -9.346   8.234  69.615  1.00  0.00    -0.157 OA 
ENDROOT
BRANCH   2   3
HETATM    3  C   UNL     1      -9.523   6.865  69.631  1.00  0.00    -0.147 A  
HETATM    4  C   UNL     1      -9.663   6.222  70.871  1.00  0.00    -0.176 A  
HETATM    5  O   UNL     1      -9.603   7.025  72.037  1.00  0.00    -0.141 OA 
HETATM    6  C   UNL     1      -9.624   6.478  73.307  1.00  0.00    -0.154 C  
HETATM    7  O   UNL     1      -9.489   7.150  74.324  1.00  0.00    -0.247 OA 
HETATM    8  C   UNL     1      -9.841   5.023  73.399  1.00  0.00    -0.164 C  
HETATM    9  C   UNL     1      -9.958   4.250  72.318  1.00  0.00    -0.236 C  
HETATM   10  C   UNL     1      -9.834   4.840  70.992  1.00  0.00    -0.267 A  
HETATM   11  C   UNL     1      -9.849   4.031  69.848  1.00  0.00    -0.185 A  
HETATM   12  C   UNL     1      -9.623   4.628  68.593  1.00  0.00    -0.226 A  
HETATM   13  C   UNL     1      -9.464   6.011  68.519  1.00  0.00    -0.120 A  
HETATM   14  O   UNL     1      -9.216   6.370  67.226  1.00  0.00    -0.119 OA 
HETATM   15  C   UNL     1      -9.213   5.238  66.479  1.00  0.00    -0.139 A  
HETATM   16  C   UNL     1      -9.480   4.143  67.265  1.00  0.00    -0.220 A  
ENDBRANCH   2   3
TORSDOF 1
ENDMDL
MODEL      162
REMARK 921   NORMALIZED FREE ENERGY PREDICTED BY IDOCK:   -2.70 KCAL/MOL
REMARK 922        TOTAL FREE ENERGY PREDICTED BY IDOCK:   -2.95 KCAL/MOL
REMARK 923 INTER-LIGAND FREE ENERGY PREDICTED BY IDOCK:   -2.95 KCAL/MOL
REMARK 924 INTRA-LIGAND FREE ENERGY PREDICTED BY IDOCK:    0.00 KCAL/MOL
REMARK 927      BINDING AFFINITY PREDICTED BY RF-SCORE:    0.00 PKD
ROOT
HETATM    1  C   UNL     1      -7.460   4.243  67.271  1.00  0.00    -0.077 C  
HETATM    2  O   UNL     1      -8.716   4.664  66.744  1.00  0.00    -0.111 OA 
ENDROOT
BRANCH   2   3
HETATM    3  C   UNL     1      -9.332   5.652  67.485  1.00  0.00    -0.109 A  
HETATM    4  C   UNL     1      -9.406   6.946  66.946  1.00  0.00    -0.148 A  
HETATM    5  O   UNL     1      -8.828   7.159  65.670  1.00  0.00    -0.121 OA 
HETATM    6  C   UNL     1      -8.755   8.416  65.097  1.00  0.00    -0.083 C  
HETATM    7  O   UNL     1      -8.185   8.631  64.033  1.00  0.00    -0.159 OA 
HETATM    8  C   UNL     1      -9.420   9.514  65.821  1.00  0.00    -0.314 C  
HETATM    9  C   UNL     1     -10.021   9.332  66.998  1.00  0.00    -0.286 C  
HETATM   10  C   UNL     1      -9.999   8.016  67.623  1.00  0.00    -0.234 A  
HETATM   11  C   UNL     1     -10.531   7.827  68.905  1.00  0.00    -0.208 A  
HETATM   12  C   UNL     1     -10.398   6.565  69.515  1.00  0.00    -0.237 A  
HETATM   13  C   UNL     1      -9.805   5.526  68.800  1.00  0.00    -0.153 A  
HETATM   14  O   UNL     1      -9.740   4.414  69.589  1.00  0.00    -0.194 OA 
HETATM   15  C   UNL     1     -10.278   4.731  70.791  1.00  0.00    -0.176 A  
HETATM   16  C   UNL     1     -10.718   6.033  70.793  1.00  0.00    -0.340 A  
ENDBRANCH   2   3
TORSDOF 1
ENDMDL
MODEL      163
REMARK 921   NORMALIZED FREE ENERGY PREDICTED BY IDOCK:   -2.69 KCAL/MOL
REMARK 922        TOTAL FREE ENERGY PREDICTED BY IDOCK:   -2.94 KCAL/MOL
REMARK 923 INTER-LIGAND FREE ENERGY PREDICTED BY IDOCK:   -2.95 KCAL/MOL
REMARK 924 INTRA-LIGAND FREE ENERGY PREDICTED BY IDOCK:    0.01 KCAL/MOL
REMARK 927      BINDING AFFINITY PREDICTED BY RF-SCORE:    0.00 PKD
ROOT
HETATM    1  C   UNL     1      -8.204   8.616  68.614  1.00  0.00    -0.121 C  
HETATM    2  O   UNL     1      -9.444   8.496  67.922  1.00  0.00    -0.138 OA 
ENDROOT
BRANCH   2   3
HETATM    3  C   UNL     1      -9.543   9.302  66.804  1.00  0.00    -0.183 A  
HETATM    4  C   UNL     1      -9.054   8.813  65.582  1.00  0.00    -0.191 A  
HETATM    5  O   UNL     1      -8.478   7.518  65.576  1.00  0.00    -0.141 OA 
HETATM    6  C   UNL     1      -7.875   6.989  64.449  1.00  0.00    -0.111 C  
HETATM    7  O   UNL     1      -7.299   5.906  64.449  1.00  0.00    -0.060 OA 
HETATM    8  C   UNL     1      -7.970   7.782  63.211  1.00  0.00    -0.111 C  
HETATM    9  C   UNL     1      -8.557   8.979  63.174  1.00  0.00    -0.157 C  
HETATM   10  C   UNL     1      -9.097   9.556  64.398  1.00  0.00    -0.234 A  
HETATM   11  C   UNL     1      -9.623  10.855  64.403  1.00  0.00    -0.312 A  
HETATM   12  C   UNL     1     -10.041  11.412  65.626  1.00  0.00    -0.293 A  
HETATM   13  C   UNL     1      -9.986  10.632  66.780  1.00  0.00    -0.209 A  
HETATM   14  O   UNL     1     -10.394  11.377  67.850  1.00  0.00    -0.175 OA 
HETATM   15  C   UNL     1     -10.704  12.615  67.393  1.00  0.00    -0.229 A  
HETATM   16  C   UNL     1     -10.527  12.684  66.032  1.00  0.00    -0.288 A  
ENDBRANCH   2   3
TORSDOF 1
ENDMDL
MODEL      164
REMARK 921   NORMALIZED FREE ENERGY PREDICTED BY IDOCK:   -2.60 KCAL/MOL
REMARK 922        TOTAL FREE ENERGY PREDICTED BY IDOCK:   -2.84 KCAL/MOL
REMARK 923 INTER-LIGAND FREE ENERGY PREDICTED BY IDOCK:   -2.75 KCAL/MOL
REMARK 924 INTRA-LIGAND FREE ENERGY PREDICTED BY IDOCK:   -0.10 KCAL/MOL
REMARK 927      BINDING AFFINITY PREDICTED BY RF-SCORE:    0.00 PKD
ROOT
HETATM    1  C   UNL     1      -5.677   7.925  69.955  1.00  0.00    -0.023 C  
HETATM    2  O   UNL     1      -6.268   8.885  70.829  1.00  0.00    -0.035 OA 
ENDROOT
BRANCH   2   3
HETATM    3  C   UNL     1      -7.494   8.501  71.336  1.00  0.00    -0.102 A  
HETATM    4  C   UNL     1      -8.651   9.105  70.819  1.00  0.00    -0.219 A  
HETATM    5  O   UNL     1      -8.484  10.085  69.809  1.00  0.00    -0.178 OA 
HETATM    6  C   UNL     1      -9.549  10.812  69.309  1.00  0.00    -0.100 C  
HETATM    7  O   UNL     1      -9.412  11.720  68.497  1.00  0.00    -0.200 OA 
HETATM    8  C   UNL     1     -10.892  10.435  69.784  1.00  0.00    -0.342 C  
HETATM    9  C   UNL     1     -11.084   9.477  70.693  1.00  0.00    -0.364 C  
HETATM   10  C   UNL     1      -9.935   8.794  71.274  1.00  0.00    -0.333 A  
HETATM   11  C   UNL     1     -10.108   7.860  72.305  1.00  0.00    -0.297 A  
HETATM   12  C   UNL     1      -8.967   7.299  72.909  1.00  0.00    -0.168 A  
HETATM   13  C   UNL     1      -7.706   7.634  72.418  1.00  0.00    -0.098 A  
HETATM   14  O   UNL     1      -6.749   7.016  73.170  1.00  0.00    -0.065 OA 
HETATM   15  C   UNL     1      -7.381   6.298  74.130  1.00  0.00    -0.086 A  
HETATM   16  C   UNL     1      -8.744   6.419  74.001  1.00  0.00    -0.140 A  
ENDBRANCH   2   3
TORSDOF 1
ENDMDL
MODEL      165
REMARK 921   NORMALIZED FREE ENERGY PREDICTED BY IDOCK:   -2.60 KCAL/MOL
REMARK 922        TOTAL FREE ENERGY PREDICTED BY IDOCK:   -2.84 KCAL/MOL
REMARK 923 INTER-LIGAND FREE ENERGY PREDICTED BY IDOCK:   -2.79 KCAL/MOL
REMARK 924 INTRA-LIGAND FREE ENERGY PREDICTED BY IDOCK:   -0.05 KCAL/MOL
REMARK 927      BINDING AFFINITY PREDICTED BY RF-SCORE:    0.00 PKD
ROOT
HETATM    1  C   UNL     1      -6.568   5.567  71.995  1.00  0.00    -0.057 C  
HETATM    2  O   UNL     1      -6.966   6.630  71.132  1.00  0.00    -0.067 OA 
ENDROOT
BRANCH   2   3
HETATM    3  C   UNL     1      -7.874   6.254  70.161  1.00  0.00    -0.106 A  
HETATM    4  C   UNL     1      -9.235   6.525  70.378  1.00  0.00    -0.155 A  
HETATM    5  O   UNL     1      -9.592   7.161  71.592  1.00  0.00    -0.157 OA 
HETATM    6  C   UNL     1     -10.912   7.376  71.947  1.00  0.00    -0.233 C  
HETATM    7  O   UNL     1     -11.241   7.849  73.030  1.00  0.00    -0.411 OA 
HETATM    8  C   UNL     1     -11.934   7.027  70.945  1.00  0.00    -0.409 C  
HETATM    9  C   UNL     1     -11.622   6.479  69.769  1.00  0.00    -0.392 C  
HETATM   10  C   UNL     1     -10.231   6.173  69.462  1.00  0.00    -0.250 A  
HETATM   11  C   UNL     1      -9.893   5.502  68.279  1.00  0.00    -0.185 A  
HETATM   12  C   UNL     1      -8.550   5.136  68.068  1.00  0.00    -0.103 A  
HETATM   13  C   UNL     1      -7.590   5.512  69.005  1.00  0.00    -0.087 A  
HETATM   14  O   UNL     1      -6.373   5.021  68.629  1.00  0.00    -0.033 OA 
HETATM   15  C   UNL     1      -6.547   4.338  67.471  1.00  0.00    -0.046 A  
HETATM   16  C   UNL     1      -7.860   4.396  67.071  1.00  0.00    -0.097 A  
ENDBRANCH   2   3
TORSDOF 1
ENDMDL
MODEL      166
REMARK 921   NORMALIZED FREE ENERGY PREDICTED BY IDOCK:   -2.58 KCAL/MOL
REMARK 922        TOTAL FREE ENERGY PREDICTED BY IDOCK:   -2.83 KCAL/MOL
REMARK 923 INTER-LIGAND FREE ENERGY PREDICTED BY IDOCK:   -2.85 KCAL/MOL
REMARK 924 INTRA-LIGAND FREE ENERGY PREDICTED BY IDOCK:    0.02 KCAL/MOL
REMARK 927      BINDING AFFINITY PREDICTED BY RF-SCORE:    0.00 PKD
ROOT
HETATM    1  C   UNL     1     -11.218   8.955  70.083  1.00  0.00    -0.160 C  
HETATM    2  O   UNL     1     -10.307  10.046  69.970  1.00  0.00    -0.253 OA 
ENDROOT
BRANCH   2   3
HETATM    3  C   UNL     1     -10.028  10.411  68.668  1.00  0.00    -0.177 A  
HETATM    4  C   UNL     1      -8.997   9.738  67.992  1.00  0.00    -0.118 A  
HETATM    5  O   UNL     1      -8.299   8.728  68.698  1.00  0.00    -0.125 OA 
HETATM    6  C   UNL     1      -7.201   8.080  68.158  1.00  0.00    -0.094 C  
HETATM    7  O   UNL     1      -6.535   7.265  68.786  1.00  0.00    -0.037 OA 
HETATM    8  C   UNL     1      -6.865   8.398  66.759  1.00  0.00    -0.069 C  
HETATM    9  C   UNL     1      -7.541   9.305  66.051  1.00  0.00    -0.096 C  
HETATM   10  C   UNL     1      -8.631  10.042  66.677  1.00  0.00    -0.130 A  
HETATM   11  C   UNL     1      -9.285  11.070  65.985  1.00  0.00    -0.213 A  
HETATM   12  C   UNL     1     -10.263  11.826  66.660  1.00  0.00    -0.240 A  
HETATM   13  C   UNL     1     -10.600  11.483  67.968  1.00  0.00    -0.190 A  
HETATM   14  O   UNL     1     -11.529  12.364  68.442  1.00  0.00    -0.261 OA 
HETATM   15  C   UNL     1     -11.784  13.260  67.457  1.00  0.00    -0.366 A  
HETATM   16  C   UNL     1     -11.050  12.963  66.335  1.00  0.00    -0.316 A  
ENDBRANCH   2   3
TORSDOF 1
ENDMDL
MODEL      167
REMARK 921   NORMALIZED FREE ENERGY PREDICTED BY IDOCK:   -2.58 KCAL/MOL
REMARK 922        TOTAL FREE ENERGY PREDICTED BY IDOCK:   -2.83 KCAL/MOL
REMARK 923 INTER-LIGAND FREE ENERGY PREDICTED BY IDOCK:   -2.86 KCAL/MOL
REMARK 924 INTRA-LIGAND FREE ENERGY PREDICTED BY IDOCK:    0.04 KCAL/MOL
REMARK 927      BINDING AFFINITY PREDICTED BY RF-SCORE:    0.00 PKD
ROOT
HETATM    1  C   UNL     1      -9.630   8.774  65.752  1.00  0.00    -0.120 C  
HETATM    2  O   UNL     1      -9.235   8.639  67.115  1.00  0.00    -0.138 OA 
ENDROOT
BRANCH   2   3
HETATM    3  C   UNL     1      -9.237   7.336  67.573  1.00  0.00    -0.130 A  
HETATM    4  C   UNL     1      -9.994   7.030  68.716  1.00  0.00    -0.160 A  
HETATM    5  O   UNL     1     -10.703   8.088  69.336  1.00  0.00    -0.224 OA 
HETATM    6  C   UNL     1     -11.391   7.913  70.524  1.00  0.00    -0.234 C  
HETATM    7  O   UNL     1     -11.939   8.835  71.117  1.00  0.00    -0.290 OA 
HETATM    8  C   UNL     1     -11.461   6.540  71.054  1.00  0.00    -0.392 C  
HETATM    9  C   UNL     1     -10.849   5.514  70.460  1.00  0.00    -0.266 C  
HETATM   10  C   UNL     1     -10.051   5.745  69.263  1.00  0.00    -0.268 A  
HETATM   11  C   UNL     1      -9.316   4.701  68.685  1.00  0.00    -0.193 A  
HETATM   12  C   UNL     1      -8.477   4.988  67.591  1.00  0.00    -0.104 A  
HETATM   13  C   UNL     1      -8.457   6.283  67.074  1.00  0.00    -0.108 A  
HETATM   14  O   UNL     1      -7.551   6.349  66.055  1.00  0.00    -0.083 OA 
HETATM   15  C   UNL     1      -6.996   5.120  65.918  1.00  0.00    -0.066 A  
HETATM   16  C   UNL     1      -7.545   4.242  66.822  1.00  0.00    -0.085 A  
ENDBRANCH   2   3
TORSDOF 1
ENDMDL
MODEL      168
REMARK 921   NORMALIZED FREE ENERGY PREDICTED BY IDOCK:   -2.57 KCAL/MOL
REMARK 922        TOTAL FREE ENERGY PREDICTED BY IDOCK:   -2.81 KCAL/MOL
REMARK 923 INTER-LIGAND FREE ENERGY PREDICTED BY IDOCK:   -3.29 KCAL/MOL
REMARK 924 INTRA-LIGAND FREE ENERGY PREDICTED BY IDOCK:    0.47 KCAL/MOL
REMARK 927      BINDING AFFINITY PREDICTED BY RF-SCORE:    0.00 PKD
ROOT
HETATM    1  C   UNL     1     -13.051   7.421  71.429  1.00  0.00    -0.350 C  
HETATM    2  O   UNL     1     -12.410   6.651  70.415  1.00  0.00    -0.274 OA 
ENDROOT
BRANCH   2   3
HETATM    3  C   UNL     1     -11.040   6.821  70.364  1.00  0.00    -0.308 A  
HETATM    4  C   UNL     1     -10.374   6.526  69.164  1.00  0.00    -0.193 A  
HETATM    5  O   UNL     1     -11.155   6.059  68.077  1.00  0.00    -0.304 OA 
HETATM    6  C   UNL     1     -10.582   5.643  66.888  1.00  0.00    -0.296 C  
HETATM    7  O   UNL     1     -11.235   5.159  65.970  1.00  0.00    -0.045 OA 
HETATM    8  C   UNL     1      -9.126   5.824  66.753  1.00  0.00    -0.126 C  
HETATM    9  C   UNL     1      -8.374   6.314  67.740  1.00  0.00    -0.117 C  
HETATM   10  C   UNL     1      -8.990   6.654  69.016  1.00  0.00    -0.130 A  
HETATM   11  C   UNL     1      -8.203   7.070  70.098  1.00  0.00    -0.133 A  
HETATM   12  C   UNL     1      -8.824   7.290  71.342  1.00  0.00    -0.130 A  
HETATM   13  C   UNL     1     -10.208   7.156  71.442  1.00  0.00    -0.192 A  
HETATM   14  O   UNL     1     -10.592   7.371  72.734  1.00  0.00    -0.241 OA 
HETATM   15  C   UNL     1      -9.475   7.635  73.456  1.00  0.00    -0.289 A  
HETATM   16  C   UNL     1      -8.365   7.620  72.646  1.00  0.00    -0.158 A  
ENDBRANCH   2   3
TORSDOF 1
ENDMDL
MODEL      169
REMARK 921   NORMALIZED FREE ENERGY PREDICTED BY IDOCK:   -2.53 KCAL/MOL
REMARK 922        TOTAL FREE ENERGY PREDICTED BY IDOCK:   -2.77 KCAL/MOL
REMARK 923 INTER-LIGAND FREE ENERGY PREDICTED BY IDOCK:   -2.77 KCAL/MOL
REMARK 924 INTRA-LIGAND FREE ENERGY PREDICTED BY IDOCK:   -0.01 KCAL/MOL
REMARK 927      BINDING AFFINITY PREDICTED BY RF-SCORE:    0.00 PKD
ROOT
HETATM    1  C   UNL     1     -10.864   7.589  70.405  1.00  0.00    -0.244 C  
HETATM    2  O   UNL     1     -11.414   6.413  69.816  1.00  0.00    -0.412 OA 
ENDROOT
BRANCH   2   3
HETATM    3  C   UNL     1     -10.466   5.511  69.375  1.00  0.00    -0.290 A  
HETATM    4  C   UNL     1      -9.994   4.542  70.274  1.00  0.00    -0.218 A  
HETATM    5  O   UNL     1     -10.518   4.558  71.591  1.00  0.00    -0.134 OA 
HETATM    6  C   UNL     1     -10.043   3.714  72.580  1.00  0.00    -0.168 C  
HETATM    7  O   UNL     1     -10.426   3.772  73.743  1.00  0.00    -0.154 OA 
HETATM    8  C   UNL     1      -9.051   2.705  72.171  1.00  0.00    -0.136 C  
HETATM    9  C   UNL     1      -8.582   2.629  70.924  1.00  0.00    -0.104 C  
HETATM   10  C   UNL     1      -9.027   3.593  69.927  1.00  0.00    -0.170 A  
HETATM   11  C   UNL     1      -8.469   3.598  68.641  1.00  0.00    -0.104 A  
HETATM   12  C   UNL     1      -8.852   4.609  67.740  1.00  0.00    -0.115 A  
HETATM   13  C   UNL     1      -9.824   5.530  68.127  1.00  0.00    -0.143 A  
HETATM   14  O   UNL     1     -10.011   6.439  67.127  1.00  0.00    -0.134 OA 
HETATM   15  C   UNL     1      -9.173   6.112  66.113  1.00  0.00    -0.131 A  
HETATM   16  C   UNL     1      -8.455   4.984  66.428  1.00  0.00    -0.111 A  
ENDBRANCH   2   3
TORSDOF 1
ENDMDL
MODEL      170
REMARK 921   NORMALIZED FREE ENERGY PREDICTED BY IDOCK:   -2.52 KCAL/MOL
REMARK 922        TOTAL FREE ENERGY PREDICTED BY IDOCK:   -2.76 KCAL/MOL
REMARK 923 INTER-LIGAND FREE ENERGY PREDICTED BY IDOCK:   -2.75 KCAL/MOL
REMARK 924 INTRA-LIGAND FREE ENERGY PREDICTED BY IDOCK:   -0.00 KCAL/MOL
REMARK 927      BINDING AFFINITY PREDICTED BY RF-SCORE:    0.00 PKD
ROOT
HETATM    1  C   UNL     1      -6.503   2.865  67.231  1.00  0.00    -0.036 C  
HETATM    2  O   UNL     1      -7.806   2.819  67.808  1.00  0.00    -0.060 OA 
ENDROOT
BRANCH   2   3
HETATM    3  C   UNL     1      -8.746   3.569  67.128  1.00  0.00    -0.119 A  
HETATM    4  C   UNL     1      -9.405   4.600  67.817  1.00  0.00    -0.141 A  
HETATM    5  O   UNL     1      -9.067   4.800  69.178  1.00  0.00    -0.099 OA 
HETATM    6  C   UNL     1      -9.732   5.718  69.972  1.00  0.00    -0.169 C  
HETATM    7  O   UNL     1      -9.509   5.845  71.171  1.00  0.00    -0.159 OA 
HETATM    8  C   UNL     1     -10.728   6.574  69.305  1.00  0.00    -0.329 C  
HETATM    9  C   UNL     1     -11.025   6.446  68.010  1.00  0.00    -0.400 C  
HETATM   10  C   UNL     1     -10.380   5.406  67.221  1.00  0.00    -0.273 A  
HETATM   11  C   UNL     1     -10.754   5.186  65.889  1.00  0.00    -0.130 A  
HETATM   12  C   UNL     1     -10.180   4.105  65.193  1.00  0.00    -0.218 A  
HETATM   13  C   UNL     1      -9.207   3.332  65.825  1.00  0.00    -0.149 A  
HETATM   14  O   UNL     1      -8.821   2.322  64.993  1.00  0.00    -0.109 OA 
HETATM   15  C   UNL     1      -9.533   2.440  63.845  1.00  0.00    -0.120 A  
HETATM   16  C   UNL     1     -10.366   3.531  63.907  1.00  0.00    -0.244 A  
ENDBRANCH   2   3
TORSDOF 1
ENDMDL
MODEL      171
REMARK 921   NORMALIZED FREE ENERGY PREDICTED BY IDOCK:   -2.46 KCAL/MOL
REMARK 922        TOTAL FREE ENERGY PREDICTED BY IDOCK:   -2.70 KCAL/MOL
REMARK 923 INTER-LIGAND FREE ENERGY PREDICTED BY IDOCK:   -2.65 KCAL/MOL
REMARK 924 INTRA-LIGAND FREE ENERGY PREDICTED BY IDOCK:   -0.05 KCAL/MOL
REMARK 927      BINDING AFFINITY PREDICTED BY RF-SCORE:    0.00 PKD
ROOT
HETATM    1  C   UNL     1      -6.114   4.967  68.858  1.00  0.00    -0.030 C  
HETATM    2  O   UNL     1      -6.443   5.991  67.922  1.00  0.00    -0.042 OA 
ENDROOT
BRANCH   2   3
HETATM    3  C   UNL     1      -7.801   6.184  67.757  1.00  0.00    -0.105 A  
HETATM    4  C   UNL     1      -8.429   7.190  68.509  1.00  0.00    -0.125 A  
HETATM    5  O   UNL     1      -7.626   7.940  69.402  1.00  0.00    -0.098 OA 
HETATM    6  C   UNL     1      -8.167   8.881  70.262  1.00  0.00    -0.129 C  
HETATM    7  O   UNL     1      -7.499   9.478  71.098  1.00  0.00    -0.324 OA 
HETATM    8  C   UNL     1      -9.607   9.160  70.119  1.00  0.00    -0.235 C  
HETATM    9  C   UNL     1     -10.376   8.508  69.246  1.00  0.00    -0.227 C  
HETATM   10  C   UNL     1      -9.800   7.455  68.422  1.00  0.00    -0.165 A  
HETATM   11  C   UNL     1     -10.611   6.687  67.575  1.00  0.00    -0.347 A  
HETATM   12  C   UNL     1     -10.032   5.613  66.873  1.00  0.00    -0.202 A  
HETATM   13  C   UNL     1      -8.661   5.389  66.985  1.00  0.00    -0.107 A  
HETATM   14  O   UNL     1      -8.322   4.282  66.263  1.00  0.00    -0.108 OA 
HETATM   15  C   UNL     1      -9.455   3.799  65.697  1.00  0.00    -0.170 A  
HETATM   16  C   UNL     1     -10.530   4.591  66.021  1.00  0.00    -0.236 A  
ENDBRANCH   2   3
TORSDOF 1
ENDMDL
MODEL      172
REMARK 921   NORMALIZED FREE ENERGY PREDICTED BY IDOCK:   -2.46 KCAL/MOL
REMARK 922        TOTAL FREE ENERGY PREDICTED BY IDOCK:   -2.69 KCAL/MOL
REMARK 923 INTER-LIGAND FREE ENERGY PREDICTED BY IDOCK:   -2.60 KCAL/MOL
REMARK 924 INTRA-LIGAND FREE ENERGY PREDICTED BY IDOCK:   -0.09 KCAL/MOL
REMARK 927      BINDING AFFINITY PREDICTED BY RF-SCORE:    0.00 PKD
ROOT
HETATM    1  C   UNL     1      -5.774   7.273  68.280  1.00  0.00    -0.023 C  
HETATM    2  O   UNL     1      -6.648   8.042  69.103  1.00  0.00    -0.039 OA 
ENDROOT
BRANCH   2   3
HETATM    3  C   UNL     1      -7.975   7.977  68.726  1.00  0.00    -0.119 A  
HETATM    4  C   UNL     1      -8.523   9.058  68.017  1.00  0.00    -0.125 A  
HETATM    5  O   UNL     1      -7.676  10.160  67.742  1.00  0.00    -0.090 OA 
HETATM    6  C   UNL     1      -8.146  11.316  67.144  1.00  0.00    -0.150 C  
HETATM    7  O   UNL     1      -7.446  12.308  66.975  1.00  0.00    -0.140 OA 
HETATM    8  C   UNL     1      -9.546  11.305  66.687  1.00  0.00    -0.218 C  
HETATM    9  C   UNL     1     -10.352  10.259  66.882  1.00  0.00    -0.298 C  
HETATM   10  C   UNL     1      -9.858   9.092  67.602  1.00  0.00    -0.217 A  
HETATM   11  C   UNL     1     -10.717   8.028  67.909  1.00  0.00    -0.139 A  
HETATM   12  C   UNL     1     -10.227   6.967  68.694  1.00  0.00    -0.182 A  
HETATM   13  C   UNL     1      -8.888   6.972  69.080  1.00  0.00    -0.135 A  
HETATM   14  O   UNL     1      -8.638   5.882  69.864  1.00  0.00    -0.126 OA 
HETATM   15  C   UNL     1      -9.797   5.189  69.982  1.00  0.00    -0.225 A  
HETATM   16  C   UNL     1     -10.798   5.799  69.265  1.00  0.00    -0.374 A  
ENDBRANCH   2   3
TORSDOF 1
ENDMDL
MODEL      173
REMARK 921   NORMALIZED FREE ENERGY PREDICTED BY IDOCK:   -2.46 KCAL/MOL
REMARK 922        TOTAL FREE ENERGY PREDICTED BY IDOCK:   -2.69 KCAL/MOL
REMARK 923 INTER-LIGAND FREE ENERGY PREDICTED BY IDOCK:   -2.68 KCAL/MOL
REMARK 924 INTRA-LIGAND FREE ENERGY PREDICTED BY IDOCK:   -0.01 KCAL/MOL
REMARK 927      BINDING AFFINITY PREDICTED BY RF-SCORE:    0.00 PKD
ROOT
HETATM    1  C   UNL     1      -6.106   6.467  67.827  1.00  0.00    -0.030 C  
HETATM    2  O   UNL     1      -6.611   7.658  68.428  1.00  0.00    -0.050 OA 
ENDROOT
BRANCH   2   3
HETATM    3  C   UNL     1      -7.918   7.947  68.086  1.00  0.00    -0.125 A  
HETATM    4  C   UNL     1      -8.949   7.420  68.880  1.00  0.00    -0.130 A  
HETATM    5  O   UNL     1      -8.580   6.609  69.982  1.00  0.00    -0.137 OA 
HETATM    6  C   UNL     1      -9.520   5.958  70.762  1.00  0.00    -0.165 C  
HETATM    7  O   UNL     1      -9.216   5.188  71.666  1.00  0.00    -0.142 OA 
HETATM    8  C   UNL     1     -10.936   6.246  70.473  1.00  0.00    -0.374 C  
HETATM    9  C   UNL     1     -11.312   7.050  69.476  1.00  0.00    -0.138 C  
HETATM   10  C   UNL     1     -10.303   7.645  68.610  1.00  0.00    -0.220 A  
HETATM   11  C   UNL     1     -10.679   8.406  67.496  1.00  0.00    -0.207 A  
HETATM   12  C   UNL     1      -9.677   8.878  66.627  1.00  0.00    -0.303 A  
HETATM   13  C   UNL     1      -8.340   8.634  66.939  1.00  0.00    -0.108 A  
HETATM   14  O   UNL     1      -7.546   9.137  65.949  1.00  0.00    -0.093 OA 
HETATM   15  C   UNL     1      -8.355   9.692  65.015  1.00  0.00    -0.141 A  
HETATM   16  C   UNL     1      -9.672   9.580  65.392  1.00  0.00    -0.314 A  
ENDBRANCH   2   3
TORSDOF 1
ENDMDL
MODEL      174
REMARK 921   NORMALIZED FREE ENERGY PREDICTED BY IDOCK:   -2.43 KCAL/MOL
REMARK 922        TOTAL FREE ENERGY PREDICTED BY IDOCK:   -2.67 KCAL/MOL
REMARK 923 INTER-LIGAND FREE ENERGY PREDICTED BY IDOCK:   -2.66 KCAL/MOL
REMARK 924 INTRA-LIGAND FREE ENERGY PREDICTED BY IDOCK:   -0.01 KCAL/MOL
REMARK 927      BINDING AFFINITY PREDICTED BY RF-SCORE:    0.00 PKD
ROOT
HETATM    1  C   UNL     1      -9.287  10.260  69.208  1.00  0.00    -0.207 C  
HETATM    2  O   UNL     1     -10.268   9.913  68.233  1.00  0.00    -0.162 OA 
ENDROOT
BRANCH   2   3
HETATM    3  C   UNL     1      -9.828   8.999  67.296  1.00  0.00    -0.196 A  
HETATM    4  C   UNL     1      -9.979   7.631  67.574  1.00  0.00    -0.178 A  
HETATM    5  O   UNL     1     -10.567   7.273  68.812  1.00  0.00    -0.204 OA 
HETATM    6  C   UNL     1     -10.664   5.956  69.226  1.00  0.00    -0.331 C  
HETATM    7  O   UNL     1     -11.093   5.635  70.328  1.00  0.00    -0.278 OA 
HETATM    8  C   UNL     1     -10.241   4.925  68.262  1.00  0.00    -0.102 C  
HETATM    9  C   UNL     1      -9.736   5.232  67.065  1.00  0.00    -0.167 C  
HETATM   10  C   UNL     1      -9.555   6.629  66.695  1.00  0.00    -0.207 A  
HETATM   11  C   UNL     1      -8.930   6.971  65.488  1.00  0.00     0.097 A  
HETATM   12  C   UNL     1      -8.682   8.330  65.215  1.00  0.00    -0.121 A  
HETATM   13  C   UNL     1      -9.128   9.295  66.117  1.00  0.00    -0.179 A  
HETATM   14  O   UNL     1      -8.747  10.531  65.682  1.00  0.00    -0.167 OA 
HETATM   15  C   UNL     1      -8.066  10.367  64.522  1.00  0.00    -0.114 A  
HETATM   16  C   UNL     1      -8.017   9.037  64.178  1.00  0.00    -0.144 A  
ENDBRANCH   2   3
TORSDOF 1
ENDMDL
MODEL      175
REMARK 921   NORMALIZED FREE ENERGY PREDICTED BY IDOCK:   -2.41 KCAL/MOL
REMARK 922        TOTAL FREE ENERGY PREDICTED BY IDOCK:   -2.65 KCAL/MOL
REMARK 923 INTER-LIGAND FREE ENERGY PREDICTED BY IDOCK:   -2.72 KCAL/MOL
REMARK 924 INTRA-LIGAND FREE ENERGY PREDICTED BY IDOCK:    0.07 KCAL/MOL
REMARK 927      BINDING AFFINITY PREDICTED BY RF-SCORE:    0.00 PKD
ROOT
HETATM    1  C   UNL     1      -6.480   6.435  69.049  1.00  0.00    -0.043 C  
HETATM    2  O   UNL     1      -7.895   6.414  68.873  1.00  0.00    -0.106 OA 
ENDROOT
BRANCH   2   3
HETATM    3  C   UNL     1      -8.592   5.990  69.988  1.00  0.00    -0.131 A  
HETATM    4  C   UNL     1      -9.456   6.897  70.622  1.00  0.00    -0.165 A  
HETATM    5  O   UNL     1      -9.549   8.203  70.080  1.00  0.00    -0.167 OA 
HETATM    6  C   UNL     1     -10.289   9.200  70.691  1.00  0.00    -0.246 C  
HETATM    7  O   UNL     1     -10.313  10.355  70.282  1.00  0.00    -0.184 OA 
HETATM    8  C   UNL     1     -11.084   8.809  71.869  1.00  0.00    -0.434 C  
HETATM    9  C   UNL     1     -11.059   7.572  72.368  1.00  0.00    -0.349 C  
HETATM   10  C   UNL     1     -10.195   6.567  71.762  1.00  0.00    -0.210 A  
HETATM   11  C   UNL     1     -10.075   5.293  72.333  1.00  0.00    -0.227 A  
HETATM   12  C   UNL     1      -9.153   4.386  71.777  1.00  0.00    -0.167 A  
HETATM   13  C   UNL     1      -8.441   4.756  70.637  1.00  0.00    -0.096 A  
HETATM   14  O   UNL     1      -7.580   3.753  70.295  1.00  0.00    -0.044 OA 
HETATM   15  C   UNL     1      -7.732   2.756  71.201  1.00  0.00    -0.043 A  
HETATM   16  C   UNL     1      -8.700   3.083  72.119  1.00  0.00    -0.104 A  
ENDBRANCH   2   3
TORSDOF 1
ENDMDL
MODEL      176
REMARK 921   NORMALIZED FREE ENERGY PREDICTED BY IDOCK:   -2.38 KCAL/MOL
REMARK 922        TOTAL FREE ENERGY PREDICTED BY IDOCK:   -2.61 KCAL/MOL
REMARK 923 INTER-LIGAND FREE ENERGY PREDICTED BY IDOCK:   -2.75 KCAL/MOL
REMARK 924 INTRA-LIGAND FREE ENERGY PREDICTED BY IDOCK:    0.14 KCAL/MOL
REMARK 927      BINDING AFFINITY PREDICTED BY RF-SCORE:    0.00 PKD
ROOT
HETATM    1  C   UNL     1     -10.966  11.174  64.575  1.00  0.00    -0.185 C  
HETATM    2  O   UNL     1      -9.613  11.601  64.724  1.00  0.00    -0.217 OA 
ENDROOT
BRANCH   2   3
HETATM    3  C   UNL     1      -9.361  12.261  65.911  1.00  0.00    -0.095 A  
HETATM    4  C   UNL     1      -8.381  11.740  66.770  1.00  0.00    -0.165 A  
HETATM    5  O   UNL     1      -7.716  10.556  66.366  1.00  0.00    -0.122 OA 
HETATM    6  C   UNL     1      -6.811   9.906  67.187  1.00  0.00    -0.083 C  
HETATM    7  O   UNL     1      -6.291   8.837  66.888  1.00  0.00    -0.058 OA 
HETATM    8  C   UNL     1      -6.471  10.571  68.457  1.00  0.00    -0.055 C  
HETATM    9  C   UNL     1      -7.040  11.716  68.837  1.00  0.00    -0.115 C  
HETATM   10  C   UNL     1      -8.061  12.328  67.998  1.00  0.00    -0.156 A  
HETATM   11  C   UNL     1      -8.745  13.473  68.428  1.00  0.00    -0.140 A  
HETATM   12  C   UNL     1      -9.795  13.973  67.634  1.00  0.00    -0.233 A  
HETATM   13  C   UNL     1     -10.075  13.359  66.415  1.00  0.00    -0.292 A  
HETATM   14  O   UNL     1     -11.147  13.972  65.834  1.00  0.00    -0.297 OA 
HETATM   15  C   UNL     1     -11.554  14.962  66.666  1.00  0.00    -0.261 A  
HETATM   16  C   UNL     1     -10.744  15.021  67.774  1.00  0.00    -0.278 A  
ENDBRANCH   2   3
TORSDOF 1
ENDMDL
MODEL      177
REMARK 921   NORMALIZED FREE ENERGY PREDICTED BY IDOCK:   -2.36 KCAL/MOL
REMARK 922        TOTAL FREE ENERGY PREDICTED BY IDOCK:   -2.59 KCAL/MOL
REMARK 923 INTER-LIGAND FREE ENERGY PREDICTED BY IDOCK:   -2.56 KCAL/MOL
REMARK 924 INTRA-LIGAND FREE ENERGY PREDICTED BY IDOCK:   -0.03 KCAL/MOL
REMARK 927      BINDING AFFINITY PREDICTED BY RF-SCORE:    0.00 PKD
ROOT
HETATM    1  C   UNL     1      -7.656   3.449  69.638  1.00  0.00    -0.044 C  
HETATM    2  O   UNL     1      -8.878   3.583  68.917  1.00  0.00    -0.091 OA 
ENDROOT
BRANCH   2   3
HETATM    3  C   UNL     1      -9.158   4.877  68.522  1.00  0.00    -0.114 A  
HETATM    4  C   UNL     1      -9.913   5.690  69.381  1.00  0.00    -0.197 A  
HETATM    5  O   UNL     1     -10.353   5.124  70.603  1.00  0.00    -0.249 OA 
HETATM    6  C   UNL     1     -11.189   5.806  71.469  1.00  0.00    -0.175 C  
HETATM    7  O   UNL     1     -11.645   5.301  72.489  1.00  0.00    -0.205 OA 
HETATM    8  C   UNL     1     -11.503   7.204  71.125  1.00  0.00    -0.322 C  
HETATM    9  C   UNL     1     -11.056   7.781  70.009  1.00  0.00    -0.182 C  
HETATM   10  C   UNL     1     -10.258   7.008  69.067  1.00  0.00    -0.191 A  
HETATM   11  C   UNL     1      -9.868   7.563  67.841  1.00  0.00    -0.185 A  
HETATM   12  C   UNL     1      -9.185   6.750  66.916  1.00  0.00    -0.162 A  
HETATM   13  C   UNL     1      -8.857   5.444  67.274  1.00  0.00    -0.105 A  
HETATM   14  O   UNL     1      -8.242   4.826  66.224  1.00  0.00    -0.107 OA 
HETATM   15  C   UNL     1      -8.177   5.718  65.205  1.00  0.00    -0.140 A  
HETATM   16  C   UNL     1      -8.722   6.921  65.584  1.00  0.00    -0.086 A  
ENDBRANCH   2   3
TORSDOF 1
ENDMDL
MODEL      178
REMARK 921   NORMALIZED FREE ENERGY PREDICTED BY IDOCK:   -2.35 KCAL/MOL
REMARK 922        TOTAL FREE ENERGY PREDICTED BY IDOCK:   -2.58 KCAL/MOL
REMARK 923 INTER-LIGAND FREE ENERGY PREDICTED BY IDOCK:   -2.52 KCAL/MOL
REMARK 924 INTRA-LIGAND FREE ENERGY PREDICTED BY IDOCK:   -0.06 KCAL/MOL
REMARK 927      BINDING AFFINITY PREDICTED BY RF-SCORE:    0.00 PKD
ROOT
HETATM    1  C   UNL     1      -9.310   8.495  69.014  1.00  0.00    -0.146 C  
HETATM    2  O   UNL     1     -10.081   8.356  67.823  1.00  0.00    -0.183 OA 
ENDROOT
BRANCH   2   3
HETATM    3  C   UNL     1      -9.377   7.830  66.758  1.00  0.00    -0.180 A  
HETATM    4  C   UNL     1      -9.141   8.649  65.642  1.00  0.00    -0.164 A  
HETATM    5  O   UNL     1      -9.653   9.969  65.677  1.00  0.00    -0.211 OA 
HETATM    6  C   UNL     1      -9.566  10.819  64.589  1.00  0.00    -0.268 C  
HETATM    7  O   UNL     1     -10.077  11.933  64.572  1.00  0.00    -0.263 OA 
HETATM    8  C   UNL     1      -8.800  10.334  63.427  1.00  0.00    -0.227 C  
HETATM    9  C   UNL     1      -8.258   9.115  63.389  1.00  0.00    -0.178 C  
HETATM   10  C   UNL     1      -8.449   8.205  64.511  1.00  0.00    -0.013 A  
HETATM   11  C   UNL     1      -7.978   6.887  64.447  1.00  0.00    -0.093 A  
HETATM   12  C   UNL     1      -8.272   6.011  65.509  1.00  0.00    -0.142 A  
HETATM   13  C   UNL     1      -8.959   6.498  66.620  1.00  0.00    -0.138 A  
HETATM   14  O   UNL     1      -9.174   5.479  67.502  1.00  0.00    -0.111 OA 
HETATM   15  C   UNL     1      -8.637   4.354  66.969  1.00  0.00    -0.104 A  
HETATM   16  C   UNL     1      -8.052   4.629  65.757  1.00  0.00    -0.103 A  
ENDBRANCH   2   3
TORSDOF 1
ENDMDL
MODEL      179
REMARK 921   NORMALIZED FREE ENERGY PREDICTED BY IDOCK:   -2.30 KCAL/MOL
REMARK 922        TOTAL FREE ENERGY PREDICTED BY IDOCK:   -2.53 KCAL/MOL
REMARK 923 INTER-LIGAND FREE ENERGY PREDICTED BY IDOCK:   -2.48 KCAL/MOL
REMARK 924 INTRA-LIGAND FREE ENERGY PREDICTED BY IDOCK:   -0.05 KCAL/MOL
REMARK 927      BINDING AFFINITY PREDICTED BY RF-SCORE:    0.00 PKD
ROOT
HETATM    1  C   UNL     1     -12.171  12.580  69.644  1.00  0.00    -0.103 C  
HETATM    2  O   UNL     1     -11.872  11.683  68.577  1.00  0.00    -0.348 OA 
ENDROOT
BRANCH   2   3
HETATM    3  C   UNL     1     -10.635  11.892  68.000  1.00  0.00    -0.207 A  
HETATM    4  C   UNL     1      -9.582  11.029  68.345  1.00  0.00    -0.181 A  
HETATM    5  O   UNL     1      -9.856  10.000  69.279  1.00  0.00    -0.190 OA 
HETATM    6  C   UNL     1      -8.865   9.165  69.763  1.00  0.00    -0.160 C  
HETATM    7  O   UNL     1      -9.068   8.325  70.632  1.00  0.00    -0.145 OA 
HETATM    8  C   UNL     1      -7.525   9.311  69.167  1.00  0.00    -0.072 C  
HETATM    9  C   UNL     1      -7.251  10.235  68.245  1.00  0.00    -0.083 C  
HETATM   10  C   UNL     1      -8.291  11.165  67.824  1.00  0.00    -0.123 A  
HETATM   11  C   UNL     1      -7.998  12.208  66.936  1.00  0.00    -0.089 A  
HETATM   12  C   UNL     1      -9.005  13.145  66.635  1.00  0.00    -0.135 A  
HETATM   13  C   UNL     1     -10.279  12.967  67.172  1.00  0.00    -0.239 A  
HETATM   14  O   UNL     1     -11.081  14.003  66.789  1.00  0.00    -0.297 OA 
HETATM   15  C   UNL     1     -10.336  14.836  66.021  1.00  0.00    -0.305 A  
HETATM   16  C   UNL     1      -9.061  14.345  65.876  1.00  0.00     0.195 A  
ENDBRANCH   2   3
TORSDOF 1
ENDMDL
MODEL      180
REMARK 921   NORMALIZED FREE ENERGY PREDICTED BY IDOCK:   -2.30 KCAL/MOL
REMARK 922        TOTAL FREE ENERGY PREDICTED BY IDOCK:   -2.52 KCAL/MOL
REMARK 923 INTER-LIGAND FREE ENERGY PREDICTED BY IDOCK:   -2.49 KCAL/MOL
REMARK 924 INTRA-LIGAND FREE ENERGY PREDICTED BY IDOCK:   -0.04 KCAL/MOL
REMARK 927      BINDING AFFINITY PREDICTED BY RF-SCORE:    0.00 PKD
ROOT
HETATM    1  C   UNL     1      -6.332   7.072  69.423  1.00  0.00    -0.035 C  
HETATM    2  O   UNL     1      -7.133   7.510  68.327  1.00  0.00    -0.079 OA 
ENDROOT
BRANCH   2   3
HETATM    3  C   UNL     1      -8.331   6.835  68.203  1.00  0.00    -0.118 A  
HETATM    4  C   UNL     1      -8.554   6.073  67.045  1.00  0.00    -0.107 A  
HETATM    5  O   UNL     1      -7.531   6.054  66.065  1.00  0.00    -0.082 OA 
HETATM    6  C   UNL     1      -7.694   5.420  64.846  1.00  0.00    -0.088 C  
HETATM    7  O   UNL     1      -6.853   5.465  63.955  1.00  0.00    -0.044 OA 
HETATM    8  C   UNL     1      -8.939   4.654  64.658  1.00  0.00    -0.151 C  
HETATM    9  C   UNL     1      -9.895   4.608  65.587  1.00  0.00    -0.217 C  
HETATM   10  C   UNL     1      -9.738   5.364  66.822  1.00  0.00    -0.170 A  
HETATM   11  C   UNL     1     -10.775   5.413  67.764  1.00  0.00    -0.109 A  
HETATM   12  C   UNL     1     -10.623   6.237  68.895  1.00  0.00    -0.321 A  
HETATM   13  C   UNL     1      -9.423   6.921  69.080  1.00  0.00    -0.142 A  
HETATM   14  O   UNL     1      -9.507   7.687  70.207  1.00  0.00    -0.161 OA 
HETATM   15  C   UNL     1     -10.740   7.502  70.738  1.00  0.00    -0.229 A  
HETATM   16  C   UNL     1     -11.458   6.605  69.985  1.00  0.00    -0.434 A  
ENDBRANCH   2   3
TORSDOF 1
ENDMDL
MODEL      181
REMARK 921   NORMALIZED FREE ENERGY PREDICTED BY IDOCK:   -2.26 KCAL/MOL
REMARK 922        TOTAL FREE ENERGY PREDICTED BY IDOCK:   -2.48 KCAL/MOL
REMARK 923 INTER-LIGAND FREE ENERGY PREDICTED BY IDOCK:   -2.43 KCAL/MOL
REMARK 924 INTRA-LIGAND FREE ENERGY PREDICTED BY IDOCK:   -0.05 KCAL/MOL
REMARK 927      BINDING AFFINITY PREDICTED BY RF-SCORE:    0.00 PKD
ROOT
HETATM    1  C   UNL     1      -6.373  10.090  65.575  1.00  0.00    -0.094 C  
HETATM    2  O   UNL     1      -6.912  10.874  66.637  1.00  0.00    -0.118 OA 
ENDROOT
BRANCH   2   3
HETATM    3  C   UNL     1      -8.274  10.723  66.808  1.00  0.00    -0.135 A  
HETATM    4  C   UNL     1      -8.730   9.884  67.837  1.00  0.00    -0.129 A  
HETATM    5  O   UNL     1      -7.756   9.231  68.632  1.00  0.00    -0.083 OA 
HETATM    6  C   UNL     1      -8.100   8.305  69.601  1.00  0.00    -0.116 C  
HETATM    7  O   UNL     1      -7.268   7.670  70.240  1.00  0.00    -0.064 OA 
HETATM    8  C   UNL     1      -9.539   8.117  69.859  1.00  0.00    -0.175 C  
HETATM    9  C   UNL     1     -10.478   8.761  69.163  1.00  0.00    -0.230 C  
HETATM   10  C   UNL     1     -10.088   9.658  68.083  1.00  0.00    -0.205 A  
HETATM   11  C   UNL     1     -11.059  10.262  67.273  1.00  0.00    -0.215 A  
HETATM   12  C   UNL     1     -10.639  11.040  66.177  1.00  0.00    -0.288 A  
HETATM   13  C   UNL     1      -9.275  11.243  65.974  1.00  0.00    -0.208 A  
HETATM   14  O   UNL     1      -9.091  11.983  64.842  1.00  0.00     0.201 OA 
HETATM   15  C   UNL     1     -10.315  12.250  64.323  1.00  0.00    -0.348 A  
HETATM   16  C   UNL     1     -11.300  11.713  65.116  1.00  0.00    -0.223 A  
ENDBRANCH   2   3
TORSDOF 1
ENDMDL
MODEL      182
REMARK 921   NORMALIZED FREE ENERGY PREDICTED BY IDOCK:   -2.25 KCAL/MOL
REMARK 922        TOTAL FREE ENERGY PREDICTED BY IDOCK:   -2.48 KCAL/MOL
REMARK 923 INTER-LIGAND FREE ENERGY PREDICTED BY IDOCK:   -2.45 KCAL/MOL
REMARK 924 INTRA-LIGAND FREE ENERGY PREDICTED BY IDOCK:   -0.03 KCAL/MOL
REMARK 927      BINDING AFFINITY PREDICTED BY RF-SCORE:    0.00 PKD
ROOT
HETATM    1  C   UNL     1     -11.785   8.399  72.171  1.00  0.00    -0.375 C  
HETATM    2  O   UNL     1     -11.374   7.429  71.210  1.00  0.00    -0.254 OA 
ENDROOT
BRANCH   2   3
HETATM    3  C   UNL     1     -10.084   6.970  71.392  1.00  0.00    -0.189 A  
HETATM    4  C   UNL     1      -9.140   7.209  70.381  1.00  0.00    -0.156 A  
HETATM    5  O   UNL     1      -9.578   7.901  69.224  1.00  0.00    -0.156 OA 
HETATM    6  C   UNL     1      -8.755   8.093  68.129  1.00  0.00    -0.136 C  
HETATM    7  O   UNL     1      -9.142   8.615  67.090  1.00  0.00    -0.129 OA 
HETATM    8  C   UNL     1      -7.354   7.656  68.266  1.00  0.00    -0.099 C  
HETATM    9  C   UNL     1      -6.900   7.052  69.366  1.00  0.00    -0.054 C  
HETATM   10  C   UNL     1      -7.814   6.775  70.466  1.00  0.00    -0.105 A  
HETATM   11  C   UNL     1      -7.383   6.049  71.585  1.00  0.00    -0.093 A  
HETATM   12  C   UNL     1      -8.322   5.714  72.578  1.00  0.00    -0.114 A  
HETATM   13  C   UNL     1      -9.632   6.174  72.455  1.00  0.00    -0.151 A  
HETATM   14  O   UNL     1     -10.378   5.702  73.496  1.00  0.00    -0.199 OA 
HETATM   15  C   UNL     1      -9.564   4.949  74.276  1.00  0.00    -0.131 A  
HETATM   16  C   UNL     1      -8.286   4.942  73.770  1.00  0.00    -0.105 A  
ENDBRANCH   2   3
TORSDOF 1
ENDMDL
MODEL      183
REMARK 921   NORMALIZED FREE ENERGY PREDICTED BY IDOCK:   -2.25 KCAL/MOL
REMARK 922        TOTAL FREE ENERGY PREDICTED BY IDOCK:   -2.47 KCAL/MOL
REMARK 923 INTER-LIGAND FREE ENERGY PREDICTED BY IDOCK:   -2.38 KCAL/MOL
REMARK 924 INTRA-LIGAND FREE ENERGY PREDICTED BY IDOCK:   -0.09 KCAL/MOL
REMARK 927      BINDING AFFINITY PREDICTED BY RF-SCORE:    0.00 PKD
ROOT
HETATM    1  C   UNL     1      -8.890   3.271  67.376  1.00  0.00    -0.134 C  
HETATM    2  O   UNL     1     -10.021   3.585  68.184  1.00  0.00     0.033 OA 
ENDROOT
BRANCH   2   3
HETATM    3  C   UNL     1      -9.850   4.701  68.979  1.00  0.00    -0.154 A  
HETATM    4  C   UNL     1      -9.549   4.515  70.338  1.00  0.00    -0.200 A  
HETATM    5  O   UNL     1      -9.451   3.183  70.812  1.00  0.00    -0.143 OA 
HETATM    6  C   UNL     1      -9.262   2.893  72.152  1.00  0.00    -0.096 C  
HETATM    7  O   UNL     1      -9.258   1.748  72.590  1.00  0.00    -0.071 OA 
HETATM    8  C   UNL     1      -9.042   4.037  73.054  1.00  0.00    -0.123 C  
HETATM    9  C   UNL     1      -9.073   5.300  72.625  1.00  0.00    -0.141 C  
HETATM   10  C   UNL     1      -9.370   5.580  71.226  1.00  0.00    -0.176 A  
HETATM   11  C   UNL     1      -9.511   6.900  70.778  1.00  0.00    -0.165 A  
HETATM   12  C   UNL     1      -9.899   7.124  69.443  1.00  0.00    -0.161 A  
HETATM   13  C   UNL     1     -10.061   6.033  68.592  1.00  0.00    -0.168 A  
HETATM   14  O   UNL     1     -10.477   6.471  67.368  1.00  0.00    -0.183 OA 
HETATM   15  C   UNL     1     -10.584   7.820  67.430  1.00  0.00    -0.275 A  
HETATM   16  C   UNL     1     -10.219   8.275  68.674  1.00  0.00    -0.223 A  
ENDBRANCH   2   3
TORSDOF 1
ENDMDL
MODEL      184
REMARK 921   NORMALIZED FREE ENERGY PREDICTED BY IDOCK:   -2.25 KCAL/MOL
REMARK 922        TOTAL FREE ENERGY PREDICTED BY IDOCK:   -2.47 KCAL/MOL
REMARK 923 INTER-LIGAND FREE ENERGY PREDICTED BY IDOCK:   -2.43 KCAL/MOL
REMARK 924 INTRA-LIGAND FREE ENERGY PREDICTED BY IDOCK:   -0.04 KCAL/MOL
REMARK 927      BINDING AFFINITY PREDICTED BY RF-SCORE:    0.00 PKD
ROOT
HETATM    1  C   UNL     1     -10.863   9.878  69.890  1.00  0.00    -0.278 C  
HETATM    2  O   UNL     1      -9.739   9.399  70.624  1.00  0.00    -0.248 OA 
ENDROOT
BRANCH   2   3
HETATM    3  C   UNL     1      -9.635   8.022  70.655  1.00  0.00    -0.166 A  
HETATM    4  C   UNL     1      -8.668   7.406  69.844  1.00  0.00    -0.141 A  
HETATM    5  O   UNL     1      -7.862   8.243  69.034  1.00  0.00    -0.100 OA 
HETATM    6  C   UNL     1      -6.953   7.730  68.124  1.00  0.00    -0.079 C  
HETATM    7  O   UNL     1      -6.309   8.437  67.357  1.00  0.00    -0.055 OA 
HETATM    8  C   UNL     1      -6.768   6.268  68.124  1.00  0.00    -0.068 C  
HETATM    9  C   UNL     1      -7.473   5.460  68.918  1.00  0.00    -0.075 C  
HETATM   10  C   UNL     1      -8.492   6.020  69.796  1.00  0.00    -0.126 A  
HETATM   11  C   UNL     1      -9.315   5.181  70.559  1.00  0.00    -0.210 A  
HETATM   12  C   UNL     1     -10.354   5.756  71.315  1.00  0.00    -0.281 A  
HETATM   13  C   UNL     1     -10.487   7.143  71.339  1.00  0.00    -0.204 A  
HETATM   14  O   UNL     1     -11.575   7.480  72.092  1.00  0.00    -0.276 OA 
HETATM   15  C   UNL     1     -12.133   6.331  72.544  1.00  0.00    -0.050 A  
HETATM   16  C   UNL     1     -11.411   5.244  72.115  1.00  0.00    -0.078 A  
ENDBRANCH   2   3
TORSDOF 1
ENDMDL
MODEL      185
REMARK 921   NORMALIZED FREE ENERGY PREDICTED BY IDOCK:   -2.25 KCAL/MOL
REMARK 922        TOTAL FREE ENERGY PREDICTED BY IDOCK:   -2.47 KCAL/MOL
REMARK 923 INTER-LIGAND FREE ENERGY PREDICTED BY IDOCK:   -2.97 KCAL/MOL
REMARK 924 INTRA-LIGAND FREE ENERGY PREDICTED BY IDOCK:    0.50 KCAL/MOL
REMARK 927      BINDING AFFINITY PREDICTED BY RF-SCORE:    0.00 PKD
ROOT
HETATM    1  C   UNL     1      -6.939  14.626  67.961  1.00  0.00    -0.139 C  
HETATM    2  O   UNL     1      -7.247  13.242  67.811  1.00  0.00    -0.118 OA 
ENDROOT
BRANCH   2   3
HETATM    3  C   UNL     1      -8.509  12.897  68.254  1.00  0.00    -0.161 A  
HETATM    4  C   UNL     1      -8.766  11.552  68.562  1.00  0.00    -0.138 A  
HETATM    5  O   UNL     1      -7.708  10.625  68.385  1.00  0.00    -0.097 OA 
HETATM    6  C   UNL     1      -7.889   9.264  68.560  1.00  0.00    -0.090 C  
HETATM    7  O   UNL     1      -7.009   8.442  68.330  1.00  0.00    -0.067 OA 
HETATM    8  C   UNL     1      -9.203   8.828  69.062  1.00  0.00    -0.141 C  
HETATM    9  C   UNL     1     -10.199   9.685  69.292  1.00  0.00    -0.215 C  
HETATM   10  C   UNL     1     -10.012  11.101  69.007  1.00  0.00    -0.155 A  
HETATM   11  C   UNL     1     -11.078  12.002  69.140  1.00  0.00    -0.272 A  
HETATM   12  C   UNL     1     -10.883  13.343  68.758  1.00  0.00    -0.275 A  
HETATM   13  C   UNL     1      -9.622  13.748  68.326  1.00  0.00    -0.219 A  
HETATM   14  O   UNL     1      -9.668  15.065  67.967  1.00  0.00    -0.210 OA 
HETATM   15  C   UNL     1     -10.937  15.499  68.161  1.00  0.00    -0.312 A  
HETATM   16  C   UNL     1     -11.719  14.488  68.667  1.00  0.00    -0.364 A  
ENDBRANCH   2   3
TORSDOF 1
ENDMDL
MODEL      186
REMARK 921   NORMALIZED FREE ENERGY PREDICTED BY IDOCK:   -2.17 KCAL/MOL
REMARK 922        TOTAL FREE ENERGY PREDICTED BY IDOCK:   -2.39 KCAL/MOL
REMARK 923 INTER-LIGAND FREE ENERGY PREDICTED BY IDOCK:   -2.34 KCAL/MOL
REMARK 924 INTRA-LIGAND FREE ENERGY PREDICTED BY IDOCK:   -0.05 KCAL/MOL
REMARK 927      BINDING AFFINITY PREDICTED BY RF-SCORE:    0.00 PKD
ROOT
HETATM    1  C   UNL     1      -6.224   4.677  69.573  1.00  0.00    -0.027 C  
HETATM    2  O   UNL     1      -6.672   5.559  70.600  1.00  0.00    -0.044 OA 
ENDROOT
BRANCH   2   3
HETATM    3  C   UNL     1      -8.046   5.678  70.676  1.00  0.00    -0.116 A  
HETATM    4  C   UNL     1      -8.725   4.957  71.672  1.00  0.00    -0.127 A  
HETATM    5  O   UNL     1      -7.952   4.139  72.532  1.00  0.00    -0.084 OA 
HETATM    6  C   UNL     1      -8.534   3.310  73.475  1.00  0.00    -0.074 C  
HETATM    7  O   UNL     1      -7.886   2.535  74.170  1.00  0.00    -0.052 OA 
HETATM    8  C   UNL     1      -9.996   3.408  73.633  1.00  0.00    -0.169 C  
HETATM    9  C   UNL     1     -10.743   4.212  72.874  1.00  0.00    -0.230 C  
HETATM   10  C   UNL     1     -10.114   5.001  71.823  1.00  0.00    -0.262 A  
HETATM   11  C   UNL     1     -10.892   5.770  70.948  1.00  0.00    -0.326 A  
HETATM   12  C   UNL     1     -10.256   6.437  69.883  1.00  0.00    -0.224 A  
HETATM   13  C   UNL     1      -8.868   6.370  69.775  1.00  0.00    -0.142 A  
HETATM   14  O   UNL     1      -8.468   7.045  68.658  1.00  0.00    -0.121 OA 
HETATM   15  C   UNL     1      -9.578   7.537  68.056  1.00  0.00    -0.143 A  
HETATM   16  C   UNL     1     -10.701   7.211  68.779  1.00  0.00    -0.199 A  
ENDBRANCH   2   3
TORSDOF 1
ENDMDL
MODEL      187
REMARK 921   NORMALIZED FREE ENERGY PREDICTED BY IDOCK:   -2.05 KCAL/MOL
REMARK 922        TOTAL FREE ENERGY PREDICTED BY IDOCK:   -2.26 KCAL/MOL
REMARK 923 INTER-LIGAND FREE ENERGY PREDICTED BY IDOCK:   -2.21 KCAL/MOL
REMARK 924 INTRA-LIGAND FREE ENERGY PREDICTED BY IDOCK:   -0.05 KCAL/MOL
REMARK 927      BINDING AFFINITY PREDICTED BY RF-SCORE:    0.00 PKD
ROOT
HETATM    1  C   UNL     1     -10.828   9.695  71.052  1.00  0.00    -0.342 C  
HETATM    2  O   UNL     1     -10.489   8.310  71.073  1.00  0.00    -0.198 OA 
ENDROOT
BRANCH   2   3
HETATM    3  C   UNL     1      -9.391   7.991  70.299  1.00  0.00    -0.159 A  
HETATM    4  C   UNL     1      -8.151   7.818  70.935  1.00  0.00    -0.102 A  
HETATM    5  O   UNL     1      -8.105   7.994  72.340  1.00  0.00    -0.109 OA 
HETATM    6  C   UNL     1      -6.916   7.949  73.046  1.00  0.00    -0.088 C  
HETATM    7  O   UNL     1      -6.847   8.182  74.248  1.00  0.00    -0.121 OA 
HETATM    8  C   UNL     1      -5.707   7.582  72.288  1.00  0.00    -0.036 C  
HETATM    9  C   UNL     1      -5.731   7.355  70.973  1.00  0.00    -0.035 C  
HETATM   10  C   UNL     1      -6.980   7.505  70.239  1.00  0.00    -0.055 A  
HETATM   11  C   UNL     1      -7.006   7.374  68.843  1.00  0.00    -0.078 A  
HETATM   12  C   UNL     1      -8.212   7.627  68.162  1.00  0.00    -0.124 A  
HETATM   13  C   UNL     1      -9.356   7.929  68.898  1.00  0.00    -0.150 A  
HETATM   14  O   UNL     1     -10.391   8.178  68.043  1.00  0.00    -0.208 OA 
HETATM   15  C   UNL     1      -9.922   8.041  66.779  1.00  0.00    -0.274 A  
HETATM   16  C   UNL     1      -8.596   7.681  66.795  1.00  0.00    -0.129 A  
ENDBRANCH   2   3
TORSDOF 1
ENDMDL
MODEL      188
REMARK 921   NORMALIZED FREE ENERGY PREDICTED BY IDOCK:   -2.04 KCAL/MOL
REMARK 922        TOTAL FREE ENERGY PREDICTED BY IDOCK:   -2.25 KCAL/MOL
REMARK 923 INTER-LIGAND FREE ENERGY PREDICTED BY IDOCK:   -2.33 KCAL/MOL
REMARK 924 INTRA-LIGAND FREE ENERGY PREDICTED BY IDOCK:    0.08 KCAL/MOL
REMARK 927      BINDING AFFINITY PREDICTED BY RF-SCORE:    0.00 PKD
ROOT
HETATM    1  C   UNL     1     -10.827  11.969  67.388  1.00  0.00    -0.242 C  
HETATM    2  O   UNL     1     -10.228  11.376  68.538  1.00  0.00    -0.195 OA 
ENDROOT
BRANCH   2   3
HETATM    3  C   UNL     1      -9.216  10.482  68.244  1.00  0.00    -0.152 A  
HETATM    4  C   UNL     1      -7.940  10.989  67.953  1.00  0.00    -0.112 A  
HETATM    5  O   UNL     1      -7.773  12.396  67.968  1.00  0.00    -0.113 OA 
HETATM    6  C   UNL     1      -6.584  12.998  67.594  1.00  0.00    -0.159 C  
HETATM    7  O   UNL     1      -6.449  14.214  67.521  1.00  0.00    -0.264 OA 
HETATM    8  C   UNL     1      -5.452  12.104  67.297  1.00  0.00    -0.124 C  
HETATM    9  C   UNL     1      -5.565  10.775  67.330  1.00  0.00    -0.042 C  
HETATM   10  C   UNL     1      -6.854  10.168  67.633  1.00  0.00    -0.076 A  
HETATM   11  C   UNL     1      -7.020   8.778  67.569  1.00  0.00    -0.075 A  
HETATM   12  C   UNL     1      -8.305   8.239  67.769  1.00  0.00    -0.128 A  
HETATM   13  C   UNL     1      -9.357   9.095  68.092  1.00  0.00    -0.138 A  
HETATM   14  O   UNL     1     -10.511   8.375  68.198  1.00  0.00    -0.212 OA 
HETATM   15  C   UNL     1     -10.210   7.077  67.945  1.00  0.00    -0.183 A  
HETATM   16  C   UNL     1      -8.866   6.935  67.698  1.00  0.00    -0.118 A  
ENDBRANCH   2   3
TORSDOF 1
ENDMDL
MODEL      189
REMARK 921   NORMALIZED FREE ENERGY PREDICTED BY IDOCK:   -2.03 KCAL/MOL
REMARK 922        TOTAL FREE ENERGY PREDICTED BY IDOCK:   -2.24 KCAL/MOL
REMARK 923 INTER-LIGAND FREE ENERGY PREDICTED BY IDOCK:   -2.17 KCAL/MOL
REMARK 924 INTRA-LIGAND FREE ENERGY PREDICTED BY IDOCK:   -0.07 KCAL/MOL
REMARK 927      BINDING AFFINITY PREDICTED BY RF-SCORE:    0.00 PKD
ROOT
HETATM    1  C   UNL     1     -10.845   9.596  71.079  1.00  0.00    -0.342 C  
HETATM    2  O   UNL     1     -10.292   8.282  71.054  1.00  0.00    -0.187 OA 
ENDROOT
BRANCH   2   3
HETATM    3  C   UNL     1      -8.911   8.255  71.033  1.00  0.00    -0.154 A  
HETATM    4  C   UNL     1      -8.263   8.135  69.793  1.00  0.00    -0.122 A  
HETATM    5  O   UNL     1      -9.074   8.037  68.635  1.00  0.00    -0.140 OA 
HETATM    6  C   UNL     1      -8.537   7.810  67.380  1.00  0.00    -0.125 C  
HETATM    7  O   UNL     1      -9.229   7.640  66.382  1.00  0.00    -0.170 OA 
HETATM    8  C   UNL     1      -7.067   7.801  67.279  1.00  0.00    -0.086 C  
HETATM    9  C   UNL     1      -6.278   7.947  68.344  1.00  0.00    -0.048 C  
HETATM   10  C   UNL     1      -6.871   8.087  69.668  1.00  0.00    -0.042 A  
HETATM   11  C   UNL     1      -6.061   8.136  70.810  1.00  0.00    -0.033 A  
HETATM   12  C   UNL     1      -6.677   8.168  72.076  1.00  0.00    -0.073 A  
HETATM   13  C   UNL     1      -8.067   8.221  72.153  1.00  0.00    -0.145 A  
HETATM   14  O   UNL     1      -8.450   8.202  73.463  1.00  0.00    -0.219 OA 
HETATM   15  C   UNL     1      -7.326   8.135  74.218  1.00  0.00    -0.188 A  
HETATM   16  C   UNL     1      -6.209   8.135  73.417  1.00  0.00    -0.097 A  
ENDBRANCH   2   3
TORSDOF 1
ENDMDL
MODEL      190
REMARK 921   NORMALIZED FREE ENERGY PREDICTED BY IDOCK:   -2.00 KCAL/MOL
REMARK 922        TOTAL FREE ENERGY PREDICTED BY IDOCK:   -2.21 KCAL/MOL
REMARK 923 INTER-LIGAND FREE ENERGY PREDICTED BY IDOCK:   -2.28 KCAL/MOL
REMARK 924 INTRA-LIGAND FREE ENERGY PREDICTED BY IDOCK:    0.07 KCAL/MOL
REMARK 927      BINDING AFFINITY PREDICTED BY RF-SCORE:    0.00 PKD
ROOT
HETATM    1  C   UNL     1      -5.872   8.129  64.785  1.00  0.00    -0.045 C  
HETATM    2  O   UNL     1      -6.927   7.437  64.122  1.00  0.00    -0.053 OA 
ENDROOT
BRANCH   2   3
HETATM    3  C   UNL     1      -7.686   6.640  64.956  1.00  0.00    -0.103 A  
HETATM    4  C   UNL     1      -8.702   7.243  65.716  1.00  0.00    -0.109 A  
HETATM    5  O   UNL     1      -8.877   8.642  65.584  1.00  0.00    -0.175 OA 
HETATM    6  C   UNL     1      -9.778   9.346  66.364  1.00  0.00    -0.250 C  
HETATM    7  O   UNL     1      -9.883  10.566  66.322  1.00  0.00    -0.199 OA 
HETATM    8  C   UNL     1     -10.644   8.554  67.256  1.00  0.00    -0.315 C  
HETATM    9  C   UNL     1     -10.539   7.228  67.358  1.00  0.00    -0.370 C  
HETATM   10  C   UNL     1      -9.516   6.524  66.597  1.00  0.00    -0.193 A  
HETATM   11  C   UNL     1      -9.320   5.147  66.769  1.00  0.00    -0.134 A  
HETATM   12  C   UNL     1      -8.254   4.524  66.092  1.00  0.00    -0.106 A  
HETATM   13  C   UNL     1      -7.473   5.279  65.219  1.00  0.00    -0.077 A  
HETATM   14  O   UNL     1      -6.479   4.494  64.707  1.00  0.00    -0.037 OA 
HETATM   15  C   UNL     1      -6.617   3.257  65.243  1.00  0.00    -0.036 A  
HETATM   16  C   UNL     1      -7.703   3.215  66.082  1.00  0.00    -0.078 A  
ENDBRANCH   2   3
TORSDOF 1
ENDMDL
MODEL      191
REMARK 921   NORMALIZED FREE ENERGY PREDICTED BY IDOCK:   -1.99 KCAL/MOL
REMARK 922        TOTAL FREE ENERGY PREDICTED BY IDOCK:   -2.20 KCAL/MOL
REMARK 923 INTER-LIGAND FREE ENERGY PREDICTED BY IDOCK:   -2.27 KCAL/MOL
REMARK 924 INTRA-LIGAND FREE ENERGY PREDICTED BY IDOCK:    0.07 KCAL/MOL
REMARK 927      BINDING AFFINITY PREDICTED BY RF-SCORE:    0.00 PKD
ROOT
HETATM    1  C   UNL     1      -8.730   6.699  68.640  1.00  0.00    -0.124 C  
HETATM    2  O   UNL     1      -8.983   7.582  67.550  1.00  0.00    -0.126 OA 
ENDROOT
BRANCH   2   3
HETATM    3  C   UNL     1      -9.111   8.907  67.921  1.00  0.00    -0.139 A  
HETATM    4  C   UNL     1      -8.163   9.828  67.446  1.00  0.00    -0.114 A  
HETATM    5  O   UNL     1      -7.123   9.335  66.621  1.00  0.00    -0.080 OA 
HETATM    6  C   UNL     1      -6.084  10.140  66.189  1.00  0.00    -0.080 C  
HETATM    7  O   UNL     1      -5.133   9.711  65.545  1.00  0.00    -0.037 OA 
HETATM    8  C   UNL     1      -6.172  11.573  66.522  1.00  0.00    -0.072 C  
HETATM    9  C   UNL     1      -7.170  12.075  67.251  1.00  0.00    -0.150 C  
HETATM   10  C   UNL     1      -8.200  11.187  67.774  1.00  0.00    -0.119 A  
HETATM   11  C   UNL     1      -9.197  11.678  68.627  1.00  0.00    -0.112 A  
HETATM   12  C   UNL     1     -10.112  10.769  69.193  1.00  0.00    -0.224 A  
HETATM   13  C   UNL     1     -10.042   9.424  68.833  1.00  0.00    -0.190 A  
HETATM   14  O   UNL     1     -10.985   8.720  69.525  1.00  0.00    -0.186 OA 
HETATM   15  C   UNL     1     -11.649   9.595  70.319  1.00  0.00    -0.198 A  
HETATM   16  C   UNL     1     -11.168  10.870  70.138  1.00  0.00    -0.317 A  
ENDBRANCH   2   3
TORSDOF 1
ENDMDL
MODEL      192
REMARK 921   NORMALIZED FREE ENERGY PREDICTED BY IDOCK:   -1.97 KCAL/MOL
REMARK 922        TOTAL FREE ENERGY PREDICTED BY IDOCK:   -2.18 KCAL/MOL
REMARK 923 INTER-LIGAND FREE ENERGY PREDICTED BY IDOCK:   -2.11 KCAL/MOL
REMARK 924 INTRA-LIGAND FREE ENERGY PREDICTED BY IDOCK:   -0.07 KCAL/MOL
REMARK 927      BINDING AFFINITY PREDICTED BY RF-SCORE:    0.00 PKD
ROOT
HETATM    1  C   UNL     1     -10.911   6.700  69.583  1.00  0.00    -0.286 C  
HETATM    2  O   UNL     1     -10.722   6.810  70.992  1.00  0.00    -0.223 OA 
ENDROOT
BRANCH   2   3
HETATM    3  C   UNL     1      -9.487   6.372  71.428  1.00  0.00    -0.155 A  
HETATM    4  C   UNL     1      -9.428   5.204  72.205  1.00  0.00    -0.140 A  
HETATM    5  O   UNL     1     -10.649   4.551  72.503  1.00  0.00    -0.196 OA 
HETATM    6  C   UNL     1     -10.709   3.456  73.346  1.00  0.00    -0.207 C  
HETATM    7  O   UNL     1     -11.765   2.931  73.680  1.00  0.00    -0.146 OA 
HETATM    8  C   UNL     1      -9.424   2.916  73.825  1.00  0.00    -0.112 C  
HETATM    9  C   UNL     1      -8.254   3.477  73.513  1.00  0.00    -0.079 C  
HETATM   10  C   UNL     1      -8.228   4.687  72.703  1.00  0.00    -0.107 A  
HETATM   11  C   UNL     1      -7.019   5.351  72.453  1.00  0.00    -0.081 A  
HETATM   12  C   UNL     1      -7.049   6.572  71.753  1.00  0.00    -0.084 A  
HETATM   13  C   UNL     1      -8.267   7.047  71.269  1.00  0.00    -0.113 A  
HETATM   14  O   UNL     1      -8.075   8.255  70.665  1.00  0.00    -0.100 OA 
HETATM   15  C   UNL     1      -6.756   8.556  70.759  1.00  0.00    -0.043 A  
HETATM   16  C   UNL     1      -6.078   7.546  71.398  1.00  0.00    -0.036 A  
ENDBRANCH   2   3
TORSDOF 1
ENDMDL
MODEL      193
REMARK 921   NORMALIZED FREE ENERGY PREDICTED BY IDOCK:   -1.89 KCAL/MOL
REMARK 922        TOTAL FREE ENERGY PREDICTED BY IDOCK:   -2.09 KCAL/MOL
REMARK 923 INTER-LIGAND FREE ENERGY PREDICTED BY IDOCK:   -2.68 KCAL/MOL
REMARK 924 INTRA-LIGAND FREE ENERGY PREDICTED BY IDOCK:    0.58 KCAL/MOL
REMARK 927      BINDING AFFINITY PREDICTED BY RF-SCORE:    0.00 PKD
ROOT
HETATM    1  C   UNL     1      -8.416   8.832  68.426  1.00  0.00    -0.130 C  
HETATM    2  O   UNL     1      -9.144   9.333  67.307  1.00  0.00    -0.126 OA 
ENDROOT
BRANCH   2   3
HETATM    3  C   UNL     1      -8.437   9.307  66.121  1.00  0.00    -0.128 A  
HETATM    4  C   UNL     1      -8.946  10.020  65.023  1.00  0.00    -0.199 A  
HETATM    5  O   UNL     1     -10.166  10.717  65.202  1.00  0.00    -0.296 OA 
HETATM    6  C   UNL     1     -10.803  11.361  64.156  1.00  0.00    -0.365 C  
HETATM    7  O   UNL     1     -11.899  11.897  64.274  1.00  0.00    -0.331 OA 
HETATM    8  C   UNL     1     -10.090  11.399  62.867  1.00  0.00    -0.249 C  
HETATM    9  C   UNL     1      -8.912  10.799  62.686  1.00  0.00    -0.326 C  
HETATM   10  C   UNL     1      -8.311  10.045  63.778  1.00  0.00    -0.170 A  
HETATM   11  C   UNL     1      -7.127   9.321  63.578  1.00  0.00    -0.090 A  
HETATM   12  C   UNL     1      -6.635   8.524  64.629  1.00  0.00    -0.066 A  
HETATM   13  C   UNL     1      -7.297   8.534  65.855  1.00  0.00    -0.077 A  
HETATM   14  O   UNL     1      -6.681   7.666  66.709  1.00  0.00    -0.062 OA 
HETATM   15  C   UNL     1      -5.642   7.104  66.045  1.00  0.00    -0.031 A  
HETATM   16  C   UNL     1      -5.555   7.612  64.771  1.00  0.00    -0.033 A  
ENDBRANCH   2   3
TORSDOF 1
ENDMDL
MODEL      194
REMARK 921   NORMALIZED FREE ENERGY PREDICTED BY IDOCK:   -1.89 KCAL/MOL
REMARK 922        TOTAL FREE ENERGY PREDICTED BY IDOCK:   -2.09 KCAL/MOL
REMARK 923 INTER-LIGAND FREE ENERGY PREDICTED BY IDOCK:   -2.68 KCAL/MOL
REMARK 924 INTRA-LIGAND FREE ENERGY PREDICTED BY IDOCK:    0.59 KCAL/MOL
REMARK 927      BINDING AFFINITY PREDICTED BY RF-SCORE:    0.00 PKD
ROOT
HETATM    1  C   UNL     1      -9.862   3.550  65.621  1.00  0.00     0.009 C  
HETATM    2  O   UNL     1      -9.796   4.272  66.848  1.00  0.00    -0.210 OA 
ENDROOT
BRANCH   2   3
HETATM    3  C   UNL     1      -9.422   5.593  66.702  1.00  0.00    -0.147 A  
HETATM    4  C   UNL     1      -9.810   6.511  67.691  1.00  0.00    -0.125 A  
HETATM    5  O   UNL     1     -10.575   6.021  68.778  1.00  0.00    -0.221 OA 
HETATM    6  C   UNL     1     -11.094   6.861  69.748  1.00  0.00    -0.271 C  
HETATM    7  O   UNL     1     -11.827   6.465  70.647  1.00  0.00    -0.367 OA 
HETATM    8  C   UNL     1     -10.710   8.281  69.671  1.00  0.00    -0.196 C  
HETATM    9  C   UNL     1      -9.943   8.760  68.690  1.00  0.00    -0.197 C  
HETATM   10  C   UNL     1      -9.491   7.871  67.628  1.00  0.00    -0.170 A  
HETATM   11  C   UNL     1      -8.774   8.375  66.534  1.00  0.00    -0.151 A  
HETATM   12  C   UNL     1      -8.444   7.501  65.480  1.00  0.00    -0.129 A  
HETATM   13  C   UNL     1      -8.777   6.152  65.589  1.00  0.00    -0.126 A  
HETATM   14  O   UNL     1      -8.407   5.501  64.448  1.00  0.00    -0.134 OA 
HETATM   15  C   UNL     1      -7.848   6.414  63.617  1.00  0.00    -0.110 A  
HETATM   16  C   UNL     1      -7.825   7.653  64.211  1.00  0.00    -0.135 A  
ENDBRANCH   2   3
TORSDOF 1
ENDMDL
MODEL      195
REMARK 921   NORMALIZED FREE ENERGY PREDICTED BY IDOCK:   -1.87 KCAL/MOL
REMARK 922        TOTAL FREE ENERGY PREDICTED BY IDOCK:   -2.07 KCAL/MOL
REMARK 923 INTER-LIGAND FREE ENERGY PREDICTED BY IDOCK:   -2.02 KCAL/MOL
REMARK 924 INTRA-LIGAND FREE ENERGY PREDICTED BY IDOCK:   -0.05 KCAL/MOL
REMARK 927      BINDING AFFINITY PREDICTED BY RF-SCORE:    0.00 PKD
ROOT
HETATM    1  C   UNL     1      -7.835   9.116  67.759  1.00  0.00    -0.100 C  
HETATM    2  O   UNL     1      -8.926   8.776  66.906  1.00  0.00    -0.127 OA 
ENDROOT
BRANCH   2   3
HETATM    3  C   UNL     1      -8.558   8.054  65.787  1.00  0.00    -0.153 A  
HETATM    4  C   UNL     1      -8.718   6.660  65.808  1.00  0.00    -0.116 A  
HETATM    5  O   UNL     1      -9.240   6.076  66.989  1.00  0.00    -0.118 OA 
HETATM    6  C   UNL     1      -9.338   4.705  67.149  1.00  0.00    -0.142 C  
HETATM    7  O   UNL     1      -9.708   4.183  68.194  1.00  0.00    -0.152 OA 
HETATM    8  C   UNL     1      -8.991   3.874  65.982  1.00  0.00    -0.133 C  
HETATM    9  C   UNL     1      -8.550   4.400  64.838  1.00  0.00    -0.130 C  
HETATM   10  C   UNL     1      -8.364   5.841  64.730  1.00  0.00    -0.116 A  
HETATM   11  C   UNL     1      -7.804   6.403  63.575  1.00  0.00    -0.110 A  
HETATM   12  C   UNL     1      -7.547   7.787  63.552  1.00  0.00    -0.126 A  
HETATM   13  C   UNL     1      -7.922   8.565  64.646  1.00  0.00    -0.143 A  
HETATM   14  O   UNL     1      -7.544   9.859  64.432  1.00  0.00    -0.133 OA 
HETATM   15  C   UNL     1      -6.934   9.914  63.222  1.00  0.00    -0.126 A  
HETATM   16  C   UNL     1      -6.929   8.675  62.630  1.00  0.00    -0.094 A  
ENDBRANCH   2   3
TORSDOF 1
ENDMDL
MODEL      196
REMARK 921   NORMALIZED FREE ENERGY PREDICTED BY IDOCK:   -1.78 KCAL/MOL
REMARK 922        TOTAL FREE ENERGY PREDICTED BY IDOCK:   -1.97 KCAL/MOL
REMARK 923 INTER-LIGAND FREE ENERGY PREDICTED BY IDOCK:   -2.76 KCAL/MOL
REMARK 924 INTRA-LIGAND FREE ENERGY PREDICTED BY IDOCK:    0.79 KCAL/MOL
REMARK 927      BINDING AFFINITY PREDICTED BY RF-SCORE:    0.00 PKD
ROOT
HETATM    1  C   UNL     1     -10.155   7.907  66.640  1.00  0.00    -0.240 C  
HETATM    2  O   UNL     1     -10.794   9.135  66.980  1.00  0.00    -0.182 OA 
ENDROOT
BRANCH   2   3
HETATM    3  C   UNL     1      -9.937  10.090  67.490  1.00  0.00    -0.190 A  
HETATM    4  C   UNL     1      -9.032   9.709  68.494  1.00  0.00    -0.124 A  
HETATM    5  O   UNL     1      -9.064   8.361  68.929  1.00  0.00    -0.146 OA 
HETATM    6  C   UNL     1      -8.288   7.912  69.983  1.00  0.00    -0.121 C  
HETATM    7  O   UNL     1      -8.365   6.771  70.426  1.00  0.00    -0.126 OA 
HETATM    8  C   UNL     1      -7.328   8.871  70.556  1.00  0.00    -0.078 C  
HETATM    9  C   UNL     1      -7.236  10.131  70.128  1.00  0.00    -0.162 C  
HETATM   10  C   UNL     1      -8.134  10.604  69.082  1.00  0.00    -0.143 A  
HETATM   11  C   UNL     1      -8.126  11.950  68.692  1.00  0.00    -0.086 A  
HETATM   12  C   UNL     1      -9.078  12.389  67.752  1.00  0.00    -0.193 A  
HETATM   13  C   UNL     1      -9.951  11.460  67.187  1.00  0.00    -0.192 A  
HETATM   14  O   UNL     1     -10.810  12.101  66.342  1.00  0.00    -0.251 OA 
HETATM   15  C   UNL     1     -10.498  13.420  66.364  1.00  0.00    -0.286 A  
HETATM   16  C   UNL     1      -9.429  13.648  67.195  1.00  0.00    -0.244 A  
ENDBRANCH   2   3
TORSDOF 1
ENDMDL
MODEL      197
REMARK 921   NORMALIZED FREE ENERGY PREDICTED BY IDOCK:   -1.66 KCAL/MOL
REMARK 922        TOTAL FREE ENERGY PREDICTED BY IDOCK:   -1.85 KCAL/MOL
REMARK 923 INTER-LIGAND FREE ENERGY PREDICTED BY IDOCK:   -1.80 KCAL/MOL
REMARK 924 INTRA-LIGAND FREE ENERGY PREDICTED BY IDOCK:   -0.05 KCAL/MOL
REMARK 927      BINDING AFFINITY PREDICTED BY RF-SCORE:    0.00 PKD
ROOT
HETATM    1  C   UNL     1      -6.841   7.700  69.973  1.00  0.00    -0.050 C  
HETATM    2  O   UNL     1      -8.189   7.546  69.537  1.00  0.00    -0.126 OA 
ENDROOT
BRANCH   2   3
HETATM    3  C   UNL     1      -8.353   7.659  68.171  1.00  0.00    -0.124 A  
HETATM    4  C   UNL     1      -8.472   6.484  67.411  1.00  0.00    -0.119 A  
HETATM    5  O   UNL     1      -8.405   5.248  68.101  1.00  0.00    -0.098 OA 
HETATM    6  C   UNL     1      -8.406   4.035  67.434  1.00  0.00    -0.098 C  
HETATM    7  O   UNL     1      -8.264   2.961  68.008  1.00  0.00    -0.075 OA 
HETATM    8  C   UNL     1      -8.608   4.079  65.975  1.00  0.00    -0.110 C  
HETATM    9  C   UNL     1      -8.732   5.228  65.307  1.00  0.00    -0.151 C  
HETATM   10  C   UNL     1      -8.629   6.493  66.022  1.00  0.00    -0.150 A  
HETATM   11  C   UNL     1      -8.651   7.709  65.326  1.00  0.00    -0.044 A  
HETATM   12  C   UNL     1      -8.446   8.903  66.042  1.00  0.00    -0.138 A  
HETATM   13  C   UNL     1      -8.300   8.847  67.427  1.00  0.00    -0.108 A  
HETATM   14  O   UNL     1      -8.072  10.103  67.910  1.00  0.00    -0.107 OA 
HETATM   15  C   UNL     1      -8.068  10.954  66.855  1.00  0.00    -0.137 A  
HETATM   16  C   UNL     1      -8.315  10.273  65.687  1.00  0.00    -0.159 A  
ENDBRANCH   2   3
TORSDOF 1
ENDMDL
MODEL      198
REMARK 921   NORMALIZED FREE ENERGY PREDICTED BY IDOCK:   -1.27 KCAL/MOL
REMARK 922        TOTAL FREE ENERGY PREDICTED BY IDOCK:   -1.44 KCAL/MOL
REMARK 923 INTER-LIGAND FREE ENERGY PREDICTED BY IDOCK:   -1.66 KCAL/MOL
REMARK 924 INTRA-LIGAND FREE ENERGY PREDICTED BY IDOCK:    0.23 KCAL/MOL
REMARK 927      BINDING AFFINITY PREDICTED BY RF-SCORE:    0.00 PKD
ROOT
HETATM    1  C   UNL     1      -5.829   9.725  64.614  1.00  0.00    -0.089 C  
HETATM    2  O   UNL     1      -7.111   9.132  64.421  1.00  0.00    -0.089 OA 
ENDROOT
BRANCH   2   3
HETATM    3  C   UNL     1      -7.528   8.342  65.475  1.00  0.00    -0.085 A  
HETATM    4  C   UNL     1      -7.910   8.971  66.671  1.00  0.00    -0.100 A  
HETATM    5  O   UNL     1      -7.832  10.384  66.724  1.00  0.00    -0.111 OA 
HETATM    6  C   UNL     1      -8.085  11.090  67.887  1.00  0.00    -0.114 C  
HETATM    7  O   UNL     1      -7.941  12.305  67.972  1.00  0.00    -0.130 OA 
HETATM    8  C   UNL     1      -8.564  10.314  69.044  1.00  0.00    -0.162 C  
HETATM    9  C   UNL     1      -8.702   8.987  69.005  1.00  0.00    -0.138 C  
HETATM   10  C   UNL     1      -8.335   8.259  67.797  1.00  0.00    -0.128 A  
HETATM   11  C   UNL     1      -8.372   6.858  67.771  1.00  0.00    -0.120 A  
HETATM   12  C   UNL     1      -7.913   6.190  66.620  1.00  0.00    -0.105 A  
HETATM   13  C   UNL     1      -7.504   6.940  65.518  1.00  0.00    -0.086 A  
HETATM   14  O   UNL     1      -7.061   6.100  64.537  1.00  0.00    -0.052 OA 
HETATM   15  C   UNL     1      -7.180   4.832  64.999  1.00  0.00    -0.064 A  
HETATM   16  C   UNL     1      -7.719   4.829  66.263  1.00  0.00    -0.091 A  
ENDBRANCH   2   3
TORSDOF 1
ENDMDL
MODEL      199
REMARK 921   NORMALIZED FREE ENERGY PREDICTED BY IDOCK:   -1.25 KCAL/MOL
REMARK 922        TOTAL FREE ENERGY PREDICTED BY IDOCK:   -1.42 KCAL/MOL
REMARK 923 INTER-LIGAND FREE ENERGY PREDICTED BY IDOCK:   -1.62 KCAL/MOL
REMARK 924 INTRA-LIGAND FREE ENERGY PREDICTED BY IDOCK:    0.20 KCAL/MOL
REMARK 927      BINDING AFFINITY PREDICTED BY RF-SCORE:    0.00 PKD
ROOT
HETATM    1  C   UNL     1      -9.579  10.721  69.063  1.00  0.00    -0.180 C  
HETATM    2  O   UNL     1      -9.747   9.306  69.077  1.00  0.00    -0.157 OA 
ENDROOT
BRANCH   2   3
HETATM    3  C   UNL     1      -8.591   8.600  68.807  1.00  0.00    -0.130 A  
HETATM    4  C   UNL     1      -8.670   7.485  67.958  1.00  0.00    -0.121 A  
HETATM    5  O   UNL     1      -9.943   7.146  67.437  1.00  0.00    -0.148 OA 
HETATM    6  C   UNL     1     -10.146   6.007  66.678  1.00  0.00    -0.174 C  
HETATM    7  O   UNL     1     -11.255   5.655  66.290  1.00  0.00    -0.024 OA 
HETATM    8  C   UNL     1      -8.950   5.223  66.325  1.00  0.00    -0.133 C  
HETATM    9  C   UNL     1      -7.730   5.551  66.755  1.00  0.00    -0.100 C  
HETATM   10  C   UNL     1      -7.559   6.700  67.634  1.00  0.00    -0.106 A  
HETATM   11  C   UNL     1      -6.304   6.999  68.181  1.00  0.00    -0.039 A  
HETATM   12  C   UNL     1      -6.203   8.056  69.105  1.00  0.00    -0.039 A  
HETATM   13  C   UNL     1      -7.335   8.816  69.394  1.00  0.00    -0.072 A  
HETATM   14  O   UNL     1      -7.025   9.751  70.338  1.00  0.00    -0.110 OA 
HETATM   15  C   UNL     1      -5.716   9.596  70.655  1.00  0.00    -0.061 A  
HETATM   16  C   UNL     1      -5.158   8.584  69.911  1.00  0.00    -0.029 A  
ENDBRANCH   2   3
TORSDOF 1
ENDMDL
MODEL      200
REMARK 921   NORMALIZED FREE ENERGY PREDICTED BY IDOCK:   -1.01 KCAL/MOL
REMARK 922        TOTAL FREE ENERGY PREDICTED BY IDOCK:   -1.16 KCAL/MOL
REMARK 923 INTER-LIGAND FREE ENERGY PREDICTED BY IDOCK:   -1.49 KCAL/MOL
REMARK 924 INTRA-LIGAND FREE ENERGY PREDICTED BY IDOCK:    0.33 KCAL/MOL
REMARK 927      BINDING AFFINITY PREDICTED BY RF-SCORE:    0.00 PKD
ROOT
HETATM    1  C   UNL     1      -9.126   8.171  71.822  1.00  0.00    -0.174 C  
HETATM    2  O   UNL     1      -7.967   7.381  72.075  1.00  0.00    -0.091 OA 
ENDROOT
BRANCH   2   3
HETATM    3  C   UNL     1      -7.888   6.238  71.305  1.00  0.00    -0.108 A  
HETATM    4  C   UNL     1      -7.714   6.375  69.919  1.00  0.00    -0.109 A  
HETATM    5  O   UNL     1      -7.640   7.689  69.394  1.00  0.00    -0.090 OA 
HETATM    6  C   UNL     1      -7.575   7.934  68.034  1.00  0.00    -0.113 C  
HETATM    7  O   UNL     1      -7.595   9.064  67.559  1.00  0.00    -0.088 OA 
HETATM    8  C   UNL     1      -7.458   6.758  67.153  1.00  0.00    -0.091 C  
HETATM    9  C   UNL     1      -7.468   5.510  67.624  1.00  0.00    -0.081 C  
HETATM   10  C   UNL     1      -7.636   5.280  69.053  1.00  0.00    -0.078 A  
HETATM   11  C   UNL     1      -7.754   3.977  69.556  1.00  0.00    -0.053 A  
HETATM   12  C   UNL     1      -8.018   3.802  70.928  1.00  0.00    -0.065 A  
HETATM   13  C   UNL     1      -8.082   4.923  71.754  1.00  0.00    -0.113 A  
HETATM   14  O   UNL     1      -8.387   4.531  73.026  1.00  0.00    -0.098 OA 
HETATM   15  C   UNL     1      -8.520   3.182  73.019  1.00  0.00    -0.080 A  
HETATM   16  C   UNL     1      -8.282   2.682  71.761  1.00  0.00    -0.061 A  
ENDBRANCH   2   3
TORSDOF 1
ENDMDL
MODEL      201
REMARK 921   NORMALIZED FREE ENERGY PREDICTED BY IDOCK:   -0.99 KCAL/MOL
REMARK 922        TOTAL FREE ENERGY PREDICTED BY IDOCK:   -1.14 KCAL/MOL
REMARK 923 INTER-LIGAND FREE ENERGY PREDICTED BY IDOCK:   -2.80 KCAL/MOL
REMARK 924 INTRA-LIGAND FREE ENERGY PREDICTED BY IDOCK:    1.66 KCAL/MOL
REMARK 927      BINDING AFFINITY PREDICTED BY RF-SCORE:    0.00 PKD
ROOT
HETATM    1  C   UNL     1     -11.121   6.302  69.523  1.00  0.00    -0.408 C  
HETATM    2  O   UNL     1     -10.782   6.902  68.275  1.00  0.00    -0.216 OA 
ENDROOT
BRANCH   2   3
HETATM    3  C   UNL     1      -9.862   7.926  68.376  1.00  0.00    -0.173 A  
HETATM    4  C   UNL     1      -9.108   8.034  69.556  1.00  0.00    -0.152 A  
HETATM    5  O   UNL     1      -9.351   7.084  70.579  1.00  0.00    -0.159 OA 
HETATM    6  C   UNL     1      -8.739   7.166  71.817  1.00  0.00    -0.117 C  
HETATM    7  O   UNL     1      -9.000   6.403  72.740  1.00  0.00    -0.126 OA 
HETATM    8  C   UNL     1      -7.721   8.218  71.985  1.00  0.00    -0.153 C  
HETATM    9  C   UNL     1      -7.431   9.091  71.019  1.00  0.00    -0.132 C  
HETATM   10  C   UNL     1      -8.161   9.042  69.759  1.00  0.00    -0.109 A  
HETATM   11  C   UNL     1      -7.946  10.014  68.773  1.00  0.00    -0.096 A  
HETATM   12  C   UNL     1      -8.745   9.990  67.613  1.00  0.00    -0.121 A  
HETATM   13  C   UNL     1      -9.672   8.963  67.450  1.00  0.00    -0.176 A  
HETATM   14  O   UNL     1     -10.362   9.156  66.288  1.00  0.00    -0.244 OA 
HETATM   15  C   UNL     1      -9.889  10.288  65.713  1.00  0.00    -0.257 A  
HETATM   16  C   UNL     1      -8.880  10.828  66.474  1.00  0.00    -0.162 A  
ENDBRANCH   2   3
TORSDOF 1
ENDMDL
MODEL      202
REMARK 921   NORMALIZED FREE ENERGY PREDICTED BY IDOCK:   -0.96 KCAL/MOL
REMARK 922        TOTAL FREE ENERGY PREDICTED BY IDOCK:   -1.11 KCAL/MOL
REMARK 923 INTER-LIGAND FREE ENERGY PREDICTED BY IDOCK:   -1.75 KCAL/MOL
REMARK 924 INTRA-LIGAND FREE ENERGY PREDICTED BY IDOCK:    0.65 KCAL/MOL
REMARK 927      BINDING AFFINITY PREDICTED BY RF-SCORE:    0.00 PKD
ROOT
HETATM    1  C   UNL     1     -11.871  17.383  73.522  1.00  0.00     0.644 C  
HETATM    2  O   UNL     1     -11.088  17.210  72.344  1.00  0.00     0.850 OA 
ENDROOT
BRANCH   2   3
HETATM    3  C   UNL     1     -11.620  16.305  71.446  1.00  0.00    -0.361 A  
HETATM    4  C   UNL     1     -11.151  16.322  70.122  1.00  0.00    -0.341 A  
HETATM    5  O   UNL     1     -10.164  17.281  69.788  1.00  0.00    -0.037 OA 
HETATM    6  C   UNL     1      -9.714  17.449  68.490  1.00  0.00    -0.304 C  
HETATM    7  O   UNL     1      -8.922  18.329  68.169  1.00  0.00    -0.285 OA 
HETATM    8  C   UNL     1     -10.217  16.497  67.484  1.00  0.00    -0.283 C  
HETATM    9  C   UNL     1     -11.105  15.547  67.783  1.00  0.00    -0.315 C  
HETATM   10  C   UNL     1     -11.635  15.456  69.137  1.00  0.00    -0.354 A  
HETATM   11  C   UNL     1     -12.645  14.535  69.446  1.00  0.00     0.024 A  
HETATM   12  C   UNL     1     -13.201  14.548  70.739  1.00  0.00    -0.313 A  
HETATM   13  C   UNL     1     -12.684  15.425  71.691  1.00  0.00    -0.410 A  
HETATM   14  O   UNL     1     -13.391  15.302  72.852  1.00  0.00    -0.443 OA 
HETATM   15  C   UNL     1     -14.350  14.365  72.651  1.00  0.00     0.136 A  
HETATM   16  C   UNL     1     -14.263  13.854  71.379  1.00  0.00     0.040 A  
ENDBRANCH   2   3
TORSDOF 1
ENDMDL
MODEL      203
REMARK 921   NORMALIZED FREE ENERGY PREDICTED BY IDOCK:    0.07 KCAL/MOL
REMARK 922        TOTAL FREE ENERGY PREDICTED BY IDOCK:   -0.02 KCAL/MOL
REMARK 923 INTER-LIGAND FREE ENERGY PREDICTED BY IDOCK:   -1.79 KCAL/MOL
REMARK 924 INTRA-LIGAND FREE ENERGY PREDICTED BY IDOCK:    1.77 KCAL/MOL
REMARK 927      BINDING AFFINITY PREDICTED BY RF-SCORE:    0.00 PKD
ROOT
HETATM    1  C   UNL     1     -10.912   6.540  69.145  1.00  0.00    -0.323 C  
HETATM    2  O   UNL     1      -9.723   7.228  68.764  1.00  0.00    -0.149 OA 
ENDROOT
BRANCH   2   3
HETATM    3  C   UNL     1      -8.853   7.464  69.810  1.00  0.00    -0.141 A  
HETATM    4  C   UNL     1      -9.103   6.840  71.042  1.00  0.00    -0.156 A  
HETATM    5  O   UNL     1     -10.247   6.010  71.138  1.00  0.00    -0.195 OA 
HETATM    6  C   UNL     1     -10.639   5.435  72.334  1.00  0.00    -0.224 C  
HETATM    7  O   UNL     1     -11.671   4.784  72.452  1.00  0.00     0.202 OA 
HETATM    8  C   UNL     1      -9.740   5.621  73.486  1.00  0.00    -0.156 C  
HETATM    9  C   UNL     1      -8.625   6.351  73.410  1.00  0.00    -0.128 C  
HETATM   10  C   UNL     1      -8.288   7.025  72.163  1.00  0.00    -0.107 A  
HETATM   11  C   UNL     1      -7.180   7.880  72.093  1.00  0.00    -0.088 A  
HETATM   12  C   UNL     1      -6.948   8.592  70.900  1.00  0.00    -0.057 A  
HETATM   13  C   UNL     1      -7.783   8.371  69.806  1.00  0.00    -0.093 A  
HETATM   14  O   UNL     1      -7.408   9.188  68.779  1.00  0.00    -0.073 OA 
HETATM   15  C   UNL     1      -6.352   9.924  69.204  1.00  0.00    -0.044 A  
HETATM   16  C   UNL     1      -6.015   9.582  70.491  1.00  0.00    -0.060 A  
ENDBRANCH   2   3
TORSDOF 1
ENDMDL
MODEL      204
REMARK 921   NORMALIZED FREE ENERGY PREDICTED BY IDOCK:    3.71 KCAL/MOL
REMARK 922        TOTAL FREE ENERGY PREDICTED BY IDOCK:    3.83 KCAL/MOL
REMARK 923 INTER-LIGAND FREE ENERGY PREDICTED BY IDOCK:    2.98 KCAL/MOL
REMARK 924 INTRA-LIGAND FREE ENERGY PREDICTED BY IDOCK:    0.86 KCAL/MOL
REMARK 927      BINDING AFFINITY PREDICTED BY RF-SCORE:    0.00 PKD
ROOT
HETATM    1  C   UNL     1     -11.590  12.788  65.596  1.00  0.00    -0.370 C  
HETATM    2  O   UNL     1     -10.634  11.731  65.644  1.00  0.00    -0.252 OA 
ENDROOT
BRANCH   2   3
HETATM    3  C   UNL     1     -10.356  11.284  66.921  1.00  0.00    -0.234 A  
HETATM    4  C   UNL     1     -10.145  12.237  67.931  1.00  0.00    -0.200 A  
HETATM    5  O   UNL     1     -10.220  13.604  67.570  1.00  0.00    -0.237 OA 
HETATM    6  C   UNL     1      -9.924  14.617  68.465  1.00  0.00    -0.235 C  
HETATM    7  O   UNL     1      -9.903  15.801  68.147  1.00  0.00    -0.208 OA 
HETATM    8  C   UNL     1      -9.649  14.215  69.856  1.00  0.00     1.130 C  
HETATM    9  C   UNL     1      -9.627  12.936  70.237  1.00  0.00     4.302 C  
HETATM   10  C   UNL     1      -9.846  11.886  69.252  1.00  0.00     0.401 A  
HETATM   11  C   UNL     1      -9.724  10.536  69.609  1.00  0.00    -0.092 A  
HETATM   12  C   UNL     1      -9.842   9.556  68.606  1.00  0.00    -0.173 A  
HETATM   13  C   UNL     1     -10.146   9.951  67.304  1.00  0.00    -0.211 A  
HETATM   14  O   UNL     1     -10.171   8.855  66.492  1.00  0.00    -0.284 OA 
HETATM   15  C   UNL     1      -9.885   7.772  67.255  1.00  0.00    -0.189 A  
HETATM   16  C   UNL     1      -9.696   8.143  68.565  1.00  0.00    -0.170 A  
ENDBRANCH   2   3
TORSDOF 1
ENDMDL
