MODEL        1
REMARK 921   NORMALIZED FREE ENERGY PREDICTED BY IDOCK:   -7.08 KCAL/MOL
REMARK 922        TOTAL FREE ENERGY PREDICTED BY IDOCK:   -8.35 KCAL/MOL
REMARK 923 INTER-LIGAND FREE ENERGY PREDICTED BY IDOCK:   -7.90 KCAL/MOL
REMARK 924 INTRA-LIGAND FREE ENERGY PREDICTED BY IDOCK:   -0.44 KCAL/MOL
REMARK 927      BINDING AFFINITY PREDICTED BY RF-SCORE:    0.00 PKD
ROOT
HETATM    1  C   UNL     1      -8.119  15.165  68.627  1.00  0.00    -0.154 C  
HETATM    2  C   UNL     1      -7.991  14.508  67.240  1.00  0.00    -0.216 C  
HETATM    3  C   UNL     1      -7.478  13.039  67.370  1.00  0.00    -0.136 C  
HETATM    4  C   UNL     1      -8.594  12.065  67.828  1.00  0.00    -0.157 C  
HETATM    5  C   UNL     1      -8.133  10.579  68.136  1.00  0.00    -0.113 C  
HETATM    6  C   UNL     1      -7.481  10.470  69.554  1.00  0.00    -0.146 C  
HETATM    7  C   UNL     1      -8.488   9.711  70.473  1.00  0.00    -0.128 C  
HETATM    8  C   UNL     1      -9.803   9.834  69.712  1.00  0.00    -0.234 C  
HETATM    9  O   UNL     1     -10.184  11.216  69.926  1.00  0.00    -0.372 OA 
HETATM   10  C   UNL     1      -9.287  14.623  66.438  1.00  0.00    -0.313 C  
HETATM   11  C   UNL     1      -9.325   9.557  68.248  1.00  0.00    -0.139 C  
HETATM   12  C   UNL     1     -10.361   9.715  67.146  1.00  0.00    -0.319 C  
HETATM   13  H   UNL     1     -11.004  11.293  69.451  1.00  0.00     0.000 HD 
HETATM   14  O   UNL     1     -11.286  16.830  64.440  1.00  0.00    -1.112 OA 
HETATM   15  C   UNL     1      -9.583  15.663  65.632  1.00  0.00    -0.319 C  
HETATM   16  C   UNL     1      -8.857   8.083  68.051  1.00  0.00    -0.128 C  
HETATM   17  C   UNL     1     -10.820  11.113  67.048  1.00  0.00    -0.284 C  
HETATM   18  C   UNL     1     -10.914  15.779  64.936  1.00  0.00    -0.427 C  
HETATM   19  C   UNL     1      -9.727  12.133  66.788  1.00  0.00    -0.215 C  
HETATM   20  O   UNL     1     -12.028  11.347  67.087  1.00  0.00    -0.532 OA 
HETATM   21  C   UNL     1     -11.811  14.570  64.925  1.00  0.00    -0.417 C  
HETATM   22  C   UNL     1     -10.345  13.538  66.625  1.00  0.00    -0.271 C  
HETATM   23  C   UNL     1     -11.143  13.473  65.305  1.00  0.00    -0.307 C  
HETATM   24  C   UNL     1     -11.217  13.983  67.836  1.00  0.00    -0.295 C  
ENDROOT
BRANCH   8  25
HETATM   25  C   UNL     1     -11.111   9.174  70.133  1.00  0.00    -0.222 C  
HETATM   26  O   UNL     1     -11.283   7.969  69.874  1.00  0.00    -0.177 OA 
BRANCH  25  27
HETATM   27  C   UNL     1     -12.237   9.952  70.741  1.00  0.00    -0.291 C  
HETATM   28  O   UNL     1     -13.176  10.259  69.708  1.00  0.00    -0.480 OA 
HETATM   29  H   UNL     1     -13.891  10.753  70.094  1.00  0.00     0.000 HD 
ENDBRANCH  25  27
ENDBRANCH   8  25
TORSDOF 2
ENDMDL
MODEL        2
REMARK 921   NORMALIZED FREE ENERGY PREDICTED BY IDOCK:   -6.96 KCAL/MOL
REMARK 922        TOTAL FREE ENERGY PREDICTED BY IDOCK:   -8.21 KCAL/MOL
REMARK 923 INTER-LIGAND FREE ENERGY PREDICTED BY IDOCK:   -8.62 KCAL/MOL
REMARK 924 INTRA-LIGAND FREE ENERGY PREDICTED BY IDOCK:    0.41 KCAL/MOL
REMARK 927      BINDING AFFINITY PREDICTED BY RF-SCORE:    0.00 PKD
ROOT
HETATM    1  C   UNL     1      -6.365  11.206  66.437  1.00  0.00    -0.116 C  
HETATM    2  C   UNL     1      -7.211  11.055  67.716  1.00  0.00    -0.091 C  
HETATM    3  C   UNL     1      -7.662  12.452  68.248  1.00  0.00    -0.140 C  
HETATM    4  C   UNL     1      -8.842  13.039  67.429  1.00  0.00    -0.203 C  
HETATM    5  C   UNL     1      -9.270  14.521  67.796  1.00  0.00    -0.194 C  
HETATM    6  C   UNL     1      -8.314  15.568  67.136  1.00  0.00    -0.243 C  
HETATM    7  C   UNL     1      -9.107  16.263  65.985  1.00  0.00    -0.332 C  
HETATM    8  C   UNL     1     -10.263  15.300  65.738  1.00  0.00    -0.349 C  
HETATM    9  O   UNL     1      -9.632  14.194  65.044  1.00  0.00    -0.511 OA 
HETATM   10  C   UNL     1      -8.374  10.084  67.513  1.00  0.00    -0.118 C  
HETATM   11  C   UNL     1     -10.667  14.941  67.207  1.00  0.00    -0.294 C  
HETATM   12  C   UNL     1     -11.741  13.878  67.382  1.00  0.00    -0.422 C  
HETATM   13  H   UNL     1     -10.353  13.593  64.890  1.00  0.00     0.000 HD 
HETATM   14  O   UNL     1      -9.273   6.617  67.343  1.00  0.00    -0.121 OA 
HETATM   15  C   UNL     1      -8.289   8.755  67.724  1.00  0.00    -0.118 C  
HETATM   16  C   UNL     1     -11.283  16.158  67.961  1.00  0.00    -0.291 C  
HETATM   17  C   UNL     1     -11.279  12.572  66.875  1.00  0.00    -0.303 C  
HETATM   18  C   UNL     1      -9.434   7.825  67.418  1.00  0.00    -0.144 C  
HETATM   19  C   UNL     1     -10.011  12.043  67.518  1.00  0.00    -0.199 C  
HETATM   20  O   UNL     1     -11.978  11.970  66.059  1.00  0.00    -0.559 OA 
HETATM   21  C   UNL     1     -10.782   8.435  67.143  1.00  0.00    -0.222 C  
HETATM   22  C   UNL     1      -9.684  10.640  66.962  1.00  0.00    -0.207 C  
HETATM   23  C   UNL     1     -10.807   9.726  67.497  1.00  0.00    -0.286 C  
HETATM   24  C   UNL     1      -9.558  10.596  65.410  1.00  0.00    -0.282 C  
ENDROOT
BRANCH   8  25
HETATM   25  C   UNL     1     -11.407  15.554  64.763  1.00  0.00    -0.357 C  
HETATM   26  O   UNL     1     -11.480  16.662  64.203  1.00  0.00    -1.131 OA 
BRANCH  25  27
HETATM   27  C   UNL     1     -12.505  14.559  64.547  1.00  0.00    -0.324 C  
HETATM   28  O   UNL     1     -12.246  13.866  63.324  1.00  0.00    -1.061 OA 
HETATM   29  H   UNL     1     -12.942  13.234  63.186  1.00  0.00     0.000 HD 
ENDBRANCH  25  27
ENDBRANCH   8  25
TORSDOF 2
ENDMDL
MODEL        3
REMARK 921   NORMALIZED FREE ENERGY PREDICTED BY IDOCK:   -6.61 KCAL/MOL
REMARK 922        TOTAL FREE ENERGY PREDICTED BY IDOCK:   -7.82 KCAL/MOL
REMARK 923 INTER-LIGAND FREE ENERGY PREDICTED BY IDOCK:   -7.33 KCAL/MOL
REMARK 924 INTRA-LIGAND FREE ENERGY PREDICTED BY IDOCK:   -0.49 KCAL/MOL
REMARK 927      BINDING AFFINITY PREDICTED BY RF-SCORE:    0.00 PKD
ROOT
HETATM    1  C   UNL     1     -10.454   9.198  71.759  1.00  0.00    -0.361 C  
HETATM    2  C   UNL     1     -11.533   8.831  70.723  1.00  0.00    -0.309 C  
HETATM    3  C   UNL     1     -12.273  10.109  70.218  1.00  0.00    -0.248 C  
HETATM    4  C   UNL     1     -11.430  10.908  69.190  1.00  0.00    -0.373 C  
HETATM    5  C   UNL     1     -12.031  12.302  68.734  1.00  0.00    -0.281 C  
HETATM    6  C   UNL     1     -11.754  13.415  69.798  1.00  0.00    -0.355 C  
HETATM    7  C   UNL     1     -10.669  14.368  69.205  1.00  0.00    -0.254 C  
HETATM    8  C   UNL     1     -10.058  13.533  68.086  1.00  0.00    -0.250 C  
HETATM    9  O   UNL     1      -9.248  12.563  68.798  1.00  0.00    -0.394 OA 
HETATM   10  C   UNL     1     -10.962   7.979  69.590  1.00  0.00    -0.106 C  
HETATM   11  C   UNL     1     -11.342  12.901  67.452  1.00  0.00    -0.355 C  
HETATM   12  C   UNL     1     -11.130  11.878  66.347  1.00  0.00    -0.359 C  
HETATM   13  H   UNL     1      -8.867  12.042  68.100  1.00  0.00     0.000 HD 
HETATM   14  O   UNL     1      -9.938   4.668  68.671  1.00  0.00    -0.144 OA 
HETATM   15  C   UNL     1     -10.900   6.632  69.620  1.00  0.00    -0.336 C  
HETATM   16  C   UNL     1     -12.234  13.967  66.747  1.00  0.00    -0.439 C  
HETATM   17  C   UNL     1     -10.435  10.683  66.860  1.00  0.00    -0.249 C  
HETATM   18  C   UNL     1     -10.240   5.841  68.520  1.00  0.00    -0.192 C  
HETATM   19  C   UNL     1     -11.134   9.972  68.004  1.00  0.00    -0.263 C  
HETATM   20  O   UNL     1      -9.417  10.295  66.286  1.00  0.00    -0.165 OA 
HETATM   21  C   UNL     1      -9.902   6.559  67.241  1.00  0.00    -0.175 C  
HETATM   22  C   UNL     1     -10.351   8.699  68.390  1.00  0.00    -0.239 C  
HETATM   23  C   UNL     1     -10.510   7.750  67.183  1.00  0.00    -0.413 C  
HETATM   24  C   UNL     1      -8.861   8.967  68.754  1.00  0.00    -0.137 C  
ENDROOT
BRANCH   8  25
HETATM   25  C   UNL     1      -8.999  14.035  67.111  1.00  0.00    -0.232 C  
HETATM   26  O   UNL     1      -9.357  14.739  66.149  1.00  0.00    -0.295 OA 
BRANCH  25  27
HETATM   27  C   UNL     1      -7.564  13.616  67.206  1.00  0.00    -0.055 C  
HETATM   28  O   UNL     1      -7.418  12.366  66.529  1.00  0.00    -0.353 OA 
HETATM   29  H   UNL     1      -6.508  12.100  66.589  1.00  0.00     0.000 HD 
ENDBRANCH  25  27
ENDBRANCH   8  25
TORSDOF 2
ENDMDL
MODEL        4
REMARK 921   NORMALIZED FREE ENERGY PREDICTED BY IDOCK:   -6.59 KCAL/MOL
REMARK 922        TOTAL FREE ENERGY PREDICTED BY IDOCK:   -7.80 KCAL/MOL
REMARK 923 INTER-LIGAND FREE ENERGY PREDICTED BY IDOCK:   -7.96 KCAL/MOL
REMARK 924 INTRA-LIGAND FREE ENERGY PREDICTED BY IDOCK:    0.16 KCAL/MOL
REMARK 927      BINDING AFFINITY PREDICTED BY RF-SCORE:    0.00 PKD
ROOT
HETATM    1  C   UNL     1     -10.305  18.316  66.133  1.00  0.00    -0.414 C  
HETATM    2  C   UNL     1     -10.311  17.916  67.620  1.00  0.00    -0.387 C  
HETATM    3  C   UNL     1     -11.227  16.674  67.855  1.00  0.00    -0.114 C  
HETATM    4  C   UNL     1     -10.550  15.352  67.409  1.00  0.00    -0.289 C  
HETATM    5  C   UNL     1     -11.459  14.054  67.465  1.00  0.00    -0.369 C  
HETATM    6  C   UNL     1     -12.403  13.969  66.220  1.00  0.00    -0.482 C  
HETATM    7  C   UNL     1     -11.867  12.824  65.306  1.00  0.00    -0.442 C  
HETATM    8  C   UNL     1     -10.438  12.632  65.802  1.00  0.00    -0.277 C  
HETATM    9  O   UNL     1      -9.743  13.790  65.273  1.00  0.00    -0.549 OA 
HETATM   10  C   UNL     1      -8.894  17.728  68.161  1.00  0.00    -0.267 C  
HETATM   11  C   UNL     1     -10.651  12.709  67.351  1.00  0.00    -0.240 C  
HETATM   12  C   UNL     1      -9.401  12.680  68.217  1.00  0.00    -0.195 C  
HETATM   13  H   UNL     1      -8.853  13.671  65.583  1.00  0.00     0.000 HD 
HETATM   14  O   UNL     1      -5.983  19.450  69.354  1.00  0.00    -0.241 OA 
HETATM   15  C   UNL     1      -8.157  18.721  68.699  1.00  0.00    -0.367 C  
HETATM   16  C   UNL     1     -11.456  11.489  67.894  1.00  0.00    -0.372 C  
HETATM   17  C   UNL     1      -8.563  13.869  67.975  1.00  0.00    -0.178 C  
HETATM   18  C   UNL     1      -6.729  18.509  69.131  1.00  0.00    -0.263 C  
HETATM   19  C   UNL     1      -9.248  15.201  68.216  1.00  0.00    -0.188 C  
HETATM   20  O   UNL     1      -7.374  13.711  67.694  1.00  0.00    -0.149 OA 
HETATM   21  C   UNL     1      -6.222  17.095  69.220  1.00  0.00    -0.224 C  
HETATM   22  C   UNL     1      -8.244  16.355  68.009  1.00  0.00    -0.169 C  
HETATM   23  C   UNL     1      -7.233  16.219  69.167  1.00  0.00    -0.213 C  
HETATM   24  C   UNL     1      -7.562  16.348  66.609  1.00  0.00    -0.288 C  
ENDROOT
BRANCH   8  25
HETATM   25  C   UNL     1      -9.486  11.552  65.302  1.00  0.00    -0.184 C  
HETATM   26  O   UNL     1      -8.539  11.205  66.031  1.00  0.00    -0.172 OA 
BRANCH  25  27
HETATM   27  C   UNL     1      -9.583  10.980  63.921  1.00  0.00    -0.272 C  
HETATM   28  O   UNL     1      -9.105  11.961  62.997  1.00  0.00    -0.658 OA 
HETATM   29  H   UNL     1      -9.166  11.598  62.121  1.00  0.00     0.000 HD 
ENDBRANCH  25  27
ENDBRANCH   8  25
TORSDOF 2
ENDMDL
MODEL        5
REMARK 921   NORMALIZED FREE ENERGY PREDICTED BY IDOCK:   -6.34 KCAL/MOL
REMARK 922        TOTAL FREE ENERGY PREDICTED BY IDOCK:   -7.52 KCAL/MOL
REMARK 923 INTER-LIGAND FREE ENERGY PREDICTED BY IDOCK:   -7.16 KCAL/MOL
REMARK 924 INTRA-LIGAND FREE ENERGY PREDICTED BY IDOCK:   -0.36 KCAL/MOL
REMARK 927      BINDING AFFINITY PREDICTED BY RF-SCORE:    0.00 PKD
ROOT
HETATM    1  C   UNL     1     -11.611  15.711  68.605  1.00  0.00    -0.391 C  
HETATM    2  C   UNL     1     -10.911  15.231  67.320  1.00  0.00    -0.327 C  
HETATM    3  C   UNL     1     -10.557  16.440  66.398  1.00  0.00    -0.236 C  
HETATM    4  C   UNL     1      -9.308  17.213  66.897  1.00  0.00    -0.260 C  
HETATM    5  C   UNL     1      -8.961  18.548  66.115  1.00  0.00    -0.123 C  
HETATM    6  C   UNL     1      -9.862  19.735  66.590  1.00  0.00    -0.538 C  
HETATM    7  C   UNL     1      -8.962  20.699  67.424  1.00  0.00    -0.361 C  
HETATM    8  C   UNL     1      -7.762  19.826  67.775  1.00  0.00    -0.288 C  
HETATM    9  O   UNL     1      -8.283  18.940  68.798  1.00  0.00    -0.344 OA 
HETATM   10  C   UNL     1      -9.709  14.339  67.629  1.00  0.00    -0.220 C  
HETATM   11  C   UNL     1      -7.517  19.098  66.412  1.00  0.00    -0.271 C  
HETATM   12  C   UNL     1      -6.444  18.020  66.393  1.00  0.00    -0.251 C  
HETATM   13  H   UNL     1      -7.535  18.395  69.017  1.00  0.00     0.000 HD 
HETATM   14  O   UNL     1      -8.711  11.028  68.579  1.00  0.00    -0.146 OA 
HETATM   15  C   UNL     1      -9.785  13.001  67.778  1.00  0.00    -0.218 C  
HETATM   16  C   UNL     1      -7.020  20.077  65.304  1.00  0.00    -0.299 C  
HETATM   17  C   UNL     1      -6.813  16.892  67.268  1.00  0.00    -0.166 C  
HETATM   18  C   UNL     1      -8.589  12.175  68.178  1.00  0.00    -0.177 C  
HETATM   19  C   UNL     1      -8.132  16.221  66.933  1.00  0.00    -0.270 C  
HETATM   20  O   UNL     1      -6.012  16.517  68.125  1.00  0.00    -0.109 OA 
HETATM   21  C   UNL     1      -7.234  12.828  68.130  1.00  0.00    -0.115 C  
HETATM   22  C   UNL     1      -8.359  15.011  67.865  1.00  0.00    -0.151 C  
HETATM   23  C   UNL     1      -7.282  13.984  67.456  1.00  0.00    -0.183 C  
HETATM   24  C   UNL     1      -8.308  15.370  69.379  1.00  0.00    -0.250 C  
ENDROOT
BRANCH   8  25
HETATM   25  C   UNL     1      -6.522  20.317  68.514  1.00  0.00    -0.305 C  
HETATM   26  O   UNL     1      -5.837  21.218  67.998  1.00  0.00    -0.338 OA 
BRANCH  25  27
HETATM   27  C   UNL     1      -6.039  19.672  69.777  1.00  0.00    -0.305 C  
HETATM   28  O   UNL     1      -6.525  20.437  70.882  1.00  0.00    -0.514 OA 
HETATM   29  H   UNL     1      -6.219  20.028  71.684  1.00  0.00     0.000 HD 
ENDBRANCH  25  27
ENDBRANCH   8  25
TORSDOF 2
ENDMDL
MODEL        6
REMARK 921   NORMALIZED FREE ENERGY PREDICTED BY IDOCK:   -6.33 KCAL/MOL
REMARK 922        TOTAL FREE ENERGY PREDICTED BY IDOCK:   -7.51 KCAL/MOL
REMARK 923 INTER-LIGAND FREE ENERGY PREDICTED BY IDOCK:   -7.31 KCAL/MOL
REMARK 924 INTRA-LIGAND FREE ENERGY PREDICTED BY IDOCK:   -0.20 KCAL/MOL
REMARK 927      BINDING AFFINITY PREDICTED BY RF-SCORE:    0.00 PKD
ROOT
HETATM    1  C   UNL     1     -10.311   9.182  71.689  1.00  0.00    -0.388 C  
HETATM    2  C   UNL     1     -11.425   8.826  70.687  1.00  0.00    -0.263 C  
HETATM    3  C   UNL     1     -12.179  10.110  70.219  1.00  0.00    -0.248 C  
HETATM    4  C   UNL     1     -11.370  10.918  69.171  1.00  0.00    -0.350 C  
HETATM    5  C   UNL     1     -11.984  12.318  68.750  1.00  0.00    -0.281 C  
HETATM    6  C   UNL     1     -11.668  13.419  69.815  1.00  0.00    -0.355 C  
HETATM    7  C   UNL     1     -10.603  14.376  69.194  1.00  0.00    -0.229 C  
HETATM    8  C   UNL     1     -10.031  13.551  68.047  1.00  0.00    -0.248 C  
HETATM    9  O   UNL     1      -9.200  12.573  68.722  1.00  0.00    -0.394 OA 
HETATM   10  C   UNL     1     -10.894   7.985  69.526  1.00  0.00    -0.135 C  
HETATM   11  C   UNL     1     -11.337  12.928  67.451  1.00  0.00    -0.355 C  
HETATM   12  C   UNL     1     -11.165  11.916  66.329  1.00  0.00    -0.392 C  
HETATM   13  H   UNL     1      -8.844  12.058  68.007  1.00  0.00     0.000 HD 
HETATM   14  O   UNL     1      -9.909   4.681  68.541  1.00  0.00    -0.156 OA 
HETATM   15  C   UNL     1     -10.834   6.637  69.541  1.00  0.00    -0.339 C  
HETATM   16  C   UNL     1     -12.251  14.002  66.787  1.00  0.00    -0.439 C  
HETATM   17  C   UNL     1     -10.455  10.714  66.807  1.00  0.00    -0.247 C  
HETATM   18  C   UNL     1     -10.213   5.856  68.411  1.00  0.00    -0.191 C  
HETATM   19  C   UNL     1     -11.116   9.993  67.967  1.00  0.00    -0.263 C  
HETATM   20  O   UNL     1      -9.457  10.330  66.196  1.00  0.00    -0.166 OA 
HETATM   21  C   UNL     1      -9.917   6.586  67.129  1.00  0.00    -0.203 C  
HETATM   22  C   UNL     1     -10.323   8.715  68.314  1.00  0.00    -0.252 C  
HETATM   23  C   UNL     1     -10.525   7.778  67.104  1.00  0.00    -0.413 C  
HETATM   24  C   UNL     1      -8.821   8.977  68.630  1.00  0.00    -0.137 C  
ENDROOT
BRANCH   8  25
HETATM   25  C   UNL     1      -9.005  14.062  67.042  1.00  0.00    -0.235 C  
HETATM   26  O   UNL     1      -7.969  13.398  66.856  1.00  0.00    -0.028 OA 
BRANCH  25  27
HETATM   27  C   UNL     1      -9.147  15.389  66.362  1.00  0.00    -0.314 C  
HETATM   28  O   UNL     1      -9.679  15.166  65.054  1.00  0.00    -0.288 OA 
HETATM   29  H   UNL     1      -9.770  16.007  64.622  1.00  0.00     0.000 HD 
ENDBRANCH  25  27
ENDBRANCH   8  25
TORSDOF 2
ENDMDL
MODEL        7
REMARK 921   NORMALIZED FREE ENERGY PREDICTED BY IDOCK:   -6.22 KCAL/MOL
REMARK 922        TOTAL FREE ENERGY PREDICTED BY IDOCK:   -7.39 KCAL/MOL
REMARK 923 INTER-LIGAND FREE ENERGY PREDICTED BY IDOCK:   -7.29 KCAL/MOL
REMARK 924 INTRA-LIGAND FREE ENERGY PREDICTED BY IDOCK:   -0.10 KCAL/MOL
REMARK 927      BINDING AFFINITY PREDICTED BY RF-SCORE:    0.00 PKD
ROOT
HETATM    1  C   UNL     1      -6.427  10.976  66.782  1.00  0.00    -0.124 C  
HETATM    2  C   UNL     1      -7.082  11.081  68.172  1.00  0.00    -0.074 C  
HETATM    3  C   UNL     1      -7.099  12.562  68.665  1.00  0.00    -0.100 C  
HETATM    4  C   UNL     1      -8.212  13.397  67.978  1.00  0.00    -0.161 C  
HETATM    5  C   UNL     1      -8.210  14.950  68.299  1.00  0.00    -0.145 C  
HETATM    6  C   UNL     1      -7.141  15.705  67.442  1.00  0.00    -0.241 C  
HETATM    7  C   UNL     1      -7.907  16.537  66.367  1.00  0.00    -0.324 C  
HETATM    8  C   UNL     1      -9.284  15.883  66.349  1.00  0.00    -0.309 C  
HETATM    9  O   UNL     1      -9.050  14.634  65.651  1.00  0.00    -0.433 OA 
HETATM   10  C   UNL     1      -8.461  10.423  68.199  1.00  0.00    -0.121 C  
HETATM   11  C   UNL     1      -9.538  15.684  67.880  1.00  0.00    -0.206 C  
HETATM   12  C   UNL     1     -10.797  14.927  68.274  1.00  0.00    -0.257 C  
HETATM   13  H   UNL     1      -9.909  14.226  65.639  1.00  0.00     0.000 HD 
HETATM   14  O   UNL     1     -10.183   7.284  68.392  1.00  0.00    -0.169 OA 
HETATM   15  C   UNL     1      -8.667   9.121  68.486  1.00  0.00    -0.129 C  
HETATM   16  C   UNL     1      -9.722  17.040  68.626  1.00  0.00    -0.282 C  
HETATM   17  C   UNL     1     -10.745  13.531  67.798  1.00  0.00    -0.252 C  
HETATM   18  C   UNL     1     -10.036   8.495  68.406  1.00  0.00    -0.187 C  
HETATM   19  C   UNL     1      -9.560  12.725  68.295  1.00  0.00    -0.211 C  
HETATM   20  O   UNL     1     -11.682  13.095  67.130  1.00  0.00    -0.339 OA 
HETATM   21  C   UNL     1     -11.223   9.411  68.278  1.00  0.00     0.129 C  
HETATM   22  C   UNL     1      -9.667  11.268  67.796  1.00  0.00    -0.184 C  
HETATM   23  C   UNL     1     -10.883  10.679  68.543  1.00  0.00    -0.275 C  
HETATM   24  C   UNL     1      -9.790  11.144  66.249  1.00  0.00    -0.253 C  
ENDROOT
BRANCH   8  25
HETATM   25  C   UNL     1     -10.467  16.381  65.525  1.00  0.00    -0.330 C  
HETATM   26  O   UNL     1     -10.732  17.597  65.534  1.00  0.00    -0.565 OA 
BRANCH  25  27
HETATM   27  C   UNL     1     -11.387  15.445  64.804  1.00  0.00    -0.376 C  
HETATM   28  O   UNL     1     -11.872  16.108  63.634  1.00  0.00    -1.370 OA 
HETATM   29  H   UNL     1     -12.455  15.514  63.176  1.00  0.00     0.000 HD 
ENDBRANCH  25  27
ENDBRANCH   8  25
TORSDOF 2
ENDMDL
MODEL        8
REMARK 921   NORMALIZED FREE ENERGY PREDICTED BY IDOCK:   -6.19 KCAL/MOL
REMARK 922        TOTAL FREE ENERGY PREDICTED BY IDOCK:   -7.36 KCAL/MOL
REMARK 923 INTER-LIGAND FREE ENERGY PREDICTED BY IDOCK:   -7.36 KCAL/MOL
REMARK 924 INTRA-LIGAND FREE ENERGY PREDICTED BY IDOCK:   -0.00 KCAL/MOL
REMARK 927      BINDING AFFINITY PREDICTED BY RF-SCORE:    0.00 PKD
ROOT
HETATM    1  C   UNL     1      -8.904  12.407  67.359  1.00  0.00    -0.188 C  
HETATM    2  C   UNL     1     -10.296  12.975  67.692  1.00  0.00    -0.222 C  
HETATM    3  C   UNL     1     -10.180  14.183  68.674  1.00  0.00    -0.238 C  
HETATM    4  C   UNL     1      -9.723  15.480  67.958  1.00  0.00    -0.207 C  
HETATM    5  C   UNL     1      -9.428  16.723  68.897  1.00  0.00    -0.246 C  
HETATM    6  C   UNL     1      -8.015  16.612  69.559  1.00  0.00     0.259 C  
HETATM    7  C   UNL     1      -7.095  17.672  68.875  1.00  0.00    -0.254 C  
HETATM    8  C   UNL     1      -7.849  17.999  67.591  1.00  0.00    -0.220 C  
HETATM    9  O   UNL     1      -7.623  16.829  66.765  1.00  0.00    -0.193 OA 
HETATM   10  C   UNL     1     -11.090  13.302  66.428  1.00  0.00    -0.313 C  
HETATM   11  C   UNL     1      -9.317  18.089  68.124  1.00  0.00    -0.287 C  
HETATM   12  C   UNL     1     -10.413  18.287  67.088  1.00  0.00    -0.417 C  
HETATM   13  H   UNL     1      -8.093  17.032  65.964  1.00  0.00     0.000 HD 
HETATM   14  O   UNL     1     -13.062  11.894  63.785  1.00  0.00    -0.665 OA 
HETATM   15  C   UNL     1     -11.888  12.420  65.791  1.00  0.00    -0.467 C  
HETATM   16  C   UNL     1      -9.527  19.316  69.063  1.00  0.00    -0.385 C  
HETATM   17  C   UNL     1     -10.498  17.127  66.181  1.00  0.00    -0.275 C  
HETATM   18  C   UNL     1     -12.576  12.760  64.494  1.00  0.00    -0.389 C  
HETATM   19  C   UNL     1     -10.756  15.796  66.862  1.00  0.00    -0.299 C  
HETATM   20  O   UNL     1     -10.452  17.317  64.966  1.00  0.00    -0.538 OA 
HETATM   21  C   UNL     1     -12.591  14.201  64.061  1.00  0.00    -0.045 C  
HETATM   22  C   UNL     1     -10.906  14.682  65.802  1.00  0.00    -0.326 C  
HETATM   23  C   UNL     1     -12.222  15.008  65.064  1.00  0.00    -0.080 C  
HETATM   24  C   UNL     1      -9.687  14.567  64.840  1.00  0.00     0.288 C  
ENDROOT
BRANCH   8  25
HETATM   25  C   UNL     1      -7.426  19.066  66.587  1.00  0.00    -0.228 C  
HETATM   26  O   UNL     1      -7.365  18.762  65.382  1.00  0.00    -0.491 OA 
BRANCH  25  27
HETATM   27  C   UNL     1      -6.970  20.427  67.015  1.00  0.00    -0.276 C  
HETATM   28  O   UNL     1      -8.126  21.247  67.199  1.00  0.00    -0.655 OA 
HETATM   29  H   UNL     1      -7.838  22.111  67.471  1.00  0.00     0.000 HD 
ENDBRANCH  25  27
ENDBRANCH   8  25
TORSDOF 2
ENDMDL
MODEL        9
REMARK 921   NORMALIZED FREE ENERGY PREDICTED BY IDOCK:   -6.12 KCAL/MOL
REMARK 922        TOTAL FREE ENERGY PREDICTED BY IDOCK:   -7.28 KCAL/MOL
REMARK 923 INTER-LIGAND FREE ENERGY PREDICTED BY IDOCK:   -7.07 KCAL/MOL
REMARK 924 INTRA-LIGAND FREE ENERGY PREDICTED BY IDOCK:   -0.21 KCAL/MOL
REMARK 927      BINDING AFFINITY PREDICTED BY RF-SCORE:    0.00 PKD
ROOT
HETATM    1  C   UNL     1      -6.005  11.166  66.829  1.00  0.00    -0.116 C  
HETATM    2  C   UNL     1      -6.589  11.315  68.246  1.00  0.00    -0.058 C  
HETATM    3  C   UNL     1      -7.310  12.691  68.404  1.00  0.00    -0.118 C  
HETATM    4  C   UNL     1      -8.708  12.702  67.730  1.00  0.00    -0.179 C  
HETATM    5  C   UNL     1      -9.453  14.101  67.705  1.00  0.00    -0.213 C  
HETATM    6  C   UNL     1      -8.911  15.012  66.554  1.00  0.00    -0.286 C  
HETATM    7  C   UNL     1     -10.015  15.080  65.453  1.00  0.00    -0.365 C  
HETATM    8  C   UNL     1     -10.900  13.883  65.784  1.00  0.00    -0.289 C  
HETATM    9  O   UNL     1     -10.107  12.751  65.345  1.00  0.00    -0.286 OA 
HETATM   10  C   UNL     1      -7.472  10.126  68.622  1.00  0.00    -0.084 C  
HETATM   11  C   UNL     1     -10.981  13.998  67.343  1.00  0.00    -0.302 C  
HETATM   12  C   UNL     1     -11.701  12.876  68.076  1.00  0.00    -0.401 C  
HETATM   13  H   UNL     1     -10.658  12.005  65.552  1.00  0.00     0.000 HD 
HETATM   14  O   UNL     1      -7.443   6.721  69.745  1.00  0.00    -0.087 OA 
HETATM   15  C   UNL     1      -7.011   9.004  69.211  1.00  0.00    -0.057 C  
HETATM   16  C   UNL     1     -11.781  15.256  67.799  1.00  0.00    -0.206 C  
HETATM   17  C   UNL     1     -10.990  11.595  67.910  1.00  0.00    -0.225 C  
HETATM   18  C   UNL     1      -7.904   7.819  69.475  1.00  0.00    -0.111 C  
HETATM   19  C   UNL     1      -9.549  11.591  68.385  1.00  0.00    -0.195 C  
HETATM   20  O   UNL     1     -11.615  10.616  67.501  1.00  0.00    -0.482 OA 
HETATM   21  C   UNL     1      -9.390   8.010  69.334  1.00  0.00    -0.155 C  
HETATM   22  C   UNL     1      -8.947  10.178  68.234  1.00  0.00    -0.120 C  
HETATM   23  C   UNL     1      -9.702   9.310  69.264  1.00  0.00    -0.169 C  
HETATM   24  C   UNL     1      -9.038   9.610  66.786  1.00  0.00    -0.171 C  
ENDROOT
BRANCH   8  25
HETATM   25  C   UNL     1     -12.198  13.541  65.061  1.00  0.00    -0.419 C  
HETATM   26  O   UNL     1     -13.227  14.180  65.346  1.00  0.00    -0.741 OA 
BRANCH  25  27
HETATM   27  C   UNL     1     -12.301  12.390  64.109  1.00  0.00    -0.467 C  
HETATM   28  O   UNL     1     -11.467  12.668  62.981  1.00  0.00    -0.763 OA 
HETATM   29  H   UNL     1     -11.532  11.937  62.377  1.00  0.00     0.000 HD 
ENDBRANCH  25  27
ENDBRANCH   8  25
TORSDOF 2
ENDMDL
MODEL       10
REMARK 921   NORMALIZED FREE ENERGY PREDICTED BY IDOCK:   -6.10 KCAL/MOL
REMARK 922        TOTAL FREE ENERGY PREDICTED BY IDOCK:   -7.26 KCAL/MOL
REMARK 923 INTER-LIGAND FREE ENERGY PREDICTED BY IDOCK:   -6.84 KCAL/MOL
REMARK 924 INTRA-LIGAND FREE ENERGY PREDICTED BY IDOCK:   -0.41 KCAL/MOL
REMARK 927      BINDING AFFINITY PREDICTED BY RF-SCORE:    0.00 PKD
ROOT
HETATM    1  C   UNL     1      -9.071  14.903  68.290  1.00  0.00    -0.179 C  
HETATM    2  C   UNL     1      -8.721  14.234  66.948  1.00  0.00    -0.202 C  
HETATM    3  C   UNL     1      -7.737  13.041  67.164  1.00  0.00    -0.049 C  
HETATM    4  C   UNL     1      -8.455  11.779  67.708  1.00  0.00    -0.147 C  
HETATM    5  C   UNL     1      -7.516  10.565  68.106  1.00  0.00    -0.090 C  
HETATM    6  C   UNL     1      -6.872  10.783  69.514  1.00  0.00    -0.116 C  
HETATM    7  C   UNL     1      -7.563   9.791  70.502  1.00  0.00    -0.110 C  
HETATM    8  C   UNL     1      -8.837   9.405  69.760  1.00  0.00    -0.183 C  
HETATM    9  O   UNL     1      -9.669  10.586  69.889  1.00  0.00    -0.425 OA 
HETATM   10  C   UNL     1      -9.974  13.844  66.165  1.00  0.00    -0.322 C  
HETATM   11  C   UNL     1      -8.287   9.207  68.309  1.00  0.00    -0.120 C  
HETATM   12  C   UNL     1      -9.310   8.925  67.219  1.00  0.00    -0.173 C  
HETATM   13  H   UNL     1     -10.463  10.346  69.426  1.00  0.00     0.000 HD 
HETATM   14  O   UNL     1     -12.598  15.093  64.063  1.00  0.00    -0.791 OA 
HETATM   15  C   UNL     1     -10.604  14.662  65.297  1.00  0.00    -0.409 C  
HETATM   16  C   UNL     1      -7.343   7.972  68.202  1.00  0.00    -0.096 C  
HETATM   17  C   UNL     1     -10.218  10.073  67.037  1.00  0.00    -0.237 C  
HETATM   18  C   UNL     1     -11.892  14.268  64.621  1.00  0.00    -0.448 C  
HETATM   19  C   UNL     1      -9.538  11.384  66.689  1.00  0.00    -0.211 C  
HETATM   20  O   UNL     1     -11.434   9.883  67.084  1.00  0.00     0.087 OA 
HETATM   21  C   UNL     1     -12.321  12.828  64.708  1.00  0.00    -0.540 C  
HETATM   22  C   UNL     1     -10.598  12.479  66.445  1.00  0.00    -0.271 C  
HETATM   23  C   UNL     1     -11.320  12.054  65.148  1.00  0.00    -0.359 C  
HETATM   24  C   UNL     1     -11.575  12.682  67.640  1.00  0.00    -0.414 C  
ENDROOT
BRANCH   8  25
HETATM   25  C   UNL     1      -9.843   8.369  70.250  1.00  0.00    -0.181 C  
HETATM   26  O   UNL     1      -9.619   7.166  70.026  1.00  0.00    -0.165 OA 
BRANCH  25  27
HETATM   27  C   UNL     1     -11.143   8.757  70.885  1.00  0.00    -0.268 C  
HETATM   28  O   UNL     1     -12.016   9.236  69.859  1.00  0.00    -0.426 OA 
HETATM   29  H   UNL     1     -12.840   9.483  70.262  1.00  0.00     0.000 HD 
ENDBRANCH  25  27
ENDBRANCH   8  25
TORSDOF 2
ENDMDL
MODEL       11
REMARK 921   NORMALIZED FREE ENERGY PREDICTED BY IDOCK:   -6.10 KCAL/MOL
REMARK 922        TOTAL FREE ENERGY PREDICTED BY IDOCK:   -7.25 KCAL/MOL
REMARK 923 INTER-LIGAND FREE ENERGY PREDICTED BY IDOCK:   -7.07 KCAL/MOL
REMARK 924 INTRA-LIGAND FREE ENERGY PREDICTED BY IDOCK:   -0.18 KCAL/MOL
REMARK 927      BINDING AFFINITY PREDICTED BY RF-SCORE:    0.00 PKD
ROOT
HETATM    1  C   UNL     1     -10.418  14.977  71.125  1.00  0.00     0.529 C  
HETATM    2  C   UNL     1     -11.626  15.002  70.171  1.00  0.00    -0.326 C  
HETATM    3  C   UNL     1     -11.849  16.437  69.598  1.00  0.00     0.186 C  
HETATM    4  C   UNL     1     -10.839  16.783  68.473  1.00  0.00    -0.345 C  
HETATM    5  C   UNL     1     -10.885  18.274  67.934  1.00  0.00    -0.232 C  
HETATM    6  C   UNL     1     -10.123  19.248  68.893  1.00  0.00    -0.434 C  
HETATM    7  C   UNL     1      -8.800  19.666  68.177  1.00  0.00    -0.370 C  
HETATM    8  C   UNL     1      -8.642  18.596  67.103  1.00  0.00    -0.269 C  
HETATM    9  O   UNL     1      -8.221  17.429  67.854  1.00  0.00    -0.215 OA 
HETATM   10  C   UNL     1     -11.512  13.933  69.085  1.00  0.00    -0.345 C  
HETATM   11  C   UNL     1     -10.112  18.482  66.579  1.00  0.00    -0.425 C  
HETATM   12  C   UNL     1     -10.392  17.397  65.551  1.00  0.00    -0.075 C  
HETATM   13  H   UNL     1      -8.123  16.762  67.184  1.00  0.00     0.000 HD 
HETATM   14  O   UNL     1     -11.918  10.438  68.389  1.00  0.00    -0.270 OA 
HETATM   15  C   UNL     1     -11.974  12.672  69.219  1.00  0.00    -0.301 C  
HETATM   16  C   UNL     1     -10.571  19.771  65.831  1.00  0.00    -0.557 C  
HETATM   17  C   UNL     1     -10.178  16.056  66.127  1.00  0.00    -0.324 C  
HETATM   18  C   UNL     1     -11.753  11.626  68.158  1.00  0.00    -0.295 C  
HETATM   19  C   UNL     1     -11.013  15.741  67.354  1.00  0.00    -0.279 C  
HETATM   20  O   UNL     1      -9.434  15.269  65.542  1.00  0.00    -0.281 OA 
HETATM   21  C   UNL     1     -11.256  12.080  66.812  1.00  0.00    -0.376 C  
HETATM   22  C   UNL     1     -10.758  14.287  67.806  1.00  0.00    -0.253 C  
HETATM   23  C   UNL     1     -11.359  13.409  66.687  1.00  0.00    -0.350 C  
HETATM   24  C   UNL     1      -9.259  13.971  68.081  1.00  0.00    -0.196 C  
ENDROOT
BRANCH   8  25
HETATM   25  C   UNL     1      -7.544  18.589  66.045  1.00  0.00    -0.197 C  
HETATM   26  O   UNL     1      -7.060  17.498  65.693  1.00  0.00    -0.367 OA 
BRANCH  25  27
HETATM   27  C   UNL     1      -6.950  19.853  65.503  1.00  0.00    -0.309 C  
HETATM   28  O   UNL     1      -6.304  19.548  64.265  1.00  0.00    -0.395 OA 
HETATM   29  H   UNL     1      -5.927  20.349  63.921  1.00  0.00     0.000 HD 
ENDBRANCH  25  27
ENDBRANCH   8  25
TORSDOF 2
ENDMDL
MODEL       12
REMARK 921   NORMALIZED FREE ENERGY PREDICTED BY IDOCK:   -6.09 KCAL/MOL
REMARK 922        TOTAL FREE ENERGY PREDICTED BY IDOCK:   -7.24 KCAL/MOL
REMARK 923 INTER-LIGAND FREE ENERGY PREDICTED BY IDOCK:   -6.84 KCAL/MOL
REMARK 924 INTRA-LIGAND FREE ENERGY PREDICTED BY IDOCK:   -0.39 KCAL/MOL
REMARK 927      BINDING AFFINITY PREDICTED BY RF-SCORE:    0.00 PKD
ROOT
HETATM    1  C   UNL     1     -13.135  10.549  69.841  1.00  0.00     0.348 C  
HETATM    2  C   UNL     1     -11.899  11.211  70.478  1.00  0.00    -0.448 C  
HETATM    3  C   UNL     1     -10.594  10.464  70.059  1.00  0.00    -0.282 C  
HETATM    4  C   UNL     1     -10.152  10.820  68.616  1.00  0.00    -0.194 C  
HETATM    5  C   UNL     1      -8.924   9.995  68.044  1.00  0.00    -0.128 C  
HETATM    6  C   UNL     1      -9.373   8.584  67.539  1.00  0.00    -0.169 C  
HETATM    7  C   UNL     1      -9.313   8.606  65.980  1.00  0.00    -0.284 C  
HETATM    8  C   UNL     1      -9.293  10.097  65.661  1.00  0.00    -0.199 C  
HETATM    9  O   UNL     1     -10.660  10.510  65.914  1.00  0.00    -0.181 OA 
HETATM   10  C   UNL     1     -11.850  12.712  70.193  1.00  0.00    -0.326 C  
HETATM   11  C   UNL     1      -8.292  10.618  66.744  1.00  0.00    -0.132 C  
HETATM   12  C   UNL     1      -8.097  12.124  66.830  1.00  0.00    -0.112 C  
HETATM   13  H   UNL     1     -10.648  11.439  65.716  1.00  0.00     0.000 HD 
HETATM   14  O   UNL     1     -13.187  15.899  71.149  1.00  0.00    -0.518 OA 
HETATM   15  C   UNL     1     -12.431  13.645  70.975  1.00  0.00    -0.456 C  
HETATM   16  C   UNL     1      -6.839  10.112  66.494  1.00  0.00    -0.090 C  
HETATM   17  C   UNL     1      -9.346  12.797  67.234  1.00  0.00    -0.200 C  
HETATM   18  C   UNL     1     -12.439  15.104  70.602  1.00  0.00    -0.388 C  
HETATM   19  C   UNL     1      -9.924  12.341  68.560  1.00  0.00    -0.175 C  
HETATM   20  O   UNL     1      -9.775  13.720  66.541  1.00  0.00    -0.277 OA 
HETATM   21  C   UNL     1     -11.537  15.550  69.482  1.00  0.00    -0.361 C  
HETATM   22  C   UNL     1     -11.176  13.175  68.905  1.00  0.00    -0.324 C  
HETATM   23  C   UNL     1     -10.645  14.599  69.177  1.00  0.00    -0.247 C  
HETATM   24  C   UNL     1     -12.274  13.141  67.801  1.00  0.00    -0.124 C  
ENDROOT
BRANCH   8  25
HETATM   25  C   UNL     1      -9.140  10.680  64.260  1.00  0.00    -0.220 C  
HETATM   26  O   UNL     1      -8.163  10.333  63.572  1.00  0.00    -0.158 OA 
BRANCH  25  27
HETATM   27  C   UNL     1     -10.058  11.740  63.733  1.00  0.00    -0.391 C  
HETATM   28  O   UNL     1     -11.165  11.096  63.097  1.00  0.00    -0.807 OA 
HETATM   29  H   UNL     1     -11.747  11.768  62.763  1.00  0.00     0.000 HD 
ENDBRANCH  25  27
ENDBRANCH   8  25
TORSDOF 2
ENDMDL
MODEL       13
REMARK 921   NORMALIZED FREE ENERGY PREDICTED BY IDOCK:   -6.03 KCAL/MOL
REMARK 922        TOTAL FREE ENERGY PREDICTED BY IDOCK:   -7.18 KCAL/MOL
REMARK 923 INTER-LIGAND FREE ENERGY PREDICTED BY IDOCK:   -7.10 KCAL/MOL
REMARK 924 INTRA-LIGAND FREE ENERGY PREDICTED BY IDOCK:   -0.08 KCAL/MOL
REMARK 927      BINDING AFFINITY PREDICTED BY RF-SCORE:    0.00 PKD
ROOT
HETATM    1  C   UNL     1     -10.230   9.178  71.656  1.00  0.00    -0.372 C  
HETATM    2  C   UNL     1     -11.320   8.856  70.618  1.00  0.00    -0.299 C  
HETATM    3  C   UNL     1     -12.077  10.153  70.191  1.00  0.00    -0.224 C  
HETATM    4  C   UNL     1     -11.256  11.011  69.194  1.00  0.00    -0.318 C  
HETATM    5  C   UNL     1     -11.875  12.423  68.821  1.00  0.00    -0.358 C  
HETATM    6  C   UNL     1     -11.591  13.480  69.938  1.00  0.00    -0.271 C  
HETATM    7  C   UNL     1     -10.523  14.472  69.380  1.00  0.00    -0.139 C  
HETATM    8  C   UNL     1      -9.921  13.702  68.210  1.00  0.00    -0.236 C  
HETATM    9  O   UNL     1      -9.094  12.703  68.859  1.00  0.00    -0.384 OA 
HETATM   10  C   UNL     1     -10.759   8.070  69.433  1.00  0.00    -0.167 C  
HETATM   11  C   UNL     1     -11.209  13.094  67.563  1.00  0.00    -0.314 C  
HETATM   12  C   UNL     1     -11.005  12.132  66.402  1.00  0.00    -0.327 C  
HETATM   13  H   UNL     1      -8.719  12.223  68.129  1.00  0.00     0.000 HD 
HETATM   14  O   UNL     1      -9.723   4.820  68.327  1.00  0.00    -0.143 OA 
HETATM   15  C   UNL     1     -10.686   6.724  69.391  1.00  0.00    -0.291 C  
HETATM   16  C   UNL     1     -12.120  14.187  66.927  1.00  0.00    -0.466 C  
HETATM   17  C   UNL     1     -10.293  10.917  66.842  1.00  0.00    -0.238 C  
HETATM   18  C   UNL     1     -10.036   5.997  68.242  1.00  0.00    -0.164 C  
HETATM   19  C   UNL     1     -10.970  10.142  67.957  1.00  0.00    -0.326 C  
HETATM   20  O   UNL     1      -9.281  10.569  66.234  1.00  0.00    -0.161 OA 
HETATM   21  C   UNL     1      -9.722   6.784  66.998  1.00  0.00    -0.200 C  
HETATM   22  C   UNL     1     -10.171   8.857  68.265  1.00  0.00    -0.239 C  
HETATM   23  C   UNL     1     -10.341   7.971  67.012  1.00  0.00    -0.414 C  
HETATM   24  C   UNL     1      -8.678   9.118  68.621  1.00  0.00    -0.129 C  
ENDROOT
BRANCH   8  25
HETATM   25  C   UNL     1      -8.880  14.264  67.248  1.00  0.00    -0.214 C  
HETATM   26  O   UNL     1      -7.756  13.734  67.207  1.00  0.00    -0.157 OA 
BRANCH  25  27
HETATM   27  C   UNL     1      -9.128  15.500  66.439  1.00  0.00    -0.316 C  
HETATM   28  O   UNL     1      -7.884  16.188  66.283  1.00  0.00    -0.236 OA 
HETATM   29  H   UNL     1      -8.041  16.972  65.770  1.00  0.00     0.000 HD 
ENDBRANCH  25  27
ENDBRANCH   8  25
TORSDOF 2
ENDMDL
MODEL       14
REMARK 921   NORMALIZED FREE ENERGY PREDICTED BY IDOCK:   -6.01 KCAL/MOL
REMARK 922        TOTAL FREE ENERGY PREDICTED BY IDOCK:   -7.15 KCAL/MOL
REMARK 923 INTER-LIGAND FREE ENERGY PREDICTED BY IDOCK:   -6.67 KCAL/MOL
REMARK 924 INTRA-LIGAND FREE ENERGY PREDICTED BY IDOCK:   -0.48 KCAL/MOL
REMARK 927      BINDING AFFINITY PREDICTED BY RF-SCORE:    0.00 PKD
ROOT
HETATM    1  C   UNL     1      -8.881   7.707  66.890  1.00  0.00    -0.142 C  
HETATM    2  C   UNL     1     -10.368   7.887  67.248  1.00  0.00    -0.377 C  
HETATM    3  C   UNL     1     -10.881   6.684  68.102  1.00  0.00    -0.334 C  
HETATM    4  C   UNL     1     -10.422   6.776  69.581  1.00  0.00    -0.243 C  
HETATM    5  C   UNL     1     -10.763   5.523  70.491  1.00  0.00    -0.310 C  
HETATM    6  C   UNL     1      -9.740   4.361  70.264  1.00  0.00    -0.281 C  
HETATM    7  C   UNL     1      -8.835   4.282  71.534  1.00  0.00    -0.147 C  
HETATM    8  C   UNL     1      -9.055   5.638  72.194  1.00  0.00    -0.140 C  
HETATM    9  O   UNL     1      -8.306   6.547  71.347  1.00  0.00    -0.123 OA 
HETATM   10  C   UNL     1     -10.634   9.243  67.900  1.00  0.00    -0.288 C  
HETATM   11  C   UNL     1     -10.604   5.798  72.032  1.00  0.00    -0.276 C  
HETATM   12  C   UNL     1     -11.206   7.123  72.475  1.00  0.00    -0.327 C  
HETATM   13  H   UNL     1      -8.443   7.392  71.759  1.00  0.00     0.000 HD 
HETATM   14  O   UNL     1     -11.083  12.742  67.257  1.00  0.00    -0.257 OA 
HETATM   15  C   UNL     1     -10.931  10.363  67.211  1.00  0.00    -0.306 C  
HETATM   16  C   UNL     1     -11.394   4.772  72.899  1.00  0.00    -0.258 C  
HETATM   17  C   UNL     1     -10.706   8.235  71.644  1.00  0.00    -0.256 C  
HETATM   18  C   UNL     1     -11.090  11.699  67.891  1.00  0.00    -0.247 C  
HETATM   19  C   UNL     1     -10.966   8.095  70.156  1.00  0.00    -0.223 C  
HETATM   20  O   UNL     1     -10.211   9.216  72.199  1.00  0.00    -0.227 OA 
HETATM   21  C   UNL     1     -11.195  11.717  69.392  1.00  0.00    -0.311 C  
HETATM   22  C   UNL     1     -10.470   9.355  69.414  1.00  0.00    -0.231 C  
HETATM   23  C   UNL     1     -11.415  10.487  69.873  1.00  0.00    -0.384 C  
HETATM   24  C   UNL     1      -8.969   9.681  69.668  1.00  0.00    -0.215 C  
ENDROOT
BRANCH   8  25
HETATM   25  C   UNL     1      -8.469   6.051  73.539  1.00  0.00    -0.119 C  
HETATM   26  O   UNL     1      -8.657   5.315  74.525  1.00  0.00    -0.109 OA 
BRANCH  25  27
HETATM   27  C   UNL     1      -7.776   7.364  73.738  1.00  0.00    -0.112 C  
HETATM   28  O   UNL     1      -8.613   8.192  74.550  1.00  0.00    -0.426 OA 
HETATM   29  H   UNL     1      -8.174   9.025  74.677  1.00  0.00     0.000 HD 
ENDBRANCH  25  27
ENDBRANCH   8  25
TORSDOF 2
ENDMDL
MODEL       15
REMARK 921   NORMALIZED FREE ENERGY PREDICTED BY IDOCK:   -6.00 KCAL/MOL
REMARK 922        TOTAL FREE ENERGY PREDICTED BY IDOCK:   -7.14 KCAL/MOL
REMARK 923 INTER-LIGAND FREE ENERGY PREDICTED BY IDOCK:   -6.92 KCAL/MOL
REMARK 924 INTRA-LIGAND FREE ENERGY PREDICTED BY IDOCK:   -0.22 KCAL/MOL
REMARK 927      BINDING AFFINITY PREDICTED BY RF-SCORE:    0.00 PKD
ROOT
HETATM    1  C   UNL     1     -10.217   4.768  69.024  1.00  0.00    -0.106 C  
HETATM    2  C   UNL     1      -9.074   5.407  69.834  1.00  0.00    -0.165 C  
HETATM    3  C   UNL     1      -8.270   6.415  68.955  1.00  0.00    -0.115 C  
HETATM    4  C   UNL     1      -9.016   7.763  68.776  1.00  0.00    -0.141 C  
HETATM    5  C   UNL     1      -8.351   8.796  67.773  1.00  0.00    -0.118 C  
HETATM    6  C   UNL     1      -8.681   8.436  66.287  1.00  0.00    -0.164 C  
HETATM    7  C   UNL     1      -9.696   9.500  65.764  1.00  0.00    -0.357 C  
HETATM    8  C   UNL     1     -10.242  10.110  67.050  1.00  0.00    -0.234 C  
HETATM    9  O   UNL     1     -11.124   9.078  67.560  1.00  0.00    -0.458 OA 
HETATM   10  C   UNL     1      -9.579   6.018  71.141  1.00  0.00    -0.195 C  
HETATM   11  C   UNL     1      -8.930  10.255  67.889  1.00  0.00    -0.131 C  
HETATM   12  C   UNL     1      -9.083  10.731  69.326  1.00  0.00    -0.056 C  
HETATM   13  H   UNL     1     -11.465   9.458  68.362  1.00  0.00     0.000 HD 
HETATM   14  O   UNL     1     -10.607   5.275  74.495  1.00  0.00    -0.304 OA 
HETATM   15  C   UNL     1      -9.674   5.338  72.302  1.00  0.00    -0.192 C  
HETATM   16  C   UNL     1      -7.964  11.321  67.291  1.00  0.00    -0.141 C  
HETATM   17  C   UNL     1      -9.842   9.753  70.128  1.00  0.00    -0.255 C  
HETATM   18  C   UNL     1     -10.269   5.957  73.541  1.00  0.00    -0.217 C  
HETATM   19  C   UNL     1      -9.245   8.358  70.177  1.00  0.00    -0.159 C  
HETATM   20  O   UNL     1     -10.823  10.138  70.764  1.00  0.00    -0.307 OA 
HETATM   21  C   UNL     1     -10.495   7.445  73.546  1.00  0.00    -0.396 C  
HETATM   22  C   UNL     1     -10.084   7.459  71.110  1.00  0.00    -0.189 C  
HETATM   23  C   UNL     1      -9.857   8.032  72.526  1.00  0.00    -0.330 C  
HETATM   24  C   UNL     1     -11.590   7.386  70.723  1.00  0.00    -0.317 C  
ENDROOT
BRANCH   8  25
HETATM   25  C   UNL     1     -11.215  11.283  67.105  1.00  0.00    -0.275 C  
HETATM   26  O   UNL     1     -12.117  11.271  67.963  1.00  0.00    -0.638 OA 
BRANCH  25  27
HETATM   27  C   UNL     1     -11.193  12.386  66.093  1.00  0.00    -0.322 C  
HETATM   28  O   UNL     1     -12.473  12.437  65.459  1.00  0.00    -0.643 OA 
HETATM   29  H   UNL     1     -12.459  13.136  64.817  1.00  0.00     0.000 HD 
ENDBRANCH  25  27
ENDBRANCH   8  25
TORSDOF 2
ENDMDL
MODEL       16
REMARK 921   NORMALIZED FREE ENERGY PREDICTED BY IDOCK:   -5.96 KCAL/MOL
REMARK 922        TOTAL FREE ENERGY PREDICTED BY IDOCK:   -7.10 KCAL/MOL
REMARK 923 INTER-LIGAND FREE ENERGY PREDICTED BY IDOCK:   -6.65 KCAL/MOL
REMARK 924 INTRA-LIGAND FREE ENERGY PREDICTED BY IDOCK:   -0.45 KCAL/MOL
REMARK 927      BINDING AFFINITY PREDICTED BY RF-SCORE:    0.00 PKD
ROOT
HETATM    1  C   UNL     1     -10.525   8.496  66.840  1.00  0.00    -0.345 C  
HETATM    2  C   UNL     1      -9.341   9.071  66.040  1.00  0.00    -0.305 C  
HETATM    3  C   UNL     1      -9.800  10.279  65.165  1.00  0.00    -0.389 C  
HETATM    4  C   UNL     1      -9.979  11.574  66.001  1.00  0.00    -0.258 C  
HETATM    5  C   UNL     1     -10.590  12.817  65.229  1.00  0.00    -0.312 C  
HETATM    6  C   UNL     1     -12.146  12.701  65.107  1.00  0.00    -0.508 C  
HETATM    7  C   UNL     1     -12.769  13.757  66.074  1.00  0.00    -0.407 C  
HETATM    8  C   UNL     1     -11.612  14.084  67.011  1.00  0.00    -0.371 C  
HETATM    9  O   UNL     1     -11.529  12.912  67.860  1.00  0.00    -0.276 OA 
HETATM   10  C   UNL     1      -8.153   9.399  66.944  1.00  0.00    -0.109 C  
HETATM   11  C   UNL     1     -10.426  14.182  65.995  1.00  0.00    -0.308 C  
HETATM   12  C   UNL     1      -9.036  14.383  66.580  1.00  0.00    -0.265 C  
HETATM   13  H   UNL     1     -10.808  13.116  68.445  1.00  0.00     0.000 HD 
HETATM   14  O   UNL     1      -5.372   7.995  68.719  1.00  0.00    -0.026 OA 
HETATM   15  C   UNL     1      -7.180   8.519  67.256  1.00  0.00    -0.084 C  
HETATM   16  C   UNL     1     -10.564  15.411  65.047  1.00  0.00    -0.445 C  
HETATM   17  C   UNL     1      -8.634  13.221  67.395  1.00  0.00    -0.204 C  
HETATM   18  C   UNL     1      -6.081   8.860  68.229  1.00  0.00    -0.053 C  
HETATM   19  C   UNL     1      -8.627  11.892  66.663  1.00  0.00    -0.163 C  
HETATM   20  O   UNL     1      -8.250  13.409  68.550  1.00  0.00    -0.150 OA 
HETATM   21  C   UNL     1      -5.918  10.300  68.633  1.00  0.00    -0.044 C  
HETATM   22  C   UNL     1      -8.110  10.778  67.599  1.00  0.00    -0.114 C  
HETATM   23  C   UNL     1      -6.619  11.107  67.827  1.00  0.00    -0.064 C  
HETATM   24  C   UNL     1      -8.911  10.655  68.928  1.00  0.00    -0.172 C  
ENDROOT
BRANCH   8  25
HETATM   25  C   UNL     1     -11.659  15.148  68.103  1.00  0.00    -0.341 C  
HETATM   26  O   UNL     1     -11.435  16.332  67.794  1.00  0.00    -0.162 OA 
BRANCH  25  27
HETATM   27  C   UNL     1     -11.848  14.800  69.547  1.00  0.00    -0.326 C  
HETATM   28  O   UNL     1     -10.570  14.480  70.101  1.00  0.00    -0.452 OA 
HETATM   29  H   UNL     1     -10.690  14.260  71.018  1.00  0.00     0.000 HD 
ENDBRANCH  25  27
ENDBRANCH   8  25
TORSDOF 2
ENDMDL
MODEL       17
REMARK 921   NORMALIZED FREE ENERGY PREDICTED BY IDOCK:   -5.84 KCAL/MOL
REMARK 922        TOTAL FREE ENERGY PREDICTED BY IDOCK:   -6.96 KCAL/MOL
REMARK 923 INTER-LIGAND FREE ENERGY PREDICTED BY IDOCK:   -7.31 KCAL/MOL
REMARK 924 INTRA-LIGAND FREE ENERGY PREDICTED BY IDOCK:    0.35 KCAL/MOL
REMARK 927      BINDING AFFINITY PREDICTED BY RF-SCORE:    0.00 PKD
ROOT
HETATM    1  C   UNL     1      -8.668  11.750  66.689  1.00  0.00    -0.186 C  
HETATM    2  C   UNL     1      -8.612  12.132  68.180  1.00  0.00    -0.177 C  
HETATM    3  C   UNL     1      -7.827  13.466  68.380  1.00  0.00    -0.138 C  
HETATM    4  C   UNL     1      -8.675  14.708  68.002  1.00  0.00    -0.167 C  
HETATM    5  C   UNL     1      -7.914  16.099  68.025  1.00  0.00    -0.150 C  
HETATM    6  C   UNL     1      -7.067  16.305  66.726  1.00  0.00    -0.200 C  
HETATM    7  C   UNL     1      -7.785  17.393  65.868  1.00  0.00    -0.093 C  
HETATM    8  C   UNL     1      -9.191  17.416  66.456  1.00  0.00    -0.266 C  
HETATM    9  O   UNL     1      -9.785  16.194  65.950  1.00  0.00    -0.319 OA 
HETATM   10  C   UNL     1     -10.003  12.152  68.811  1.00  0.00    -0.066 C  
HETATM   11  C   UNL     1      -8.873  17.347  67.987  1.00  0.00    -0.252 C  
HETATM   12  C   UNL     1     -10.061  17.224  68.929  1.00  0.00    -0.331 C  
HETATM   13  H   UNL     1     -10.662  16.208  66.317  1.00  0.00     0.000 HD 
HETATM   14  O   UNL     1     -12.622  10.100  70.149  1.00  0.00    -0.149 OA 
HETATM   15  C   UNL     1     -10.589  11.076  69.375  1.00  0.00    -0.212 C  
HETATM   16  C   UNL     1      -8.176  18.642  68.502  1.00  0.00    -0.370 C  
HETATM   17  C   UNL     1     -10.775  15.951  68.717  1.00  0.00    -0.265 C  
HETATM   18  C   UNL     1     -12.002  11.121  69.899  1.00  0.00    -0.363 C  
HETATM   19  C   UNL     1      -9.931  14.702  68.891  1.00  0.00    -0.228 C  
HETATM   20  O   UNL     1     -11.989  15.977  68.514  1.00  0.00    -0.273 OA 
HETATM   21  C   UNL     1     -12.656  12.468  70.045  1.00  0.00     0.109 C  
HETATM   22  C   UNL     1     -10.811  13.445  68.725  1.00  0.00    -0.275 C  
HETATM   23  C   UNL     1     -11.755  13.453  69.946  1.00  0.00    -0.337 C  
HETATM   24  C   UNL     1     -11.577  13.391  67.370  1.00  0.00    -0.394 C  
ENDROOT
BRANCH   8  25
HETATM   25  C   UNL     1     -10.288  18.388  66.036  1.00  0.00    -0.375 C  
HETATM   26  O   UNL     1     -10.919  18.161  64.988  1.00  0.00    -0.726 OA 
BRANCH  25  27
HETATM   27  C   UNL     1     -10.551  19.663  66.777  1.00  0.00    -0.486 C  
HETATM   28  O   UNL     1      -9.773  20.699  66.173  1.00  0.00    -0.621 OA 
HETATM   29  H   UNL     1      -9.940  21.508  66.643  1.00  0.00     0.000 HD 
ENDBRANCH  25  27
ENDBRANCH   8  25
TORSDOF 2
ENDMDL
MODEL       18
REMARK 921   NORMALIZED FREE ENERGY PREDICTED BY IDOCK:   -5.82 KCAL/MOL
REMARK 922        TOTAL FREE ENERGY PREDICTED BY IDOCK:   -6.94 KCAL/MOL
REMARK 923 INTER-LIGAND FREE ENERGY PREDICTED BY IDOCK:   -6.78 KCAL/MOL
REMARK 924 INTRA-LIGAND FREE ENERGY PREDICTED BY IDOCK:   -0.16 KCAL/MOL
REMARK 927      BINDING AFFINITY PREDICTED BY RF-SCORE:    0.00 PKD
ROOT
HETATM    1  C   UNL     1      -8.148   9.225  66.019  1.00  0.00    -0.110 C  
HETATM    2  C   UNL     1      -9.686   9.145  66.005  1.00  0.00    -0.358 C  
HETATM    3  C   UNL     1     -10.180   7.870  66.757  1.00  0.00    -0.358 C  
HETATM    4  C   UNL     1     -10.114   8.034  68.298  1.00  0.00    -0.227 C  
HETATM    5  C   UNL     1     -10.450   6.739  69.148  1.00  0.00    -0.240 C  
HETATM    6  C   UNL     1      -9.222   5.771  69.217  1.00  0.00    -0.135 C  
HETATM    7  C   UNL     1      -8.652   5.844  70.668  1.00  0.00    -0.133 C  
HETATM    8  C   UNL     1      -9.249   7.140  71.204  1.00  0.00    -0.157 C  
HETATM    9  O   UNL     1      -8.480   8.166  70.526  1.00  0.00    -0.119 OA 
HETATM   10  C   UNL     1     -10.324  10.434  66.522  1.00  0.00    -0.287 C  
HETATM   11  C   UNL     1     -10.716   7.032  70.672  1.00  0.00    -0.255 C  
HETATM   12  C   UNL     1     -11.621   8.232  70.906  1.00  0.00    -0.282 C  
HETATM   13  H   UNL     1      -8.853   8.975  70.860  1.00  0.00     0.000 HD 
HETATM   14  O   UNL     1     -11.185  13.805  65.657  1.00  0.00    -0.300 OA 
HETATM   15  C   UNL     1     -10.630  11.488  65.739  1.00  0.00    -0.315 C  
HETATM   16  C   UNL     1     -11.509   5.882  71.363  1.00  0.00    -0.191 C  
HETATM   17  C   UNL     1     -11.129   9.415  70.177  1.00  0.00    -0.242 C  
HETATM   18  C   UNL     1     -11.170  12.774  66.310  1.00  0.00    -0.300 C  
HETATM   19  C   UNL     1     -10.995   9.238  68.676  1.00  0.00    -0.039 C  
HETATM   20  O   UNL     1     -10.954  10.465  70.796  1.00  0.00    -0.262 OA 
HETATM   21  C   UNL     1     -11.636  12.769  67.741  1.00  0.00    -0.405 C  
HETATM   22  C   UNL     1     -10.553  10.567  68.026  1.00  0.00    -0.251 C  
HETATM   23  C   UNL     1     -11.756  11.518  68.203  1.00  0.00    -0.357 C  
HETATM   24  C   UNL     1      -9.234  11.146  68.618  1.00  0.00    -0.173 C  
ENDROOT
BRANCH   8  25
HETATM   25  C   UNL     1      -9.082   7.643  72.634  1.00  0.00    -0.157 C  
HETATM   26  O   UNL     1      -8.568   8.761  72.818  1.00  0.00    -0.412 OA 
BRANCH  25  27
HETATM   27  C   UNL     1      -9.408   6.791  73.822  1.00  0.00    -0.177 C  
HETATM   28  O   UNL     1     -10.693   7.181  74.311  1.00  0.00    -0.540 OA 
HETATM   29  H   UNL     1     -10.901   6.641  75.065  1.00  0.00     0.000 HD 
ENDBRANCH  25  27
ENDBRANCH   8  25
TORSDOF 2
ENDMDL
MODEL       19
REMARK 921   NORMALIZED FREE ENERGY PREDICTED BY IDOCK:   -5.76 KCAL/MOL
REMARK 922        TOTAL FREE ENERGY PREDICTED BY IDOCK:   -6.88 KCAL/MOL
REMARK 923 INTER-LIGAND FREE ENERGY PREDICTED BY IDOCK:   -6.66 KCAL/MOL
REMARK 924 INTRA-LIGAND FREE ENERGY PREDICTED BY IDOCK:   -0.22 KCAL/MOL
REMARK 927      BINDING AFFINITY PREDICTED BY RF-SCORE:    0.00 PKD
ROOT
HETATM    1  C   UNL     1     -12.658  12.733  65.270  1.00  0.00    -0.460 C  
HETATM    2  C   UNL     1     -11.161  12.410  65.107  1.00  0.00    -0.356 C  
HETATM    3  C   UNL     1     -10.363  13.685  64.689  1.00  0.00    -0.407 C  
HETATM    4  C   UNL     1     -10.118  14.642  65.885  1.00  0.00    -0.341 C  
HETATM    5  C   UNL     1      -9.449  16.036  65.531  1.00  0.00    -0.035 C  
HETATM    6  C   UNL     1     -10.503  17.043  64.964  1.00  0.00     0.202 C  
HETATM    7  C   UNL     1     -10.755  18.123  66.063  1.00  0.00    -0.164 C  
HETATM    8  C   UNL     1     -10.222  17.454  67.325  1.00  0.00    -0.324 C  
HETATM    9  O   UNL     1     -11.240  16.468  67.634  1.00  0.00    -0.197 OA 
HETATM   10  C   UNL     1     -10.592  11.724  66.348  1.00  0.00    -0.293 C  
HETATM   11  C   UNL     1      -8.901  16.812  66.785  1.00  0.00    -0.257 C  
HETATM   12  C   UNL     1      -8.123  15.930  67.749  1.00  0.00    -0.155 C  
HETATM   13  H   UNL     1     -10.908  16.050  68.421  1.00  0.00     0.000 HD 
HETATM   14  O   UNL     1     -10.363   8.604  68.101  1.00  0.00    -0.211 OA 
HETATM   15  C   UNL     1     -10.595  10.389  66.537  1.00  0.00    -0.220 C  
HETATM   16  C   UNL     1      -7.842  17.888  66.396  1.00  0.00    -0.307 C  
HETATM   17  C   UNL     1      -8.904  14.734  68.118  1.00  0.00    -0.170 C  
HETATM   18  C   UNL     1     -10.109   9.765  67.820  1.00  0.00    -0.180 C  
HETATM   19  C   UNL     1      -9.333  13.861  66.954  1.00  0.00    -0.265 C  
HETATM   20  O   UNL     1      -9.071  14.476  69.310  1.00  0.00    -0.040 OA 
HETATM   21  C   UNL     1      -9.351  10.636  68.785  1.00  0.00    -0.183 C  
HETATM   22  C   UNL     1     -10.066  12.607  67.477  1.00  0.00    -0.212 C  
HETATM   23  C   UNL     1      -8.980  11.784  68.205  1.00  0.00    -0.180 C  
HETATM   24  C   UNL     1     -11.288  12.930  68.386  1.00  0.00    -0.329 C  
ENDROOT
BRANCH   8  25
HETATM   25  C   UNL     1     -10.140  18.126  68.691  1.00  0.00    -0.392 C  
HETATM   26  O   UNL     1     -10.482  17.479  69.697  1.00  0.00    -0.129 OA 
BRANCH  25  27
HETATM   27  C   UNL     1      -9.775  19.570  68.849  1.00  0.00    -0.426 C  
HETATM   28  O   UNL     1     -10.536  20.108  69.932  1.00  0.00    -0.627 OA 
HETATM   29  H   UNL     1     -10.304  21.024  70.033  1.00  0.00     0.000 HD 
ENDBRANCH  25  27
ENDBRANCH   8  25
TORSDOF 2
ENDMDL
MODEL       20
REMARK 921   NORMALIZED FREE ENERGY PREDICTED BY IDOCK:   -5.74 KCAL/MOL
REMARK 922        TOTAL FREE ENERGY PREDICTED BY IDOCK:   -6.86 KCAL/MOL
REMARK 923 INTER-LIGAND FREE ENERGY PREDICTED BY IDOCK:   -6.34 KCAL/MOL
REMARK 924 INTRA-LIGAND FREE ENERGY PREDICTED BY IDOCK:   -0.52 KCAL/MOL
REMARK 927      BINDING AFFINITY PREDICTED BY RF-SCORE:    0.00 PKD
ROOT
HETATM    1  C   UNL     1     -12.325  13.910  65.835  1.00  0.00    -0.517 C  
HETATM    2  C   UNL     1     -12.128  13.886  67.362  1.00  0.00    -0.380 C  
HETATM    3  C   UNL     1     -11.880  12.429  67.865  1.00  0.00    -0.370 C  
HETATM    4  C   UNL     1     -10.432  11.949  67.580  1.00  0.00    -0.232 C  
HETATM    5  C   UNL     1     -10.129  10.429  67.916  1.00  0.00    -0.200 C  
HETATM    6  C   UNL     1     -10.646   9.483  66.782  1.00  0.00    -0.208 C  
HETATM    7  C   UNL     1      -9.396   8.942  66.020  1.00  0.00    -0.306 C  
HETATM    8  C   UNL     1      -8.301   9.923  66.422  1.00  0.00    -0.125 C  
HETATM    9  O   UNL     1      -8.624  11.115  65.661  1.00  0.00    -0.279 OA 
HETATM   10  C   UNL     1     -11.046  14.869  67.808  1.00  0.00    -0.313 C  
HETATM   11  C   UNL     1      -8.594  10.083  67.951  1.00  0.00    -0.121 C  
HETATM   12  C   UNL     1      -7.761  11.108  68.706  1.00  0.00    -0.136 C  
HETATM   13  H   UNL     1      -7.941  11.727  65.912  1.00  0.00     0.000 HD 
HETATM   14  O   UNL     1     -10.347  18.323  68.471  1.00  0.00    -0.372 OA 
HETATM   15  C   UNL     1     -11.285  16.159  68.120  1.00  0.00    -0.311 C  
HETATM   16  C   UNL     1      -8.303   8.773  68.745  1.00  0.00    -0.124 C  
HETATM   17  C   UNL     1      -8.025  12.471  68.210  1.00  0.00    -0.153 C  
HETATM   18  C   UNL     1     -10.171  17.115  68.462  1.00  0.00    -0.346 C  
HETATM   19  C   UNL     1      -9.472  12.918  68.292  1.00  0.00    -0.206 C  
HETATM   20  O   UNL     1      -7.074  13.172  67.862  1.00  0.00    -0.097 OA 
HETATM   21  C   UNL     1      -8.807  16.540  68.733  1.00  0.00    -0.255 C  
HETATM   22  C   UNL     1      -9.599  14.384  67.823  1.00  0.00    -0.216 C  
HETATM   23  C   UNL     1      -8.870  15.213  68.902  1.00  0.00    -0.205 C  
HETATM   24  C   UNL     1      -9.040  14.633  66.391  1.00  0.00    -0.242 C  
ENDROOT
BRANCH   8  25
HETATM   25  C   UNL     1      -6.835   9.794  66.023  1.00  0.00    -0.094 C  
HETATM   26  O   UNL     1      -6.171   8.847  66.483  1.00  0.00    -0.059 OA 
BRANCH  25  27
HETATM   27  C   UNL     1      -6.139  10.830  65.195  1.00  0.00     0.032 C  
HETATM   28  O   UNL     1      -5.480  11.740  66.078  1.00  0.00    -0.501 OA 
HETATM   29  H   UNL     1      -5.038  12.397  65.553  1.00  0.00     0.000 HD 
ENDBRANCH  25  27
ENDBRANCH   8  25
TORSDOF 2
ENDMDL
MODEL       21
REMARK 921   NORMALIZED FREE ENERGY PREDICTED BY IDOCK:   -5.72 KCAL/MOL
REMARK 922        TOTAL FREE ENERGY PREDICTED BY IDOCK:   -6.83 KCAL/MOL
REMARK 923 INTER-LIGAND FREE ENERGY PREDICTED BY IDOCK:   -6.38 KCAL/MOL
REMARK 924 INTRA-LIGAND FREE ENERGY PREDICTED BY IDOCK:   -0.45 KCAL/MOL
REMARK 927      BINDING AFFINITY PREDICTED BY RF-SCORE:    0.00 PKD
ROOT
HETATM    1  C   UNL     1     -10.463  14.191  68.737  1.00  0.00    -0.249 C  
HETATM    2  C   UNL     1      -9.593  14.348  67.477  1.00  0.00    -0.215 C  
HETATM    3  C   UNL     1      -8.259  13.551  67.623  1.00  0.00    -0.178 C  
HETATM    4  C   UNL     1      -8.458  12.028  67.405  1.00  0.00    -0.170 C  
HETATM    5  C   UNL     1      -7.190  11.117  67.684  1.00  0.00    -0.094 C  
HETATM    6  C   UNL     1      -7.006  10.855  69.216  1.00  0.00    -0.112 C  
HETATM    7  C   UNL     1      -7.389   9.366  69.484  1.00  0.00    -0.073 C  
HETATM    8  C   UNL     1      -8.191   8.992  68.243  1.00  0.00    -0.116 C  
HETATM    9  O   UNL     1      -9.457   9.669  68.448  1.00  0.00    -0.136 OA 
HETATM   10  C   UNL     1     -10.367  13.996  66.207  1.00  0.00    -0.294 C  
HETATM   11  C   UNL     1      -7.325   9.654  67.120  1.00  0.00    -0.087 C  
HETATM   12  C   UNL     1      -7.880   9.602  65.705  1.00  0.00    -0.107 C  
HETATM   13  H   UNL     1      -9.957   9.436  67.674  1.00  0.00     0.000 HD 
HETATM   14  O   UNL     1     -12.781  15.199  63.844  1.00  0.00    -0.759 OA 
HETATM   15  C   UNL     1     -11.095  14.884  65.500  1.00  0.00    -0.353 C  
HETATM   16  C   UNL     1      -5.941   8.955  66.956  1.00  0.00    -0.057 C  
HETATM   17  C   UNL     1      -9.136  10.369  65.601  1.00  0.00    -0.176 C  
HETATM   18  C   UNL     1     -11.919  14.469  64.308  1.00  0.00    -0.397 C  
HETATM   19  C   UNL     1      -9.031  11.831  65.991  1.00  0.00    -0.108 C  
HETATM   20  O   UNL     1     -10.132   9.819  65.131  1.00  0.00    -0.262 OA 
HETATM   21  C   UNL     1     -11.695  13.094  63.740  1.00  0.00    -0.519 C  
HETATM   22  C   UNL     1     -10.385  12.537  65.760  1.00  0.00    -0.288 C  
HETATM   23  C   UNL     1     -10.572  12.551  64.227  1.00  0.00    -0.395 C  
HETATM   24  C   UNL     1     -11.576  11.866  66.506  1.00  0.00    -0.328 C  
ENDROOT
BRANCH   8  25
HETATM   25  C   UNL     1      -8.729   7.596  67.949  1.00  0.00    -0.124 C  
HETATM   26  O   UNL     1      -7.922   6.686  67.687  1.00  0.00    -0.112 OA 
BRANCH  25  27
HETATM   27  C   UNL     1     -10.197   7.312  67.850  1.00  0.00    -0.191 C  
HETATM   28  O   UNL     1     -10.525   7.136  66.470  1.00  0.00    -0.487 OA 
HETATM   29  H   UNL     1     -11.456   6.955  66.406  1.00  0.00     0.000 HD 
ENDBRANCH  25  27
ENDBRANCH   8  25
TORSDOF 2
ENDMDL
MODEL       22
REMARK 921   NORMALIZED FREE ENERGY PREDICTED BY IDOCK:   -5.62 KCAL/MOL
REMARK 922        TOTAL FREE ENERGY PREDICTED BY IDOCK:   -6.72 KCAL/MOL
REMARK 923 INTER-LIGAND FREE ENERGY PREDICTED BY IDOCK:   -7.22 KCAL/MOL
REMARK 924 INTRA-LIGAND FREE ENERGY PREDICTED BY IDOCK:    0.51 KCAL/MOL
REMARK 927      BINDING AFFINITY PREDICTED BY RF-SCORE:    0.00 PKD
ROOT
HETATM    1  C   UNL     1      -8.154   9.415  68.107  1.00  0.00    -0.110 C  
HETATM    2  C   UNL     1      -9.267   8.817  67.226  1.00  0.00    -0.165 C  
HETATM    3  C   UNL     1     -10.584   9.642  67.362  1.00  0.00    -0.333 C  
HETATM    4  C   UNL     1     -10.534  10.966  66.555  1.00  0.00    -0.308 C  
HETATM    5  C   UNL     1     -11.765  11.945  66.753  1.00  0.00    -0.281 C  
HETATM    6  C   UNL     1     -11.628  12.769  68.076  1.00  0.00    -0.388 C  
HETATM    7  C   UNL     1     -11.291  14.239  67.677  1.00  0.00    -0.344 C  
HETATM    8  C   UNL     1     -10.803  14.099  66.240  1.00  0.00    -0.300 C  
HETATM    9  O   UNL     1      -9.482  13.519  66.392  1.00  0.00    -0.307 OA 
HETATM   10  C   UNL     1      -8.811   8.646  65.778  1.00  0.00    -0.231 C  
HETATM   11  C   UNL     1     -11.848  13.084  65.670  1.00  0.00    -0.445 C  
HETATM   12  C   UNL     1     -11.619  12.587  64.251  1.00  0.00    -0.435 C  
HETATM   13  H   UNL     1      -9.178  13.431  65.496  1.00  0.00     0.000 HD 
HETATM   14  O   UNL     1      -6.898   6.584  63.553  1.00  0.00    -0.046 OA 
HETATM   15  C   UNL     1      -8.200   7.539  65.307  1.00  0.00    -0.130 C  
HETATM   16  C   UNL     1     -13.276  13.703  65.575  1.00  0.00     0.059 C  
HETATM   17  C   UNL     1     -10.370  11.807  64.161  1.00  0.00    -0.331 C  
HETATM   18  C   UNL     1      -7.682   7.455  63.894  1.00  0.00    -0.124 C  
HETATM   19  C   UNL     1     -10.295  10.601  65.079  1.00  0.00    -0.341 C  
HETATM   20  O   UNL     1      -9.537  12.115  63.309  1.00  0.00    -0.327 OA 
HETATM   21  C   UNL     1      -8.111   8.520  62.922  1.00  0.00    -0.176 C  
HETATM   22  C   UNL     1      -8.982   9.829  64.828  1.00  0.00    -0.266 C  
HETATM   23  C   UNL     1      -9.133   9.234  63.411  1.00  0.00     0.051 C  
HETATM   24  C   UNL     1      -7.703  10.702  64.983  1.00  0.00     0.038 C  
ENDROOT
BRANCH   8  25
HETATM   25  C   UNL     1     -10.430  15.268  65.335  1.00  0.00    -0.398 C  
HETATM   26  O   UNL     1      -9.391  15.908  65.582  1.00  0.00    -0.343 OA 
BRANCH  25  27
HETATM   27  C   UNL     1     -11.329  15.743  64.235  1.00  0.00    -0.179 C  
HETATM   28  O   UNL     1     -11.200  17.163  64.135  1.00  0.00    -1.063 OA 
HETATM   29  H   UNL     1     -11.770  17.465  63.437  1.00  0.00     0.000 HD 
ENDBRANCH  25  27
ENDBRANCH   8  25
TORSDOF 2
ENDMDL
MODEL       23
REMARK 921   NORMALIZED FREE ENERGY PREDICTED BY IDOCK:   -5.54 KCAL/MOL
REMARK 922        TOTAL FREE ENERGY PREDICTED BY IDOCK:   -6.63 KCAL/MOL
REMARK 923 INTER-LIGAND FREE ENERGY PREDICTED BY IDOCK:   -6.13 KCAL/MOL
REMARK 924 INTRA-LIGAND FREE ENERGY PREDICTED BY IDOCK:   -0.50 KCAL/MOL
REMARK 927      BINDING AFFINITY PREDICTED BY RF-SCORE:    0.00 PKD
ROOT
HETATM    1  C   UNL     1      -9.187  10.922  68.599  1.00  0.00    -0.187 C  
HETATM    2  C   UNL     1     -10.555  10.249  68.382  1.00  0.00    -0.247 C  
HETATM    3  C   UNL     1     -10.392   8.899  67.616  1.00  0.00    -0.313 C  
HETATM    4  C   UNL     1      -9.878   7.760  68.535  1.00  0.00    -0.181 C  
HETATM    5  C   UNL     1      -9.534   6.390  67.815  1.00  0.00    -0.115 C  
HETATM    6  C   UNL     1      -8.129   6.446  67.129  1.00  0.00    -0.113 C  
HETATM    7  C   UNL     1      -7.164   5.555  67.971  1.00  0.00    -0.072 C  
HETATM    8  C   UNL     1      -7.898   5.418  69.300  1.00  0.00    -0.089 C  
HETATM    9  O   UNL     1      -7.718   6.719  69.914  1.00  0.00    -0.104 OA 
HETATM   10  C   UNL     1     -11.331  10.107  69.691  1.00  0.00    -0.289 C  
HETATM   11  C   UNL     1      -9.363   5.179  68.805  1.00  0.00    -0.166 C  
HETATM   12  C   UNL     1     -10.445   5.114  69.872  1.00  0.00    -0.296 C  
HETATM   13  H   UNL     1      -8.176   6.635  70.743  1.00  0.00     0.000 HD 
HETATM   14  O   UNL     1     -13.351  11.858  72.081  1.00  0.00    -0.503 OA 
HETATM   15  C   UNL     1     -12.162  11.050  70.179  1.00  0.00    -0.424 C  
HETATM   16  C   UNL     1      -9.524   3.804  68.089  1.00  0.00    -0.216 C  
HETATM   17  C   UNL     1     -10.576   6.406  70.571  1.00  0.00    -0.239 C  
HETATM   18  C   UNL     1     -12.830  10.906  71.522  1.00  0.00    -0.454 C  
HETATM   19  C   UNL     1     -10.893   7.592  69.680  1.00  0.00    -0.210 C  
HETATM   20  O   UNL     1     -10.517   6.426  71.801  1.00  0.00    -0.209 OA 
HETATM   21  C   UNL     1     -12.783   9.559  72.191  1.00  0.00    -0.442 C  
HETATM   22  C   UNL     1     -11.086   8.860  70.538  1.00  0.00    -0.288 C  
HETATM   23  C   UNL     1     -12.384   8.610  71.335  1.00  0.00    -0.344 C  
HETATM   24  C   UNL     1      -9.869   9.187  71.454  1.00  0.00    -0.354 C  
ENDROOT
BRANCH   8  25
HETATM   25  C   UNL     1      -7.426   4.554  70.464  1.00  0.00    -0.050 C  
HETATM   26  O   UNL     1      -7.453   3.316  70.339  1.00  0.00    -0.040 OA 
BRANCH  25  27
HETATM   27  C   UNL     1      -7.043   5.140  71.788  1.00  0.00    -0.074 C  
HETATM   28  O   UNL     1      -8.217   5.212  72.601  1.00  0.00    -0.111 OA 
HETATM   29  H   UNL     1      -7.975   5.583  73.441  1.00  0.00     0.000 HD 
ENDBRANCH  25  27
ENDBRANCH   8  25
TORSDOF 2
ENDMDL
MODEL       24
REMARK 921   NORMALIZED FREE ENERGY PREDICTED BY IDOCK:   -5.50 KCAL/MOL
REMARK 922        TOTAL FREE ENERGY PREDICTED BY IDOCK:   -6.59 KCAL/MOL
REMARK 923 INTER-LIGAND FREE ENERGY PREDICTED BY IDOCK:   -6.35 KCAL/MOL
REMARK 924 INTRA-LIGAND FREE ENERGY PREDICTED BY IDOCK:   -0.23 KCAL/MOL
REMARK 927      BINDING AFFINITY PREDICTED BY RF-SCORE:    0.00 PKD
ROOT
HETATM    1  C   UNL     1     -10.486   5.029  66.534  1.00  0.00    -0.325 C  
HETATM    2  C   UNL     1      -9.178   5.219  67.324  1.00  0.00    -0.114 C  
HETATM    3  C   UNL     1      -8.485   6.562  66.934  1.00  0.00    -0.114 C  
HETATM    4  C   UNL     1      -9.168   7.788  67.596  1.00  0.00    -0.146 C  
HETATM    5  C   UNL     1      -8.632   9.209  67.139  1.00  0.00    -0.122 C  
HETATM    6  C   UNL     1      -9.247   9.632  65.764  1.00  0.00    -0.264 C  
HETATM    7  C   UNL     1     -10.273  10.775  66.043  1.00  0.00    -0.310 C  
HETATM    8  C   UNL     1     -10.539  10.635  67.538  1.00  0.00    -0.252 C  
HETATM    9  O   UNL     1     -11.376   9.454  67.618  1.00  0.00    -0.397 OA 
HETATM   10  C   UNL     1      -9.400   5.072  68.829  1.00  0.00    -0.175 C  
HETATM   11  C   UNL     1      -9.090  10.389  68.075  1.00  0.00    -0.136 C  
HETATM   12  C   UNL     1      -8.952  10.073  69.556  1.00  0.00    -0.220 C  
HETATM   13  H   UNL     1     -11.542   9.366  68.550  1.00  0.00     0.000 HD 
HETATM   14  O   UNL     1      -9.850   2.706  71.486  1.00  0.00    -0.158 OA 
HETATM   15  C   UNL     1      -9.326   3.898  69.489  1.00  0.00    -0.246 C  
HETATM   16  C   UNL     1      -8.185  11.648  67.921  1.00  0.00    -0.141 C  
HETATM   17  C   UNL     1      -9.611   8.796  69.888  1.00  0.00    -0.177 C  
HETATM   18  C   UNL     1      -9.647   3.787  70.957  1.00  0.00    -0.179 C  
HETATM   19  C   UNL     1      -9.103   7.590  69.121  1.00  0.00    -0.138 C  
HETATM   20  O   UNL     1     -10.437   8.773  70.801  1.00  0.00    -0.200 OA 
HETATM   21  C   UNL     1      -9.778   5.061  71.748  1.00  0.00    -0.218 C  
HETATM   22  C   UNL     1      -9.813   6.312  69.617  1.00  0.00    -0.192 C  
HETATM   23  C   UNL     1      -9.299   6.105  71.059  1.00  0.00    -0.176 C  
HETATM   24  C   UNL     1     -11.366   6.386  69.535  1.00  0.00    -0.460 C  
ENDROOT
BRANCH   8  25
HETATM   25  C   UNL     1     -11.412  11.583  68.353  1.00  0.00    -0.298 C  
HETATM   26  O   UNL     1     -12.372  11.114  68.989  1.00  0.00    -0.479 OA 
BRANCH  25  27
HETATM   27  C   UNL     1     -11.222  13.069  68.320  1.00  0.00    -0.275 C  
HETATM   28  O   UNL     1     -10.688  13.479  69.580  1.00  0.00    -0.440 OA 
HETATM   29  H   UNL     1     -10.567  14.421  69.560  1.00  0.00     0.000 HD 
ENDBRANCH  25  27
ENDBRANCH   8  25
TORSDOF 2
ENDMDL
MODEL       25
REMARK 921   NORMALIZED FREE ENERGY PREDICTED BY IDOCK:   -5.50 KCAL/MOL
REMARK 922        TOTAL FREE ENERGY PREDICTED BY IDOCK:   -6.58 KCAL/MOL
REMARK 923 INTER-LIGAND FREE ENERGY PREDICTED BY IDOCK:   -6.24 KCAL/MOL
REMARK 924 INTRA-LIGAND FREE ENERGY PREDICTED BY IDOCK:   -0.34 KCAL/MOL
REMARK 927      BINDING AFFINITY PREDICTED BY RF-SCORE:    0.00 PKD
ROOT
HETATM    1  C   UNL     1     -13.516   9.990  70.662  1.00  0.00     0.014 C  
HETATM    2  C   UNL     1     -12.177  10.584  71.137  1.00  0.00    -0.496 C  
HETATM    3  C   UNL     1     -11.217   9.458  71.633  1.00  0.00    -0.431 C  
HETATM    4  C   UNL     1     -10.561   8.686  70.458  1.00  0.00    -0.248 C  
HETATM    5  C   UNL     1      -9.689   7.424  70.860  1.00  0.00    -0.169 C  
HETATM    6  C   UNL     1     -10.592   6.179  71.150  1.00  0.00    -0.300 C  
HETATM    7  C   UNL     1     -10.405   5.181  69.964  1.00  0.00    -0.347 C  
HETATM    8  C   UNL     1      -9.805   6.059  68.872  1.00  0.00    -0.140 C  
HETATM    9  O   UNL     1     -10.934   6.851  68.423  1.00  0.00    -0.393 OA 
HETATM   10  C   UNL     1     -11.549  11.484  70.073  1.00  0.00    -0.364 C  
HETATM   11  C   UNL     1      -8.770   6.893  69.698  1.00  0.00    -0.141 C  
HETATM   12  C   UNL     1      -8.034   7.999  68.957  1.00  0.00    -0.114 C  
HETATM   13  H   UNL     1     -10.560   7.398  67.742  1.00  0.00     0.000 HD 
HETATM   14  O   UNL     1     -11.668  14.741  68.577  1.00  0.00    -0.306 OA 
HETATM   15  C   UNL     1     -11.799  12.805  69.962  1.00  0.00    -0.352 C  
HETATM   16  C   UNL     1      -7.597   6.015  70.228  1.00  0.00    -0.095 C  
HETATM   17  C   UNL     1      -8.969   9.048  68.509  1.00  0.00    -0.133 C  
HETATM   18  C   UNL     1     -11.231  13.632  68.837  1.00  0.00    -0.270 C  
HETATM   19  C   UNL     1      -9.778   9.705  69.611  1.00  0.00    -0.230 C  
HETATM   20  O   UNL     1      -8.966   9.380  67.323  1.00  0.00    -0.129 OA 
HETATM   21  C   UNL     1     -10.142  13.022  67.995  1.00  0.00    -0.235 C  
HETATM   22  C   UNL     1     -10.651  10.834  69.023  1.00  0.00    -0.250 C  
HETATM   23  C   UNL     1      -9.649  11.919  68.572  1.00  0.00    -0.160 C  
HETATM   24  C   UNL     1     -11.591  10.365  67.874  1.00  0.00     0.072 C  
ENDROOT
BRANCH   8  25
HETATM   25  C   UNL     1      -9.335   5.549  67.514  1.00  0.00    -0.111 C  
HETATM   26  O   UNL     1      -8.320   4.831  67.463  1.00  0.00    -0.105 OA 
BRANCH  25  27
HETATM   27  C   UNL     1      -9.982   5.978  66.233  1.00  0.00    -0.031 C  
HETATM   28  O   UNL     1     -11.188   5.229  66.070  1.00  0.00    -0.780 OA 
HETATM   29  H   UNL     1     -11.600   5.501  65.258  1.00  0.00     0.000 HD 
ENDBRANCH  25  27
ENDBRANCH   8  25
TORSDOF 2
ENDMDL
MODEL       26
REMARK 921   NORMALIZED FREE ENERGY PREDICTED BY IDOCK:   -5.49 KCAL/MOL
REMARK 922        TOTAL FREE ENERGY PREDICTED BY IDOCK:   -6.58 KCAL/MOL
REMARK 923 INTER-LIGAND FREE ENERGY PREDICTED BY IDOCK:   -6.06 KCAL/MOL
REMARK 924 INTRA-LIGAND FREE ENERGY PREDICTED BY IDOCK:   -0.52 KCAL/MOL
REMARK 927      BINDING AFFINITY PREDICTED BY RF-SCORE:    0.00 PKD
ROOT
HETATM    1  C   UNL     1      -8.119  10.522  65.524  1.00  0.00    -0.155 C  
HETATM    2  C   UNL     1      -9.634  10.264  65.616  1.00  0.00    -0.289 C  
HETATM    3  C   UNL     1      -9.921   8.772  65.972  1.00  0.00    -0.153 C  
HETATM    4  C   UNL     1      -9.688   8.472  67.476  1.00  0.00    -0.209 C  
HETATM    5  C   UNL     1      -9.805   6.950  67.906  1.00  0.00    -0.155 C  
HETATM    6  C   UNL     1      -8.497   6.163  67.566  1.00  0.00    -0.108 C  
HETATM    7  C   UNL     1      -7.768   5.865  68.913  1.00  0.00    -0.091 C  
HETATM    8  C   UNL     1      -8.411   6.858  69.875  1.00  0.00    -0.140 C  
HETATM    9  O   UNL     1      -7.822   8.125  69.488  1.00  0.00    -0.100 OA 
HETATM   10  C   UNL     1     -10.320  11.250  66.561  1.00  0.00    -0.284 C  
HETATM   11  C   UNL     1      -9.915   6.738  69.461  1.00  0.00    -0.172 C  
HETATM   12  C   UNL     1     -10.890   7.692  70.133  1.00  0.00    -0.255 C  
HETATM   13  H   UNL     1      -8.223   8.744  70.087  1.00  0.00     0.000 HD 
HETATM   14  O   UNL     1     -11.574  14.596  66.865  1.00  0.00    -0.361 OA 
HETATM   15  C   UNL     1     -10.809  12.446  66.174  1.00  0.00    -0.308 C  
HETATM   16  C   UNL     1     -10.515   5.345  69.825  1.00  0.00    -0.378 C  
HETATM   17  C   UNL     1     -10.594   9.091  69.771  1.00  0.00    -0.228 C  
HETATM   18  C   UNL     1     -11.390  13.426  67.161  1.00  0.00    -0.315 C  
HETATM   19  C   UNL     1     -10.623   9.391  68.284  1.00  0.00    -0.256 C  
HETATM   20  O   UNL     1     -10.443   9.919  70.669  1.00  0.00    -0.292 OA 
HETATM   21  C   UNL     1     -11.682  12.935  68.553  1.00  0.00    -0.374 C  
HETATM   22  C   UNL     1     -10.381  10.897  68.045  1.00  0.00    -0.212 C  
HETATM   23  C   UNL     1     -11.635  11.598  68.610  1.00  0.00    -0.373 C  
HETATM   24  C   UNL     1      -9.058  11.426  68.674  1.00  0.00    -0.138 C  
ENDROOT
BRANCH   8  25
HETATM   25  C   UNL     1      -8.123   6.924  71.370  1.00  0.00    -0.109 C  
HETATM   26  O   UNL     1      -8.478   5.973  72.090  1.00  0.00    -0.124 OA 
BRANCH  25  27
HETATM   27  C   UNL     1      -7.534   8.140  72.016  1.00  0.00    -0.097 C  
HETATM   28  O   UNL     1      -8.597   8.893  72.605  1.00  0.00    -0.384 OA 
HETATM   29  H   UNL     1      -8.224   9.664  73.014  1.00  0.00     0.000 HD 
ENDBRANCH  25  27
ENDBRANCH   8  25
TORSDOF 2
ENDMDL
MODEL       27
REMARK 921   NORMALIZED FREE ENERGY PREDICTED BY IDOCK:   -5.45 KCAL/MOL
REMARK 922        TOTAL FREE ENERGY PREDICTED BY IDOCK:   -6.53 KCAL/MOL
REMARK 923 INTER-LIGAND FREE ENERGY PREDICTED BY IDOCK:   -6.13 KCAL/MOL
REMARK 924 INTRA-LIGAND FREE ENERGY PREDICTED BY IDOCK:   -0.40 KCAL/MOL
REMARK 927      BINDING AFFINITY PREDICTED BY RF-SCORE:    0.00 PKD
ROOT
HETATM    1  C   UNL     1     -11.359  14.645  70.694  1.00  0.00    -0.192 C  
HETATM    2  C   UNL     1     -11.888  14.672  69.249  1.00  0.00    -0.357 C  
HETATM    3  C   UNL     1     -11.865  16.124  68.678  1.00  0.00    -0.083 C  
HETATM    4  C   UNL     1     -10.439  16.567  68.258  1.00  0.00    -0.313 C  
HETATM    5  C   UNL     1     -10.288  18.081  67.810  1.00  0.00    -0.403 C  
HETATM    6  C   UNL     1     -10.200  19.033  69.048  1.00  0.00    -0.221 C  
HETATM    7  C   UNL     1      -8.726  19.540  69.143  1.00  0.00    -0.119 C  
HETATM    8  C   UNL     1      -7.965  18.534  68.287  1.00  0.00    -0.305 C  
HETATM    9  O   UNL     1      -7.929  17.347  69.120  1.00  0.00    -0.160 OA 
HETATM   10  C   UNL     1     -11.159  13.665  68.360  1.00  0.00    -0.289 C  
HETATM   11  C   UNL     1      -8.935  18.389  67.067  1.00  0.00    -0.275 C  
HETATM   12  C   UNL     1      -8.569  17.348  66.020  1.00  0.00    -0.108 C  
HETATM   13  H   UNL     1      -7.454  16.720  68.586  1.00  0.00     0.000 HD 
HETATM   14  O   UNL     1     -10.928  10.197  67.475  1.00  0.00    -0.298 OA 
HETATM   15  C   UNL     1     -11.545  12.382  68.203  1.00  0.00    -0.395 C  
HETATM   16  C   UNL     1      -9.012  19.695  66.220  1.00  0.00    -0.420 C  
HETATM   17  C   UNL     1      -8.607  15.989  66.592  1.00  0.00    -0.281 C  
HETATM   18  C   UNL     1     -10.739  11.400  67.393  1.00  0.00    -0.232 C  
HETATM   19  C   UNL     1      -9.939  15.578  67.190  1.00  0.00    -0.242 C  
HETATM   20  O   UNL     1      -7.620  15.263  66.467  1.00  0.00     0.080 OA 
HETATM   21  C   UNL     1      -9.640  11.943  66.518  1.00  0.00    -0.226 C  
HETATM   22  C   UNL     1      -9.871  14.114  67.676  1.00  0.00    -0.229 C  
HETATM   23  C   UNL     1      -9.743  13.272  66.388  1.00  0.00    -0.279 C  
HETATM   24  C   UNL     1      -8.720  13.844  68.689  1.00  0.00    -0.075 C  
ENDROOT
BRANCH   8  25
HETATM   25  C   UNL     1      -6.478  18.625  67.963  1.00  0.00    -0.214 C  
HETATM   26  O   UNL     1      -6.052  19.643  67.388  1.00  0.00    -0.188 OA 
BRANCH  25  27
HETATM   27  C   UNL     1      -5.537  17.485  68.207  1.00  0.00    -0.147 C  
HETATM   28  O   UNL     1      -5.131  17.527  69.577  1.00  0.00    -0.158 OA 
HETATM   29  H   UNL     1      -4.534  16.805  69.733  1.00  0.00     0.000 HD 
ENDBRANCH  25  27
ENDBRANCH   8  25
TORSDOF 2
ENDMDL
MODEL       28
REMARK 921   NORMALIZED FREE ENERGY PREDICTED BY IDOCK:   -5.31 KCAL/MOL
REMARK 922        TOTAL FREE ENERGY PREDICTED BY IDOCK:   -6.38 KCAL/MOL
REMARK 923 INTER-LIGAND FREE ENERGY PREDICTED BY IDOCK:   -5.91 KCAL/MOL
REMARK 924 INTRA-LIGAND FREE ENERGY PREDICTED BY IDOCK:   -0.47 KCAL/MOL
REMARK 927      BINDING AFFINITY PREDICTED BY RF-SCORE:    0.00 PKD
ROOT
HETATM    1  C   UNL     1     -10.628  13.607  66.237  1.00  0.00    -0.289 C  
HETATM    2  C   UNL     1     -11.470  12.318  66.211  1.00  0.00    -0.435 C  
HETATM    3  C   UNL     1     -11.233  11.528  64.885  1.00  0.00    -0.242 C  
HETATM    4  C   UNL     1      -9.888  10.756  64.895  1.00  0.00    -0.350 C  
HETATM    5  C   UNL     1      -9.485  10.049  63.534  1.00  0.00    -0.241 C  
HETATM    6  C   UNL     1      -8.870  11.071  62.522  1.00  0.00    -0.358 C  
HETATM    7  C   UNL     1      -7.340  10.775  62.433  1.00  0.00    -0.119 C  
HETATM    8  C   UNL     1      -7.078   9.953  63.689  1.00  0.00    -0.121 C  
HETATM    9  O   UNL     1      -7.132  10.940  64.751  1.00  0.00    -0.344 OA 
HETATM   10  C   UNL     1     -11.246  11.471  67.463  1.00  0.00    -0.360 C  
HETATM   11  C   UNL     1      -8.320   9.001  63.684  1.00  0.00    -0.178 C  
HETATM   12  C   UNL     1      -8.486   8.083  64.885  1.00  0.00    -0.066 C  
HETATM   13  H   UNL     1      -6.969  10.427  65.534  1.00  0.00     0.000 HD 
HETATM   14  O   UNL     1     -12.090  11.126  70.931  1.00  0.00    -0.346 OA 
HETATM   15  C   UNL     1     -11.960  11.606  68.600  1.00  0.00    -0.311 C  
HETATM   16  C   UNL     1      -8.280   7.989  62.499  1.00  0.00    -0.145 C  
HETATM   17  C   UNL     1      -8.714   8.860  66.118  1.00  0.00    -0.153 C  
HETATM   18  C   UNL     1     -11.639  10.814  69.841  1.00  0.00    -0.331 C  
HETATM   19  C   UNL     1      -9.919   9.781  66.085  1.00  0.00    -0.338 C  
HETATM   20  O   UNL     1      -7.994   8.651  67.095  1.00  0.00    -0.099 OA 
HETATM   21  C   UNL     1     -10.688   9.655  69.711  1.00  0.00    -0.269 C  
HETATM   22  C   UNL     1     -10.094  10.470  67.455  1.00  0.00    -0.225 C  
HETATM   23  C   UNL     1     -10.492   9.337  68.425  1.00  0.00    -0.246 C  
HETATM   24  C   UNL     1      -8.833  11.253  67.928  1.00  0.00    -0.142 C  
ENDROOT
BRANCH   8  25
HETATM   25  C   UNL     1      -5.739   9.317  64.043  1.00  0.00    -0.071 C  
HETATM   26  O   UNL     1      -5.179   8.594  63.199  1.00  0.00    -0.065 OA 
BRANCH  25  27
HETATM   27  C   UNL     1      -5.134   9.438  65.408  1.00  0.00    -0.035 C  
HETATM   28  O   UNL     1      -5.198   8.157  66.040  1.00  0.00    -0.025 OA 
HETATM   29  H   UNL     1      -4.814   8.233  66.906  1.00  0.00     0.000 HD 
ENDBRANCH  25  27
ENDBRANCH   8  25
TORSDOF 2
ENDMDL
MODEL       29
REMARK 921   NORMALIZED FREE ENERGY PREDICTED BY IDOCK:   -5.29 KCAL/MOL
REMARK 922        TOTAL FREE ENERGY PREDICTED BY IDOCK:   -6.35 KCAL/MOL
REMARK 923 INTER-LIGAND FREE ENERGY PREDICTED BY IDOCK:   -6.37 KCAL/MOL
REMARK 924 INTRA-LIGAND FREE ENERGY PREDICTED BY IDOCK:    0.02 KCAL/MOL
REMARK 927      BINDING AFFINITY PREDICTED BY RF-SCORE:    0.00 PKD
ROOT
HETATM    1  C   UNL     1      -9.684  16.068  70.325  1.00  0.00     0.615 C  
HETATM    2  C   UNL     1      -8.466  15.988  69.386  1.00  0.00    -0.146 C  
HETATM    3  C   UNL     1      -8.347  14.566  68.753  1.00  0.00    -0.149 C  
HETATM    4  C   UNL     1      -9.363  14.349  67.600  1.00  0.00    -0.200 C  
HETATM    5  C   UNL     1      -9.424  12.884  66.997  1.00  0.00    -0.235 C  
HETATM    6  C   UNL     1     -10.275  11.933  67.902  1.00  0.00    -0.203 C  
HETATM    7  C   UNL     1     -11.615  11.652  67.151  1.00  0.00    -0.291 C  
HETATM    8  C   UNL     1     -11.671  12.776  66.123  1.00  0.00    -0.403 C  
HETATM    9  O   UNL     1     -12.012  13.939  66.919  1.00  0.00    -0.396 OA 
HETATM   10  C   UNL     1      -8.478  17.109  68.347  1.00  0.00    -0.241 C  
HETATM   11  C   UNL     1     -10.188  12.796  65.624  1.00  0.00    -0.292 C  
HETATM   12  C   UNL     1      -9.807  13.899  64.649  1.00  0.00     0.235 C  
HETATM   13  H   UNL     1     -12.047  14.640  66.278  1.00  0.00     0.000 HD 
HETATM   14  O   UNL     1      -7.789  20.587  67.812  1.00  0.00    -0.267 OA 
HETATM   15  C   UNL     1      -7.922  18.322  68.543  1.00  0.00    -0.324 C  
HETATM   16  C   UNL     1      -9.819  11.509  64.826  1.00  0.00    -0.286 C  
HETATM   17  C   UNL     1      -9.925  15.227  65.281  1.00  0.00    -0.287 C  
HETATM   18  C   UNL     1      -8.043  19.428  67.526  1.00  0.00    -0.281 C  
HETATM   19  C   UNL     1      -9.088  15.422  66.531  1.00  0.00    -0.334 C  
HETATM   20  O   UNL     1     -10.596  16.094  64.721  1.00  0.00    -0.630 OA 
HETATM   21  C   UNL     1      -8.552  19.072  66.155  1.00  0.00    -0.208 C  
HETATM   22  C   UNL     1      -9.237  16.871  67.044  1.00  0.00    -0.246 C  
HETATM   23  C   UNL     1      -8.551  17.746  65.972  1.00  0.00    -0.044 C  
HETATM   24  C   UNL     1     -10.711  17.292  67.313  1.00  0.00    -0.215 C  
ENDROOT
BRANCH   8  25
HETATM   25  C   UNL     1     -12.748  12.915  65.052  1.00  0.00    -0.404 C  
HETATM   26  O   UNL     1     -13.407  13.969  65.001  1.00  0.00    -0.578 OA 
BRANCH  25  27
HETATM   27  C   UNL     1     -13.116  11.786  64.140  1.00  0.00     0.336 C  
HETATM   28  O   UNL     1     -12.260  11.839  62.996  1.00  0.00    -0.895 OA 
HETATM   29  H   UNL     1     -12.493  11.122  62.417  1.00  0.00     0.000 HD 
ENDBRANCH  25  27
ENDBRANCH   8  25
TORSDOF 2
ENDMDL
MODEL       30
REMARK 921   NORMALIZED FREE ENERGY PREDICTED BY IDOCK:   -5.24 KCAL/MOL
REMARK 922        TOTAL FREE ENERGY PREDICTED BY IDOCK:   -6.30 KCAL/MOL
REMARK 923 INTER-LIGAND FREE ENERGY PREDICTED BY IDOCK:   -6.17 KCAL/MOL
REMARK 924 INTRA-LIGAND FREE ENERGY PREDICTED BY IDOCK:   -0.13 KCAL/MOL
REMARK 927      BINDING AFFINITY PREDICTED BY RF-SCORE:    0.00 PKD
ROOT
HETATM    1  C   UNL     1     -11.606  11.270  70.046  1.00  0.00    -0.404 C  
HETATM    2  C   UNL     1     -11.730  11.271  68.511  1.00  0.00    -0.378 C  
HETATM    3  C   UNL     1     -12.139  12.685  67.990  1.00  0.00    -0.152 C  
HETATM    4  C   UNL     1     -10.946  13.676  67.984  1.00  0.00    -0.270 C  
HETATM    5  C   UNL     1     -11.295  15.179  67.617  1.00  0.00    -0.327 C  
HETATM    6  C   UNL     1     -11.896  15.938  68.846  1.00  0.00    -0.314 C  
HETATM    7  C   UNL     1     -10.813  16.943  69.349  1.00  0.00    -0.186 C  
HETATM    8  C   UNL     1      -9.533  16.406  68.719  1.00  0.00    -0.247 C  
HETATM    9  O   UNL     1      -9.240  15.228  69.512  1.00  0.00    -0.319 OA 
HETATM   10  C   UNL     1     -10.469  10.726  67.841  1.00  0.00    -0.233 C  
HETATM   11  C   UNL     1     -10.035  16.058  67.279  1.00  0.00    -0.242 C  
HETATM   12  C   UNL     1      -9.044  15.364  66.356  1.00  0.00    -0.350 C  
HETATM   13  H   UNL     1      -8.442  14.893  69.120  1.00  0.00     0.000 HD 
HETATM   14  O   UNL     1      -8.685   7.731  67.000  1.00  0.00    -0.125 OA 
HETATM   15  C   UNL     1     -10.269   9.421  67.565  1.00  0.00    -0.288 C  
HETATM   16  C   UNL     1     -10.407  17.333  66.462  1.00  0.00    -0.308 C  
HETATM   17  C   UNL     1      -8.685  14.031  66.875  1.00  0.00    -0.164 C  
HETATM   18  C   UNL     1      -8.969   8.918  66.991  1.00  0.00    -0.127 C  
HETATM   19  C   UNL     1      -9.851  13.082  67.079  1.00  0.00    -0.238 C  
HETATM   20  O   UNL     1      -7.495  13.747  67.014  1.00  0.00     0.018 OA 
HETATM   21  C   UNL     1      -7.994   9.933  66.460  1.00  0.00    -0.110 C  
HETATM   22  C   UNL     1      -9.335  11.703  67.542  1.00  0.00    -0.168 C  
HETATM   23  C   UNL     1      -8.574  11.132  66.326  1.00  0.00    -0.180 C  
HETATM   24  C   UNL     1      -8.460  11.762  68.829  1.00  0.00     0.005 C  
ENDROOT
BRANCH   8  25
HETATM   25  C   UNL     1      -8.171  17.085  68.817  1.00  0.00    -0.245 C  
HETATM   26  O   UNL     1      -7.223  16.453  69.317  1.00  0.00    -0.222 OA 
BRANCH  25  27
HETATM   27  C   UNL     1      -7.966  18.520  68.439  1.00  0.00    -0.315 C  
HETATM   28  O   UNL     1      -6.725  18.956  68.998  1.00  0.00    -0.278 OA 
HETATM   29  H   UNL     1      -6.594  19.866  68.758  1.00  0.00     0.000 HD 
ENDBRANCH  25  27
ENDBRANCH   8  25
TORSDOF 2
ENDMDL
MODEL       31
REMARK 921   NORMALIZED FREE ENERGY PREDICTED BY IDOCK:   -5.24 KCAL/MOL
REMARK 922        TOTAL FREE ENERGY PREDICTED BY IDOCK:   -6.29 KCAL/MOL
REMARK 923 INTER-LIGAND FREE ENERGY PREDICTED BY IDOCK:   -5.78 KCAL/MOL
REMARK 924 INTRA-LIGAND FREE ENERGY PREDICTED BY IDOCK:   -0.51 KCAL/MOL
REMARK 927      BINDING AFFINITY PREDICTED BY RF-SCORE:    0.00 PKD
ROOT
HETATM    1  C   UNL     1     -10.214  14.511  65.971  1.00  0.00    -0.329 C  
HETATM    2  C   UNL     1     -11.514  13.791  66.376  1.00  0.00    -0.351 C  
HETATM    3  C   UNL     1     -11.564  12.354  65.768  1.00  0.00    -0.449 C  
HETATM    4  C   UNL     1     -10.664  11.357  66.545  1.00  0.00    -0.325 C  
HETATM    5  C   UNL     1     -10.528   9.910  65.913  1.00  0.00    -0.072 C  
HETATM    6  C   UNL     1      -9.495   9.898  64.738  1.00  0.00    -0.356 C  
HETATM    7  C   UNL     1      -8.225   9.144  65.241  1.00  0.00    -0.135 C  
HETATM    8  C   UNL     1      -8.390   9.173  66.756  1.00  0.00    -0.123 C  
HETATM    9  O   UNL     1      -8.078  10.547  67.099  1.00  0.00    -0.117 OA 
HETATM   10  C   UNL     1     -11.724  13.812  67.890  1.00  0.00    -0.395 C  
HETATM   11  C   UNL     1      -9.913   8.845  66.895  1.00  0.00    -0.315 C  
HETATM   12  C   UNL     1     -10.504   8.903  68.295  1.00  0.00    -0.243 C  
HETATM   13  H   UNL     1      -8.181  10.566  68.044  1.00  0.00     0.000 HD 
HETATM   14  O   UNL     1     -12.800  15.830  70.651  1.00  0.00    -0.438 OA 
HETATM   15  C   UNL     1     -12.370  14.797  68.546  1.00  0.00     0.023 C  
HETATM   16  C   UNL     1     -10.241   7.384  66.461  1.00  0.00    -0.149 C  
HETATM   17  C   UNL     1     -10.446  10.275  68.836  1.00  0.00    -0.211 C  
HETATM   18  C   UNL     1     -12.468  14.821  70.050  1.00  0.00    -0.281 C  
HETATM   19  C   UNL     1     -11.156  11.326  68.003  1.00  0.00    -0.325 C  
HETATM   20  O   UNL     1      -9.927  10.459  69.937  1.00  0.00    -0.186 OA 
HETATM   21  C   UNL     1     -12.081  13.576  70.801  1.00  0.00    -0.351 C  
HETATM   22  C   UNL     1     -11.093  12.694  68.716  1.00  0.00    -0.307 C  
HETATM   23  C   UNL     1     -11.973  12.530  69.974  1.00  0.00    -0.372 C  
HETATM   24  C   UNL     1      -9.646  13.160  69.049  1.00  0.00     0.351 C  
ENDROOT
BRANCH   8  25
HETATM   25  C   UNL     1      -7.455   8.480  67.742  1.00  0.00    -0.097 C  
HETATM   26  O   UNL     1      -7.555   7.249  67.895  1.00  0.00    -0.105 OA 
BRANCH  25  27
HETATM   27  C   UNL     1      -6.505   9.244  68.612  1.00  0.00    -0.053 C  
HETATM   28  O   UNL     1      -7.199   9.626  69.802  1.00  0.00    -0.070 OA 
HETATM   29  H   UNL     1      -6.597  10.110  70.355  1.00  0.00     0.000 HD 
ENDBRANCH  25  27
ENDBRANCH   8  25
TORSDOF 2
ENDMDL
MODEL       32
REMARK 921   NORMALIZED FREE ENERGY PREDICTED BY IDOCK:   -5.24 KCAL/MOL
REMARK 922        TOTAL FREE ENERGY PREDICTED BY IDOCK:   -6.29 KCAL/MOL
REMARK 923 INTER-LIGAND FREE ENERGY PREDICTED BY IDOCK:   -6.45 KCAL/MOL
REMARK 924 INTRA-LIGAND FREE ENERGY PREDICTED BY IDOCK:    0.16 KCAL/MOL
REMARK 927      BINDING AFFINITY PREDICTED BY RF-SCORE:    0.00 PKD
ROOT
HETATM    1  C   UNL     1      -6.993  13.057  67.418  1.00  0.00    -0.123 C  
HETATM    2  C   UNL     1      -8.082  13.500  68.413  1.00  0.00    -0.145 C  
HETATM    3  C   UNL     1      -7.673  14.827  69.126  1.00  0.00    -0.144 C  
HETATM    4  C   UNL     1      -7.872  16.068  68.218  1.00  0.00    -0.144 C  
HETATM    5  C   UNL     1      -7.340  17.444  68.799  1.00  0.00    -0.257 C  
HETATM    6  C   UNL     1      -5.793  17.579  68.613  1.00  0.00    -0.171 C  
HETATM    7  C   UNL     1      -5.548  18.643  67.497  1.00  0.00    -0.153 C  
HETATM    8  C   UNL     1      -6.899  18.718  66.796  1.00  0.00    -0.194 C  
HETATM    9  O   UNL     1      -6.946  17.487  66.031  1.00  0.00    -0.285 OA 
HETATM   10  C   UNL     1      -9.457  13.574  67.750  1.00  0.00    -0.216 C  
HETATM   11  C   UNL     1      -7.870  18.707  68.022  1.00  0.00    -0.292 C  
HETATM   12  C   UNL     1      -9.360  18.647  67.718  1.00  0.00    -0.315 C  
HETATM   13  H   UNL     1      -7.789  17.533  65.594  1.00  0.00     0.000 HD 
HETATM   14  O   UNL     1     -12.253  11.629  66.626  1.00  0.00    -0.210 OA 
HETATM   15  C   UNL     1     -10.313  12.534  67.676  1.00  0.00    -0.222 C  
HETATM   16  C   UNL     1      -7.760  20.010  68.871  1.00  0.00    -0.066 C  
HETATM   17  C   UNL     1      -9.711  17.380  67.050  1.00  0.00    -0.276 C  
HETATM   18  C   UNL     1     -11.618  12.627  66.928  1.00  0.00    -0.373 C  
HETATM   19  C   UNL     1      -9.359  16.123  67.824  1.00  0.00    -0.211 C  
HETATM   20  O   UNL     1     -10.333  17.419  65.988  1.00  0.00    -0.395 OA 
HETATM   21  C   UNL     1     -12.090  13.991  66.503  1.00  0.00    -0.488 C  
HETATM   22  C   UNL     1      -9.851  14.876  67.059  1.00  0.00    -0.239 C  
HETATM   23  C   UNL     1     -11.392  14.954  67.118  1.00  0.00    -0.348 C  
HETATM   24  C   UNL     1      -9.308  14.780  65.603  1.00  0.00     0.025 C  
ENDROOT
BRANCH   8  25
HETATM   25  C   UNL     1      -7.237  19.692  65.672  1.00  0.00    -0.281 C  
HETATM   26  O   UNL     1      -8.431  19.984  65.474  1.00  0.00    -0.223 OA 
BRANCH  25  27
HETATM   27  C   UNL     1      -6.197  20.215  64.730  1.00  0.00    -0.277 C  
HETATM   28  O   UNL     1      -5.858  19.170  63.815  1.00  0.00    -0.426 OA 
HETATM   29  H   UNL     1      -5.198  19.502  63.217  1.00  0.00     0.000 HD 
ENDBRANCH  25  27
ENDBRANCH   8  25
TORSDOF 2
ENDMDL
MODEL       33
REMARK 921   NORMALIZED FREE ENERGY PREDICTED BY IDOCK:   -5.15 KCAL/MOL
REMARK 922        TOTAL FREE ENERGY PREDICTED BY IDOCK:   -6.19 KCAL/MOL
REMARK 923 INTER-LIGAND FREE ENERGY PREDICTED BY IDOCK:   -5.78 KCAL/MOL
REMARK 924 INTRA-LIGAND FREE ENERGY PREDICTED BY IDOCK:   -0.41 KCAL/MOL
REMARK 927      BINDING AFFINITY PREDICTED BY RF-SCORE:    0.00 PKD
ROOT
HETATM    1  C   UNL     1      -9.246   8.819  71.397  1.00  0.00    -0.325 C  
HETATM    2  C   UNL     1      -9.992   8.206  70.198  1.00  0.00    -0.187 C  
HETATM    3  C   UNL     1     -11.078   9.190  69.660  1.00  0.00    -0.103 C  
HETATM    4  C   UNL     1     -10.464  10.333  68.809  1.00  0.00    -0.222 C  
HETATM    5  C   UNL     1     -11.470  11.468  68.346  1.00  0.00    -0.364 C  
HETATM    6  C   UNL     1     -11.737  12.494  69.497  1.00  0.00    -0.375 C  
HETATM    7  C   UNL     1     -11.006  13.820  69.119  1.00  0.00    -0.246 C  
HETATM    8  C   UNL     1     -10.010  13.369  68.058  1.00  0.00    -0.239 C  
HETATM    9  O   UNL     1      -8.994  12.676  68.827  1.00  0.00    -0.387 OA 
HETATM   10  C   UNL     1      -9.025   7.727  69.115  1.00  0.00    -0.145 C  
HETATM   11  C   UNL     1     -10.898  12.397  67.212  1.00  0.00    -0.279 C  
HETATM   12  C   UNL     1     -10.205  11.630  66.096  1.00  0.00    -0.263 C  
HETATM   13  H   UNL     1      -8.373  12.394  68.165  1.00  0.00     0.000 HD 
HETATM   14  O   UNL     1      -6.780   5.093  68.178  1.00  0.00    -0.051 OA 
HETATM   15  C   UNL     1      -8.487   6.491  69.081  1.00  0.00    -0.126 C  
HETATM   16  C   UNL     1     -12.025  13.151  66.442  1.00  0.00    -0.462 C  
HETATM   17  C   UNL     1      -9.191  10.707  66.639  1.00  0.00    -0.164 C  
HETATM   18  C   UNL     1      -7.464   6.096  68.048  1.00  0.00    -0.089 C  
HETATM   19  C   UNL     1      -9.716   9.685  67.630  1.00  0.00    -0.182 C  
HETATM   20  O   UNL     1      -8.042  10.759  66.200  1.00  0.00    -0.152 OA 
HETATM   21  C   UNL     1      -7.259   7.012  66.872  1.00  0.00    -0.077 C  
HETATM   22  C   UNL     1      -8.578   8.733  68.057  1.00  0.00    -0.134 C  
HETATM   23  C   UNL     1      -8.244   7.916  66.791  1.00  0.00    -0.116 C  
HETATM   24  C   UNL     1      -7.337   9.465  68.648  1.00  0.00    -0.075 C  
ENDROOT
BRANCH   8  25
HETATM   25  C   UNL     1      -9.096  14.306  67.275  1.00  0.00    -0.215 C  
HETATM   26  O   UNL     1      -9.543  14.864  66.257  1.00  0.00    -0.272 OA 
BRANCH  25  27
HETATM   27  C   UNL     1      -7.650  14.485  67.623  1.00  0.00    -0.182 C  
HETATM   28  O   UNL     1      -6.933  13.341  67.155  1.00  0.00    -0.351 OA 
HETATM   29  H   UNL     1      -6.016  13.454  67.376  1.00  0.00     0.000 HD 
ENDBRANCH  25  27
ENDBRANCH   8  25
TORSDOF 2
ENDMDL
MODEL       34
REMARK 921   NORMALIZED FREE ENERGY PREDICTED BY IDOCK:   -5.14 KCAL/MOL
REMARK 922        TOTAL FREE ENERGY PREDICTED BY IDOCK:   -6.18 KCAL/MOL
REMARK 923 INTER-LIGAND FREE ENERGY PREDICTED BY IDOCK:   -5.95 KCAL/MOL
REMARK 924 INTRA-LIGAND FREE ENERGY PREDICTED BY IDOCK:   -0.23 KCAL/MOL
REMARK 927      BINDING AFFINITY PREDICTED BY RF-SCORE:    0.00 PKD
ROOT
HETATM    1  C   UNL     1     -10.478   8.730  72.528  1.00  0.00    -0.096 C  
HETATM    2  C   UNL     1     -11.475   8.145  71.510  1.00  0.00    -0.310 C  
HETATM    3  C   UNL     1     -12.200   9.285  70.728  1.00  0.00    -0.192 C  
HETATM    4  C   UNL     1     -11.301   9.904  69.626  1.00  0.00    -0.212 C  
HETATM    5  C   UNL     1     -11.894  11.172  68.880  1.00  0.00    -0.406 C  
HETATM    6  C   UNL     1     -11.712  12.470  69.733  1.00  0.00    -0.355 C  
HETATM    7  C   UNL     1     -10.605  13.329  69.045  1.00  0.00    -0.096 C  
HETATM    8  C   UNL     1      -9.902  12.320  68.144  1.00  0.00    -0.212 C  
HETATM    9  O   UNL     1      -9.128  11.524  69.076  1.00  0.00    -0.386 OA 
HETATM   10  C   UNL     1     -10.811   7.116  70.596  1.00  0.00    -0.268 C  
HETATM   11  C   UNL     1     -11.128  11.544  67.557  1.00  0.00    -0.329 C  
HETATM   12  C   UNL     1     -10.821  10.340  66.678  1.00  0.00    -0.115 C  
HETATM   13  H   UNL     1      -8.690  10.894  68.514  1.00  0.00     0.000 HD 
HETATM   14  O   UNL     1      -9.668   3.724  70.380  1.00  0.00    -0.188 OA 
HETATM   15  C   UNL     1     -10.727   5.800  70.880  1.00  0.00    -0.333 C  
HETATM   16  C   UNL     1     -11.987  12.433  66.608  1.00  0.00    -0.300 C  
HETATM   17  C   UNL     1     -10.142   9.282  67.450  1.00  0.00    -0.223 C  
HETATM   18  C   UNL     1      -9.979   4.840  69.993  1.00  0.00    -0.244 C  
HETATM   19  C   UNL     1     -10.907   8.775  68.658  1.00  0.00    -0.018 C  
HETATM   20  O   UNL     1      -9.080   8.826  67.027  1.00  0.00    -0.128 OA 
HETATM   21  C   UNL     1      -9.564   5.318  68.628  1.00  0.00    -0.183 C  
HETATM   22  C   UNL     1     -10.130   7.619  69.326  1.00  0.00    -0.190 C  
HETATM   23  C   UNL     1     -10.188   6.459  68.309  1.00  0.00    -0.197 C  
HETATM   24  C   UNL     1      -8.674   7.995  69.730  1.00  0.00    -0.136 C  
ENDROOT
BRANCH   8  25
HETATM   25  C   UNL     1      -8.787  12.666  67.164  1.00  0.00    -0.204 C  
HETATM   26  O   UNL     1      -9.039  13.433  66.217  1.00  0.00    -0.122 OA 
BRANCH  25  27
HETATM   27  C   UNL     1      -7.436  12.023  67.235  1.00  0.00    -0.158 C  
HETATM   28  O   UNL     1      -7.085  11.574  65.924  1.00  0.00    -0.351 OA 
HETATM   29  H   UNL     1      -6.228  11.166  65.969  1.00  0.00     0.000 HD 
ENDBRANCH  25  27
ENDBRANCH   8  25
TORSDOF 2
ENDMDL
MODEL       35
REMARK 921   NORMALIZED FREE ENERGY PREDICTED BY IDOCK:   -5.13 KCAL/MOL
REMARK 922        TOTAL FREE ENERGY PREDICTED BY IDOCK:   -6.17 KCAL/MOL
REMARK 923 INTER-LIGAND FREE ENERGY PREDICTED BY IDOCK:   -5.73 KCAL/MOL
REMARK 924 INTRA-LIGAND FREE ENERGY PREDICTED BY IDOCK:   -0.44 KCAL/MOL
REMARK 927      BINDING AFFINITY PREDICTED BY RF-SCORE:    0.00 PKD
ROOT
HETATM    1  C   UNL     1     -12.016  12.100  63.790  1.00  0.00    -0.607 C  
HETATM    2  C   UNL     1     -10.504  12.394  63.795  1.00  0.00    -0.475 C  
HETATM    3  C   UNL     1     -10.210  13.772  64.466  1.00  0.00    -0.206 C  
HETATM    4  C   UNL     1     -10.291  13.701  66.014  1.00  0.00    -0.305 C  
HETATM    5  C   UNL     1     -10.160  15.083  66.779  1.00  0.00    -0.257 C  
HETATM    6  C   UNL     1     -11.510  15.872  66.762  1.00  0.00     0.287 C  
HETATM    7  C   UNL     1     -12.102  15.814  68.206  1.00  0.00     0.212 C  
HETATM    8  C   UNL     1     -11.344  14.652  68.838  1.00  0.00    -0.283 C  
HETATM    9  O   UNL     1     -11.946  13.487  68.220  1.00  0.00    -0.356 OA 
HETATM   10  C   UNL     1      -9.706  11.244  64.408  1.00  0.00    -0.293 C  
HETATM   11  C   UNL     1      -9.893  14.930  68.322  1.00  0.00    -0.218 C  
HETATM   12  C   UNL     1      -8.836  13.886  68.652  1.00  0.00    -0.076 C  
HETATM   13  H   UNL     1     -11.473  12.762  68.613  1.00  0.00     0.000 HD 
HETATM   14  O   UNL     1      -8.365   7.977  63.788  1.00  0.00    -0.084 OA 
HETATM   15  C   UNL     1      -9.237  10.194  63.704  1.00  0.00    -0.320 C  
HETATM   16  C   UNL     1      -9.285  16.222  68.947  1.00  0.00    -0.249 C  
HETATM   17  C   UNL     1      -9.142  12.600  67.997  1.00  0.00    -0.207 C  
HETATM   18  C   UNL     1      -8.539   9.036  64.369  1.00  0.00    -0.150 C  
HETATM   19  C   UNL     1      -9.262  12.659  66.486  1.00  0.00    -0.200 C  
HETATM   20  O   UNL     1      -9.185  11.579  68.684  1.00  0.00    -0.186 OA 
HETATM   21  C   UNL     1      -8.114   9.199  65.803  1.00  0.00    -0.112 C  
HETATM   22  C   UNL     1      -9.499  11.242  65.921  1.00  0.00    -0.247 C  
HETATM   23  C   UNL     1      -8.180  10.482  66.181  1.00  0.00    -0.151 C  
HETATM   24  C   UNL     1     -10.739  10.524  66.531  1.00  0.00    -0.191 C  
ENDROOT
BRANCH   8  25
HETATM   25  C   UNL     1     -11.475  14.225  70.296  1.00  0.00    -0.164 C  
HETATM   26  O   UNL     1     -10.833  14.847  71.161  1.00  0.00    -0.087 OA 
BRANCH  25  27
HETATM   27  C   UNL     1     -12.256  13.014  70.705  1.00  0.00    -0.307 C  
HETATM   28  O   UNL     1     -11.479  11.856  70.394  1.00  0.00    -0.497 OA 
HETATM   29  H   UNL     1     -11.974  11.087  70.654  1.00  0.00     0.000 HD 
ENDBRANCH  25  27
ENDBRANCH   8  25
TORSDOF 2
ENDMDL
MODEL       36
REMARK 921   NORMALIZED FREE ENERGY PREDICTED BY IDOCK:   -5.07 KCAL/MOL
REMARK 922        TOTAL FREE ENERGY PREDICTED BY IDOCK:   -6.10 KCAL/MOL
REMARK 923 INTER-LIGAND FREE ENERGY PREDICTED BY IDOCK:   -5.63 KCAL/MOL
REMARK 924 INTRA-LIGAND FREE ENERGY PREDICTED BY IDOCK:   -0.47 KCAL/MOL
REMARK 927      BINDING AFFINITY PREDICTED BY RF-SCORE:    0.00 PKD
ROOT
HETATM    1  C   UNL     1     -11.767  11.231  67.627  1.00  0.00    -0.215 C  
HETATM    2  C   UNL     1     -10.956  11.789  68.812  1.00  0.00    -0.281 C  
HETATM    3  C   UNL     1     -11.462  11.188  70.161  1.00  0.00    -0.361 C  
HETATM    4  C   UNL     1     -10.957   9.739  70.384  1.00  0.00    -0.371 C  
HETATM    5  C   UNL     1     -11.543   8.989  71.652  1.00  0.00    -0.426 C  
HETATM    6  C   UNL     1     -12.975   8.427  71.368  1.00  0.00    -0.248 C  
HETATM    7  C   UNL     1     -12.853   6.875  71.253  1.00  0.00    -0.336 C  
HETATM    8  C   UNL     1     -11.362   6.668  71.012  1.00  0.00    -0.315 C  
HETATM    9  O   UNL     1     -11.186   7.086  69.635  1.00  0.00    -0.395 OA 
HETATM   10  C   UNL     1      -9.453  11.614  68.602  1.00  0.00    -0.129 C  
HETATM   11  C   UNL     1     -10.753   7.683  72.036  1.00  0.00    -0.270 C  
HETATM   12  C   UNL     1      -9.243   7.861  72.010  1.00  0.00    -0.207 C  
HETATM   13  H   UNL     1     -10.256   6.957  69.485  1.00  0.00     0.000 HD 
HETATM   14  O   UNL     1      -6.578  12.932  66.912  1.00  0.00    -0.050 OA 
HETATM   15  C   UNL     1      -8.670  12.517  67.976  1.00  0.00    -0.186 C  
HETATM   16  C   UNL     1     -11.008   7.252  73.512  1.00  0.00    -0.180 C  
HETATM   17  C   UNL     1      -8.801   8.435  70.725  1.00  0.00    -0.151 C  
HETATM   18  C   UNL     1      -7.211  12.256  67.707  1.00  0.00    -0.114 C  
HETATM   19  C   UNL     1      -9.419   9.775  70.372  1.00  0.00    -0.202 C  
HETATM   20  O   UNL     1      -7.918   7.859  70.088  1.00  0.00    -0.102 OA 
HETATM   21  C   UNL     1      -6.564  11.089  68.403  1.00  0.00    -0.058 C  
HETATM   22  C   UNL     1      -8.814  10.303  69.053  1.00  0.00    -0.170 C  
HETATM   23  C   UNL     1      -7.342  10.626  69.389  1.00  0.00    -0.133 C  
HETATM   24  C   UNL     1      -8.957   9.314  67.859  1.00  0.00    -0.130 C  
ENDROOT
BRANCH   8  25
HETATM   25  C   UNL     1     -10.681   5.306  70.921  1.00  0.00    -0.119 C  
HETATM   26  O   UNL     1     -10.533   4.642  71.963  1.00  0.00    -0.192 OA 
BRANCH  25  27
HETATM   27  C   UNL     1     -10.085   4.797  69.646  1.00  0.00    -0.205 C  
HETATM   28  O   UNL     1      -8.667   4.963  69.718  1.00  0.00    -0.085 OA 
HETATM   29  H   UNL     1      -8.288   4.640  68.909  1.00  0.00     0.000 HD 
ENDBRANCH  25  27
ENDBRANCH   8  25
TORSDOF 2
ENDMDL
MODEL       37
REMARK 921   NORMALIZED FREE ENERGY PREDICTED BY IDOCK:   -5.03 KCAL/MOL
REMARK 922        TOTAL FREE ENERGY PREDICTED BY IDOCK:   -6.06 KCAL/MOL
REMARK 923 INTER-LIGAND FREE ENERGY PREDICTED BY IDOCK:   -5.63 KCAL/MOL
REMARK 924 INTRA-LIGAND FREE ENERGY PREDICTED BY IDOCK:   -0.42 KCAL/MOL
REMARK 927      BINDING AFFINITY PREDICTED BY RF-SCORE:    0.00 PKD
ROOT
HETATM    1  C   UNL     1      -7.497  13.915  68.257  1.00  0.00    -0.118 C  
HETATM    2  C   UNL     1      -7.737  13.231  66.898  1.00  0.00     0.272 C  
HETATM    3  C   UNL     1      -7.304  11.732  66.950  1.00  0.00    -0.104 C  
HETATM    4  C   UNL     1      -8.345  10.845  67.682  1.00  0.00    -0.116 C  
HETATM    5  C   UNL     1      -7.924   9.335  67.920  1.00  0.00    -0.100 C  
HETATM    6  C   UNL     1      -6.970   9.200  69.152  1.00  0.00    -0.058 C  
HETATM    7  C   UNL     1      -7.784   8.527  70.301  1.00  0.00    -0.077 C  
HETATM    8  C   UNL     1      -9.229   8.731  69.859  1.00  0.00    -0.157 C  
HETATM    9  O   UNL     1      -9.459  10.140  70.113  1.00  0.00    -0.389 OA 
HETATM   10  C   UNL     1      -9.173  13.426  66.412  1.00  0.00    -0.131 C  
HETATM   11  C   UNL     1      -9.121   8.401  68.333  1.00  0.00    -0.135 C  
HETATM   12  C   UNL     1     -10.372   8.616  67.495  1.00  0.00    -0.336 C  
HETATM   13  H   UNL     1     -10.360  10.268  69.838  1.00  0.00     0.000 HD 
HETATM   14  O   UNL     1     -11.431  15.740  64.862  1.00  0.00    -0.287 OA 
HETATM   15  C   UNL     1      -9.578  14.473  65.665  1.00  0.00    -0.189 C  
HETATM   16  C   UNL     1      -8.809   6.895  68.079  1.00  0.00    -0.123 C  
HETATM   17  C   UNL     1     -10.748  10.041  67.463  1.00  0.00    -0.281 C  
HETATM   18  C   UNL     1     -11.024  14.672  65.290  1.00  0.00    -0.367 C  
HETATM   19  C   UNL     1      -9.681  10.978  66.928  1.00  0.00    -0.215 C  
HETATM   20  O   UNL     1     -11.897  10.361  67.771  1.00  0.00    -0.240 OA 
HETATM   21  C   UNL     1     -11.976  13.529  65.522  1.00  0.00    -0.420 C  
HETATM   22  C   UNL     1     -10.227  12.421  66.870  1.00  0.00    -0.238 C  
HETATM   23  C   UNL     1     -11.311  12.394  65.771  1.00  0.00    -0.393 C  
HETATM   24  C   UNL     1     -10.765  12.943  68.235  1.00  0.00    -0.261 C  
ENDROOT
BRANCH   8  25
HETATM   25  C   UNL     1     -10.444   8.171  70.589  1.00  0.00    -0.210 C  
HETATM   26  O   UNL     1     -10.800   7.003  70.350  1.00  0.00    -0.236 OA 
BRANCH  25  27
HETATM   27  C   UNL     1     -11.290   9.014  71.493  1.00  0.00    -0.346 C  
HETATM   28  O   UNL     1     -12.171   9.794  70.681  1.00  0.00    -0.376 OA 
HETATM   29  H   UNL     1     -12.708  10.329  71.254  1.00  0.00     0.000 HD 
ENDBRANCH  25  27
ENDBRANCH   8  25
TORSDOF 2
ENDMDL
MODEL       38
REMARK 921   NORMALIZED FREE ENERGY PREDICTED BY IDOCK:   -4.99 KCAL/MOL
REMARK 922        TOTAL FREE ENERGY PREDICTED BY IDOCK:   -6.02 KCAL/MOL
REMARK 923 INTER-LIGAND FREE ENERGY PREDICTED BY IDOCK:   -5.49 KCAL/MOL
REMARK 924 INTRA-LIGAND FREE ENERGY PREDICTED BY IDOCK:   -0.53 KCAL/MOL
REMARK 927      BINDING AFFINITY PREDICTED BY RF-SCORE:    0.00 PKD
ROOT
HETATM    1  C   UNL     1      -8.806   5.554  66.522  1.00  0.00    -0.121 C  
HETATM    2  C   UNL     1      -9.850   6.685  66.456  1.00  0.00    -0.165 C  
HETATM    3  C   UNL     1     -10.819   6.614  67.678  1.00  0.00    -0.393 C  
HETATM    4  C   UNL     1     -10.170   7.167  68.974  1.00  0.00    -0.191 C  
HETATM    5  C   UNL     1     -11.021   6.997  70.302  1.00  0.00    -0.304 C  
HETATM    6  C   UNL     1     -10.891   5.548  70.877  1.00  0.00    -0.246 C  
HETATM    7  C   UNL     1     -10.013   5.634  72.164  1.00  0.00    -0.214 C  
HETATM    8  C   UNL     1      -9.317   6.982  72.012  1.00  0.00    -0.139 C  
HETATM    9  O   UNL     1      -8.323   6.730  70.986  1.00  0.00    -0.124 OA 
HETATM   10  C   UNL     1      -9.192   8.054  66.289  1.00  0.00    -0.237 C  
HETATM   11  C   UNL     1     -10.501   7.870  71.503  1.00  0.00    -0.251 C  
HETATM   12  C   UNL     1     -10.165   9.301  71.110  1.00  0.00    -0.387 C  
HETATM   13  H   UNL     1      -7.890   7.570  70.891  1.00  0.00     0.000 HD 
HETATM   14  O   UNL     1      -7.659  10.275  63.928  1.00  0.00    -0.142 OA 
HETATM   15  C   UNL     1      -8.899   8.606  65.093  1.00  0.00    -0.147 C  
HETATM   16  C   UNL     1     -11.592   8.077  72.597  1.00  0.00    -0.448 C  
HETATM   17  C   UNL     1      -9.254   9.329  69.950  1.00  0.00    -0.195 C  
HETATM   18  C   UNL     1      -8.163   9.916  64.980  1.00  0.00    -0.143 C  
HETATM   19  C   UNL     1      -9.771   8.629  68.707  1.00  0.00    -0.171 C  
HETATM   20  O   UNL     1      -8.211   9.978  70.029  1.00  0.00    -0.178 OA 
HETATM   21  C   UNL     1      -8.008  10.747  66.225  1.00  0.00    -0.160 C  
HETATM   22  C   UNL     1      -8.766   8.803  67.548  1.00  0.00    -0.135 C  
HETATM   23  C   UNL     1      -8.813  10.306  67.200  1.00  0.00    -0.141 C  
HETATM   24  C   UNL     1      -7.329   8.307  67.886  1.00  0.00    -0.096 C  
ENDROOT
BRANCH   8  25
HETATM   25  C   UNL     1      -8.403   7.606  73.060  1.00  0.00    -0.133 C  
HETATM   26  O   UNL     1      -8.907   8.039  74.112  1.00  0.00    -0.240 OA 
BRANCH  25  27
HETATM   27  C   UNL     1      -6.941   7.821  72.817  1.00  0.00    -0.076 C  
HETATM   28  O   UNL     1      -6.756   9.164  72.362  1.00  0.00    -0.309 OA 
HETATM   29  H   UNL     1      -5.829   9.301  72.207  1.00  0.00     0.000 HD 
ENDBRANCH  25  27
ENDBRANCH   8  25
TORSDOF 2
ENDMDL
MODEL       39
REMARK 921   NORMALIZED FREE ENERGY PREDICTED BY IDOCK:   -4.96 KCAL/MOL
REMARK 922        TOTAL FREE ENERGY PREDICTED BY IDOCK:   -5.98 KCAL/MOL
REMARK 923 INTER-LIGAND FREE ENERGY PREDICTED BY IDOCK:   -5.45 KCAL/MOL
REMARK 924 INTRA-LIGAND FREE ENERGY PREDICTED BY IDOCK:   -0.53 KCAL/MOL
REMARK 927      BINDING AFFINITY PREDICTED BY RF-SCORE:    0.00 PKD
ROOT
HETATM    1  C   UNL     1     -13.507   7.825  71.474  1.00  0.00    -0.379 C  
HETATM    2  C   UNL     1     -12.351   8.656  72.064  1.00  0.00    -0.435 C  
HETATM    3  C   UNL     1     -11.390   7.752  72.898  1.00  0.00    -0.406 C  
HETATM    4  C   UNL     1     -10.446   6.912  71.999  1.00  0.00    -0.229 C  
HETATM    5  C   UNL     1      -9.539   5.849  72.748  1.00  0.00    -0.163 C  
HETATM    6  C   UNL     1     -10.344   4.551  73.084  1.00  0.00    -0.239 C  
HETATM    7  C   UNL     1      -9.832   3.425  72.132  1.00  0.00    -0.236 C  
HETATM    8  C   UNL     1      -9.131   4.207  71.027  1.00  0.00    -0.117 C  
HETATM    9  O   UNL     1     -10.231   4.767  70.265  1.00  0.00    -0.247 OA 
HETATM   10  C   UNL     1     -11.631   9.467  70.988  1.00  0.00    -0.419 C  
HETATM   11  C   UNL     1      -8.365   5.283  71.866  1.00  0.00    -0.122 C  
HETATM   12  C   UNL     1      -7.622   6.359  71.088  1.00  0.00    -0.090 C  
HETATM   13  H   UNL     1      -9.794   5.255  69.576  1.00  0.00     0.000 HD 
HETATM   14  O   UNL     1     -11.806  12.427  68.971  1.00  0.00    -0.302 OA 
HETATM   15  C   UNL     1     -11.993  10.713  70.617  1.00  0.00    -0.466 C  
HETATM   16  C   UNL     1      -7.228   4.656  72.728  1.00  0.00    -0.079 C  
HETATM   17  C   UNL     1      -8.559   7.197  70.317  1.00  0.00    -0.143 C  
HETATM   18  C   UNL     1     -11.311  11.436  69.484  1.00  0.00    -0.289 C  
HETATM   19  C   UNL     1      -9.628   7.893  71.140  1.00  0.00    -0.181 C  
HETATM   20  O   UNL     1      -8.367   7.350  69.111  1.00  0.00    -0.129 OA 
HETATM   21  C   UNL     1     -10.025  10.861  68.954  1.00  0.00    -0.208 C  
HETATM   22  C   UNL     1     -10.487   8.798  70.231  1.00  0.00    -0.231 C  
HETATM   23  C   UNL     1      -9.537   9.930  69.782  1.00  0.00    -0.261 C  
HETATM   24  C   UNL     1     -11.137   8.045  69.033  1.00  0.00     0.217 C  
ENDROOT
BRANCH   8  25
HETATM   25  C   UNL     1      -8.361   3.573  69.873  1.00  0.00    -0.052 C  
HETATM   26  O   UNL     1      -7.256   3.050  70.108  1.00  0.00    -0.040 OA 
BRANCH  25  27
HETATM   27  C   UNL     1      -8.833   3.662  68.455  1.00  0.00    -0.114 C  
HETATM   28  O   UNL     1      -8.257   4.830  67.865  1.00  0.00    -0.096 OA 
HETATM   29  H   UNL     1      -8.556   4.887  66.965  1.00  0.00     0.000 HD 
ENDBRANCH  25  27
ENDBRANCH   8  25
TORSDOF 2
ENDMDL
MODEL       40
REMARK 921   NORMALIZED FREE ENERGY PREDICTED BY IDOCK:   -4.93 KCAL/MOL
REMARK 922        TOTAL FREE ENERGY PREDICTED BY IDOCK:   -5.94 KCAL/MOL
REMARK 923 INTER-LIGAND FREE ENERGY PREDICTED BY IDOCK:   -5.75 KCAL/MOL
REMARK 924 INTRA-LIGAND FREE ENERGY PREDICTED BY IDOCK:   -0.19 KCAL/MOL
REMARK 927      BINDING AFFINITY PREDICTED BY RF-SCORE:    0.00 PKD
ROOT
HETATM    1  C   UNL     1      -7.756  14.828  69.163  1.00  0.00    -0.144 C  
HETATM    2  C   UNL     1      -7.397  14.597  67.684  1.00  0.00    -0.204 C  
HETATM    3  C   UNL     1      -6.722  13.203  67.489  1.00  0.00    -0.159 C  
HETATM    4  C   UNL     1      -7.752  12.044  67.512  1.00  0.00    -0.155 C  
HETATM    5  C   UNL     1      -7.147  10.579  67.476  1.00  0.00    -0.089 C  
HETATM    6  C   UNL     1      -6.646  10.137  68.891  1.00  0.00    -0.049 C  
HETATM    7  C   UNL     1      -7.645   9.065  69.426  1.00  0.00    -0.078 C  
HETATM    8  C   UNL     1      -8.874   9.277  68.550  1.00  0.00    -0.129 C  
HETATM    9  O   UNL     1      -9.445  10.505  69.068  1.00  0.00    -0.187 OA 
HETATM   10  C   UNL     1      -8.602  14.815  66.769  1.00  0.00    -0.226 C  
HETATM   11  C   UNL     1      -8.208   9.464  67.146  1.00  0.00    -0.113 C  
HETATM   12  C   UNL     1      -9.129   9.829  65.992  1.00  0.00    -0.201 C  
HETATM   13  H   UNL     1     -10.211  10.638  68.521  1.00  0.00     0.000 HD 
HETATM   14  O   UNL     1     -10.628  17.304  65.169  1.00  0.00    -0.686 OA 
HETATM   15  C   UNL     1      -8.934  16.008  66.234  1.00  0.00    -0.380 C  
HETATM   16  C   UNL     1      -7.542   8.151  66.633  1.00  0.00    -0.093 C  
HETATM   17  C   UNL     1      -9.744  11.152  66.206  1.00  0.00    -0.211 C  
HETATM   18  C   UNL     1     -10.185  16.194  65.415  1.00  0.00    -0.264 C  
HETATM   19  C   UNL     1      -8.764  12.298  66.380  1.00  0.00    -0.019 C  
HETATM   20  O   UNL     1     -10.969  11.257  66.136  1.00  0.00    -0.266 OA 
HETATM   21  C   UNL     1     -10.918  14.961  64.959  1.00  0.00    -0.432 C  
HETATM   22  C   UNL     1      -9.530  13.631  66.512  1.00  0.00    -0.270 C  
HETATM   23  C   UNL     1     -10.165  13.866  65.124  1.00  0.00    -0.382 C  
HETATM   24  C   UNL     1     -10.578  13.641  67.663  1.00  0.00    -0.245 C  
ENDROOT
BRANCH   8  25
HETATM   25  C   UNL     1     -10.128   8.411  68.594  1.00  0.00    -0.193 C  
HETATM   26  O   UNL     1     -11.235   8.968  68.711  1.00  0.00     0.099 OA 
BRANCH  25  27
HETATM   27  C   UNL     1     -10.064   6.915  68.620  1.00  0.00    -0.162 C  
HETATM   28  O   UNL     1     -11.327   6.422  69.073  1.00  0.00    -0.517 OA 
HETATM   29  H   UNL     1     -11.287   5.473  69.089  1.00  0.00     0.000 HD 
ENDBRANCH  25  27
ENDBRANCH   8  25
TORSDOF 2
ENDMDL
MODEL       41
REMARK 921   NORMALIZED FREE ENERGY PREDICTED BY IDOCK:   -4.92 KCAL/MOL
REMARK 922        TOTAL FREE ENERGY PREDICTED BY IDOCK:   -5.93 KCAL/MOL
REMARK 923 INTER-LIGAND FREE ENERGY PREDICTED BY IDOCK:   -5.74 KCAL/MOL
REMARK 924 INTRA-LIGAND FREE ENERGY PREDICTED BY IDOCK:   -0.19 KCAL/MOL
REMARK 927      BINDING AFFINITY PREDICTED BY RF-SCORE:    0.00 PKD
ROOT
HETATM    1  C   UNL     1     -11.141  11.099  66.575  1.00  0.00    -0.233 C  
HETATM    2  C   UNL     1      -9.727  11.349  67.133  1.00  0.00    -0.200 C  
HETATM    3  C   UNL     1      -9.729  11.288  68.693  1.00  0.00    -0.200 C  
HETATM    4  C   UNL     1      -9.777   9.832  69.223  1.00  0.00    -0.204 C  
HETATM    5  C   UNL     1      -9.937   9.671  70.793  1.00  0.00    -0.260 C  
HETATM    6  C   UNL     1     -11.426   9.862  71.234  1.00  0.00    -0.435 C  
HETATM    7  C   UNL     1     -11.977   8.459  71.637  1.00  0.00    -0.357 C  
HETATM    8  C   UNL     1     -10.981   7.503  70.989  1.00  0.00    -0.251 C  
HETATM    9  O   UNL     1     -11.325   7.568  69.582  1.00  0.00    -0.456 OA 
HETATM   10  C   UNL     1      -8.695  10.419  66.496  1.00  0.00    -0.143 C  
HETATM   11  C   UNL     1      -9.629   8.219  71.315  1.00  0.00    -0.219 C  
HETATM   12  C   UNL     1      -8.370   7.615  70.712  1.00  0.00    -0.117 C  
HETATM   13  H   UNL     1     -10.705   6.972  69.177  1.00  0.00     0.000 HD 
HETATM   14  O   UNL     1      -6.691   9.862  63.575  1.00  0.00    -0.114 OA 
HETATM   15  C   UNL     1      -8.019  10.708  65.365  1.00  0.00    -0.086 C  
HETATM   16  C   UNL     1      -9.305   8.198  72.840  1.00  0.00    -0.343 C  
HETATM   17  C   UNL     1      -8.399   7.695  69.240  1.00  0.00    -0.134 C  
HETATM   18  C   UNL     1      -7.082   9.718  64.722  1.00  0.00    -0.126 C  
HETATM   19  C   UNL     1      -8.543   9.094  68.673  1.00  0.00    -0.128 C  
HETATM   20  O   UNL     1      -8.215   6.668  68.584  1.00  0.00    -0.117 OA 
HETATM   21  C   UNL     1      -6.688   8.502  65.517  1.00  0.00    -0.059 C  
HETATM   22  C   UNL     1      -8.477   9.048  67.131  1.00  0.00    -0.113 C  
HETATM   23  C   UNL     1      -7.024   8.641  66.806  1.00  0.00    -0.077 C  
HETATM   24  C   UNL     1      -9.528   8.097  66.487  1.00  0.00    -0.286 C  
ENDROOT
BRANCH   8  25
HETATM   25  C   UNL     1     -11.003   5.988  71.155  1.00  0.00    -0.278 C  
HETATM   26  O   UNL     1     -10.889   5.274  70.143  1.00  0.00    -0.240 OA 
BRANCH  25  27
HETATM   27  C   UNL     1     -11.273   5.334  72.475  1.00  0.00    -0.210 C  
HETATM   28  O   UNL     1     -12.680   5.387  72.720  1.00  0.00    -0.358 OA 
HETATM   29  H   UNL     1     -12.852   4.972  73.558  1.00  0.00     0.000 HD 
ENDBRANCH  25  27
ENDBRANCH   8  25
TORSDOF 2
ENDMDL
MODEL       42
REMARK 921   NORMALIZED FREE ENERGY PREDICTED BY IDOCK:   -4.88 KCAL/MOL
REMARK 922        TOTAL FREE ENERGY PREDICTED BY IDOCK:   -5.89 KCAL/MOL
REMARK 923 INTER-LIGAND FREE ENERGY PREDICTED BY IDOCK:   -5.38 KCAL/MOL
REMARK 924 INTRA-LIGAND FREE ENERGY PREDICTED BY IDOCK:   -0.50 KCAL/MOL
REMARK 927      BINDING AFFINITY PREDICTED BY RF-SCORE:    0.00 PKD
ROOT
HETATM    1  C   UNL     1      -9.686   6.072  71.656  1.00  0.00    -0.180 C  
HETATM    2  C   UNL     1      -9.642   7.509  72.209  1.00  0.00    -0.197 C  
HETATM    3  C   UNL     1      -8.314   8.220  71.798  1.00  0.00    -0.193 C  
HETATM    4  C   UNL     1      -8.335   8.694  70.321  1.00  0.00    -0.129 C  
HETATM    5  C   UNL     1      -6.974   9.289  69.766  1.00  0.00    -0.058 C  
HETATM    6  C   UNL     1      -5.977   8.152  69.368  1.00  0.00    -0.037 C  
HETATM    7  C   UNL     1      -5.903   8.120  67.809  1.00  0.00    -0.042 C  
HETATM    8  C   UNL     1      -7.158   8.880  67.394  1.00  0.00    -0.079 C  
HETATM    9  O   UNL     1      -8.224   7.935  67.664  1.00  0.00    -0.122 OA 
HETATM   10  C   UNL     1     -10.891   8.301  71.826  1.00  0.00    -0.332 C  
HETATM   11  C   UNL     1      -7.132  10.071  68.409  1.00  0.00    -0.072 C  
HETATM   12  C   UNL     1      -8.325  11.014  68.390  1.00  0.00    -0.139 C  
HETATM   13  H   UNL     1      -9.007   8.409  67.405  1.00  0.00     0.000 HD 
HETATM   14  O   UNL     1     -14.347   8.845  72.614  1.00  0.00    -0.613 OA 
HETATM   15  C   UNL     1     -12.020   8.328  72.564  1.00  0.00    -0.420 C  
HETATM   16  C   UNL     1      -5.941  11.041  68.146  1.00  0.00    -0.049 C  
HETATM   17  C   UNL     1      -9.560  10.312  68.789  1.00  0.00    -0.175 C  
HETATM   18  C   UNL     1     -13.260   9.046  72.097  1.00  0.00    -0.446 C  
HETATM   19  C   UNL     1      -9.519   9.664  70.160  1.00  0.00    -0.298 C  
HETATM   20  O   UNL     1     -10.544  10.374  68.052  1.00  0.00    -0.189 OA 
HETATM   21  C   UNL     1     -13.134   9.979  70.922  1.00  0.00    -0.381 C  
HETATM   22  C   UNL     1     -10.891   9.038  70.489  1.00  0.00    -0.296 C  
HETATM   23  C   UNL     1     -11.849  10.238  70.651  1.00  0.00    -0.439 C  
HETATM   24  C   UNL     1     -11.383   8.013  69.425  1.00  0.00     0.344 C  
ENDROOT
BRANCH   8  25
HETATM   25  C   UNL     1      -7.523   9.225  65.954  1.00  0.00    -0.095 C  
HETATM   26  O   UNL     1      -6.943  10.177  65.402  1.00  0.00    -0.126 OA 
BRANCH  25  27
HETATM   27  C   UNL     1      -8.634   8.533  65.226  1.00  0.00    -0.165 C  
HETATM   28  O   UNL     1      -9.859   9.198  65.543  1.00  0.00    -0.455 OA 
HETATM   29  H   UNL     1     -10.563   8.759  65.081  1.00  0.00     0.000 HD 
ENDBRANCH  25  27
ENDBRANCH   8  25
TORSDOF 2
ENDMDL
MODEL       43
REMARK 921   NORMALIZED FREE ENERGY PREDICTED BY IDOCK:   -4.82 KCAL/MOL
REMARK 922        TOTAL FREE ENERGY PREDICTED BY IDOCK:   -5.83 KCAL/MOL
REMARK 923 INTER-LIGAND FREE ENERGY PREDICTED BY IDOCK:   -5.64 KCAL/MOL
REMARK 924 INTRA-LIGAND FREE ENERGY PREDICTED BY IDOCK:   -0.18 KCAL/MOL
REMARK 927      BINDING AFFINITY PREDICTED BY RF-SCORE:    0.00 PKD
ROOT
HETATM    1  C   UNL     1      -8.792  10.023  69.323  1.00  0.00    -0.184 C  
HETATM    2  C   UNL     1     -10.142   9.370  68.975  1.00  0.00    -0.202 C  
HETATM    3  C   UNL     1      -9.932   7.927  68.418  1.00  0.00    -0.198 C  
HETATM    4  C   UNL     1      -9.625   6.903  69.542  1.00  0.00    -0.148 C  
HETATM    5  C   UNL     1      -9.244   5.441  69.062  1.00  0.00    -0.149 C  
HETATM    6  C   UNL     1      -7.749   5.364  68.608  1.00  0.00    -0.084 C  
HETATM    7  C   UNL     1      -6.972   4.560  69.697  1.00  0.00    -0.049 C  
HETATM    8  C   UNL     1      -7.909   4.622  70.898  1.00  0.00    -0.077 C  
HETATM    9  O   UNL     1      -7.760   5.986  71.368  1.00  0.00    -0.100 OA 
HETATM   10  C   UNL     1     -11.117   9.425  70.151  1.00  0.00    -0.277 C  
HETATM   11  C   UNL     1      -9.290   4.365  70.209  1.00  0.00    -0.218 C  
HETATM   12  C   UNL     1     -10.526   4.473  71.089  1.00  0.00     0.014 C  
HETATM   13  H   UNL     1      -8.344   6.024  72.116  1.00  0.00     0.000 HD 
HETATM   14  O   UNL     1     -13.390  11.534  71.951  1.00  0.00    -0.443 OA 
HETATM   15  C   UNL     1     -11.965  10.449  70.379  1.00  0.00    -0.409 C  
HETATM   16  C   UNL     1      -9.408   2.914  69.653  1.00  0.00    -0.206 C  
HETATM   17  C   UNL     1     -10.697   5.849  71.593  1.00  0.00    -0.252 C  
HETATM   18  C   UNL     1     -12.839  10.502  71.605  1.00  0.00    -0.475 C  
HETATM   19  C   UNL     1     -10.812   6.917  70.522  1.00  0.00    -0.289 C  
HETATM   20  O   UNL     1     -10.828   6.027  72.804  1.00  0.00    -0.223 OA 
HETATM   21  C   UNL     1     -12.965   9.253  72.435  1.00  0.00    -0.450 C  
HETATM   22  C   UNL     1     -11.070   8.293  71.174  1.00  0.00    -0.289 C  
HETATM   23  C   UNL     1     -12.487   8.189  71.778  1.00  0.00    -0.363 C  
HETATM   24  C   UNL     1      -9.995   8.698  72.225  1.00  0.00    -0.361 C  
ENDROOT
BRANCH   8  25
HETATM   25  C   UNL     1      -7.667   3.903  72.221  1.00  0.00    -0.071 C  
HETATM   26  O   UNL     1      -7.723   4.559  73.277  1.00  0.00    -0.084 OA 
BRANCH  25  27
HETATM   27  C   UNL     1      -7.253   2.465  72.283  1.00  0.00    -0.035 C  
HETATM   28  O   UNL     1      -6.669   2.223  73.565  1.00  0.00    -0.020 OA 
HETATM   29  H   UNL     1      -6.406   1.311  73.605  1.00  0.00     0.000 HD 
ENDBRANCH  25  27
ENDBRANCH   8  25
TORSDOF 2
ENDMDL
MODEL       44
REMARK 921   NORMALIZED FREE ENERGY PREDICTED BY IDOCK:   -4.80 KCAL/MOL
REMARK 922        TOTAL FREE ENERGY PREDICTED BY IDOCK:   -5.80 KCAL/MOL
REMARK 923 INTER-LIGAND FREE ENERGY PREDICTED BY IDOCK:   -5.42 KCAL/MOL
REMARK 924 INTRA-LIGAND FREE ENERGY PREDICTED BY IDOCK:   -0.38 KCAL/MOL
REMARK 927      BINDING AFFINITY PREDICTED BY RF-SCORE:    0.00 PKD
ROOT
HETATM    1  C   UNL     1     -12.688  13.772  65.966  1.00  0.00    -0.407 C  
HETATM    2  C   UNL     1     -12.063  14.320  67.263  1.00  0.00    -0.390 C  
HETATM    3  C   UNL     1     -11.875  13.179  68.311  1.00  0.00    -0.384 C  
HETATM    4  C   UNL     1     -10.648  12.285  67.992  1.00  0.00    -0.235 C  
HETATM    5  C   UNL     1     -10.463  11.008  68.912  1.00  0.00    -0.229 C  
HETATM    6  C   UNL     1     -11.405   9.843  68.462  1.00  0.00    -0.049 C  
HETATM    7  C   UNL     1     -10.511   8.751  67.795  1.00  0.00    -0.292 C  
HETATM    8  C   UNL     1      -9.227   9.509  67.479  1.00  0.00    -0.126 C  
HETATM    9  O   UNL     1      -9.597  10.330  66.342  1.00  0.00    -0.171 OA 
HETATM   10  C   UNL     1     -10.779  15.101  66.986  1.00  0.00    -0.307 C  
HETATM   11  C   UNL     1      -9.043  10.340  68.792  1.00  0.00    -0.159 C  
HETATM   12  C   UNL     1      -7.900  11.343  68.814  1.00  0.00    -0.128 C  
HETATM   13  H   UNL     1      -8.796  10.803  66.144  1.00  0.00     0.000 HD 
HETATM   14  O   UNL     1      -9.469  18.240  65.850  1.00  0.00    -0.508 OA 
HETATM   15  C   UNL     1     -10.745  16.422  66.717  1.00  0.00    -0.180 C  
HETATM   16  C   UNL     1      -8.711   9.436  70.017  1.00  0.00    -0.227 C  
HETATM   17  C   UNL     1      -8.114  12.409  67.817  1.00  0.00    -0.162 C  
HETATM   18  C   UNL     1      -9.464  17.129  66.356  1.00  0.00    -0.269 C  
HETATM   19  C   UNL     1      -9.404  13.192  67.976  1.00  0.00    -0.219 C  
HETATM   20  O   UNL     1      -7.220  12.652  67.005  1.00  0.00    -0.075 OA 
HETATM   21  C   UNL     1      -8.168  16.397  66.579  1.00  0.00    -0.341 C  
HETATM   22  C   UNL     1      -9.466  14.324  66.928  1.00  0.00    -0.272 C  
HETATM   23  C   UNL     1      -8.354  15.312  67.341  1.00  0.00    -0.202 C  
HETATM   24  C   UNL     1      -9.317  13.827  65.460  1.00  0.00     0.316 C  
ENDROOT
BRANCH   8  25
HETATM   25  C   UNL     1      -7.969   8.874  66.896  1.00  0.00    -0.101 C  
HETATM   26  O   UNL     1      -7.377   8.004  67.560  1.00  0.00    -0.086 OA 
BRANCH  25  27
HETATM   27  C   UNL     1      -7.361   9.344  65.611  1.00  0.00    -0.092 C  
HETATM   28  O   UNL     1      -7.954   8.606  64.540  1.00  0.00    -0.127 OA 
HETATM   29  H   UNL     1      -7.568   8.903  63.725  1.00  0.00     0.000 HD 
ENDBRANCH  25  27
ENDBRANCH   8  25
TORSDOF 2
ENDMDL
MODEL       45
REMARK 921   NORMALIZED FREE ENERGY PREDICTED BY IDOCK:   -4.77 KCAL/MOL
REMARK 922        TOTAL FREE ENERGY PREDICTED BY IDOCK:   -5.77 KCAL/MOL
REMARK 923 INTER-LIGAND FREE ENERGY PREDICTED BY IDOCK:   -6.12 KCAL/MOL
REMARK 924 INTRA-LIGAND FREE ENERGY PREDICTED BY IDOCK:    0.35 KCAL/MOL
REMARK 927      BINDING AFFINITY PREDICTED BY RF-SCORE:    0.00 PKD
ROOT
HETATM    1  C   UNL     1      -7.206   7.717  69.674  1.00  0.00    -0.079 C  
HETATM    2  C   UNL     1      -7.551   8.909  70.586  1.00  0.00    -0.101 C  
HETATM    3  C   UNL     1      -7.258  10.261  69.862  1.00  0.00    -0.162 C  
HETATM    4  C   UNL     1      -8.355  10.622  68.826  1.00  0.00    -0.144 C  
HETATM    5  C   UNL     1      -8.069  11.899  67.931  1.00  0.00    -0.147 C  
HETATM    6  C   UNL     1      -7.094  11.561  66.755  1.00  0.00    -0.112 C  
HETATM    7  C   UNL     1      -7.932  11.567  65.438  1.00  0.00     0.675 C  
HETATM    8  C   UNL     1      -9.364  11.442  65.945  1.00  0.00    -0.228 C  
HETATM    9  O   UNL     1      -9.453  10.053  66.352  1.00  0.00    -0.170 OA 
HETATM   10  C   UNL     1      -8.976   8.813  71.128  1.00  0.00    -0.280 C  
HETATM   11  C   UNL     1      -9.335  12.428  67.160  1.00  0.00    -0.199 C  
HETATM   12  C   UNL     1     -10.586  12.490  68.023  1.00  0.00    -0.237 C  
HETATM   13  H   UNL     1     -10.346   9.975  66.668  1.00  0.00     0.000 HD 
HETATM   14  O   UNL     1     -11.055   7.228  73.582  1.00  0.00    -0.221 OA 
HETATM   15  C   UNL     1      -9.305   8.177  72.271  1.00  0.00    -0.290 C  
HETATM   16  C   UNL     1      -9.173  13.911  66.709  1.00  0.00    -0.267 C  
HETATM   17  C   UNL     1     -10.828  11.200  68.695  1.00  0.00    -0.209 C  
HETATM   18  C   UNL     1     -10.737   8.026  72.715  1.00  0.00    -0.362 C  
HETATM   19  C   UNL     1      -9.695  10.710  69.578  1.00  0.00    -0.085 C  
HETATM   20  O   UNL     1     -11.931  10.666  68.579  1.00  0.00    -0.425 OA 
HETATM   21  C   UNL     1     -11.784   8.846  72.010  1.00  0.00    -0.438 C  
HETATM   22  C   UNL     1     -10.105   9.400  70.284  1.00  0.00    -0.288 C  
HETATM   23  C   UNL     1     -11.221   9.809  71.269  1.00  0.00    -0.417 C  
HETATM   24  C   UNL     1     -10.549   8.273  69.304  1.00  0.00    -0.191 C  
ENDROOT
BRANCH   8  25
HETATM   25  C   UNL     1     -10.603  11.495  65.058  1.00  0.00    -0.297 C  
HETATM   26  O   UNL     1     -11.724  11.400  65.591  1.00  0.00    -0.113 OA 
BRANCH  25  27
HETATM   27  C   UNL     1     -10.513  11.542  63.564  1.00  0.00    -0.428 C  
HETATM   28  O   UNL     1     -11.838  11.455  63.034  1.00  0.00    -0.903 OA 
HETATM   29  H   UNL     1     -11.781  11.485  62.086  1.00  0.00     0.000 HD 
ENDBRANCH  25  27
ENDBRANCH   8  25
TORSDOF 2
ENDMDL
MODEL       46
REMARK 921   NORMALIZED FREE ENERGY PREDICTED BY IDOCK:   -4.76 KCAL/MOL
REMARK 922        TOTAL FREE ENERGY PREDICTED BY IDOCK:   -5.75 KCAL/MOL
REMARK 923 INTER-LIGAND FREE ENERGY PREDICTED BY IDOCK:   -6.14 KCAL/MOL
REMARK 924 INTRA-LIGAND FREE ENERGY PREDICTED BY IDOCK:    0.39 KCAL/MOL
REMARK 927      BINDING AFFINITY PREDICTED BY RF-SCORE:    0.00 PKD
ROOT
HETATM    1  C   UNL     1      -8.857   8.032  65.818  1.00  0.00    -0.170 C  
HETATM    2  C   UNL     1      -7.732   7.491  66.719  1.00  0.00    -0.102 C  
HETATM    3  C   UNL     1      -7.704   8.250  68.083  1.00  0.00    -0.106 C  
HETATM    4  C   UNL     1      -8.824   7.772  69.044  1.00  0.00    -0.138 C  
HETATM    5  C   UNL     1      -8.974   8.589  70.395  1.00  0.00    -0.161 C  
HETATM    6  C   UNL     1      -9.761   9.922  70.168  1.00  0.00    -0.255 C  
HETATM    7  C   UNL     1     -11.169   9.748  70.818  1.00  0.00    -0.419 C  
HETATM    8  C   UNL     1     -11.293   8.236  70.962  1.00  0.00    -0.269 C  
HETATM    9  O   UNL     1     -11.533   7.791  69.603  1.00  0.00    -0.448 OA 
HETATM   10  C   UNL     1      -7.813   5.973  66.877  1.00  0.00    -0.101 C  
HETATM   11  C   UNL     1      -9.862   7.868  71.476  1.00  0.00    -0.206 C  
HETATM   12  C   UNL     1      -9.546   6.388  71.628  1.00  0.00    -0.171 C  
HETATM   13  H   UNL     1     -11.611   6.848  69.692  1.00  0.00     0.000 HD 
HETATM   14  O   UNL     1      -7.097   2.841  65.285  1.00  0.00    -0.055 OA 
HETATM   15  C   UNL     1      -7.214   5.098  66.044  1.00  0.00    -0.073 C  
HETATM   16  C   UNL     1      -9.596   8.410  72.913  1.00  0.00    -0.269 C  
HETATM   17  C   UNL     1      -9.576   5.705  70.321  1.00  0.00    -0.168 C  
HETATM   18  C   UNL     1      -7.402   3.609  66.183  1.00  0.00    -0.072 C  
HETATM   19  C   UNL     1      -8.624   6.264  69.279  1.00  0.00    -0.124 C  
HETATM   20  O   UNL     1     -10.275   4.700  70.190  1.00  0.00    -0.240 OA 
HETATM   21  C   UNL     1      -8.041   3.095  67.445  1.00  0.00    -0.081 C  
HETATM   22  C   UNL     1      -8.692   5.414  67.992  1.00  0.00    -0.106 C  
HETATM   23  C   UNL     1      -8.087   4.049  68.383  1.00  0.00    -0.078 C  
HETATM   24  C   UNL     1     -10.126   5.291  67.399  1.00  0.00    -0.228 C  
ENDROOT
BRANCH   8  25
HETATM   25  C   UNL     1     -12.459   7.524  71.639  1.00  0.00    -0.342 C  
HETATM   26  O   UNL     1     -12.318   6.336  71.981  1.00  0.00    -0.328 OA 
BRANCH  25  27
HETATM   27  C   UNL     1     -13.802   8.169  71.800  1.00  0.00    -0.393 C  
HETATM   28  O   UNL     1     -13.846   8.794  73.085  1.00  0.00    -1.042 OA 
HETATM   29  H   UNL     1     -14.697   9.203  73.188  1.00  0.00     0.000 HD 
ENDBRANCH  25  27
ENDBRANCH   8  25
TORSDOF 2
ENDMDL
MODEL       47
REMARK 921   NORMALIZED FREE ENERGY PREDICTED BY IDOCK:   -4.75 KCAL/MOL
REMARK 922        TOTAL FREE ENERGY PREDICTED BY IDOCK:   -5.75 KCAL/MOL
REMARK 923 INTER-LIGAND FREE ENERGY PREDICTED BY IDOCK:   -5.31 KCAL/MOL
REMARK 924 INTRA-LIGAND FREE ENERGY PREDICTED BY IDOCK:   -0.44 KCAL/MOL
REMARK 927      BINDING AFFINITY PREDICTED BY RF-SCORE:    0.00 PKD
ROOT
HETATM    1  C   UNL     1      -9.873   8.579  72.546  1.00  0.00    -0.324 C  
HETATM    2  C   UNL     1     -10.986   7.921  71.708  1.00  0.00    -0.290 C  
HETATM    3  C   UNL     1     -11.527   8.912  70.631  1.00  0.00    -0.280 C  
HETATM    4  C   UNL     1     -10.569   9.043  69.419  1.00  0.00    -0.231 C  
HETATM    5  C   UNL     1     -10.957  10.142  68.344  1.00  0.00    -0.293 C  
HETATM    6  C   UNL     1     -10.528  11.571  68.813  1.00  0.00    -0.227 C  
HETATM    7  C   UNL     1      -9.312  12.005  67.936  1.00  0.00    -0.190 C  
HETATM    8  C   UNL     1      -8.821  10.682  67.358  1.00  0.00    -0.132 C  
HETATM    9  O   UNL     1      -8.167  10.048  68.487  1.00  0.00    -0.103 OA 
HETATM   10  C   UNL     1     -10.537   6.583  71.122  1.00  0.00    -0.271 C  
HETATM   11  C   UNL     1     -10.178  10.001  66.984  1.00  0.00    -0.295 C  
HETATM   12  C   UNL     1     -10.110   8.569  66.473  1.00  0.00    -0.328 C  
HETATM   13  H   UNL     1      -7.860   9.223  68.126  1.00  0.00     0.000 HD 
HETATM   14  O   UNL     1     -10.001   3.115  71.863  1.00  0.00    -0.169 OA 
HETATM   15  C   UNL     1     -10.672   5.400  71.757  1.00  0.00    -0.271 C  
HETATM   16  C   UNL     1     -10.900  10.733  65.812  1.00  0.00    -0.076 C  
HETATM   17  C   UNL     1      -9.600   7.660  67.517  1.00  0.00    -0.143 C  
HETATM   18  C   UNL     1     -10.127   4.120  71.180  1.00  0.00    -0.075 C  
HETATM   19  C   UNL     1     -10.404   7.642  68.803  1.00  0.00    -0.218 C  
HETATM   20  O   UNL     1      -8.645   6.929  67.254  1.00  0.00    -0.120 OA 
HETATM   21  C   UNL     1      -9.678   4.129  69.744  1.00  0.00    -0.278 C  
HETATM   22  C   UNL     1      -9.818   6.595  69.776  1.00  0.00    -0.174 C  
HETATM   23  C   UNL     1     -10.105   5.230  69.114  1.00  0.00    -0.289 C  
HETATM   24  C   UNL     1      -8.308   6.808  70.089  1.00  0.00    -0.135 C  
ENDROOT
BRANCH   8  25
HETATM   25  C   UNL     1      -7.692  10.549  66.342  1.00  0.00    -0.135 C  
HETATM   26  O   UNL     1      -7.953  10.702  65.135  1.00  0.00    -0.130 OA 
BRANCH  25  27
HETATM   27  C   UNL     1      -6.310  10.126  66.735  1.00  0.00    -0.070 C  
HETATM   28  O   UNL     1      -6.287   8.699  66.820  1.00  0.00    -0.057 OA 
HETATM   29  H   UNL     1      -5.410   8.431  67.069  1.00  0.00     0.000 HD 
ENDBRANCH  25  27
ENDBRANCH   8  25
TORSDOF 2
ENDMDL
MODEL       48
REMARK 921   NORMALIZED FREE ENERGY PREDICTED BY IDOCK:   -4.70 KCAL/MOL
REMARK 922        TOTAL FREE ENERGY PREDICTED BY IDOCK:   -5.69 KCAL/MOL
REMARK 923 INTER-LIGAND FREE ENERGY PREDICTED BY IDOCK:   -5.18 KCAL/MOL
REMARK 924 INTRA-LIGAND FREE ENERGY PREDICTED BY IDOCK:   -0.51 KCAL/MOL
REMARK 927      BINDING AFFINITY PREDICTED BY RF-SCORE:    0.00 PKD
ROOT
HETATM    1  C   UNL     1     -10.960   5.018  72.718  1.00  0.00    -0.312 C  
HETATM    2  C   UNL     1     -10.086   6.286  72.684  1.00  0.00    -0.192 C  
HETATM    3  C   UNL     1      -8.673   5.969  72.104  1.00  0.00    -0.132 C  
HETATM    4  C   UNL     1      -8.689   5.831  70.559  1.00  0.00    -0.140 C  
HETATM    5  C   UNL     1      -7.331   5.358  69.891  1.00  0.00    -0.065 C  
HETATM    6  C   UNL     1      -7.151   3.808  70.008  1.00  0.00    -0.041 C  
HETATM    7  C   UNL     1      -7.364   3.205  68.585  1.00  0.00    -0.049 C  
HETATM    8  C   UNL     1      -8.092   4.323  67.846  1.00  0.00    -0.094 C  
HETATM    9  O   UNL     1      -9.431   4.271  68.399  1.00  0.00    -0.143 OA 
HETATM   10  C   UNL     1     -10.788   7.437  71.964  1.00  0.00    -0.263 C  
HETATM   11  C   UNL     1      -7.284   5.572  68.332  1.00  0.00    -0.075 C  
HETATM   12  C   UNL     1      -7.799   6.935  67.894  1.00  0.00    -0.113 C  
HETATM   13  H   UNL     1      -9.885   4.968  67.939  1.00  0.00     0.000 HD 
HETATM   14  O   UNL     1     -13.274   9.999  72.304  1.00  0.00    -0.427 OA 
HETATM   15  C   UNL     1     -11.598   8.325  72.575  1.00  0.00    -0.454 C  
HETATM   16  C   UNL     1      -5.826   5.579  67.782  1.00  0.00    -0.017 C  
HETATM   17  C   UNL     1      -9.132   7.204  68.464  1.00  0.00    -0.132 C  
HETATM   18  C   UNL     1     -12.343   9.385  71.806  1.00  0.00    -0.394 C  
HETATM   19  C   UNL     1      -9.206   7.160  69.979  1.00  0.00    -0.144 C  
HETATM   20  O   UNL     1     -10.048   7.530  67.708  1.00  0.00    -0.164 OA 
HETATM   21  C   UNL     1     -11.949   9.624  70.374  1.00  0.00    -0.171 C  
HETATM   22  C   UNL     1     -10.627   7.538  70.449  1.00  0.00    -0.236 C  
HETATM   23  C   UNL     1     -10.781   9.032  70.092  1.00  0.00    -0.258 C  
HETATM   24  C   UNL     1     -11.748   6.652  69.831  1.00  0.00    -0.333 C  
ENDROOT
BRANCH   8  25
HETATM   25  C   UNL     1      -8.458   4.286  66.367  1.00  0.00    -0.112 C  
HETATM   26  O   UNL     1      -7.550   4.386  65.523  1.00  0.00    -0.083 OA 
BRANCH  25  27
HETATM   27  C   UNL     1      -9.881   4.251  65.899  1.00  0.00    -0.223 C  
HETATM   28  O   UNL     1     -10.339   5.599  65.763  1.00  0.00    -0.414 OA 
HETATM   29  H   UNL     1     -11.241   5.577  65.466  1.00  0.00     0.000 HD 
ENDBRANCH  25  27
ENDBRANCH   8  25
TORSDOF 2
ENDMDL
MODEL       49
REMARK 921   NORMALIZED FREE ENERGY PREDICTED BY IDOCK:   -4.69 KCAL/MOL
REMARK 922        TOTAL FREE ENERGY PREDICTED BY IDOCK:   -5.68 KCAL/MOL
REMARK 923 INTER-LIGAND FREE ENERGY PREDICTED BY IDOCK:   -5.49 KCAL/MOL
REMARK 924 INTRA-LIGAND FREE ENERGY PREDICTED BY IDOCK:   -0.19 KCAL/MOL
REMARK 927      BINDING AFFINITY PREDICTED BY RF-SCORE:    0.00 PKD
ROOT
HETATM    1  C   UNL     1     -13.466   8.794  71.138  1.00  0.00    -0.081 C  
HETATM    2  C   UNL     1     -12.335   9.640  71.752  1.00  0.00    -0.474 C  
HETATM    3  C   UNL     1     -10.942   9.002  71.453  1.00  0.00    -0.394 C  
HETATM    4  C   UNL     1     -10.474   9.270  69.998  1.00  0.00    -0.254 C  
HETATM    5  C   UNL     1      -9.142   8.533  69.552  1.00  0.00    -0.150 C  
HETATM    6  C   UNL     1      -9.419   7.042  69.169  1.00  0.00    -0.143 C  
HETATM    7  C   UNL     1      -9.291   6.928  67.618  1.00  0.00    -0.124 C  
HETATM    8  C   UNL     1      -9.412   8.377  67.158  1.00  0.00    -0.163 C  
HETATM    9  O   UNL     1     -10.824   8.662  67.323  1.00  0.00    -0.437 OA 
HETATM   10  C   UNL     1     -12.429  11.105  71.327  1.00  0.00    -0.466 C  
HETATM   11  C   UNL     1      -8.520   9.100  68.222  1.00  0.00    -0.125 C  
HETATM   12  C   UNL     1      -8.486  10.619  68.170  1.00  0.00    -0.122 C  
HETATM   13  H   UNL     1     -10.900   9.565  67.037  1.00  0.00     0.000 HD 
HETATM   14  O   UNL     1     -14.131  14.204  71.925  1.00  0.00    -0.441 OA 
HETATM   15  C   UNL     1     -13.139  12.037  71.995  1.00  0.00    -0.456 C  
HETATM   16  C   UNL     1      -7.013   8.732  68.073  1.00  0.00    -0.078 C  
HETATM   17  C   UNL     1      -9.815  11.188  68.463  1.00  0.00    -0.198 C  
HETATM   18  C   UNL     1     -13.280  13.448  71.484  1.00  0.00    -0.312 C  
HETATM   19  C   UNL     1     -10.402  10.795  69.806  1.00  0.00    -0.073 C  
HETATM   20  O   UNL     1     -10.306  11.992  67.671  1.00  0.00    -0.194 OA 
HETATM   21  C   UNL     1     -12.380  13.883  70.359  1.00  0.00    -0.433 C  
HETATM   22  C   UNL     1     -11.749  11.518  70.025  1.00  0.00    -0.414 C  
HETATM   23  C   UNL     1     -11.381  13.010  70.178  1.00  0.00     0.149 C  
HETATM   24  C   UNL     1     -12.786  11.266  68.891  1.00  0.00     0.959 C  
ENDROOT
BRANCH   8  25
HETATM   25  C   UNL     1      -9.257   8.843  65.715  1.00  0.00    -0.221 C  
HETATM   26  O   UNL     1      -9.986   9.762  65.302  1.00  0.00    -0.318 OA 
BRANCH  25  27
HETATM   27  C   UNL     1      -8.341   8.155  64.749  1.00  0.00    -0.104 C  
HETATM   28  O   UNL     1      -8.699   8.563  63.427  1.00  0.00    -0.425 OA 
HETATM   29  H   UNL     1      -8.119   8.127  62.814  1.00  0.00     0.000 HD 
ENDBRANCH  25  27
ENDBRANCH   8  25
TORSDOF 2
ENDMDL
MODEL       50
REMARK 921   NORMALIZED FREE ENERGY PREDICTED BY IDOCK:   -4.66 KCAL/MOL
REMARK 922        TOTAL FREE ENERGY PREDICTED BY IDOCK:   -5.64 KCAL/MOL
REMARK 923 INTER-LIGAND FREE ENERGY PREDICTED BY IDOCK:   -5.11 KCAL/MOL
REMARK 924 INTRA-LIGAND FREE ENERGY PREDICTED BY IDOCK:   -0.53 KCAL/MOL
REMARK 927      BINDING AFFINITY PREDICTED BY RF-SCORE:    0.00 PKD
ROOT
HETATM    1  C   UNL     1     -10.379  12.850  68.239  1.00  0.00    -0.248 C  
HETATM    2  C   UNL     1     -11.372  11.713  67.929  1.00  0.00    -0.369 C  
HETATM    3  C   UNL     1     -10.987  10.991  66.600  1.00  0.00    -0.253 C  
HETATM    4  C   UNL     1      -9.793  10.018  66.785  1.00  0.00    -0.251 C  
HETATM    5  C   UNL     1      -9.231   9.352  65.460  1.00  0.00    -0.292 C  
HETATM    6  C   UNL     1      -8.288  10.334  64.688  1.00  0.00    -0.169 C  
HETATM    7  C   UNL     1      -6.828   9.808  64.857  1.00  0.00    -0.117 C  
HETATM    8  C   UNL     1      -6.941   8.870  66.053  1.00  0.00    -0.084 C  
HETATM    9  O   UNL     1      -7.066   9.777  67.178  1.00  0.00    -0.084 OA 
HETATM   10  C   UNL     1     -11.524  10.757  69.112  1.00  0.00    -0.368 C  
HETATM   11  C   UNL     1      -8.278   8.127  65.722  1.00  0.00    -0.126 C  
HETATM   12  C   UNL     1      -8.807   7.165  66.775  1.00  0.00    -0.137 C  
HETATM   13  H   UNL     1      -7.136   9.192  67.924  1.00  0.00     0.000 HD 
HETATM   14  O   UNL     1     -13.083  10.309  72.310  1.00  0.00    -0.396 OA 
HETATM   15  C   UNL     1     -12.424  10.923  70.103  1.00  0.00    -0.356 C  
HETATM   16  C   UNL     1      -8.144   7.207  64.472  1.00  0.00    -0.069 C  
HETATM   17  C   UNL     1      -9.165   7.881  68.013  1.00  0.00    -0.131 C  
HETATM   18  C   UNL     1     -12.472  10.006  71.297  1.00  0.00    -0.392 C  
HETATM   19  C   UNL     1     -10.199   8.980  67.846  1.00  0.00    -0.272 C  
HETATM   20  O   UNL     1      -8.692   7.495  69.082  1.00  0.00    -0.135 OA 
HETATM   21  C   UNL     1     -11.686   8.724  71.234  1.00  0.00    -0.356 C  
HETATM   22  C   UNL     1     -10.545   9.591  69.221  1.00  0.00    -0.236 C  
HETATM   23  C   UNL     1     -11.284   8.469  69.982  1.00  0.00    -0.086 C  
HETATM   24  C   UNL     1      -9.307  10.131  69.996  1.00  0.00    -0.062 C  
ENDROOT
BRANCH   8  25
HETATM   25  C   UNL     1      -5.802   8.008  66.587  1.00  0.00    -0.044 C  
HETATM   26  O   UNL     1      -5.457   7.004  65.938  1.00  0.00    -0.025 OA 
BRANCH  25  27
HETATM   27  C   UNL     1      -5.165   8.263  67.918  1.00  0.00    -0.034 C  
HETATM   28  O   UNL     1      -5.854   7.485  68.899  1.00  0.00    -0.022 OA 
HETATM   29  H   UNL     1      -5.450   7.646  69.744  1.00  0.00     0.000 HD 
ENDBRANCH  25  27
ENDBRANCH   8  25
TORSDOF 2
ENDMDL
MODEL       51
REMARK 921   NORMALIZED FREE ENERGY PREDICTED BY IDOCK:   -4.64 KCAL/MOL
REMARK 922        TOTAL FREE ENERGY PREDICTED BY IDOCK:   -5.63 KCAL/MOL
REMARK 923 INTER-LIGAND FREE ENERGY PREDICTED BY IDOCK:   -5.12 KCAL/MOL
REMARK 924 INTRA-LIGAND FREE ENERGY PREDICTED BY IDOCK:   -0.51 KCAL/MOL
REMARK 927      BINDING AFFINITY PREDICTED BY RF-SCORE:    0.00 PKD
ROOT
HETATM    1  C   UNL     1      -9.219  10.431  69.303  1.00  0.00    -0.198 C  
HETATM    2  C   UNL     1     -10.578   9.859  68.857  1.00  0.00    -0.239 C  
HETATM    3  C   UNL     1     -10.448   9.132  67.482  1.00  0.00    -0.335 C  
HETATM    4  C   UNL     1      -9.802   7.729  67.618  1.00  0.00    -0.208 C  
HETATM    5  C   UNL     1      -9.488   6.976  66.259  1.00  0.00    -0.127 C  
HETATM    6  C   UNL     1      -8.164   7.503  65.611  1.00  0.00    -0.133 C  
HETATM    7  C   UNL     1      -7.086   6.387  65.782  1.00  0.00    -0.062 C  
HETATM    8  C   UNL     1      -7.672   5.512  66.883  1.00  0.00    -0.100 C  
HETATM    9  O   UNL     1      -7.475   6.306  68.080  1.00  0.00    -0.087 OA 
HETATM   10  C   UNL     1     -11.207   8.986  69.942  1.00  0.00    -0.092 C  
HETATM   11  C   UNL     1      -9.172   5.445  66.441  1.00  0.00    -0.150 C  
HETATM   12  C   UNL     1     -10.134   4.738  67.383  1.00  0.00    -0.177 C  
HETATM   13  H   UNL     1      -7.842   5.761  68.767  1.00  0.00     0.000 HD 
HETATM   14  O   UNL     1     -13.028   9.043  73.031  1.00  0.00    -0.277 OA 
HETATM   15  C   UNL     1     -12.016   9.458  70.913  1.00  0.00    -0.351 C  
HETATM   16  C   UNL     1      -9.359   4.643  65.117  1.00  0.00    -0.153 C  
HETATM   17  C   UNL     1     -10.237   5.454  68.668  1.00  0.00    -0.176 C  
HETATM   18  C   UNL     1     -12.535   8.574  72.017  1.00  0.00    -0.363 C  
HETATM   19  C   UNL     1     -10.686   6.899  68.567  1.00  0.00    -0.252 C  
HETATM   20  O   UNL     1     -10.051   4.830  69.713  1.00  0.00    -0.233 OA 
HETATM   21  C   UNL     1     -12.372   7.086  71.864  1.00  0.00    -0.358 C  
HETATM   22  C   UNL     1     -10.832   7.506  69.979  1.00  0.00    -0.260 C  
HETATM   23  C   UNL     1     -12.031   6.766  70.609  1.00  0.00    -0.418 C  
HETATM   24  C   UNL     1      -9.539   7.405  70.841  1.00  0.00    -0.166 C  
ENDROOT
BRANCH   8  25
HETATM   25  C   UNL     1      -7.052   4.209  67.375  1.00  0.00    -0.067 C  
HETATM   26  O   UNL     1      -7.151   3.193  66.662  1.00  0.00    -0.053 OA 
BRANCH  25  27
HETATM   27  C   UNL     1      -6.433   4.083  68.732  1.00  0.00    -0.037 C  
HETATM   28  O   UNL     1      -7.468   3.775  69.669  1.00  0.00    -0.051 OA 
HETATM   29  H   UNL     1      -7.075   3.695  70.530  1.00  0.00     0.000 HD 
ENDBRANCH  25  27
ENDBRANCH   8  25
TORSDOF 2
ENDMDL
MODEL       52
REMARK 921   NORMALIZED FREE ENERGY PREDICTED BY IDOCK:   -4.62 KCAL/MOL
REMARK 922        TOTAL FREE ENERGY PREDICTED BY IDOCK:   -5.60 KCAL/MOL
REMARK 923 INTER-LIGAND FREE ENERGY PREDICTED BY IDOCK:   -5.31 KCAL/MOL
REMARK 924 INTRA-LIGAND FREE ENERGY PREDICTED BY IDOCK:   -0.29 KCAL/MOL
REMARK 927      BINDING AFFINITY PREDICTED BY RF-SCORE:    0.00 PKD
ROOT
HETATM    1  C   UNL     1     -12.488  15.779  69.977  1.00  0.00    -0.178 C  
HETATM    2  C   UNL     1     -10.953  15.890  70.027  1.00  0.00    -0.361 C  
HETATM    3  C   UNL     1     -10.295  14.475  70.020  1.00  0.00     0.299 C  
HETATM    4  C   UNL     1     -10.291  13.837  68.606  1.00  0.00    -0.225 C  
HETATM    5  C   UNL     1      -9.783  12.337  68.525  1.00  0.00    -0.142 C  
HETATM    6  C   UNL     1     -10.904  11.334  68.955  1.00  0.00    -0.253 C  
HETATM    7  C   UNL     1     -11.397  10.605  67.666  1.00  0.00    -0.284 C  
HETATM    8  C   UNL     1     -10.901  11.516  66.549  1.00  0.00    -0.288 C  
HETATM    9  O   UNL     1     -11.803  12.650  66.617  1.00  0.00    -0.389 OA 
HETATM   10  C   UNL     1     -10.416  16.809  68.930  1.00  0.00    -0.332 C  
HETATM   11  C   UNL     1      -9.462  11.856  67.061  1.00  0.00    -0.192 C  
HETATM   12  C   UNL     1      -8.667  12.870  66.252  1.00  0.00     0.256 C  
HETATM   13  H   UNL     1     -11.494  13.218  65.921  1.00  0.00     0.000 HD 
HETATM   14  O   UNL     1      -9.940  20.233  67.977  1.00  0.00    -0.391 OA 
HETATM   15  C   UNL     1     -10.259  18.141  69.075  1.00  0.00    -0.237 C  
HETATM   16  C   UNL     1      -8.523  10.612  67.042  1.00  0.00    -0.129 C  
HETATM   17  C   UNL     1      -9.314  14.195  66.286  1.00  0.00    -0.189 C  
HETATM   18  C   UNL     1      -9.817  19.019  67.933  1.00  0.00    -0.337 C  
HETATM   19  C   UNL     1      -9.513  14.780  67.672  1.00  0.00    -0.204 C  
HETATM   20  O   UNL     1      -9.556  14.766  65.222  1.00  0.00    -0.185 OA 
HETATM   21  C   UNL     1      -9.274  18.350  66.699  1.00  0.00    -0.305 C  
HETATM   22  C   UNL     1     -10.119  16.196  67.564  1.00  0.00    -0.256 C  
HETATM   23  C   UNL     1      -9.007  17.059  66.930  1.00  0.00    -0.248 C  
HETATM   24  C   UNL     1     -11.453  16.247  66.763  1.00  0.00     0.537 C  
ENDROOT
BRANCH   8  25
HETATM   25  C   UNL     1     -11.036  11.213  65.061  1.00  0.00    -0.030 C  
HETATM   26  O   UNL     1     -10.432  10.231  64.593  1.00  0.00    -0.185 OA 
BRANCH  25  27
HETATM   27  C   UNL     1     -11.775  12.120  64.126  1.00  0.00    -0.396 C  
HETATM   28  O   UNL     1     -13.170  12.031  64.426  1.00  0.00    -0.669 OA 
HETATM   29  H   UNL     1     -13.639  12.607  63.833  1.00  0.00     0.000 HD 
ENDBRANCH  25  27
ENDBRANCH   8  25
TORSDOF 2
ENDMDL
MODEL       53
REMARK 921   NORMALIZED FREE ENERGY PREDICTED BY IDOCK:   -4.59 KCAL/MOL
REMARK 922        TOTAL FREE ENERGY PREDICTED BY IDOCK:   -5.57 KCAL/MOL
REMARK 923 INTER-LIGAND FREE ENERGY PREDICTED BY IDOCK:   -5.39 KCAL/MOL
REMARK 924 INTRA-LIGAND FREE ENERGY PREDICTED BY IDOCK:   -0.18 KCAL/MOL
REMARK 927      BINDING AFFINITY PREDICTED BY RF-SCORE:    0.00 PKD
ROOT
HETATM    1  C   UNL     1     -10.132   4.221  66.277  1.00  0.00    -0.196 C  
HETATM    2  C   UNL     1      -8.857   4.446  67.111  1.00  0.00    -0.119 C  
HETATM    3  C   UNL     1      -8.117   5.741  66.651  1.00  0.00    -0.102 C  
HETATM    4  C   UNL     1      -8.800   7.028  67.183  1.00  0.00    -0.121 C  
HETATM    5  C   UNL     1      -8.212   8.398  66.643  1.00  0.00    -0.105 C  
HETATM    6  C   UNL     1      -8.753   8.724  65.212  1.00  0.00    -0.216 C  
HETATM    7  C   UNL     1      -9.764   9.905  65.353  1.00  0.00    -0.375 C  
HETATM    8  C   UNL     1     -10.101   9.888  66.840  1.00  0.00    -0.225 C  
HETATM    9  O   UNL     1     -10.968   8.733  66.972  1.00  0.00    -0.316 OA 
HETATM   10  C   UNL     1      -9.151   4.422  68.611  1.00  0.00    -0.171 C  
HETATM   11  C   UNL     1      -8.684   9.657  67.462  1.00  0.00    -0.126 C  
HETATM   12  C   UNL     1      -8.620   9.456  68.968  1.00  0.00    -0.135 C  
HETATM   13  H   UNL     1     -11.177   8.723  67.899  1.00  0.00     0.000 HD 
HETATM   14  O   UNL     1      -9.775   2.282  71.419  1.00  0.00    -0.146 OA 
HETATM   15  C   UNL     1      -9.134   3.302  69.363  1.00  0.00    -0.201 C  
HETATM   16  C   UNL     1      -7.743  10.882  67.253  1.00  0.00    -0.112 C  
HETATM   17  C   UNL     1      -9.323   8.222  69.366  1.00  0.00    -0.155 C  
HETATM   18  C   UNL     1      -9.524   3.314  70.818  1.00  0.00    -0.166 C  
HETATM   19  C   UNL     1      -8.809   6.949  68.720  1.00  0.00    -0.132 C  
HETATM   20  O   UNL     1     -10.189   8.286  70.239  1.00  0.00    -0.191 OA 
HETATM   21  C   UNL     1      -9.660   4.648  71.500  1.00  0.00    -0.225 C  
HETATM   22  C   UNL     1      -9.570   5.728  69.280  1.00  0.00    -0.176 C  
HETATM   23  C   UNL     1      -9.127   5.625  70.756  1.00  0.00    -0.164 C  
HETATM   24  C   UNL     1     -11.115   5.826  69.119  1.00  0.00    -0.218 C  
ENDROOT
BRANCH   8  25
HETATM   25  C   UNL     1     -10.987  10.915  67.537  1.00  0.00    -0.293 C  
HETATM   26  O   UNL     1     -11.853  10.512  68.334  1.00  0.00    -0.380 OA 
BRANCH  25  27
HETATM   27  C   UNL     1     -10.928  12.374  67.208  1.00  0.00    -0.260 C  
HETATM   28  O   UNL     1     -11.602  12.580  65.964  1.00  0.00    -0.362 OA 
HETATM   29  H   UNL     1     -11.565  13.506  65.755  1.00  0.00     0.000 HD 
ENDBRANCH  25  27
ENDBRANCH   8  25
TORSDOF 2
ENDMDL
MODEL       54
REMARK 921   NORMALIZED FREE ENERGY PREDICTED BY IDOCK:   -4.53 KCAL/MOL
REMARK 922        TOTAL FREE ENERGY PREDICTED BY IDOCK:   -5.51 KCAL/MOL
REMARK 923 INTER-LIGAND FREE ENERGY PREDICTED BY IDOCK:   -5.00 KCAL/MOL
REMARK 924 INTRA-LIGAND FREE ENERGY PREDICTED BY IDOCK:   -0.50 KCAL/MOL
REMARK 927      BINDING AFFINITY PREDICTED BY RF-SCORE:    0.00 PKD
ROOT
HETATM    1  C   UNL     1      -7.319  12.691  68.829  1.00  0.00    -0.066 C  
HETATM    2  C   UNL     1      -7.483  12.406  67.324  1.00  0.00    -0.135 C  
HETATM    3  C   UNL     1      -6.811  11.050  66.941  1.00  0.00    -0.121 C  
HETATM    4  C   UNL     1      -7.673   9.830  67.357  1.00  0.00    -0.095 C  
HETATM    5  C   UNL     1      -7.005   8.407  67.149  1.00  0.00    -0.075 C  
HETATM    6  C   UNL     1      -6.007   8.074  68.307  1.00  0.00    -0.041 C  
HETATM    7  C   UNL     1      -6.668   6.969  69.189  1.00  0.00    -0.049 C  
HETATM    8  C   UNL     1      -8.138   7.055  68.797  1.00  0.00    -0.121 C  
HETATM    9  O   UNL     1      -8.587   8.269  69.451  1.00  0.00    -0.131 OA 
HETATM   10  C   UNL     1      -8.945  12.497  66.887  1.00  0.00    -0.212 C  
HETATM   11  C   UNL     1      -8.022   7.209  67.245  1.00  0.00    -0.111 C  
HETATM   12  C   UNL     1      -9.315   7.453  66.481  1.00  0.00    -0.222 C  
HETATM   13  H   UNL     1      -9.504   8.323  69.206  1.00  0.00     0.000 HD 
HETATM   14  O   UNL     1     -11.593  14.762  66.040  1.00  0.00    -0.349 OA 
HETATM   15  C   UNL     1      -9.536  13.636  66.473  1.00  0.00    -0.294 C  
HETATM   16  C   UNL     1      -7.477   5.917  66.565  1.00  0.00    -0.087 C  
HETATM   17  C   UNL     1      -9.919   8.744  66.862  1.00  0.00    -0.257 C  
HETATM   18  C   UNL     1     -11.006  13.697  66.144  1.00  0.00    -0.284 C  
HETATM   19  C   UNL     1      -9.034   9.957  66.649  1.00  0.00    -0.157 C  
HETATM   20  O   UNL     1     -11.094   8.765  67.227  1.00  0.00     0.023 OA 
HETATM   21  C   UNL     1     -11.752  12.397  66.009  1.00  0.00    -0.469 C  
HETATM   22  C   UNL     1      -9.808  11.244  67.007  1.00  0.00    -0.217 C  
HETATM   23  C   UNL     1     -10.905  11.363  65.927  1.00  0.00    -0.292 C  
HETATM   24  C   UNL     1     -10.384  11.246  68.454  1.00  0.00    -0.207 C  
ENDROOT
BRANCH   8  25
HETATM   25  C   UNL     1      -9.225   6.114  69.305  1.00  0.00    -0.132 C  
HETATM   26  O   UNL     1      -9.111   4.894  69.084  1.00  0.00    -0.095 OA 
BRANCH  25  27
HETATM   27  C   UNL     1     -10.477   6.618  69.955  1.00  0.00    -0.212 C  
HETATM   28  O   UNL     1     -11.556   6.456  69.032  1.00  0.00    -0.597 OA 
HETATM   29  H   UNL     1     -12.350   6.776  69.444  1.00  0.00     0.000 HD 
ENDBRANCH  25  27
ENDBRANCH   8  25
TORSDOF 2
ENDMDL
MODEL       55
REMARK 921   NORMALIZED FREE ENERGY PREDICTED BY IDOCK:   -4.51 KCAL/MOL
REMARK 922        TOTAL FREE ENERGY PREDICTED BY IDOCK:   -5.48 KCAL/MOL
REMARK 923 INTER-LIGAND FREE ENERGY PREDICTED BY IDOCK:   -4.98 KCAL/MOL
REMARK 924 INTRA-LIGAND FREE ENERGY PREDICTED BY IDOCK:   -0.50 KCAL/MOL
REMARK 927      BINDING AFFINITY PREDICTED BY RF-SCORE:    0.00 PKD
ROOT
HETATM    1  C   UNL     1     -12.975   7.950  71.605  1.00  0.00    -0.359 C  
HETATM    2  C   UNL     1     -11.614   8.668  71.664  1.00  0.00    -0.379 C  
HETATM    3  C   UNL     1     -10.729   8.083  72.808  1.00  0.00    -0.431 C  
HETATM    4  C   UNL     1     -10.095   6.721  72.422  1.00  0.00    -0.188 C  
HETATM    5  C   UNL     1      -9.303   5.974  73.575  1.00  0.00    -0.134 C  
HETATM    6  C   UNL     1     -10.279   5.225  74.541  1.00  0.00    -0.299 C  
HETATM    7  C   UNL     1     -10.125   3.696  74.266  1.00  0.00    -0.204 C  
HETATM    8  C   UNL     1      -9.456   3.662  72.897  1.00  0.00    -0.115 C  
HETATM    9  O   UNL     1     -10.530   4.024  71.992  1.00  0.00    -0.105 OA 
HETATM   10  C   UNL     1     -10.916   8.669  70.304  1.00  0.00    -0.251 C  
HETATM   11  C   UNL     1      -8.392   4.799  73.059  1.00  0.00    -0.101 C  
HETATM   12  C   UNL     1      -7.581   5.160  71.825  1.00  0.00    -0.106 C  
HETATM   13  H   UNL     1     -10.112   4.003  71.138  1.00  0.00     0.000 HD 
HETATM   14  O   UNL     1     -10.824  10.239  67.082  1.00  0.00    -0.262 OA 
HETATM   15  C   UNL     1     -11.090   9.626  69.370  1.00  0.00    -0.170 C  
HETATM   16  C   UNL     1      -7.281   4.421  74.084  1.00  0.00    -0.072 C  
HETATM   17  C   UNL     1      -8.447   5.715  70.767  1.00  0.00    -0.124 C  
HETATM   18  C   UNL     1     -10.454   9.534  68.007  1.00  0.00    -0.230 C  
HETATM   19  C   UNL     1      -9.239   6.947  71.163  1.00  0.00    -0.154 C  
HETATM   20  O   UNL     1      -8.402   5.219  69.641  1.00  0.00    -0.096 OA 
HETATM   21  C   UNL     1      -9.386   8.495  67.797  1.00  0.00    -0.153 C  
HETATM   22  C   UNL     1     -10.036   7.473  69.950  1.00  0.00    -0.189 C  
HETATM   23  C   UNL     1      -8.967   7.994  68.965  1.00  0.00    -0.145 C  
HETATM   24  C   UNL     1     -10.978   6.411  69.311  1.00  0.00    -0.418 C  
ENDROOT
BRANCH   8  25
HETATM   25  C   UNL     1      -8.989   2.393  72.193  1.00  0.00    -0.078 C  
HETATM   26  O   UNL     1      -8.135   1.680  72.751  1.00  0.00    -0.050 OA 
BRANCH  25  27
HETATM   27  C   UNL     1      -9.435   2.038  70.808  1.00  0.00    -0.122 C  
HETATM   28  O   UNL     1      -8.343   2.267  69.915  1.00  0.00    -0.044 OA 
HETATM   29  H   UNL     1      -8.626   2.042  69.036  1.00  0.00     0.000 HD 
ENDBRANCH  25  27
ENDBRANCH   8  25
TORSDOF 2
ENDMDL
MODEL       56
REMARK 921   NORMALIZED FREE ENERGY PREDICTED BY IDOCK:   -4.46 KCAL/MOL
REMARK 922        TOTAL FREE ENERGY PREDICTED BY IDOCK:   -5.42 KCAL/MOL
REMARK 923 INTER-LIGAND FREE ENERGY PREDICTED BY IDOCK:   -5.29 KCAL/MOL
REMARK 924 INTRA-LIGAND FREE ENERGY PREDICTED BY IDOCK:   -0.14 KCAL/MOL
REMARK 927      BINDING AFFINITY PREDICTED BY RF-SCORE:    0.00 PKD
ROOT
HETATM    1  C   UNL     1      -5.590  10.459  65.736  1.00  0.00    -0.089 C  
HETATM    2  C   UNL     1      -6.250  10.021  67.057  1.00  0.00    -0.063 C  
HETATM    3  C   UNL     1      -6.875  11.245  67.796  1.00  0.00    -0.074 C  
HETATM    4  C   UNL     1      -8.222  11.686  67.165  1.00  0.00    -0.165 C  
HETATM    5  C   UNL     1      -8.858  13.016  67.749  1.00  0.00    -0.188 C  
HETATM    6  C   UNL     1      -8.177  14.286  67.140  1.00  0.00    -0.184 C  
HETATM    7  C   UNL     1      -9.201  14.939  66.160  1.00  0.00    -0.268 C  
HETATM    8  C   UNL     1     -10.192  13.810  65.901  1.00  0.00    -0.313 C  
HETATM    9  O   UNL     1      -9.460  12.920  65.021  1.00  0.00    -0.453 OA 
HETATM   10  C   UNL     1      -7.241   8.878  66.841  1.00  0.00    -0.082 C  
HETATM   11  C   UNL     1     -10.363  13.230  67.344  1.00  0.00    -0.243 C  
HETATM   12  C   UNL     1     -11.210  11.974  67.482  1.00  0.00    -0.357 C  
HETATM   13  H   UNL     1     -10.077  12.215  64.859  1.00  0.00     0.000 HD 
HETATM   14  O   UNL     1      -7.538   5.342  66.326  1.00  0.00    -0.086 OA 
HETATM   15  C   UNL     1      -6.904   7.572  66.878  1.00  0.00    -0.070 C  
HETATM   16  C   UNL     1     -11.095  14.226  68.294  1.00  0.00    -0.276 C  
HETATM   17  C   UNL     1     -10.588  10.837  66.778  1.00  0.00    -0.250 C  
HETATM   18  C   UNL     1      -7.897   6.484  66.564  1.00  0.00    -0.104 C  
HETATM   19  C   UNL     1      -9.184  10.487  67.235  1.00  0.00    -0.156 C  
HETATM   20  O   UNL     1     -11.257  10.205  65.960  1.00  0.00     0.420 OA 
HETATM   21  C   UNL     1      -9.353   6.858  66.488  1.00  0.00    -0.197 C  
HETATM   22  C   UNL     1      -8.681   9.236  66.482  1.00  0.00    -0.145 C  
HETATM   23  C   UNL     1      -9.562   8.078  66.999  1.00  0.00    -0.252 C  
HETATM   24  C   UNL     1      -8.722   9.379  64.932  1.00  0.00    -0.220 C  
ENDROOT
BRANCH   8  25
HETATM   25  C   UNL     1     -11.464  13.948  65.071  1.00  0.00    -0.339 C  
HETATM   26  O   UNL     1     -11.883  12.955  64.449  1.00  0.00    -0.342 OA 
BRANCH  25  27
HETATM   27  C   UNL     1     -12.156  15.264  64.886  1.00  0.00    -0.039 C  
HETATM   28  O   UNL     1     -12.237  15.533  63.484  1.00  0.00    -0.752 OA 
HETATM   29  H   UNL     1     -12.676  16.367  63.366  1.00  0.00     0.000 HD 
ENDBRANCH  25  27
ENDBRANCH   8  25
TORSDOF 2
ENDMDL
MODEL       57
REMARK 921   NORMALIZED FREE ENERGY PREDICTED BY IDOCK:   -4.42 KCAL/MOL
REMARK 922        TOTAL FREE ENERGY PREDICTED BY IDOCK:   -5.38 KCAL/MOL
REMARK 923 INTER-LIGAND FREE ENERGY PREDICTED BY IDOCK:   -5.00 KCAL/MOL
REMARK 924 INTRA-LIGAND FREE ENERGY PREDICTED BY IDOCK:   -0.38 KCAL/MOL
REMARK 927      BINDING AFFINITY PREDICTED BY RF-SCORE:    0.00 PKD
ROOT
HETATM    1  C   UNL     1     -11.776   8.066  72.582  1.00  0.00    -0.418 C  
HETATM    2  C   UNL     1     -11.623   6.922  71.562  1.00  0.00    -0.329 C  
HETATM    3  C   UNL     1     -11.752   7.461  70.102  1.00  0.00    -0.028 C  
HETATM    4  C   UNL     1     -10.462   8.179  69.626  1.00  0.00    -0.224 C  
HETATM    5  C   UNL     1     -10.549   8.895  68.213  1.00  0.00    -0.203 C  
HETATM    6  C   UNL     1     -11.259  10.284  68.324  1.00  0.00    -0.295 C  
HETATM    7  C   UNL     1     -10.166  11.383  68.143  1.00  0.00    -0.200 C  
HETATM    8  C   UNL     1      -8.871  10.621  68.401  1.00  0.00    -0.145 C  
HETATM    9  O   UNL     1      -8.875  10.435  69.839  1.00  0.00    -0.384 OA 
HETATM   10  C   UNL     1     -10.341   6.123  71.796  1.00  0.00    -0.250 C  
HETATM   11  C   UNL     1      -9.148   9.294  67.618  1.00  0.00    -0.136 C  
HETATM   12  C   UNL     1      -8.104   8.195  67.741  1.00  0.00    -0.127 C  
HETATM   13  H   UNL     1      -8.068   9.959  70.000  1.00  0.00     0.000 HD 
HETATM   14  O   UNL     1      -8.827   3.584  73.826  1.00  0.00    -0.088 OA 
HETATM   15  C   UNL     1     -10.261   5.055  72.617  1.00  0.00    -0.236 C  
HETATM   16  C   UNL     1      -9.205   9.522  66.077  1.00  0.00    -0.248 C  
HETATM   17  C   UNL     1      -8.013   7.705  69.129  1.00  0.00    -0.120 C  
HETATM   18  C   UNL     1      -8.953   4.358  72.890  1.00  0.00    -0.117 C  
HETATM   19  C   UNL     1      -9.307   7.165  69.708  1.00  0.00    -0.146 C  
HETATM   20  O   UNL     1      -6.912   7.678  69.680  1.00  0.00    -0.050 OA 
HETATM   21  C   UNL     1      -7.779   4.691  72.010  1.00  0.00    -0.091 C  
HETATM   22  C   UNL     1      -9.059   6.611  71.128  1.00  0.00    -0.152 C  
HETATM   23  C   UNL     1      -8.171   5.365  70.922  1.00  0.00    -0.117 C  
HETATM   24  C   UNL     1      -8.426   7.648  72.102  1.00  0.00    -0.141 C  
ENDROOT
BRANCH   8  25
HETATM   25  C   UNL     1      -7.474  11.214  68.256  1.00  0.00    -0.094 C  
HETATM   26  O   UNL     1      -7.143  11.703  67.161  1.00  0.00    -0.123 OA 
BRANCH  25  27
HETATM   27  C   UNL     1      -6.452  11.123  69.347  1.00  0.00    -0.100 C  
HETATM   28  O   UNL     1      -6.742  12.133  70.316  1.00  0.00    -0.434 OA 
HETATM   29  H   UNL     1      -6.094  12.076  71.008  1.00  0.00     0.000 HD 
ENDBRANCH  25  27
ENDBRANCH   8  25
TORSDOF 2
ENDMDL
MODEL       58
REMARK 921   NORMALIZED FREE ENERGY PREDICTED BY IDOCK:   -4.41 KCAL/MOL
REMARK 922        TOTAL FREE ENERGY PREDICTED BY IDOCK:   -5.37 KCAL/MOL
REMARK 923 INTER-LIGAND FREE ENERGY PREDICTED BY IDOCK:   -5.77 KCAL/MOL
REMARK 924 INTRA-LIGAND FREE ENERGY PREDICTED BY IDOCK:    0.40 KCAL/MOL
REMARK 927      BINDING AFFINITY PREDICTED BY RF-SCORE:    0.00 PKD
ROOT
HETATM    1  C   UNL     1      -6.799   9.631  68.427  1.00  0.00    -0.061 C  
HETATM    2  C   UNL     1      -6.595   8.105  68.445  1.00  0.00    -0.059 C  
HETATM    3  C   UNL     1      -6.911   7.521  69.858  1.00  0.00    -0.047 C  
HETATM    4  C   UNL     1      -8.435   7.410  70.120  1.00  0.00    -0.137 C  
HETATM    5  C   UNL     1      -8.856   6.972  71.585  1.00  0.00    -0.130 C  
HETATM    6  C   UNL     1      -8.791   8.179  72.579  1.00  0.00    -0.272 C  
HETATM    7  C   UNL     1     -10.260   8.579  72.923  1.00  0.00    -0.009 C  
HETATM    8  C   UNL     1     -11.061   7.930  71.800  1.00  0.00    -0.253 C  
HETATM    9  O   UNL     1     -10.779   8.777  70.657  1.00  0.00    -0.209 OA 
HETATM   10  C   UNL     1      -7.373   7.417  67.323  1.00  0.00    -0.098 C  
HETATM   11  C   UNL     1     -10.362   6.533  71.707  1.00  0.00    -0.229 C  
HETATM   12  C   UNL     1     -10.816   5.613  70.584  1.00  0.00    -0.304 C  
HETATM   13  H   UNL     1     -11.279   8.372  69.957  1.00  0.00     0.000 HD 
HETATM   14  O   UNL     1      -7.375   6.678  63.814  1.00  0.00    -0.059 OA 
HETATM   15  C   UNL     1      -6.880   7.209  66.085  1.00  0.00    -0.057 C  
HETATM   16  C   UNL     1     -10.621   5.661  72.972  1.00  0.00    -0.275 C  
HETATM   17  C   UNL     1     -10.497   6.192  69.265  1.00  0.00    -0.254 C  
HETATM   18  C   UNL     1      -7.718   6.613  64.983  1.00  0.00    -0.103 C  
HETATM   19  C   UNL     1      -9.030   6.497  69.033  1.00  0.00    -0.129 C  
HETATM   20  O   UNL     1     -11.396   6.299  68.430  1.00  0.00    -0.298 OA 
HETATM   21  C   UNL     1      -9.033   5.985  65.360  1.00  0.00     0.015 C  
HETATM   22  C   UNL     1      -8.821   7.018  67.594  1.00  0.00    -0.119 C  
HETATM   23  C   UNL     1      -9.118   5.807  66.684  1.00  0.00    -0.133 C  
HETATM   24  C   UNL     1      -9.690   8.262  67.246  1.00  0.00    -0.234 C  
ENDROOT
BRANCH   8  25
HETATM   25  C   UNL     1     -12.584   7.933  71.711  1.00  0.00    -0.328 C  
HETATM   26  O   UNL     1     -13.159   6.915  71.287  1.00  0.00    -0.332 OA 
BRANCH  25  27
HETATM   27  C   UNL     1     -13.397   9.156  72.005  1.00  0.00    -0.445 C  
HETATM   28  O   UNL     1     -14.009   8.988  73.286  1.00  0.00    -1.205 OA 
HETATM   29  H   UNL     1     -14.525   9.763  73.473  1.00  0.00     0.000 HD 
ENDBRANCH  25  27
ENDBRANCH   8  25
TORSDOF 2
ENDMDL
MODEL       59
REMARK 921   NORMALIZED FREE ENERGY PREDICTED BY IDOCK:   -4.33 KCAL/MOL
REMARK 922        TOTAL FREE ENERGY PREDICTED BY IDOCK:   -5.28 KCAL/MOL
REMARK 923 INTER-LIGAND FREE ENERGY PREDICTED BY IDOCK:   -4.85 KCAL/MOL
REMARK 924 INTRA-LIGAND FREE ENERGY PREDICTED BY IDOCK:   -0.43 KCAL/MOL
REMARK 927      BINDING AFFINITY PREDICTED BY RF-SCORE:    0.00 PKD
ROOT
HETATM    1  C   UNL     1     -10.267   6.742  69.334  1.00  0.00    -0.204 C  
HETATM    2  C   UNL     1      -9.517   7.898  70.020  1.00  0.00    -0.157 C  
HETATM    3  C   UNL     1      -8.140   8.151  69.330  1.00  0.00    -0.117 C  
HETATM    4  C   UNL     1      -8.286   8.921  67.992  1.00  0.00    -0.121 C  
HETATM    5  C   UNL     1      -6.959   9.091  67.141  1.00  0.00    -0.078 C  
HETATM    6  C   UNL     1      -6.631   7.791  66.335  1.00  0.00    -0.050 C  
HETATM    7  C   UNL     1      -6.921   8.089  64.831  1.00  0.00    -0.063 C  
HETATM    8  C   UNL     1      -7.809   9.326  64.893  1.00  0.00    -0.116 C  
HETATM    9  O   UNL     1      -9.082   8.799  65.346  1.00  0.00    -0.316 OA 
HETATM   10  C   UNL     1     -10.381   9.155  70.116  1.00  0.00    -0.244 C  
HETATM   11  C   UNL     1      -7.075  10.162  65.993  1.00  0.00    -0.118 C  
HETATM   12  C   UNL     1      -7.747  11.452  66.437  1.00  0.00    -0.051 C  
HETATM   13  H   UNL     1      -9.637   9.570  65.385  1.00  0.00     0.000 HD 
HETATM   14  O   UNL     1     -13.043  10.724  71.936  1.00  0.00    -0.481 OA 
HETATM   15  C   UNL     1     -11.207   9.423  71.148  1.00  0.00    -0.427 C  
HETATM   16  C   UNL     1      -5.680  10.666  65.515  1.00  0.00    -0.136 C  
HETATM   17  C   UNL     1      -9.041  11.176  67.090  1.00  0.00    -0.147 C  
HETATM   18  C   UNL     1     -12.111  10.628  71.153  1.00  0.00    -0.341 C  
HETATM   19  C   UNL     1      -8.971  10.265  68.301  1.00  0.00    -0.132 C  
HETATM   20  O   UNL     1     -10.048  11.758  66.684  1.00  0.00    -0.200 OA 
HETATM   21  C   UNL     1     -11.873  11.692  70.115  1.00  0.00    -0.428 C  
HETATM   22  C   UNL     1     -10.370  10.124  68.937  1.00  0.00    -0.223 C  
HETATM   23  C   UNL     1     -10.689  11.520  69.514  1.00  0.00    -0.054 C  
HETATM   24  C   UNL     1     -11.460   9.618  67.946  1.00  0.00     0.525 C  
ENDROOT
BRANCH   8  25
HETATM   25  C   UNL     1      -8.306  10.096  63.675  1.00  0.00    -0.170 C  
HETATM   26  O   UNL     1      -7.481  10.451  62.815  1.00  0.00    -0.141 OA 
BRANCH  25  27
HETATM   27  C   UNL     1      -9.730  10.540  63.539  1.00  0.00    -0.319 C  
HETATM   28  O   UNL     1      -9.756  11.969  63.548  1.00  0.00    -0.540 OA 
HETATM   29  H   UNL     1     -10.659  12.250  63.462  1.00  0.00     0.000 HD 
ENDBRANCH  25  27
ENDBRANCH   8  25
TORSDOF 2
ENDMDL
MODEL       60
REMARK 921   NORMALIZED FREE ENERGY PREDICTED BY IDOCK:   -4.32 KCAL/MOL
REMARK 922        TOTAL FREE ENERGY PREDICTED BY IDOCK:   -5.27 KCAL/MOL
REMARK 923 INTER-LIGAND FREE ENERGY PREDICTED BY IDOCK:   -5.07 KCAL/MOL
REMARK 924 INTRA-LIGAND FREE ENERGY PREDICTED BY IDOCK:   -0.20 KCAL/MOL
REMARK 927      BINDING AFFINITY PREDICTED BY RF-SCORE:    0.00 PKD
ROOT
HETATM    1  C   UNL     1     -12.071   7.169  71.101  1.00  0.00    -0.397 C  
HETATM    2  C   UNL     1     -11.321   6.230  70.137  1.00  0.00    -0.476 C  
HETATM    3  C   UNL     1     -11.125   6.909  68.745  1.00  0.00    -0.163 C  
HETATM    4  C   UNL     1      -9.981   7.956  68.758  1.00  0.00    -0.194 C  
HETATM    5  C   UNL     1      -9.808   8.809  67.432  1.00  0.00    -0.250 C  
HETATM    6  C   UNL     1     -10.849   9.974  67.365  1.00  0.00    -0.313 C  
HETATM    7  C   UNL     1     -10.075  11.307  67.610  1.00  0.00    -0.201 C  
HETATM    8  C   UNL     1      -8.774  10.832  68.247  1.00  0.00    -0.136 C  
HETATM    9  O   UNL     1      -9.175  10.467  69.592  1.00  0.00    -0.390 OA 
HETATM   10  C   UNL     1     -10.015   5.720  70.746  1.00  0.00    -0.249 C  
HETATM   11  C   UNL     1      -8.443   9.589  67.355  1.00  0.00    -0.125 C  
HETATM   12  C   UNL     1      -7.243   8.750  67.766  1.00  0.00    -0.084 C  
HETATM   13  H   UNL     1      -8.364  10.171  69.989  1.00  0.00     0.000 HD 
HETATM   14  O   UNL     1      -8.605   3.354  73.042  1.00  0.00    -0.081 OA 
HETATM   15  C   UNL     1      -9.921   4.603  71.495  1.00  0.00    -0.265 C  
HETATM   16  C   UNL     1      -8.077   9.995  65.895  1.00  0.00    -0.126 C  
HETATM   17  C   UNL     1      -7.464   8.120  69.081  1.00  0.00    -0.087 C  
HETATM   18  C   UNL     1      -8.630   4.192  72.154  1.00  0.00    -0.106 C  
HETATM   19  C   UNL     1      -8.689   7.230  69.171  1.00  0.00    -0.136 C  
HETATM   20  O   UNL     1      -6.620   8.274  69.964  1.00  0.00    -0.038 OA 
HETATM   21  C   UNL     1      -7.368   4.894  71.731  1.00  0.00    -0.071 C  
HETATM   22  C   UNL     1      -8.760   6.570  70.565  1.00  0.00    -0.144 C  
HETATM   23  C   UNL     1      -7.563   5.595  70.607  1.00  0.00    -0.090 C  
HETATM   24  C   UNL     1      -8.749   7.589  71.742  1.00  0.00    -0.128 C  
ENDROOT
BRANCH   8  25
HETATM   25  C   UNL     1      -7.602  11.742  68.602  1.00  0.00    -0.125 C  
HETATM   26  O   UNL     1      -7.005  11.555  69.677  1.00  0.00    -0.089 OA 
BRANCH  25  27
HETATM   27  C   UNL     1      -7.223  12.920  67.758  1.00  0.00    -0.134 C  
HETATM   28  O   UNL     1      -6.209  12.504  66.841  1.00  0.00    -0.466 OA 
HETATM   29  H   UNL     1      -5.969  13.251  66.305  1.00  0.00     0.000 HD 
ENDBRANCH  25  27
ENDBRANCH   8  25
TORSDOF 2
ENDMDL
MODEL       61
REMARK 921   NORMALIZED FREE ENERGY PREDICTED BY IDOCK:   -4.32 KCAL/MOL
REMARK 922        TOTAL FREE ENERGY PREDICTED BY IDOCK:   -5.26 KCAL/MOL
REMARK 923 INTER-LIGAND FREE ENERGY PREDICTED BY IDOCK:   -4.98 KCAL/MOL
REMARK 924 INTRA-LIGAND FREE ENERGY PREDICTED BY IDOCK:   -0.28 KCAL/MOL
REMARK 927      BINDING AFFINITY PREDICTED BY RF-SCORE:    0.00 PKD
ROOT
HETATM    1  C   UNL     1      -6.207  10.495  68.545  1.00  0.00    -0.046 C  
HETATM    2  C   UNL     1      -7.039   9.730  67.499  1.00  0.00    -0.088 C  
HETATM    3  C   UNL     1      -7.145   8.218  67.874  1.00  0.00    -0.083 C  
HETATM    4  C   UNL     1      -8.174   7.966  69.007  1.00  0.00    -0.126 C  
HETATM    5  C   UNL     1      -8.241   6.483  69.564  1.00  0.00    -0.126 C  
HETATM    6  C   UNL     1      -7.083   6.204  70.578  1.00  0.00    -0.071 C  
HETATM    7  C   UNL     1      -7.718   6.128  72.002  1.00  0.00    -0.097 C  
HETATM    8  C   UNL     1      -9.069   6.807  71.808  1.00  0.00    -0.140 C  
HETATM    9  O   UNL     1      -8.725   8.212  71.707  1.00  0.00    -0.125 OA 
HETATM   10  C   UNL     1      -8.398  10.388  67.265  1.00  0.00    -0.122 C  
HETATM   11  C   UNL     1      -9.516   6.192  70.440  1.00  0.00    -0.179 C  
HETATM   12  C   UNL     1     -10.802   6.732  69.833  1.00  0.00    -0.310 C  
HETATM   13  H   UNL     1      -9.568   8.635  71.586  1.00  0.00     0.000 HD 
HETATM   14  O   UNL     1     -10.076  13.089  65.606  1.00  0.00    -0.279 OA 
HETATM   15  C   UNL     1      -8.618  11.357  66.352  1.00  0.00    -0.174 C  
HETATM   16  C   UNL     1      -9.819   4.668  70.552  1.00  0.00    -0.301 C  
HETATM   17  C   UNL     1     -10.664   8.158  69.485  1.00  0.00    -0.175 C  
HETATM   18  C   UNL     1      -9.953  12.043  66.224  1.00  0.00    -0.227 C  
HETATM   19  C   UNL     1      -9.540   8.481  68.519  1.00  0.00    -0.158 C  
HETATM   20  O   UNL     1     -11.499   8.958  69.910  1.00  0.00    -0.069 OA 
HETATM   21  C   UNL     1     -11.129  11.435  66.938  1.00  0.00    -0.356 C  
HETATM   22  C   UNL     1      -9.556   9.985  68.174  1.00  0.00    -0.152 C  
HETATM   23  C   UNL     1     -10.848  10.194  67.356  1.00  0.00    -0.323 C  
HETATM   24  C   UNL     1      -9.475  10.914  69.422  1.00  0.00     0.036 C  
ENDROOT
BRANCH   8  25
HETATM   25  C   UNL     1     -10.144   6.917  72.884  1.00  0.00    -0.189 C  
HETATM   26  O   UNL     1     -10.765   7.989  73.002  1.00  0.00    -0.361 OA 
BRANCH  25  27
HETATM   27  C   UNL     1     -10.394   5.823  73.876  1.00  0.00    -0.272 C  
HETATM   28  O   UNL     1     -11.616   5.171  73.522  1.00  0.00    -0.467 OA 
HETATM   29  H   UNL     1     -11.775   4.476  74.151  1.00  0.00     0.000 HD 
ENDBRANCH  25  27
ENDBRANCH   8  25
TORSDOF 2
ENDMDL
MODEL       62
REMARK 921   NORMALIZED FREE ENERGY PREDICTED BY IDOCK:   -4.28 KCAL/MOL
REMARK 922        TOTAL FREE ENERGY PREDICTED BY IDOCK:   -5.22 KCAL/MOL
REMARK 923 INTER-LIGAND FREE ENERGY PREDICTED BY IDOCK:   -5.02 KCAL/MOL
REMARK 924 INTRA-LIGAND FREE ENERGY PREDICTED BY IDOCK:   -0.20 KCAL/MOL
REMARK 927      BINDING AFFINITY PREDICTED BY RF-SCORE:    0.00 PKD
ROOT
HETATM    1  C   UNL     1     -11.798   9.986  70.293  1.00  0.00    -0.291 C  
HETATM    2  C   UNL     1     -10.291  10.302  70.265  1.00  0.00    -0.151 C  
HETATM    3  C   UNL     1      -9.469   9.127  70.883  1.00  0.00    -0.343 C  
HETATM    4  C   UNL     1      -9.328   7.931  69.905  1.00  0.00    -0.156 C  
HETATM    5  C   UNL     1      -8.641   6.630  70.496  1.00  0.00    -0.143 C  
HETATM    6  C   UNL     1      -9.652   5.792  71.347  1.00  0.00    -0.188 C  
HETATM    7  C   UNL     1      -9.999   4.509  70.528  1.00  0.00    -0.278 C  
HETATM    8  C   UNL     1      -9.567   4.881  69.114  1.00  0.00    -0.163 C  
HETATM    9  O   UNL     1     -10.600   5.802  68.681  1.00  0.00    -0.223 OA 
HETATM   10  C   UNL     1      -9.821  10.694  68.865  1.00  0.00    -0.210 C  
HETATM   11  C   UNL     1      -8.202   5.591  69.398  1.00  0.00    -0.098 C  
HETATM   12  C   UNL     1      -7.500   6.229  68.209  1.00  0.00    -0.090 C  
HETATM   13  H   UNL     1     -10.331   6.034  67.800  1.00  0.00     0.000 HD 
HETATM   14  O   UNL     1      -9.716  13.362  66.472  1.00  0.00    -0.269 OA 
HETATM   15  C   UNL     1      -9.831  11.958  68.395  1.00  0.00    -0.201 C  
HETATM   16  C   UNL     1      -7.122   4.599  69.925  1.00  0.00    -0.053 C  
HETATM   17  C   UNL     1      -8.301   7.337  67.655  1.00  0.00    -0.117 C  
HETATM   18  C   UNL     1      -9.448  12.283  66.974  1.00  0.00    -0.204 C  
HETATM   19  C   UNL     1      -8.628   8.449  68.635  1.00  0.00    -0.132 C  
HETATM   20  O   UNL     1      -8.563   7.338  66.452  1.00  0.00    -0.125 OA 
HETATM   21  C   UNL     1      -8.776  11.208  66.162  1.00  0.00    -0.188 C  
HETATM   22  C   UNL     1      -9.394   9.579  67.914  1.00  0.00    -0.145 C  
HETATM   23  C   UNL     1      -8.366  10.201  66.944  1.00  0.00    -0.122 C  
HETATM   24  C   UNL     1     -10.688   9.098  67.194  1.00  0.00    -0.213 C  
ENDROOT
BRANCH   8  25
HETATM   25  C   UNL     1      -9.601   3.931  67.921  1.00  0.00    -0.136 C  
HETATM   26  O   UNL     1      -9.953   4.374  66.814  1.00  0.00    -0.216 OA 
BRANCH  25  27
HETATM   27  C   UNL     1      -9.337   2.463  68.063  1.00  0.00    -0.202 C  
HETATM   28  O   UNL     1      -9.604   1.838  66.806  1.00  0.00    -0.358 OA 
HETATM   29  H   UNL     1      -9.437   0.907  66.895  1.00  0.00     0.000 HD 
ENDBRANCH  25  27
ENDBRANCH   8  25
TORSDOF 2
ENDMDL
MODEL       63
REMARK 921   NORMALIZED FREE ENERGY PREDICTED BY IDOCK:   -4.23 KCAL/MOL
REMARK 922        TOTAL FREE ENERGY PREDICTED BY IDOCK:   -5.17 KCAL/MOL
REMARK 923 INTER-LIGAND FREE ENERGY PREDICTED BY IDOCK:   -4.69 KCAL/MOL
REMARK 924 INTRA-LIGAND FREE ENERGY PREDICTED BY IDOCK:   -0.47 KCAL/MOL
REMARK 927      BINDING AFFINITY PREDICTED BY RF-SCORE:    0.00 PKD
ROOT
HETATM    1  C   UNL     1      -8.178   3.666  66.655  1.00  0.00    -0.099 C  
HETATM    2  C   UNL     1      -9.303   4.538  66.067  1.00  0.00    -0.157 C  
HETATM    3  C   UNL     1     -10.366   4.878  67.158  1.00  0.00    -0.181 C  
HETATM    4  C   UNL     1      -9.883   5.993  68.121  1.00  0.00    -0.148 C  
HETATM    5  C   UNL     1     -10.830   6.301  69.355  1.00  0.00    -0.404 C  
HETATM    6  C   UNL     1     -10.631   5.253  70.499  1.00  0.00    -0.272 C  
HETATM    7  C   UNL     1      -9.879   5.970  71.664  1.00  0.00    -0.196 C  
HETATM    8  C   UNL     1      -9.288   7.199  70.982  1.00  0.00    -0.158 C  
HETATM    9  O   UNL     1      -8.190   6.654  70.207  1.00  0.00    -0.122 OA 
HETATM   10  C   UNL     1      -8.750   5.775  65.360  1.00  0.00    -0.122 C  
HETATM   11  C   UNL     1     -10.493   7.651  70.091  1.00  0.00    -0.227 C  
HETATM   12  C   UNL     1     -10.245   8.812  69.140  1.00  0.00    -0.215 C  
HETATM   13  H   UNL     1      -7.822   7.420  69.781  1.00  0.00     0.000 HD 
HETATM   14  O   UNL     1      -7.206   6.958  62.348  1.00  0.00    -0.054 OA 
HETATM   15  C   UNL     1      -8.400   5.803  64.058  1.00  0.00    -0.036 C  
HETATM   16  C   UNL     1     -11.689   8.173  70.943  1.00  0.00    -0.259 C  
HETATM   17  C   UNL     1      -9.241   8.454  68.120  1.00  0.00    -0.137 C  
HETATM   18  C   UNL     1      -7.769   7.018  63.429  1.00  0.00    -0.118 C  
HETATM   19  C   UNL     1      -9.585   7.243  67.274  1.00  0.00    -0.191 C  
HETATM   20  O   UNL     1      -8.267   9.190  67.961  1.00  0.00    -0.111 OA 
HETATM   21  C   UNL     1      -7.795   8.307  64.206  1.00  0.00    -0.144 C  
HETATM   22  C   UNL     1      -8.500   7.027  66.197  1.00  0.00    -0.136 C  
HETATM   23  C   UNL     1      -8.643   8.229  65.239  1.00  0.00    -0.159 C  
HETATM   24  C   UNL     1      -7.062   6.885  66.777  1.00  0.00    -0.075 C  
ENDROOT
BRANCH   8  25
HETATM   25  C   UNL     1      -8.526   8.305  71.702  1.00  0.00    -0.149 C  
HETATM   26  O   UNL     1      -9.055   8.854  72.686  1.00  0.00    -0.321 OA 
BRANCH  25  27
HETATM   27  C   UNL     1      -7.217   8.830  71.198  1.00  0.00    -0.093 C  
HETATM   28  O   UNL     1      -7.439  10.131  70.649  1.00  0.00    -0.410 OA 
HETATM   29  H   UNL     1      -6.610  10.465  70.329  1.00  0.00     0.000 HD 
ENDBRANCH  25  27
ENDBRANCH   8  25
TORSDOF 2
ENDMDL
MODEL       64
REMARK 921   NORMALIZED FREE ENERGY PREDICTED BY IDOCK:   -4.23 KCAL/MOL
REMARK 922        TOTAL FREE ENERGY PREDICTED BY IDOCK:   -5.16 KCAL/MOL
REMARK 923 INTER-LIGAND FREE ENERGY PREDICTED BY IDOCK:   -4.79 KCAL/MOL
REMARK 924 INTRA-LIGAND FREE ENERGY PREDICTED BY IDOCK:   -0.37 KCAL/MOL
REMARK 927      BINDING AFFINITY PREDICTED BY RF-SCORE:    0.00 PKD
ROOT
HETATM    1  C   UNL     1      -8.621   6.791  66.141  1.00  0.00    -0.146 C  
HETATM    2  C   UNL     1      -9.273   8.173  66.331  1.00  0.00    -0.250 C  
HETATM    3  C   UNL     1     -10.449   8.094  67.353  1.00  0.00    -0.356 C  
HETATM    4  C   UNL     1      -9.949   8.030  68.820  1.00  0.00    -0.196 C  
HETATM    5  C   UNL     1     -11.064   7.793  69.923  1.00  0.00    -0.142 C  
HETATM    6  C   UNL     1     -11.462   6.282  70.012  1.00  0.00    -0.460 C  
HETATM    7  C   UNL     1     -10.874   5.723  71.345  1.00  0.00    -0.316 C  
HETATM    8  C   UNL     1      -9.815   6.756  71.710  1.00  0.00    -0.163 C  
HETATM    9  O   UNL     1      -8.744   6.482  70.771  1.00  0.00    -0.141 OA 
HETATM   10  C   UNL     1      -8.240   9.242  66.684  1.00  0.00    -0.115 C  
HETATM   11  C   UNL     1     -10.576   8.086  71.390  1.00  0.00    -0.258 C  
HETATM   12  C   UNL     1      -9.783   9.377  71.516  1.00  0.00    -0.020 C  
HETATM   13  H   UNL     1      -8.084   7.127  70.998  1.00  0.00     0.000 HD 
HETATM   14  O   UNL     1      -5.703  11.393  65.344  1.00  0.00    -0.018 OA 
HETATM   15  C   UNL     1      -7.569   9.972  65.769  1.00  0.00    -0.120 C  
HETATM   16  C   UNL     1     -11.764   8.332  72.368  1.00  0.00    -0.463 C  
HETATM   17  C   UNL     1      -8.685   9.421  70.533  1.00  0.00    -0.231 C  
HETATM   18  C   UNL     1      -6.490  10.947  66.163  1.00  0.00    -0.114 C  
HETATM   19  C   UNL     1      -9.113   9.295  69.082  1.00  0.00    -0.145 C  
HETATM   20  O   UNL     1      -7.540   9.645  70.928  1.00  0.00    -0.309 OA 
HETATM   21  C   UNL     1      -6.365  11.310  67.619  1.00  0.00    -0.059 C  
HETATM   22  C   UNL     1      -7.886   9.438  68.156  1.00  0.00    -0.087 C  
HETATM   23  C   UNL     1      -7.441  10.909  68.307  1.00  0.00    -0.093 C  
HETATM   24  C   UNL     1      -6.744   8.428  68.469  1.00  0.00    -0.063 C  
ENDROOT
BRANCH   8  25
HETATM   25  C   UNL     1      -8.995   6.737  72.995  1.00  0.00    -0.127 C  
HETATM   26  O   UNL     1      -9.584   6.883  74.082  1.00  0.00    -0.230 OA 
BRANCH  25  27
HETATM   27  C   UNL     1      -7.499   6.666  72.986  1.00  0.00    -0.088 C  
HETATM   28  O   UNL     1      -7.118   5.288  73.014  1.00  0.00    -0.084 OA 
HETATM   29  H   UNL     1      -6.169   5.243  73.008  1.00  0.00     0.000 HD 
ENDBRANCH  25  27
ENDBRANCH   8  25
TORSDOF 2
ENDMDL
MODEL       65
REMARK 921   NORMALIZED FREE ENERGY PREDICTED BY IDOCK:   -4.21 KCAL/MOL
REMARK 922        TOTAL FREE ENERGY PREDICTED BY IDOCK:   -5.15 KCAL/MOL
REMARK 923 INTER-LIGAND FREE ENERGY PREDICTED BY IDOCK:   -4.66 KCAL/MOL
REMARK 924 INTRA-LIGAND FREE ENERGY PREDICTED BY IDOCK:   -0.48 KCAL/MOL
REMARK 927      BINDING AFFINITY PREDICTED BY RF-SCORE:    0.00 PKD
ROOT
HETATM    1  C   UNL     1     -11.785  10.868  68.229  1.00  0.00    -0.259 C  
HETATM    2  C   UNL     1     -10.279  11.184  68.163  1.00  0.00    -0.198 C  
HETATM    3  C   UNL     1      -9.574  10.799  69.502  1.00  0.00     0.023 C  
HETATM    4  C   UNL     1      -9.339   9.271  69.623  1.00  0.00    -0.187 C  
HETATM    5  C   UNL     1      -8.768   8.766  71.014  1.00  0.00    -0.248 C  
HETATM    6  C   UNL     1      -9.901   8.658  72.087  1.00  0.00    -0.387 C  
HETATM    7  C   UNL     1     -10.173   7.140  72.328  1.00  0.00    -0.213 C  
HETATM    8  C   UNL     1      -9.553   6.484  71.099  1.00  0.00    -0.171 C  
HETATM    9  O   UNL     1     -10.497   6.794  70.044  1.00  0.00    -0.197 OA 
HETATM   10  C   UNL     1      -9.622  10.555  66.935  1.00  0.00    -0.206 C  
HETATM   11  C   UNL     1      -8.218   7.292  70.975  1.00  0.00    -0.107 C  
HETATM   12  C   UNL     1      -7.352   7.002  69.758  1.00  0.00    -0.088 C  
HETATM   13  H   UNL     1     -10.110   6.385  69.277  1.00  0.00     0.000 HD 
HETATM   14  O   UNL     1      -9.141  10.896  63.398  1.00  0.00    -0.212 OA 
HETATM   15  C   UNL     1      -9.539  11.162  65.733  1.00  0.00    -0.255 C  
HETATM   16  C   UNL     1      -7.240   6.996  72.152  1.00  0.00    -0.077 C  
HETATM   17  C   UNL     1      -8.046   7.383  68.513  1.00  0.00    -0.125 C  
HETATM   18  C   UNL     1      -8.967  10.464  64.527  1.00  0.00    -0.216 C  
HETATM   19  C   UNL     1      -8.468   8.838  68.430  1.00  0.00    -0.130 C  
HETATM   20  O   UNL     1      -8.150   6.551  67.612  1.00  0.00    -0.115 OA 
HETATM   21  C   UNL     1      -8.224   9.173  64.745  1.00  0.00    -0.150 C  
HETATM   22  C   UNL     1      -9.105   9.124  67.053  1.00  0.00    -0.147 C  
HETATM   23  C   UNL     1      -7.945   8.994  66.042  1.00  0.00    -0.103 C  
HETATM   24  C   UNL     1     -10.307   8.195  66.714  1.00  0.00    -0.361 C  
ENDROOT
BRANCH   8  25
HETATM   25  C   UNL     1      -9.457   4.978  70.878  1.00  0.00    -0.162 C  
HETATM   26  O   UNL     1      -8.941   4.276  71.766  1.00  0.00    -0.115 OA 
BRANCH  25  27
HETATM   27  C   UNL     1      -9.854   4.335  69.585  1.00  0.00    -0.174 C  
HETATM   28  O   UNL     1      -8.667   3.886  68.927  1.00  0.00    -0.085 OA 
HETATM   29  H   UNL     1      -8.919   3.478  68.107  1.00  0.00     0.000 HD 
ENDBRANCH  25  27
ENDBRANCH   8  25
TORSDOF 2
ENDMDL
MODEL       66
REMARK 921   NORMALIZED FREE ENERGY PREDICTED BY IDOCK:   -4.16 KCAL/MOL
REMARK 922        TOTAL FREE ENERGY PREDICTED BY IDOCK:   -5.09 KCAL/MOL
REMARK 923 INTER-LIGAND FREE ENERGY PREDICTED BY IDOCK:   -4.65 KCAL/MOL
REMARK 924 INTRA-LIGAND FREE ENERGY PREDICTED BY IDOCK:   -0.43 KCAL/MOL
REMARK 927      BINDING AFFINITY PREDICTED BY RF-SCORE:    0.00 PKD
ROOT
HETATM    1  C   UNL     1     -10.698   8.300  72.285  1.00  0.00    -0.399 C  
HETATM    2  C   UNL     1      -9.609   9.044  71.491  1.00  0.00    -0.340 C  
HETATM    3  C   UNL     1      -8.245   8.290  71.583  1.00  0.00    -0.174 C  
HETATM    4  C   UNL     1      -8.197   7.047  70.656  1.00  0.00    -0.119 C  
HETATM    5  C   UNL     1      -6.912   6.129  70.794  1.00  0.00    -0.067 C  
HETATM    6  C   UNL     1      -7.022   5.179  72.031  1.00  0.00    -0.073 C  
HETATM    7  C   UNL     1      -7.260   3.734  71.491  1.00  0.00    -0.039 C  
HETATM    8  C   UNL     1      -7.728   3.979  70.061  1.00  0.00    -0.052 C  
HETATM    9  O   UNL     1      -9.085   4.462  70.233  1.00  0.00    -0.087 OA 
HETATM   10  C   UNL     1     -10.047   9.321  70.054  1.00  0.00    -0.240 C  
HETATM   11  C   UNL     1      -6.737   5.104  69.613  1.00  0.00    -0.051 C  
HETATM   12  C   UNL     1      -6.970   5.717  68.240  1.00  0.00    -0.068 C  
HETATM   13  H   UNL     1      -9.377   4.615  69.341  1.00  0.00     0.000 HD 
HETATM   14  O   UNL     1     -12.042  11.463  67.982  1.00  0.00    -0.629 OA 
HETATM   15  C   UNL     1     -10.716  10.428  69.672  1.00  0.00    -0.304 C  
HETATM   16  C   UNL     1      -5.272   4.583  69.496  1.00  0.00    -0.004 C  
HETATM   17  C   UNL     1      -8.263   6.425  68.191  1.00  0.00    -0.116 C  
HETATM   18  C   UNL     1     -11.211  10.613  68.261  1.00  0.00    -0.301 C  
HETATM   19  C   UNL     1      -8.430   7.533  69.214  1.00  0.00    -0.136 C  
HETATM   20  O   UNL     1      -9.059   6.148  67.294  1.00  0.00    -0.116 OA 
HETATM   21  C   UNL     1     -10.698   9.671  67.205  1.00  0.00    -0.284 C  
HETATM   22  C   UNL     1      -9.784   8.245  69.004  1.00  0.00    -0.167 C  
HETATM   23  C   UNL     1      -9.643   8.978  67.652  1.00  0.00    -0.183 C  
HETATM   24  C   UNL     1     -11.009   7.286  69.045  1.00  0.00    -0.077 C  
ENDROOT
BRANCH   8  25
HETATM   25  C   UNL     1      -8.010   2.879  69.043  1.00  0.00    -0.055 C  
HETATM   26  O   UNL     1      -7.050   2.348  68.456  1.00  0.00    -0.043 OA 
BRANCH  25  27
HETATM   27  C   UNL     1      -9.403   2.500  68.644  1.00  0.00    -0.179 C  
HETATM   28  O   UNL     1      -9.702   3.143  67.403  1.00  0.00    -0.350 OA 
HETATM   29  H   UNL     1     -10.585   2.903  67.149  1.00  0.00     0.000 HD 
ENDBRANCH  25  27
ENDBRANCH   8  25
TORSDOF 2
ENDMDL
MODEL       67
REMARK 921   NORMALIZED FREE ENERGY PREDICTED BY IDOCK:   -4.15 KCAL/MOL
REMARK 922        TOTAL FREE ENERGY PREDICTED BY IDOCK:   -5.07 KCAL/MOL
REMARK 923 INTER-LIGAND FREE ENERGY PREDICTED BY IDOCK:   -5.23 KCAL/MOL
REMARK 924 INTRA-LIGAND FREE ENERGY PREDICTED BY IDOCK:    0.16 KCAL/MOL
REMARK 927      BINDING AFFINITY PREDICTED BY RF-SCORE:    0.00 PKD
ROOT
HETATM    1  C   UNL     1     -11.274  16.088  66.213  1.00  0.00     0.159 C  
HETATM    2  C   UNL     1     -11.015  16.009  67.729  1.00  0.00    -0.307 C  
HETATM    3  C   UNL     1     -11.216  14.551  68.249  1.00  0.00    -0.295 C  
HETATM    4  C   UNL     1     -10.013  13.634  67.905  1.00  0.00    -0.244 C  
HETATM    5  C   UNL     1     -10.190  12.098  68.256  1.00  0.00    -0.209 C  
HETATM    6  C   UNL     1     -11.039  11.361  67.169  1.00  0.00    -0.366 C  
HETATM    7  C   UNL     1     -10.067  10.447  66.358  1.00  0.00    -0.287 C  
HETATM    8  C   UNL     1      -8.698  11.031  66.687  1.00  0.00    -0.160 C  
HETATM    9  O   UNL     1      -8.666  12.260  65.918  1.00  0.00    -0.399 OA 
HETATM   10  C   UNL     1      -9.655  16.598  68.102  1.00  0.00    -0.228 C  
HETATM   11  C   UNL     1      -8.844  11.282  68.224  1.00  0.00    -0.158 C  
HETATM   12  C   UNL     1      -7.691  11.991  68.917  1.00  0.00     0.014 C  
HETATM   13  H   UNL     1      -7.812  12.624  66.123  1.00  0.00     0.000 HD 
HETATM   14  O   UNL     1      -7.863  19.654  68.658  1.00  0.00    -0.346 OA 
HETATM   15  C   UNL     1      -9.455  17.899  68.398  1.00  0.00    -0.304 C  
HETATM   16  C   UNL     1      -8.943   9.951  69.030  1.00  0.00    -0.160 C  
HETATM   17  C   UNL     1      -7.534  13.366  68.406  1.00  0.00    -0.117 C  
HETATM   18  C   UNL     1      -8.079  18.452  68.666  1.00  0.00    -0.297 C  
HETATM   19  C   UNL     1      -8.758  14.251  68.549  1.00  0.00    -0.175 C  
HETATM   20  O   UNL     1      -6.430  13.727  67.998  1.00  0.00    -0.107 OA 
HETATM   21  C   UNL     1      -6.956  17.475  68.882  1.00  0.00    -0.252 C  
HETATM   22  C   UNL     1      -8.438  15.678  68.056  1.00  0.00    -0.146 C  
HETATM   23  C   UNL     1      -7.428  16.238  69.081  1.00  0.00    -0.218 C  
HETATM   24  C   UNL     1      -7.905  15.731  66.594  1.00  0.00    -0.192 C  
ENDROOT
BRANCH   8  25
HETATM   25  C   UNL     1      -7.371  10.441  66.220  1.00  0.00    -0.128 C  
HETATM   26  O   UNL     1      -6.391  11.197  66.098  1.00  0.00    -0.127 OA 
BRANCH  25  27
HETATM   27  C   UNL     1      -7.241   9.011  65.794  1.00  0.00    -0.089 C  
HETATM   28  O   UNL     1      -7.646   8.181  66.884  1.00  0.00    -0.092 OA 
HETATM   29  H   UNL     1      -7.564   7.274  66.614  1.00  0.00     0.000 HD 
ENDBRANCH  25  27
ENDBRANCH   8  25
TORSDOF 2
ENDMDL
MODEL       68
REMARK 921   NORMALIZED FREE ENERGY PREDICTED BY IDOCK:   -4.13 KCAL/MOL
REMARK 922        TOTAL FREE ENERGY PREDICTED BY IDOCK:   -5.05 KCAL/MOL
REMARK 923 INTER-LIGAND FREE ENERGY PREDICTED BY IDOCK:   -5.22 KCAL/MOL
REMARK 924 INTRA-LIGAND FREE ENERGY PREDICTED BY IDOCK:    0.16 KCAL/MOL
REMARK 927      BINDING AFFINITY PREDICTED BY RF-SCORE:    0.00 PKD
ROOT
HETATM    1  C   UNL     1     -12.317   6.923  70.628  1.00  0.00    -0.248 C  
HETATM    2  C   UNL     1     -11.026   6.215  70.176  1.00  0.00    -0.426 C  
HETATM    3  C   UNL     1     -10.598   6.700  68.755  1.00  0.00    -0.271 C  
HETATM    4  C   UNL     1      -9.925   8.097  68.791  1.00  0.00    -0.198 C  
HETATM    5  C   UNL     1      -9.594   8.743  67.381  1.00  0.00    -0.206 C  
HETATM    6  C   UNL     1     -10.866   9.391  66.741  1.00  0.00    -0.012 C  
HETATM    7  C   UNL     1     -10.689  10.940  66.819  1.00  0.00    -0.309 C  
HETATM    8  C   UNL     1      -9.603  11.106  67.876  1.00  0.00    -0.175 C  
HETATM    9  O   UNL     1     -10.297  10.819  69.116  1.00  0.00    -0.205 OA 
HETATM   10  C   UNL     1      -9.915   6.345  71.216  1.00  0.00    -0.204 C  
HETATM   11  C   UNL     1      -8.611   9.969  67.460  1.00  0.00    -0.122 C  
HETATM   12  C   UNL     1      -7.420   9.729  68.376  1.00  0.00    -0.083 C  
HETATM   13  H   UNL     1      -9.620  10.922  69.775  1.00  0.00     0.000 HD 
HETATM   14  O   UNL     1      -8.689   5.078  74.339  1.00  0.00    -0.112 OA 
HETATM   15  C   UNL     1      -9.729   5.476  72.231  1.00  0.00    -0.181 C  
HETATM   16  C   UNL     1      -7.921  10.261  66.093  1.00  0.00    -0.131 C  
HETATM   17  C   UNL     1      -7.860   9.266  69.705  1.00  0.00    -0.100 C  
HETATM   18  C   UNL     1      -8.678   5.698  73.288  1.00  0.00    -0.118 C  
HETATM   19  C   UNL     1      -8.690   7.996  69.703  1.00  0.00    -0.133 C  
HETATM   20  O   UNL     1      -7.462   9.864  70.705  1.00  0.00    -0.313 OA 
HETATM   21  C   UNL     1      -7.642   6.762  73.039  1.00  0.00    -0.086 C  
HETATM   22  C   UNL     1      -9.014   7.576  71.153  1.00  0.00    -0.144 C  
HETATM   23  C   UNL     1      -7.658   7.157  71.760  1.00  0.00    -0.087 C  
HETATM   24  C   UNL     1      -9.730   8.684  71.981  1.00  0.00    -0.391 C  
ENDROOT
BRANCH   8  25
HETATM   25  C   UNL     1      -8.978  12.438  68.272  1.00  0.00    -0.178 C  
HETATM   26  O   UNL     1      -7.805  12.449  68.688  1.00  0.00    -0.117 OA 
BRANCH  25  27
HETATM   27  C   UNL     1      -9.763  13.714  68.289  1.00  0.00    -0.231 C  
HETATM   28  O   UNL     1     -10.664  13.669  69.398  1.00  0.00    -0.436 OA 
HETATM   29  H   UNL     1     -11.162  14.478  69.409  1.00  0.00     0.000 HD 
ENDBRANCH  25  27
ENDBRANCH   8  25
TORSDOF 2
ENDMDL
MODEL       69
REMARK 921   NORMALIZED FREE ENERGY PREDICTED BY IDOCK:   -4.08 KCAL/MOL
REMARK 922        TOTAL FREE ENERGY PREDICTED BY IDOCK:   -5.00 KCAL/MOL
REMARK 923 INTER-LIGAND FREE ENERGY PREDICTED BY IDOCK:   -4.56 KCAL/MOL
REMARK 924 INTRA-LIGAND FREE ENERGY PREDICTED BY IDOCK:   -0.44 KCAL/MOL
REMARK 927      BINDING AFFINITY PREDICTED BY RF-SCORE:    0.00 PKD
ROOT
HETATM    1  C   UNL     1      -8.517   6.753  65.529  1.00  0.00    -0.124 C  
HETATM    2  C   UNL     1      -7.269   7.584  65.881  1.00  0.00    -0.066 C  
HETATM    3  C   UNL     1      -7.435   9.061  65.404  1.00  0.00    -0.089 C  
HETATM    4  C   UNL     1      -8.357   9.882  66.344  1.00  0.00    -0.125 C  
HETATM    5  C   UNL     1      -8.710  11.350  65.860  1.00  0.00    -0.101 C  
HETATM    6  C   UNL     1      -9.848  11.335  64.787  1.00  0.00    -0.312 C  
HETATM    7  C   UNL     1     -11.137  11.894  65.466  1.00  0.00    -0.356 C  
HETATM    8  C   UNL     1     -10.822  11.764  66.952  1.00  0.00    -0.271 C  
HETATM    9  O   UNL     1     -10.948  10.339  67.195  1.00  0.00    -0.251 OA 
HETATM   10  C   UNL     1      -6.911   7.467  67.363  1.00  0.00    -0.083 C  
HETATM   11  C   UNL     1      -9.337  12.254  66.985  1.00  0.00    -0.205 C  
HETATM   12  C   UNL     1      -8.609  12.153  68.317  1.00  0.00    -0.175 C  
HETATM   13  H   UNL     1     -10.752  10.258  68.122  1.00  0.00     0.000 HD 
HETATM   14  O   UNL     1      -5.358   5.373  69.824  1.00  0.00    -0.004 OA 
HETATM   15  C   UNL     1      -6.102   6.514  67.868  1.00  0.00    -0.027 C  
HETATM   16  C   UNL     1      -9.212  13.773  66.657  1.00  0.00    -0.238 C  
HETATM   17  C   UNL     1      -8.465  10.745  68.734  1.00  0.00    -0.148 C  
HETATM   18  C   UNL     1      -5.855   6.381  69.348  1.00  0.00    -0.021 C  
HETATM   19  C   UNL     1      -7.731   9.854  67.750  1.00  0.00    -0.091 C  
HETATM   20  O   UNL     1      -8.851  10.415  69.855  1.00  0.00    -0.059 OA 
HETATM   21  C   UNL     1      -6.299   7.509  70.241  1.00  0.00    -0.034 C  
HETATM   22  C   UNL     1      -7.575   8.435  68.339  1.00  0.00    -0.097 C  
HETATM   23  C   UNL     1      -6.599   8.599  69.524  1.00  0.00    -0.040 C  
HETATM   24  C   UNL     1      -8.924   7.779  68.755  1.00  0.00    -0.141 C  
ENDROOT
BRANCH   8  25
HETATM   25  C   UNL     1     -11.725  12.263  68.075  1.00  0.00    -0.356 C  
HETATM   26  O   UNL     1     -12.080  13.455  68.071  1.00  0.00    -0.342 OA 
BRANCH  25  27
HETATM   27  C   UNL     1     -12.101  11.399  69.239  1.00  0.00    -0.289 C  
HETATM   28  O   UNL     1     -11.559  11.986  70.424  1.00  0.00    -0.519 OA 
HETATM   29  H   UNL     1     -11.797  11.439  71.163  1.00  0.00     0.000 HD 
ENDBRANCH  25  27
ENDBRANCH   8  25
TORSDOF 2
ENDMDL
MODEL       70
REMARK 921   NORMALIZED FREE ENERGY PREDICTED BY IDOCK:   -4.07 KCAL/MOL
REMARK 922        TOTAL FREE ENERGY PREDICTED BY IDOCK:   -4.99 KCAL/MOL
REMARK 923 INTER-LIGAND FREE ENERGY PREDICTED BY IDOCK:   -4.47 KCAL/MOL
REMARK 924 INTRA-LIGAND FREE ENERGY PREDICTED BY IDOCK:   -0.52 KCAL/MOL
REMARK 927      BINDING AFFINITY PREDICTED BY RF-SCORE:    0.00 PKD
ROOT
HETATM    1  C   UNL     1     -11.759  12.646  67.539  1.00  0.00    -0.429 C  
HETATM    2  C   UNL     1     -10.911  12.685  68.825  1.00  0.00    -0.289 C  
HETATM    3  C   UNL     1      -9.481  13.235  68.528  1.00  0.00    -0.113 C  
HETATM    4  C   UNL     1      -9.468  14.778  68.366  1.00  0.00    -0.213 C  
HETATM    5  C   UNL     1      -8.089  15.415  67.911  1.00  0.00    -0.148 C  
HETATM    6  C   UNL     1      -7.878  15.269  66.368  1.00  0.00     0.541 C  
HETATM    7  C   UNL     1      -8.054  16.686  65.738  1.00  0.00     0.456 C  
HETATM    8  C   UNL     1      -8.791  17.455  66.828  1.00  0.00    -0.251 C  
HETATM    9  O   UNL     1     -10.139  16.924  66.756  1.00  0.00    -0.275 OA 
HETATM   10  C   UNL     1     -11.623  13.436  69.949  1.00  0.00    -0.270 C  
HETATM   11  C   UNL     1      -8.018  16.975  68.102  1.00  0.00    -0.206 C  
HETATM   12  C   UNL     1      -8.554  17.444  69.446  1.00  0.00     0.416 C  
HETATM   13  H   UNL     1     -10.599  17.404  67.437  1.00  0.00     0.000 HD 
HETATM   14  O   UNL     1     -14.168  13.180  72.463  1.00  0.00    -0.654 OA 
HETATM   15  C   UNL     1     -12.463  12.852  70.829  1.00  0.00    -0.370 C  
HETATM   16  C   UNL     1      -6.551  17.500  68.131  1.00  0.00    -0.186 C  
HETATM   17  C   UNL     1      -9.902  16.901  69.696  1.00  0.00     0.174 C  
HETATM   18  C   UNL     1     -13.216  13.651  71.861  1.00  0.00    -0.411 C  
HETATM   19  C   UNL     1     -10.002  15.388  69.674  1.00  0.00    -0.270 C  
HETATM   20  O   UNL     1     -10.811  17.678  69.990  1.00  0.00     0.494 OA 
HETATM   21  C   UNL     1     -12.802  15.080  72.086  1.00  0.00    -0.414 C  
HETATM   22  C   UNL     1     -11.439  14.949  70.030  1.00  0.00    -0.317 C  
HETATM   23  C   UNL     1     -11.618  15.333  71.515  1.00  0.00    -0.456 C  
HETATM   24  C   UNL     1     -12.529  15.572  69.110  1.00  0.00     0.077 C  
ENDROOT
BRANCH   8  25
HETATM   25  C   UNL     1      -9.131  18.939  66.761  1.00  0.00    -0.312 C  
HETATM   26  O   UNL     1      -8.211  19.769  66.876  1.00  0.00    -0.283 OA 
BRANCH  25  27
HETATM   27  C   UNL     1     -10.543  19.431  66.678  1.00  0.00    -0.467 C  
HETATM   28  O   UNL     1     -11.035  19.603  68.009  1.00  0.00    -0.298 OA 
HETATM   29  H   UNL     1     -11.931  19.915  67.957  1.00  0.00     0.000 HD 
ENDBRANCH  25  27
ENDBRANCH   8  25
TORSDOF 2
ENDMDL
MODEL       71
REMARK 921   NORMALIZED FREE ENERGY PREDICTED BY IDOCK:   -3.96 KCAL/MOL
REMARK 922        TOTAL FREE ENERGY PREDICTED BY IDOCK:   -4.87 KCAL/MOL
REMARK 923 INTER-LIGAND FREE ENERGY PREDICTED BY IDOCK:   -5.04 KCAL/MOL
REMARK 924 INTRA-LIGAND FREE ENERGY PREDICTED BY IDOCK:    0.17 KCAL/MOL
REMARK 927      BINDING AFFINITY PREDICTED BY RF-SCORE:    0.00 PKD
ROOT
HETATM    1  C   UNL     1     -10.116   9.990  65.481  1.00  0.00    -0.325 C  
HETATM    2  C   UNL     1      -8.679   9.562  65.832  1.00  0.00    -0.168 C  
HETATM    3  C   UNL     1      -8.360   9.871  67.329  1.00  0.00    -0.121 C  
HETATM    4  C   UNL     1      -8.999   8.836  68.291  1.00  0.00    -0.141 C  
HETATM    5  C   UNL     1      -8.860   9.151  69.839  1.00  0.00    -0.176 C  
HETATM    6  C   UNL     1      -9.919  10.206  70.300  1.00  0.00    -0.081 C  
HETATM    7  C   UNL     1     -10.982   9.454  71.160  1.00  0.00    -0.430 C  
HETATM    8  C   UNL     1     -10.761   7.996  70.777  1.00  0.00    -0.223 C  
HETATM    9  O   UNL     1     -11.335   7.910  69.447  1.00  0.00    -0.435 OA 
HETATM   10  C   UNL     1      -8.412   8.107  65.448  1.00  0.00    -0.164 C  
HETATM   11  C   UNL     1      -9.198   7.926  70.767  1.00  0.00    -0.159 C  
HETATM   12  C   UNL     1      -8.572   6.622  70.298  1.00  0.00    -0.140 C  
HETATM   13  H   UNL     1     -11.196   7.001  69.208  1.00  0.00     0.000 HD 
HETATM   14  O   UNL     1      -7.656   5.910  62.717  1.00  0.00    -0.065 OA 
HETATM   15  C   UNL     1      -7.955   7.720  64.240  1.00  0.00    -0.120 C  
HETATM   16  C   UNL     1      -8.594   8.085  72.196  1.00  0.00    -0.206 C  
HETATM   17  C   UNL     1      -8.888   6.364  68.880  1.00  0.00    -0.125 C  
HETATM   18  C   UNL     1      -7.799   6.266  63.876  1.00  0.00    -0.112 C  
HETATM   19  C   UNL     1      -8.448   7.449  67.915  1.00  0.00    -0.122 C  
HETATM   20  O   UNL     1      -9.385   5.282  68.568  1.00  0.00    -0.113 OA 
HETATM   21  C   UNL     1      -7.887   5.249  64.982  1.00  0.00    -0.098 C  
HETATM   22  C   UNL     1      -8.761   7.023  66.464  1.00  0.00    -0.138 C  
HETATM   23  C   UNL     1      -7.812   5.838  66.182  1.00  0.00    -0.101 C  
HETATM   24  C   UNL     1     -10.258   6.666  66.226  1.00  0.00     0.101 C  
ENDROOT
BRANCH   8  25
HETATM   25  C   UNL     1     -11.488   6.815  71.410  1.00  0.00    -0.292 C  
HETATM   26  O   UNL     1     -10.938   5.699  71.400  1.00  0.00    -0.250 OA 
BRANCH  25  27
HETATM   27  C   UNL     1     -12.885   6.928  71.937  1.00  0.00    -0.249 C  
HETATM   28  O   UNL     1     -13.740   7.311  70.857  1.00  0.00    -0.592 OA 
HETATM   29  H   UNL     1     -14.627   7.383  71.191  1.00  0.00     0.000 HD 
ENDBRANCH  25  27
ENDBRANCH   8  25
TORSDOF 2
ENDMDL
MODEL       72
REMARK 921   NORMALIZED FREE ENERGY PREDICTED BY IDOCK:   -3.93 KCAL/MOL
REMARK 922        TOTAL FREE ENERGY PREDICTED BY IDOCK:   -4.83 KCAL/MOL
REMARK 923 INTER-LIGAND FREE ENERGY PREDICTED BY IDOCK:   -4.31 KCAL/MOL
REMARK 924 INTRA-LIGAND FREE ENERGY PREDICTED BY IDOCK:   -0.51 KCAL/MOL
REMARK 927      BINDING AFFINITY PREDICTED BY RF-SCORE:    0.00 PKD
ROOT
HETATM    1  C   UNL     1     -10.598   5.362  66.270  1.00  0.00    -0.268 C  
HETATM    2  C   UNL     1      -9.129   5.773  66.485  1.00  0.00    -0.144 C  
HETATM    3  C   UNL     1      -9.032   6.999  67.446  1.00  0.00    -0.117 C  
HETATM    4  C   UNL     1      -9.230   6.598  68.931  1.00  0.00    -0.130 C  
HETATM    5  C   UNL     1      -9.302   7.795  69.968  1.00  0.00    -0.157 C  
HETATM    6  C   UNL     1     -10.720   8.455  69.976  1.00  0.00    -0.236 C  
HETATM    7  C   UNL     1     -11.417   8.047  71.312  1.00  0.00    -0.299 C  
HETATM    8  C   UNL     1     -10.599   6.845  71.769  1.00  0.00    -0.212 C  
HETATM    9  O   UNL     1     -11.027   5.789  70.872  1.00  0.00    -0.276 OA 
HETATM   10  C   UNL     1      -8.270   4.590  66.931  1.00  0.00    -0.102 C  
HETATM   11  C   UNL     1      -9.146   7.344  71.468  1.00  0.00    -0.148 C  
HETATM   12  C   UNL     1      -8.019   6.346  71.685  1.00  0.00    -0.102 C  
HETATM   13  H   UNL     1     -10.516   5.040  71.157  1.00  0.00     0.000 HD 
HETATM   14  O   UNL     1      -6.558   1.648  65.802  1.00  0.00    -0.023 OA 
HETATM   15  C   UNL     1      -7.642   3.753  66.079  1.00  0.00    -0.088 C  
HETATM   16  C   UNL     1      -8.725   8.523  72.397  1.00  0.00    -0.242 C  
HETATM   17  C   UNL     1      -8.138   5.205  70.757  1.00  0.00    -0.104 C  
HETATM   18  C   UNL     1      -6.885   2.544  66.564  1.00  0.00    -0.044 C  
HETATM   19  C   UNL     1      -8.141   5.569  69.284  1.00  0.00    -0.095 C  
HETATM   20  O   UNL     1      -8.132   4.063  71.216  1.00  0.00    -0.069 OA 
HETATM   21  C   UNL     1      -6.596   2.437  68.038  1.00  0.00    -0.035 C  
HETATM   22  C   UNL     1      -8.186   4.288  68.425  1.00  0.00    -0.087 C  
HETATM   23  C   UNL     1      -6.823   3.603  68.657  1.00  0.00    -0.046 C  
HETATM   24  C   UNL     1      -9.392   3.358  68.751  1.00  0.00    -0.234 C  
ENDROOT
BRANCH   8  25
HETATM   25  C   UNL     1     -10.802   6.112  73.091  1.00  0.00    -0.254 C  
HETATM   26  O   UNL     1     -10.363   6.628  74.134  1.00  0.00    -0.356 OA 
BRANCH  25  27
HETATM   27  C   UNL     1     -11.408   4.744  73.158  1.00  0.00    -0.295 C  
HETATM   28  O   UNL     1     -10.355   3.784  73.041  1.00  0.00    -0.153 OA 
HETATM   29  H   UNL     1     -10.739   2.916  73.084  1.00  0.00     0.000 HD 
ENDBRANCH  25  27
ENDBRANCH   8  25
TORSDOF 2
ENDMDL
MODEL       73
REMARK 921   NORMALIZED FREE ENERGY PREDICTED BY IDOCK:   -3.90 KCAL/MOL
REMARK 922        TOTAL FREE ENERGY PREDICTED BY IDOCK:   -4.80 KCAL/MOL
REMARK 923 INTER-LIGAND FREE ENERGY PREDICTED BY IDOCK:   -4.98 KCAL/MOL
REMARK 924 INTRA-LIGAND FREE ENERGY PREDICTED BY IDOCK:    0.18 KCAL/MOL
REMARK 927      BINDING AFFINITY PREDICTED BY RF-SCORE:    0.00 PKD
ROOT
HETATM    1  C   UNL     1     -12.570  11.169  71.492  1.00  0.00    -0.431 C  
HETATM    2  C   UNL     1     -12.871  10.115  70.410  1.00  0.00    -0.155 C  
HETATM    3  C   UNL     1     -12.771  10.741  68.984  1.00  0.00     0.896 C  
HETATM    4  C   UNL     1     -11.301  10.923  68.524  1.00  0.00    -0.367 C  
HETATM    5  C   UNL     1     -11.094  11.692  67.153  1.00  0.00    -0.354 C  
HETATM    6  C   UNL     1     -11.205  13.240  67.349  1.00  0.00    -0.316 C  
HETATM    7  C   UNL     1      -9.768  13.833  67.208  1.00  0.00    -0.242 C  
HETATM    8  C   UNL     1      -8.876  12.612  67.404  1.00  0.00    -0.189 C  
HETATM    9  O   UNL     1      -8.960  12.364  68.830  1.00  0.00    -0.381 OA 
HETATM   10  C   UNL     1     -12.006   8.866  70.581  1.00  0.00    -0.105 C  
HETATM   11  C   UNL     1      -9.646  11.545  66.557  1.00  0.00    -0.225 C  
HETATM   12  C   UNL     1      -9.115  10.120  66.603  1.00  0.00    -0.164 C  
HETATM   13  H   UNL     1      -8.404  11.602  68.952  1.00  0.00     0.000 HD 
HETATM   14  O   UNL     1     -11.614   5.830  72.448  1.00  0.00    -0.301 OA 
HETATM   15  C   UNL     1     -12.353   7.809  71.342  1.00  0.00    -0.346 C  
HETATM   16  C   UNL     1      -9.601  11.862  65.031  1.00  0.00    -0.110 C  
HETATM   17  C   UNL     1      -9.230   9.558  67.962  1.00  0.00    -0.129 C  
HETATM   18  C   UNL     1     -11.424   6.642  71.557  1.00  0.00    -0.297 C  
HETATM   19  C   UNL     1     -10.635   9.535  68.534  1.00  0.00    -0.247 C  
HETATM   20  O   UNL     1      -8.230   9.072  68.492  1.00  0.00    -0.110 OA 
HETATM   21  C   UNL     1     -10.208   6.538  70.675  1.00  0.00    -0.220 C  
HETATM   22  C   UNL     1     -10.631   8.851  69.918  1.00  0.00    -0.229 C  
HETATM   23  C   UNL     1     -10.300   7.371  69.631  1.00  0.00    -0.226 C  
HETATM   24  C   UNL     1      -9.648   9.503  70.935  1.00  0.00    -0.216 C  
ENDROOT
BRANCH   8  25
HETATM   25  C   UNL     1      -7.358  12.620  67.267  1.00  0.00    -0.104 C  
HETATM   26  O   UNL     1      -6.791  11.598  66.840  1.00  0.00    -0.142 OA 
BRANCH  25  27
HETATM   27  C   UNL     1      -6.521  13.770  67.736  1.00  0.00    -0.170 C  
HETATM   28  O   UNL     1      -6.648  13.865  69.156  1.00  0.00    -0.101 OA 
HETATM   29  H   UNL     1      -6.117  14.594  69.455  1.00  0.00     0.000 HD 
ENDBRANCH  25  27
ENDBRANCH   8  25
TORSDOF 2
ENDMDL
MODEL       74
REMARK 921   NORMALIZED FREE ENERGY PREDICTED BY IDOCK:   -3.87 KCAL/MOL
REMARK 922        TOTAL FREE ENERGY PREDICTED BY IDOCK:   -4.77 KCAL/MOL
REMARK 923 INTER-LIGAND FREE ENERGY PREDICTED BY IDOCK:   -5.15 KCAL/MOL
REMARK 924 INTRA-LIGAND FREE ENERGY PREDICTED BY IDOCK:    0.38 KCAL/MOL
REMARK 927      BINDING AFFINITY PREDICTED BY RF-SCORE:    0.00 PKD
ROOT
HETATM    1  C   UNL     1     -10.561  19.368  65.747  1.00  0.00    -0.490 C  
HETATM    2  C   UNL     1     -10.296  19.362  67.264  1.00  0.00    -0.554 C  
HETATM    3  C   UNL     1     -11.158  18.270  67.972  1.00  0.00     0.185 C  
HETATM    4  C   UNL     1     -10.578  16.845  67.775  1.00  0.00    -0.340 C  
HETATM    5  C   UNL     1     -11.467  15.653  68.326  1.00  0.00    -0.353 C  
HETATM    6  C   UNL     1     -12.623  15.300  67.333  1.00  0.00     1.341 C  
HETATM    7  C   UNL     1     -12.267  13.934  66.669  1.00  0.00    -0.465 C  
HETATM    8  C   UNL     1     -10.773  13.803  66.940  1.00  0.00    -0.280 C  
HETATM    9  O   UNL     1     -10.182  14.750  66.013  1.00  0.00    -0.275 OA 
HETATM   10  C   UNL     1      -8.805  19.247  67.577  1.00  0.00    -0.339 C  
HETATM   11  C   UNL     1     -10.698  14.284  68.427  1.00  0.00    -0.257 C  
HETATM   12  C   UNL     1      -9.310  14.414  69.037  1.00  0.00    -0.028 C  
HETATM   13  H   UNL     1      -9.250  14.669  66.182  1.00  0.00     0.000 HD 
HETATM   14  O   UNL     1      -5.719  21.066  67.748  1.00  0.00    -0.258 OA 
HETATM   15  C   UNL     1      -7.978  20.306  67.699  1.00  0.00    -0.311 C  
HETATM   16  C   UNL     1     -11.394  13.287  69.402  1.00  0.00    -0.280 C  
HETATM   17  C   UNL     1      -8.526  15.457  68.349  1.00  0.00    -0.160 C  
HETATM   18  C   UNL     1      -6.496  20.139  67.913  1.00  0.00    -0.250 C  
HETATM   19  C   UNL     1      -9.151  16.839  68.351  1.00  0.00    -0.233 C  
HETATM   20  O   UNL     1      -7.410  15.172  67.914  1.00  0.00    -0.113 OA 
HETATM   21  C   UNL     1      -5.986  18.770  68.278  1.00  0.00    -0.214 C  
HETATM   22  C   UNL     1      -8.199  17.850  67.676  1.00  0.00    -0.232 C  
HETATM   23  C   UNL     1      -6.993  17.962  68.634  1.00  0.00    -0.252 C  
HETATM   24  C   UNL     1      -7.785  17.450  66.230  1.00  0.00    -0.340 C  
ENDROOT
BRANCH   8  25
HETATM   25  C   UNL     1      -9.932  12.583  66.579  1.00  0.00    -0.244 C  
HETATM   26  O   UNL     1      -9.519  12.466  65.411  1.00  0.00    -0.099 OA 
BRANCH  25  27
HETATM   27  C   UNL     1      -9.686  11.469  67.549  1.00  0.00    -0.179 C  
HETATM   28  O   UNL     1      -8.715  10.587  66.980  1.00  0.00    -0.130 OA 
HETATM   29  H   UNL     1      -8.559   9.881  67.595  1.00  0.00     0.000 HD 
ENDBRANCH  25  27
ENDBRANCH   8  25
TORSDOF 2
ENDMDL
MODEL       75
REMARK 921   NORMALIZED FREE ENERGY PREDICTED BY IDOCK:   -3.86 KCAL/MOL
REMARK 922        TOTAL FREE ENERGY PREDICTED BY IDOCK:   -4.75 KCAL/MOL
REMARK 923 INTER-LIGAND FREE ENERGY PREDICTED BY IDOCK:   -4.52 KCAL/MOL
REMARK 924 INTRA-LIGAND FREE ENERGY PREDICTED BY IDOCK:   -0.24 KCAL/MOL
REMARK 927      BINDING AFFINITY PREDICTED BY RF-SCORE:    0.00 PKD
ROOT
HETATM    1  C   UNL     1     -11.059  11.259  67.171  1.00  0.00    -0.364 C  
HETATM    2  C   UNL     1     -10.054  11.114  68.329  1.00  0.00    -0.196 C  
HETATM    3  C   UNL     1     -10.124   9.683  68.947  1.00  0.00    -0.198 C  
HETATM    4  C   UNL     1      -9.401   8.628  68.069  1.00  0.00    -0.147 C  
HETATM    5  C   UNL     1      -9.550   7.120  68.534  1.00  0.00    -0.139 C  
HETATM    6  C   UNL     1     -10.925   6.521  68.089  1.00  0.00    -0.365 C  
HETATM    7  C   UNL     1     -10.641   5.509  66.935  1.00  0.00    -0.348 C  
HETATM    8  C   UNL     1      -9.245   5.906  66.470  1.00  0.00    -0.145 C  
HETATM    9  O   UNL     1      -9.475   7.138  65.740  1.00  0.00    -0.390 OA 
HETATM   10  C   UNL     1      -8.642  11.518  67.906  1.00  0.00    -0.143 C  
HETATM   11  C   UNL     1      -8.531   6.140  67.842  1.00  0.00    -0.116 C  
HETATM   12  C   UNL     1      -7.110   6.682  67.793  1.00  0.00    -0.085 C  
HETATM   13  H   UNL     1      -8.604   7.386  65.449  1.00  0.00     0.000 HD 
HETATM   14  O   UNL     1      -6.474  14.308  67.292  1.00  0.00    -0.291 OA 
HETATM   15  C   UNL     1      -8.163  12.776  67.990  1.00  0.00    -0.168 C  
HETATM   16  C   UNL     1      -8.350   4.815  68.644  1.00  0.00    -0.083 C  
HETATM   17  C   UNL     1      -7.082   8.036  67.210  1.00  0.00    -0.083 C  
HETATM   18  C   UNL     1      -6.797  13.144  67.471  1.00  0.00    -0.149 C  
HETATM   19  C   UNL     1      -7.932   9.066  67.930  1.00  0.00    -0.102 C  
HETATM   20  O   UNL     1      -6.323   8.263  66.267  1.00  0.00    -0.045 OA 
HETATM   21  C   UNL     1      -5.854  12.027  67.114  1.00  0.00    -0.150 C  
HETATM   22  C   UNL     1      -7.751  10.452  67.274  1.00  0.00    -0.099 C  
HETATM   23  C   UNL     1      -6.294  10.856  67.591  1.00  0.00    -0.055 C  
HETATM   24  C   UNL     1      -8.063  10.468  65.749  1.00  0.00    -0.158 C  
ENDROOT
BRANCH   8  25
HETATM   25  C   UNL     1      -8.443   5.163  65.407  1.00  0.00    -0.141 C  
HETATM   26  O   UNL     1      -7.933   5.814  64.478  1.00  0.00    -0.113 OA 
BRANCH  25  27
HETATM   27  C   UNL     1      -8.349   3.668  65.380  1.00  0.00    -0.105 C  
HETATM   28  O   UNL     1      -9.421   3.167  64.579  1.00  0.00    -0.138 OA 
HETATM   29  H   UNL     1      -9.362   2.219  64.562  1.00  0.00     0.000 HD 
ENDBRANCH  25  27
ENDBRANCH   8  25
TORSDOF 2
ENDMDL
MODEL       76
REMARK 921   NORMALIZED FREE ENERGY PREDICTED BY IDOCK:   -3.84 KCAL/MOL
REMARK 922        TOTAL FREE ENERGY PREDICTED BY IDOCK:   -4.73 KCAL/MOL
REMARK 923 INTER-LIGAND FREE ENERGY PREDICTED BY IDOCK:   -4.30 KCAL/MOL
REMARK 924 INTRA-LIGAND FREE ENERGY PREDICTED BY IDOCK:   -0.43 KCAL/MOL
REMARK 927      BINDING AFFINITY PREDICTED BY RF-SCORE:    0.00 PKD
ROOT
HETATM    1  C   UNL     1     -10.478   8.439  66.842  1.00  0.00    -0.359 C  
HETATM    2  C   UNL     1      -9.050   8.847  67.250  1.00  0.00    -0.153 C  
HETATM    3  C   UNL     1      -9.043   9.485  68.675  1.00  0.00    -0.132 C  
HETATM    4  C   UNL     1      -9.156   8.420  69.796  1.00  0.00    -0.153 C  
HETATM    5  C   UNL     1      -9.312   8.980  71.271  1.00  0.00    -0.324 C  
HETATM    6  C   UNL     1     -10.787   9.414  71.561  1.00  0.00    -0.398 C  
HETATM    7  C   UNL     1     -11.399   8.362  72.537  1.00  0.00    -0.416 C  
HETATM    8  C   UNL     1     -10.454   7.174  72.395  1.00  0.00    -0.218 C  
HETATM    9  O   UNL     1     -10.805   6.623  71.101  1.00  0.00    -0.228 OA 
HETATM   10  C   UNL     1      -8.067   7.685  67.107  1.00  0.00    -0.118 C  
HETATM   11  C   UNL     1      -9.067   7.899  72.389  1.00  0.00    -0.229 C  
HETATM   12  C   UNL     1      -7.842   7.034  72.135  1.00  0.00    -0.092 C  
HETATM   13  H   UNL     1     -10.215   5.882  71.012  1.00  0.00     0.000 HD 
HETATM   14  O   UNL     1      -6.112   5.799  64.766  1.00  0.00    -0.024 OA 
HETATM   15  C   UNL     1      -7.387   7.411  65.976  1.00  0.00    -0.075 C  
HETATM   16  C   UNL     1      -8.735   8.543  73.769  1.00  0.00     0.072 C  
HETATM   17  C   UNL     1      -7.878   6.453  70.780  1.00  0.00    -0.106 C  
HETATM   18  C   UNL     1      -6.501   6.198  65.853  1.00  0.00    -0.046 C  
HETATM   19  C   UNL     1      -7.962   7.460  69.648  1.00  0.00    -0.126 C  
HETATM   20  O   UNL     1      -7.747   5.235  70.651  1.00  0.00    -0.080 OA 
HETATM   21  C   UNL     1      -6.158   5.445  67.110  1.00  0.00    -0.030 C  
HETATM   22  C   UNL     1      -7.909   6.731  68.288  1.00  0.00    -0.110 C  
HETATM   23  C   UNL     1      -6.478   6.157  68.198  1.00  0.00    -0.049 C  
HETATM   24  C   UNL     1      -9.007   5.641  68.119  1.00  0.00    -0.111 C  
ENDROOT
BRANCH   8  25
HETATM   25  C   UNL     1     -10.545   5.893  73.217  1.00  0.00    -0.255 C  
HETATM   26  O   UNL     1     -10.434   5.967  74.454  1.00  0.00    -0.265 OA 
BRANCH  25  27
HETATM   27  C   UNL     1     -10.647   4.542  72.578  1.00  0.00    -0.158 C  
HETATM   28  O   UNL     1      -9.332   3.992  72.485  1.00  0.00    -0.115 OA 
HETATM   29  H   UNL     1      -9.396   3.135  72.080  1.00  0.00     0.000 HD 
ENDBRANCH  25  27
ENDBRANCH   8  25
TORSDOF 2
ENDMDL
MODEL       77
REMARK 921   NORMALIZED FREE ENERGY PREDICTED BY IDOCK:   -3.74 KCAL/MOL
REMARK 922        TOTAL FREE ENERGY PREDICTED BY IDOCK:   -4.62 KCAL/MOL
REMARK 923 INTER-LIGAND FREE ENERGY PREDICTED BY IDOCK:   -4.78 KCAL/MOL
REMARK 924 INTRA-LIGAND FREE ENERGY PREDICTED BY IDOCK:    0.16 KCAL/MOL
REMARK 927      BINDING AFFINITY PREDICTED BY RF-SCORE:    0.00 PKD
ROOT
HETATM    1  C   UNL     1      -9.498   4.756  66.406  1.00  0.00    -0.159 C  
HETATM    2  C   UNL     1      -9.817   6.236  66.123  1.00  0.00     0.021 C  
HETATM    3  C   UNL     1     -10.762   6.817  67.220  1.00  0.00    -0.423 C  
HETATM    4  C   UNL     1     -10.007   7.139  68.536  1.00  0.00    -0.163 C  
HETATM    5  C   UNL     1     -10.908   7.590  69.760  1.00  0.00    -0.234 C  
HETATM    6  C   UNL     1     -11.569   6.359  70.463  1.00  0.00    -0.424 C  
HETATM    7  C   UNL     1     -10.852   6.165  71.835  1.00  0.00    -0.295 C  
HETATM    8  C   UNL     1      -9.560   6.955  71.659  1.00  0.00    -0.161 C  
HETATM    9  O   UNL     1      -8.769   6.110  70.785  1.00  0.00    -0.133 OA 
HETATM   10  C   UNL     1      -8.546   7.061  65.925  1.00  0.00    -0.152 C  
HETATM   11  C   UNL     1     -10.094   8.238  70.941  1.00  0.00    -0.224 C  
HETATM   12  C   UNL     1      -9.054   9.247  70.476  1.00  0.00    -0.307 C  
HETATM   13  H   UNL     1      -7.964   6.603  70.675  1.00  0.00     0.000 HD 
HETATM   14  O   UNL     1      -5.951   7.894  63.595  1.00  0.00    -0.057 OA 
HETATM   15  C   UNL     1      -7.938   7.232  64.733  1.00  0.00    -0.122 C  
HETATM   16  C   UNL     1     -10.996   9.102  71.874  1.00  0.00    -0.372 C  
HETATM   17  C   UNL     1      -8.184   8.667  69.436  1.00  0.00    -0.113 C  
HETATM   18  C   UNL     1      -6.633   7.975  64.604  1.00  0.00    -0.056 C  
HETATM   19  C   UNL     1      -8.904   8.160  68.201  1.00  0.00    -0.132 C  
HETATM   20  O   UNL     1      -6.963   8.715  69.588  1.00  0.00    -0.049 OA 
HETATM   21  C   UNL     1      -6.157   8.774  65.787  1.00  0.00    -0.052 C  
HETATM   22  C   UNL     1      -7.879   7.657  67.162  1.00  0.00    -0.117 C  
HETATM   23  C   UNL     1      -7.135   8.924  66.690  1.00  0.00    -0.084 C  
HETATM   24  C   UNL     1      -6.917   6.562  67.711  1.00  0.00    -0.082 C  
ENDROOT
BRANCH   8  25
HETATM   25  C   UNL     1      -8.524   7.174  72.756  1.00  0.00    -0.107 C  
HETATM   26  O   UNL     1      -7.334   6.901  72.517  1.00  0.00    -0.084 OA 
BRANCH  25  27
HETATM   27  C   UNL     1      -8.906   7.595  74.142  1.00  0.00    -0.228 C  
HETATM   28  O   UNL     1     -10.060   6.848  74.533  1.00  0.00    -0.472 OA 
HETATM   29  H   UNL     1     -10.303   7.114  75.412  1.00  0.00     0.000 HD 
ENDBRANCH  25  27
ENDBRANCH   8  25
TORSDOF 2
ENDMDL
MODEL       78
REMARK 921   NORMALIZED FREE ENERGY PREDICTED BY IDOCK:   -3.73 KCAL/MOL
REMARK 922        TOTAL FREE ENERGY PREDICTED BY IDOCK:   -4.60 KCAL/MOL
REMARK 923 INTER-LIGAND FREE ENERGY PREDICTED BY IDOCK:   -4.24 KCAL/MOL
REMARK 924 INTRA-LIGAND FREE ENERGY PREDICTED BY IDOCK:   -0.36 KCAL/MOL
REMARK 927      BINDING AFFINITY PREDICTED BY RF-SCORE:    0.00 PKD
ROOT
HETATM    1  C   UNL     1     -11.529   6.362  69.974  1.00  0.00    -0.496 C  
HETATM    2  C   UNL     1     -10.292   5.614  70.505  1.00  0.00    -0.327 C  
HETATM    3  C   UNL     1      -9.811   4.543  69.476  1.00  0.00    -0.277 C  
HETATM    4  C   UNL     1      -9.032   5.174  68.293  1.00  0.00    -0.119 C  
HETATM    5  C   UNL     1      -8.635   4.184  67.118  1.00  0.00    -0.105 C  
HETATM    6  C   UNL     1      -9.845   3.926  66.161  1.00  0.00    -0.131 C  
HETATM    7  C   UNL     1      -9.550   4.674  64.824  1.00  0.00    -0.051 C  
HETATM    8  C   UNL     1      -8.466   5.670  65.223  1.00  0.00    -0.147 C  
HETATM    9  O   UNL     1      -9.196   6.673  65.974  1.00  0.00    -0.288 OA 
HETATM   10  C   UNL     1      -9.186   6.579  70.930  1.00  0.00    -0.155 C  
HETATM   11  C   UNL     1      -7.561   4.773  66.131  1.00  0.00    -0.090 C  
HETATM   12  C   UNL     1      -6.403   5.461  66.838  1.00  0.00    -0.039 C  
HETATM   13  H   UNL     1      -8.520   7.293  66.223  1.00  0.00     0.000 HD 
HETATM   14  O   UNL     1      -8.100   8.794  73.532  1.00  0.00    -0.396 OA 
HETATM   15  C   UNL     1      -9.080   7.102  72.169  1.00  0.00    -0.143 C  
HETATM   16  C   UNL     1      -6.834   3.658  65.318  1.00  0.00    -0.052 C  
HETATM   17  C   UNL     1      -6.893   6.460  67.805  1.00  0.00    -0.070 C  
HETATM   18  C   UNL     1      -8.028   8.124  72.514  1.00  0.00    -0.144 C  
HETATM   19  C   UNL     1      -7.819   5.919  68.878  1.00  0.00    -0.095 C  
HETATM   20  O   UNL     1      -6.462   7.612  67.741  1.00  0.00    -0.051 OA 
HETATM   21  C   UNL     1      -6.910   8.345  71.531  1.00  0.00    -0.073 C  
HETATM   22  C   UNL     1      -8.192   7.043  69.869  1.00  0.00    -0.130 C  
HETATM   23  C   UNL     1      -6.880   7.372  70.612  1.00  0.00    -0.048 C  
HETATM   24  C   UNL     1      -8.829   8.290  69.189  1.00  0.00    -0.143 C  
ENDROOT
BRANCH   8  25
HETATM   25  C   UNL     1      -7.744   6.598  64.252  1.00  0.00    -0.109 C  
HETATM   26  O   UNL     1      -7.048   6.096  63.351  1.00  0.00    -0.047 OA 
BRANCH  25  27
HETATM   27  C   UNL     1      -7.752   8.086  64.418  1.00  0.00    -0.130 C  
HETATM   28  O   UNL     1      -9.024   8.577  63.990  1.00  0.00    -0.381 OA 
HETATM   29  H   UNL     1      -9.029   9.521  64.095  1.00  0.00     0.000 HD 
ENDBRANCH  25  27
ENDBRANCH   8  25
TORSDOF 2
ENDMDL
MODEL       79
REMARK 921   NORMALIZED FREE ENERGY PREDICTED BY IDOCK:   -3.72 KCAL/MOL
REMARK 922        TOTAL FREE ENERGY PREDICTED BY IDOCK:   -4.59 KCAL/MOL
REMARK 923 INTER-LIGAND FREE ENERGY PREDICTED BY IDOCK:   -4.11 KCAL/MOL
REMARK 924 INTRA-LIGAND FREE ENERGY PREDICTED BY IDOCK:   -0.48 KCAL/MOL
REMARK 927      BINDING AFFINITY PREDICTED BY RF-SCORE:    0.00 PKD
ROOT
HETATM    1  C   UNL     1      -9.799  16.360  67.292  1.00  0.00    -0.245 C  
HETATM    2  C   UNL     1      -9.696  15.588  68.621  1.00  0.00    -0.208 C  
HETATM    3  C   UNL     1     -10.546  14.279  68.567  1.00  0.00    -0.260 C  
HETATM    4  C   UNL     1      -9.845  13.157  67.757  1.00  0.00    -0.228 C  
HETATM    5  C   UNL     1     -10.697  11.841  67.517  1.00  0.00    -0.262 C  
HETATM    6  C   UNL     1     -11.713  12.030  66.342  1.00  0.00    -0.326 C  
HETATM    7  C   UNL     1     -11.189  11.192  65.134  1.00  0.00     0.008 C  
HETATM    8  C   UNL     1      -9.726  10.957  65.491  1.00  0.00    -0.233 C  
HETATM    9  O   UNL     1      -9.112  12.248  65.250  1.00  0.00    -0.400 OA 
HETATM   10  C   UNL     1      -8.242  15.344  69.023  1.00  0.00    -0.217 C  
HETATM   11  C   UNL     1      -9.844  10.618  67.014  1.00  0.00    -0.222 C  
HETATM   12  C   UNL     1      -8.543  10.434  67.780  1.00  0.00    -0.122 C  
HETATM   13  H   UNL     1      -8.199  12.102  65.473  1.00  0.00     0.000 HD 
HETATM   14  O   UNL     1      -5.333  16.855  70.478  1.00  0.00    -0.210 OA 
HETATM   15  C   UNL     1      -7.513  16.203  69.764  1.00  0.00     0.210 C  
HETATM   16  C   UNL     1     -10.565   9.257  67.259  1.00  0.00    -0.303 C  
HETATM   17  C   UNL     1      -7.769  11.689  67.816  1.00  0.00    -0.126 C  
HETATM   18  C   UNL     1      -6.053  15.965  70.054  1.00  0.00    -0.138 C  
HETATM   19  C   UNL     1      -8.490  12.874  68.431  1.00  0.00    -0.115 C  
HETATM   20  O   UNL     1      -6.595  11.675  67.445  1.00  0.00    -0.083 OA 
HETATM   21  C   UNL     1      -5.486  14.606  69.745  1.00  0.00    -0.096 C  
HETATM   22  C   UNL     1      -7.549  14.096  68.484  1.00  0.00    -0.129 C  
HETATM   23  C   UNL     1      -6.463  13.719  69.514  1.00  0.00    -0.105 C  
HETATM   24  C   UNL     1      -6.955  14.489  67.099  1.00  0.00     0.278 C  
ENDROOT
BRANCH   8  25
HETATM   25  C   UNL     1      -8.764  10.097  64.679  1.00  0.00    -0.189 C  
HETATM   26  O   UNL     1      -8.807   8.861  64.815  1.00  0.00    -0.173 OA 
BRANCH  25  27
HETATM   27  C   UNL     1      -7.696  10.694  63.814  1.00  0.00     0.149 C  
HETATM   28  O   UNL     1      -6.499  10.794  64.589  1.00  0.00    -0.367 OA 
HETATM   29  H   UNL     1      -5.821  11.172  64.041  1.00  0.00     0.000 HD 
ENDBRANCH  25  27
ENDBRANCH   8  25
TORSDOF 2
ENDMDL
MODEL       80
REMARK 921   NORMALIZED FREE ENERGY PREDICTED BY IDOCK:   -3.67 KCAL/MOL
REMARK 922        TOTAL FREE ENERGY PREDICTED BY IDOCK:   -4.54 KCAL/MOL
REMARK 923 INTER-LIGAND FREE ENERGY PREDICTED BY IDOCK:   -4.27 KCAL/MOL
REMARK 924 INTRA-LIGAND FREE ENERGY PREDICTED BY IDOCK:   -0.27 KCAL/MOL
REMARK 927      BINDING AFFINITY PREDICTED BY RF-SCORE:    0.00 PKD
ROOT
HETATM    1  C   UNL     1      -6.728  10.191  68.765  1.00  0.00    -0.053 C  
HETATM    2  C   UNL     1      -7.786   9.791  67.720  1.00  0.00    -0.094 C  
HETATM    3  C   UNL     1      -7.793   8.246  67.503  1.00  0.00    -0.106 C  
HETATM    4  C   UNL     1      -8.515   7.495  68.653  1.00  0.00    -0.129 C  
HETATM    5  C   UNL     1      -8.441   5.912  68.600  1.00  0.00    -0.111 C  
HETATM    6  C   UNL     1      -7.070   5.389  69.144  1.00  0.00    -0.057 C  
HETATM    7  C   UNL     1      -7.340   4.732  70.534  1.00  0.00    -0.050 C  
HETATM    8  C   UNL     1      -8.700   5.302  70.921  1.00  0.00    -0.132 C  
HETATM    9  O   UNL     1      -8.395   6.671  71.290  1.00  0.00    -0.122 OA 
HETATM   10  C   UNL     1      -9.163  10.357  68.066  1.00  0.00    -0.142 C  
HETATM   11  C   UNL     1      -9.464   5.197  69.559  1.00  0.00    -0.205 C  
HETATM   12  C   UNL     1     -10.860   5.797  69.508  1.00  0.00    -0.410 C  
HETATM   13  H   UNL     1      -9.243   7.026  71.531  1.00  0.00     0.000 HD 
HETATM   14  O   UNL     1     -11.202  13.305  67.985  1.00  0.00    -0.252 OA 
HETATM   15  C   UNL     1      -9.601  11.568  67.666  1.00  0.00    -0.176 C  
HETATM   16  C   UNL     1      -9.726   3.718  69.145  1.00  0.00    -0.107 C  
HETATM   17  C   UNL     1     -10.816   7.257  69.711  1.00  0.00    -0.235 C  
HETATM   18  C   UNL     1     -10.929  12.122  68.112  1.00  0.00    -0.230 C  
HETATM   19  C   UNL     1      -9.960   8.020  68.716  1.00  0.00    -0.196 C  
HETATM   20  O   UNL     1     -11.525   7.759  70.583  1.00  0.00    -0.279 OA 
HETATM   21  C   UNL     1     -11.895  11.183  68.782  1.00  0.00    -0.388 C  
HETATM   22  C   UNL     1     -10.064   9.537  68.986  1.00  0.00    -0.201 C  
HETATM   23  C   UNL     1     -11.517   9.909  68.620  1.00  0.00     0.046 C  
HETATM   24  C   UNL     1      -9.686   9.941  70.441  1.00  0.00    -0.151 C  
ENDROOT
BRANCH   8  25
HETATM   25  C   UNL     1      -9.481   4.903  72.168  1.00  0.00    -0.145 C  
HETATM   26  O   UNL     1     -10.093   5.784  72.798  1.00  0.00    -0.174 OA 
BRANCH  25  27
HETATM   27  C   UNL     1      -9.441   3.512  72.723  1.00  0.00    -0.114 C  
HETATM   28  O   UNL     1     -10.742   2.936  72.579  1.00  0.00    -0.060 OA 
HETATM   29  H   UNL     1     -10.717   2.054  72.931  1.00  0.00     0.000 HD 
ENDBRANCH  25  27
ENDBRANCH   8  25
TORSDOF 2
ENDMDL
MODEL       81
REMARK 921   NORMALIZED FREE ENERGY PREDICTED BY IDOCK:   -3.63 KCAL/MOL
REMARK 922        TOTAL FREE ENERGY PREDICTED BY IDOCK:   -4.50 KCAL/MOL
REMARK 923 INTER-LIGAND FREE ENERGY PREDICTED BY IDOCK:   -4.00 KCAL/MOL
REMARK 924 INTRA-LIGAND FREE ENERGY PREDICTED BY IDOCK:   -0.50 KCAL/MOL
REMARK 927      BINDING AFFINITY PREDICTED BY RF-SCORE:    0.00 PKD
ROOT
HETATM    1  C   UNL     1     -11.617  11.867  66.576  1.00  0.00    -0.328 C  
HETATM    2  C   UNL     1     -11.145  12.601  67.845  1.00  0.00    -0.285 C  
HETATM    3  C   UNL     1     -11.050  11.616  69.052  1.00  0.00    -0.297 C  
HETATM    4  C   UNL     1      -9.781  10.727  68.986  1.00  0.00    -0.201 C  
HETATM    5  C   UNL     1      -9.674   9.588  70.084  1.00  0.00    -0.289 C  
HETATM    6  C   UNL     1     -10.542   8.345  69.700  1.00  0.00    -0.219 C  
HETATM    7  C   UNL     1      -9.563   7.203  69.283  1.00  0.00    -0.155 C  
HETATM    8  C   UNL     1      -8.266   7.953  69.003  1.00  0.00    -0.126 C  
HETATM    9  O   UNL     1      -8.525   8.604  67.733  1.00  0.00    -0.124 OA 
HETATM   10  C   UNL     1      -9.852  13.379  67.601  1.00  0.00    -0.226 C  
HETATM   11  C   UNL     1      -8.238   8.956  70.204  1.00  0.00    -0.126 C  
HETATM   12  C   UNL     1      -7.122   9.989  70.209  1.00  0.00    -0.156 C  
HETATM   13  H   UNL     1      -7.716   9.072  67.559  1.00  0.00     0.000 HD 
HETATM   14  O   UNL     1      -8.482  16.380  66.195  1.00  0.00    -0.324 OA 
HETATM   15  C   UNL     1      -9.812  14.653  67.162  1.00  0.00    -0.237 C  
HETATM   16  C   UNL     1      -8.024   8.233  71.568  1.00  0.00    -0.148 C  
HETATM   17  C   UNL     1      -7.245  10.906  69.061  1.00  0.00    -0.101 C  
HETATM   18  C   UNL     1      -8.512  15.346  66.844  1.00  0.00    -0.252 C  
HETATM   19  C   UNL     1      -8.558  11.662  68.978  1.00  0.00     0.174 C  
HETATM   20  O   UNL     1      -6.274  11.068  68.321  1.00  0.00    -0.049 OA 
HETATM   21  C   UNL     1      -7.235  14.691  67.297  1.00  0.00    -0.082 C  
HETATM   22  C   UNL     1      -8.527  12.643  67.786  1.00  0.00    -0.172 C  
HETATM   23  C   UNL     1      -7.484  13.712  68.176  1.00  0.00    -0.125 C  
HETATM   24  C   UNL     1      -8.212  11.961  66.422  1.00  0.00     0.049 C  
ENDROOT
BRANCH   8  25
HETATM   25  C   UNL     1      -6.941   7.287  68.646  1.00  0.00    -0.082 C  
HETATM   26  O   UNL     1      -6.345   6.635  69.522  1.00  0.00    -0.039 OA 
BRANCH  25  27
HETATM   27  C   UNL     1      -6.281   7.487  67.317  1.00  0.00    -0.052 C  
HETATM   28  O   UNL     1      -5.219   8.430  67.483  1.00  0.00    -0.032 OA 
HETATM   29  H   UNL     1      -4.800   8.557  66.640  1.00  0.00     0.000 HD 
ENDBRANCH  25  27
ENDBRANCH   8  25
TORSDOF 2
ENDMDL
MODEL       82
REMARK 921   NORMALIZED FREE ENERGY PREDICTED BY IDOCK:   -3.63 KCAL/MOL
REMARK 922        TOTAL FREE ENERGY PREDICTED BY IDOCK:   -4.50 KCAL/MOL
REMARK 923 INTER-LIGAND FREE ENERGY PREDICTED BY IDOCK:   -4.00 KCAL/MOL
REMARK 924 INTRA-LIGAND FREE ENERGY PREDICTED BY IDOCK:   -0.49 KCAL/MOL
REMARK 927      BINDING AFFINITY PREDICTED BY RF-SCORE:    0.00 PKD
ROOT
HETATM    1  C   UNL     1     -10.635   8.911  69.421  1.00  0.00    -0.226 C  
HETATM    2  C   UNL     1     -10.838   7.695  70.344  1.00  0.00    -0.252 C  
HETATM    3  C   UNL     1     -11.146   6.412  69.510  1.00  0.00    -0.460 C  
HETATM    4  C   UNL     1      -9.872   5.816  68.857  1.00  0.00    -0.191 C  
HETATM    5  C   UNL     1     -10.106   4.601  67.865  1.00  0.00    -0.085 C  
HETATM    6  C   UNL     1     -10.573   5.100  66.457  1.00  0.00    -0.320 C  
HETATM    7  C   UNL     1      -9.380   4.896  65.471  1.00  0.00    -0.163 C  
HETATM    8  C   UNL     1      -8.187   4.744  66.407  1.00  0.00    -0.107 C  
HETATM    9  O   UNL     1      -7.959   6.096  66.879  1.00  0.00    -0.103 OA 
HETATM   10  C   UNL     1      -9.667   7.517  71.310  1.00  0.00    -0.173 C  
HETATM   11  C   UNL     1      -8.792   3.812  67.509  1.00  0.00    -0.140 C  
HETATM   12  C   UNL     1      -7.916   3.521  68.719  1.00  0.00    -0.066 C  
HETATM   13  H   UNL     1      -7.215   6.002  67.463  1.00  0.00     0.000 HD 
HETATM   14  O   UNL     1      -8.201   8.711  74.358  1.00  0.00    -0.276 OA 
HETATM   15  C   UNL     1      -9.598   8.101  72.524  1.00  0.00    -0.347 C  
HETATM   16  C   UNL     1      -9.092   2.381  66.969  1.00  0.00    -0.148 C  
HETATM   17  C   UNL     1      -7.650   4.752  69.486  1.00  0.00    -0.059 C  
HETATM   18  C   UNL     1      -8.379   7.973  73.402  1.00  0.00    -0.220 C  
HETATM   19  C   UNL     1      -8.884   5.479  69.987  1.00  0.00    -0.139 C  
HETATM   20  O   UNL     1      -6.484   5.052  69.745  1.00  0.00    -0.032 OA 
HETATM   21  C   UNL     1      -7.347   6.944  73.028  1.00  0.00    -0.074 C  
HETATM   22  C   UNL     1      -8.468   6.697  70.840  1.00  0.00    -0.133 C  
HETATM   23  C   UNL     1      -7.825   6.096  72.108  1.00  0.00    -0.101 C  
HETATM   24  C   UNL     1      -7.525   7.689  70.098  1.00  0.00    -0.084 C  
ENDROOT
BRANCH   8  25
HETATM   25  C   UNL     1      -6.767   4.423  65.954  1.00  0.00    -0.053 C  
HETATM   26  O   UNL     1      -6.483   3.246  65.666  1.00  0.00    -0.031 OA 
BRANCH  25  27
HETATM   27  C   UNL     1      -5.678   5.451  65.955  1.00  0.00    -0.018 C  
HETATM   28  O   UNL     1      -5.125   5.515  67.272  1.00  0.00    -0.004 OA 
HETATM   29  H   UNL     1      -4.434   6.167  67.273  1.00  0.00     0.000 HD 
ENDBRANCH  25  27
ENDBRANCH   8  25
TORSDOF 2
ENDMDL
MODEL       83
REMARK 921   NORMALIZED FREE ENERGY PREDICTED BY IDOCK:   -3.56 KCAL/MOL
REMARK 922        TOTAL FREE ENERGY PREDICTED BY IDOCK:   -4.42 KCAL/MOL
REMARK 923 INTER-LIGAND FREE ENERGY PREDICTED BY IDOCK:   -4.03 KCAL/MOL
REMARK 924 INTRA-LIGAND FREE ENERGY PREDICTED BY IDOCK:   -0.39 KCAL/MOL
REMARK 927      BINDING AFFINITY PREDICTED BY RF-SCORE:    0.00 PKD
ROOT
HETATM    1  C   UNL     1     -12.813  10.265  69.458  1.00  0.00     0.766 C  
HETATM    2  C   UNL     1     -11.607  10.988  70.086  1.00  0.00    -0.421 C  
HETATM    3  C   UNL     1     -10.376  10.033  70.178  1.00  0.00    -0.321 C  
HETATM    4  C   UNL     1      -9.668   9.854  68.809  1.00  0.00    -0.164 C  
HETATM    5  C   UNL     1      -8.500   8.783  68.767  1.00  0.00    -0.129 C  
HETATM    6  C   UNL     1      -9.066   7.330  68.643  1.00  0.00    -0.133 C  
HETATM    7  C   UNL     1      -8.763   6.833  67.195  1.00  0.00    -0.119 C  
HETATM    8  C   UNL     1      -8.478   8.128  66.444  1.00  0.00    -0.130 C  
HETATM    9  O   UNL     1      -9.793   8.720  66.289  1.00  0.00    -0.268 OA 
HETATM   10  C   UNL     1     -11.297  12.301  69.369  1.00  0.00    -0.294 C  
HETATM   11  C   UNL     1      -7.591   8.886  67.486  1.00  0.00    -0.093 C  
HETATM   12  C   UNL     1      -7.195  10.313  67.140  1.00  0.00    -0.090 C  
HETATM   13  H   UNL     1      -9.616   9.528  65.821  1.00  0.00     0.000 HD 
HETATM   14  O   UNL     1     -12.287  15.730  69.021  1.00  0.00    -0.180 OA 
HETATM   15  C   UNL     1     -11.850  13.487  69.698  1.00  0.00    -0.398 C  
HETATM   16  C   UNL     1      -6.207   8.200  67.689  1.00  0.00    -0.052 C  
HETATM   17  C   UNL     1      -8.380  11.188  67.068  1.00  0.00    -0.144 C  
HETATM   18  C   UNL     1     -11.587  14.737  68.900  1.00  0.00    -0.313 C  
HETATM   19  C   UNL     1      -9.216  11.246  68.333  1.00  0.00    -0.178 C  
HETATM   20  O   UNL     1      -8.559  11.866  66.056  1.00  0.00    -0.038 OA 
HETATM   21  C   UNL     1     -10.468  14.709  67.894  1.00  0.00    -0.242 C  
HETATM   22  C   UNL     1     -10.372  12.254  68.156  1.00  0.00    -0.221 C  
HETATM   23  C   UNL     1      -9.688  13.636  68.073  1.00  0.00    -0.226 C  
HETATM   24  C   UNL     1     -11.279  11.956  66.926  1.00  0.00    -0.382 C  
ENDROOT
BRANCH   8  25
HETATM   25  C   UNL     1      -8.028   8.202  64.989  1.00  0.00    -0.139 C  
HETATM   26  O   UNL     1      -6.928   7.711  64.678  1.00  0.00    -0.050 OA 
BRANCH  25  27
HETATM   27  C   UNL     1      -8.808   8.947  63.949  1.00  0.00     0.078 C  
HETATM   28  O   UNL     1      -8.001  10.027  63.474  1.00  0.00    -0.147 OA 
HETATM   29  H   UNL     1      -8.496  10.499  62.815  1.00  0.00     0.000 HD 
ENDBRANCH  25  27
ENDBRANCH   8  25
TORSDOF 2
ENDMDL
MODEL       84
REMARK 921   NORMALIZED FREE ENERGY PREDICTED BY IDOCK:   -3.54 KCAL/MOL
REMARK 922        TOTAL FREE ENERGY PREDICTED BY IDOCK:   -4.39 KCAL/MOL
REMARK 923 INTER-LIGAND FREE ENERGY PREDICTED BY IDOCK:   -4.26 KCAL/MOL
REMARK 924 INTRA-LIGAND FREE ENERGY PREDICTED BY IDOCK:   -0.13 KCAL/MOL
REMARK 927      BINDING AFFINITY PREDICTED BY RF-SCORE:    0.00 PKD
ROOT
HETATM    1  C   UNL     1     -12.331  11.370  68.309  1.00  0.00     0.491 C  
HETATM    2  C   UNL     1     -11.156  11.587  69.281  1.00  0.00    -0.305 C  
HETATM    3  C   UNL     1     -10.929  10.320  70.164  1.00  0.00    -0.377 C  
HETATM    4  C   UNL     1     -10.198   9.190  69.393  1.00  0.00    -0.212 C  
HETATM    5  C   UNL     1     -10.058   7.808  70.158  1.00  0.00    -0.197 C  
HETATM    6  C   UNL     1     -11.383   6.980  70.081  1.00  0.00    -0.321 C  
HETATM    7  C   UNL     1     -11.130   5.784  69.111  1.00  0.00    -0.218 C  
HETATM    8  C   UNL     1      -9.889   6.225  68.343  1.00  0.00    -0.130 C  
HETATM    9  O   UNL     1     -10.398   7.240  67.441  1.00  0.00    -0.206 OA 
HETATM   10  C   UNL     1      -9.894  12.045  68.551  1.00  0.00    -0.177 C  
HETATM   11  C   UNL     1      -9.022   6.823  69.500  1.00  0.00    -0.139 C  
HETATM   12  C   UNL     1      -7.717   7.495  69.103  1.00  0.00    -0.113 C  
HETATM   13  H   UNL     1      -9.625   7.516  66.963  1.00  0.00     0.000 HD 
HETATM   14  O   UNL     1      -8.263  14.863  67.048  1.00  0.00    -0.206 OA 
HETATM   15  C   UNL     1      -9.593  13.337  68.308  1.00  0.00    -0.221 C  
HETATM   16  C   UNL     1      -8.537   5.727  70.497  1.00  0.00    -0.138 C  
HETATM   17  C   UNL     1      -7.969   8.690  68.276  1.00  0.00    -0.110 C  
HETATM   18  C   UNL     1      -8.386  13.736  67.499  1.00  0.00    -0.192 C  
HETATM   19  C   UNL     1      -8.844   9.748  68.921  1.00  0.00    -0.140 C  
HETATM   20  O   UNL     1      -7.398   8.793  67.190  1.00  0.00    -0.079 OA 
HETATM   21  C   UNL     1      -7.355  12.679  67.205  1.00  0.00    -0.106 C  
HETATM   22  C   UNL     1      -8.962  10.975  67.990  1.00  0.00    -0.145 C  
HETATM   23  C   UNL     1      -7.548  11.595  67.967  1.00  0.00    -0.117 C  
HETATM   24  C   UNL     1      -9.494  10.632  66.568  1.00  0.00    -0.199 C  
ENDROOT
BRANCH   8  25
HETATM   25  C   UNL     1      -9.154   5.366  67.320  1.00  0.00    -0.111 C  
HETATM   26  O   UNL     1      -9.044   5.787  66.154  1.00  0.00    -0.148 OA 
BRANCH  25  27
HETATM   27  C   UNL     1      -8.664   3.988  67.641  1.00  0.00    -0.105 C  
HETATM   28  O   UNL     1      -9.769   3.086  67.542  1.00  0.00    -0.339 OA 
HETATM   29  H   UNL     1      -9.458   2.212  67.745  1.00  0.00     0.000 HD 
ENDBRANCH  25  27
ENDBRANCH   8  25
TORSDOF 2
ENDMDL
MODEL       85
REMARK 921   NORMALIZED FREE ENERGY PREDICTED BY IDOCK:   -3.54 KCAL/MOL
REMARK 922        TOTAL FREE ENERGY PREDICTED BY IDOCK:   -4.39 KCAL/MOL
REMARK 923 INTER-LIGAND FREE ENERGY PREDICTED BY IDOCK:   -4.34 KCAL/MOL
REMARK 924 INTRA-LIGAND FREE ENERGY PREDICTED BY IDOCK:   -0.05 KCAL/MOL
REMARK 927      BINDING AFFINITY PREDICTED BY RF-SCORE:    0.00 PKD
ROOT
HETATM    1  C   UNL     1      -9.782   8.402  67.878  1.00  0.00    -0.189 C  
HETATM    2  C   UNL     1     -10.862   7.369  68.245  1.00  0.00    -0.081 C  
HETATM    3  C   UNL     1     -10.945   6.247  67.163  1.00  0.00    -0.453 C  
HETATM    4  C   UNL     1      -9.791   5.219  67.293  1.00  0.00    -0.183 C  
HETATM    5  C   UNL     1      -9.701   4.129  66.145  1.00  0.00    -0.215 C  
HETATM    6  C   UNL     1      -9.016   4.709  64.863  1.00  0.00    -0.153 C  
HETATM    7  C   UNL     1      -7.598   4.065  64.761  1.00  0.00    -0.077 C  
HETATM    8  C   UNL     1      -7.361   3.537  66.171  1.00  0.00    -0.072 C  
HETATM    9  O   UNL     1      -7.090   4.740  66.936  1.00  0.00    -0.072 OA 
HETATM   10  C   UNL     1     -10.668   6.825  69.660  1.00  0.00    -0.290 C  
HETATM   11  C   UNL     1      -8.761   2.917  66.494  1.00  0.00    -0.134 C  
HETATM   12  C   UNL     1      -8.965   2.380  67.903  1.00  0.00    -0.193 C  
HETATM   13  H   UNL     1      -6.943   4.411  67.815  1.00  0.00     0.000 HD 
HETATM   14  O   UNL     1     -11.151   7.537  73.142  1.00  0.00    -0.383 OA 
HETATM   15  C   UNL     1     -11.201   7.391  70.762  1.00  0.00    -0.293 C  
HETATM   16  C   UNL     1      -9.064   1.664  65.618  1.00  0.00    -0.069 C  
HETATM   17  C   UNL     1      -8.886   3.466  68.898  1.00  0.00    -0.112 C  
HETATM   18  C   UNL     1     -10.903   6.875  72.146  1.00  0.00    -0.225 C  
HETATM   19  C   UNL     1      -9.878   4.597  68.698  1.00  0.00    -0.190 C  
HETATM   20  O   UNL     1      -8.114   3.347  69.849  1.00  0.00    -0.049 OA 
HETATM   21  C   UNL     1     -10.225   5.536  72.268  1.00  0.00    -0.244 C  
HETATM   22  C   UNL     1      -9.748   5.621  69.846  1.00  0.00    -0.222 C  
HETATM   23  C   UNL     1     -10.249   4.878  71.103  1.00  0.00    -0.261 C  
HETATM   24  C   UNL     1      -8.310   6.192  70.016  1.00  0.00    -0.125 C  
ENDROOT
BRANCH   8  25
HETATM   25  C   UNL     1      -6.144   2.723  66.597  1.00  0.00    -0.024 C  
HETATM   26  O   UNL     1      -5.497   3.092  67.594  1.00  0.00    -0.016 OA 
BRANCH  25  27
HETATM   27  C   UNL     1      -5.636   1.568  65.791  1.00  0.00    -0.013 C  
HETATM   28  O   UNL     1      -5.193   2.066  64.526  1.00  0.00    -0.007 OA 
HETATM   29  H   UNL     1      -4.870   1.333  64.015  1.00  0.00     0.000 HD 
ENDBRANCH  25  27
ENDBRANCH   8  25
TORSDOF 2
ENDMDL
MODEL       86
REMARK 921   NORMALIZED FREE ENERGY PREDICTED BY IDOCK:   -3.47 KCAL/MOL
REMARK 922        TOTAL FREE ENERGY PREDICTED BY IDOCK:   -4.32 KCAL/MOL
REMARK 923 INTER-LIGAND FREE ENERGY PREDICTED BY IDOCK:   -4.36 KCAL/MOL
REMARK 924 INTRA-LIGAND FREE ENERGY PREDICTED BY IDOCK:    0.04 KCAL/MOL
REMARK 927      BINDING AFFINITY PREDICTED BY RF-SCORE:    0.00 PKD
ROOT
HETATM    1  C   UNL     1     -11.223  13.776  65.077  1.00  0.00    -0.339 C  
HETATM    2  C   UNL     1     -10.254  13.041  66.021  1.00  0.00    -0.292 C  
HETATM    3  C   UNL     1      -8.887  13.789  66.102  1.00  0.00     0.372 C  
HETATM    4  C   UNL     1      -8.958  15.046  67.009  1.00  0.00    -0.255 C  
HETATM    5  C   UNL     1      -7.661  15.958  67.032  1.00  0.00    -0.264 C  
HETATM    6  C   UNL     1      -7.599  16.889  65.776  1.00  0.00     0.488 C  
HETATM    7  C   UNL     1      -7.900  18.343  66.259  1.00  0.00    -0.273 C  
HETATM    8  C   UNL     1      -8.557  18.122  67.616  1.00  0.00    -0.251 C  
HETATM    9  O   UNL     1      -9.881  17.640  67.271  1.00  0.00    -0.285 OA 
HETATM   10  C   UNL     1     -10.883  12.787  67.391  1.00  0.00    -0.265 C  
HETATM   11  C   UNL     1      -7.641  17.001  68.210  1.00  0.00    -0.213 C  
HETATM   12  C   UNL     1      -8.059  16.409  69.547  1.00  0.00     0.169 C  
HETATM   13  H   UNL     1     -10.291  17.502  68.117  1.00  0.00     0.000 HD 
HETATM   14  O   UNL     1     -13.149  10.683  69.207  1.00  0.00     0.162 OA 
HETATM   15  C   UNL     1     -11.603  11.688  67.695  1.00  0.00    -0.349 C  
HETATM   16  C   UNL     1      -6.203  17.518  68.515  1.00  0.00    -0.176 C  
HETATM   17  C   UNL     1      -9.351  15.706  69.433  1.00  0.00    -0.279 C  
HETATM   18  C   UNL     1     -12.284  11.526  69.030  1.00  0.00    -0.121 C  
HETATM   19  C   UNL     1      -9.385  14.583  68.413  1.00  0.00    -0.208 C  
HETATM   20  O   UNL     1     -10.259  15.999  70.211  1.00  0.00    -0.144 OA 
HETATM   21  C   UNL     1     -11.913  12.483  70.131  1.00  0.00    -0.377 C  
HETATM   22  C   UNL     1     -10.758  13.878  68.450  1.00  0.00    -0.267 C  
HETATM   23  C   UNL     1     -10.804  13.166  69.820  1.00  0.00     0.379 C  
HETATM   24  C   UNL     1     -11.962  14.841  68.230  1.00  0.00    -0.258 C  
ENDROOT
BRANCH   8  25
HETATM   25  C   UNL     1      -8.968  19.238  68.570  1.00  0.00    -0.369 C  
HETATM   26  O   UNL     1      -8.099  19.752  69.298  1.00  0.00    -0.191 OA 
BRANCH  25  27
HETATM   27  C   UNL     1     -10.396  19.653  68.744  1.00  0.00    -0.242 C  
HETATM   28  O   UNL     1     -10.482  20.483  69.905  1.00  0.00    -0.509 OA 
HETATM   29  H   UNL     1     -11.388  20.747  70.015  1.00  0.00     0.000 HD 
ENDBRANCH  25  27
ENDBRANCH   8  25
TORSDOF 2
ENDMDL
MODEL       87
REMARK 921   NORMALIZED FREE ENERGY PREDICTED BY IDOCK:   -3.46 KCAL/MOL
REMARK 922        TOTAL FREE ENERGY PREDICTED BY IDOCK:   -4.30 KCAL/MOL
REMARK 923 INTER-LIGAND FREE ENERGY PREDICTED BY IDOCK:   -3.88 KCAL/MOL
REMARK 924 INTRA-LIGAND FREE ENERGY PREDICTED BY IDOCK:   -0.42 KCAL/MOL
REMARK 927      BINDING AFFINITY PREDICTED BY RF-SCORE:    0.00 PKD
ROOT
HETATM    1  C   UNL     1      -5.301  10.083  67.849  1.00  0.00    -0.038 C  
HETATM    2  C   UNL     1      -6.351  10.107  66.723  1.00  0.00    -0.070 C  
HETATM    3  C   UNL     1      -6.734   8.656  66.294  1.00  0.00    -0.069 C  
HETATM    4  C   UNL     1      -7.701   7.982  67.302  1.00  0.00    -0.101 C  
HETATM    5  C   UNL     1      -8.027   6.454  67.034  1.00  0.00    -0.109 C  
HETATM    6  C   UNL     1      -6.875   5.529  67.548  1.00  0.00    -0.060 C  
HETATM    7  C   UNL     1      -7.399   4.797  68.823  1.00  0.00    -0.061 C  
HETATM    8  C   UNL     1      -8.594   5.648  69.238  1.00  0.00    -0.106 C  
HETATM    9  O   UNL     1      -7.978   6.833  69.803  1.00  0.00    -0.119 OA 
HETATM   10  C   UNL     1      -7.560  10.964  67.095  1.00  0.00    -0.109 C  
HETATM   11  C   UNL     1      -9.262   5.917  67.849  1.00  0.00    -0.108 C  
HETATM   12  C   UNL     1     -10.454   6.862  67.832  1.00  0.00    -0.262 C  
HETATM   13  H   UNL     1      -8.723   7.365  70.062  1.00  0.00     0.000 HD 
HETATM   14  O   UNL     1      -8.773  14.329  67.351  1.00  0.00    -0.185 OA 
HETATM   15  C   UNL     1      -7.647  12.288  66.851  1.00  0.00     0.001 C  
HETATM   16  C   UNL     1      -9.862   4.620  67.225  1.00  0.00    -0.218 C  
HETATM   17  C   UNL     1     -10.054   8.223  68.236  1.00  0.00    -0.198 C  
HETATM   18  C   UNL     1      -8.819  13.109  67.323  1.00  0.00    -0.208 C  
HETATM   19  C   UNL     1      -8.967   8.854  67.388  1.00  0.00    -0.143 C  
HETATM   20  O   UNL     1     -10.672   8.779  69.145  1.00  0.00    -0.213 OA 
HETATM   21  C   UNL     1     -10.036  12.378  67.823  1.00  0.00    -0.205 C  
HETATM   22  C   UNL     1      -8.701  10.300  67.860  1.00  0.00    -0.122 C  
HETATM   23  C   UNL     1      -9.983  11.080  67.499  1.00  0.00    -0.199 C  
HETATM   24  C   UNL     1      -8.335  10.407  69.370  1.00  0.00    -0.152 C  
ENDROOT
BRANCH   8  25
HETATM   25  C   UNL     1      -9.535   5.315  70.390  1.00  0.00    -0.166 C  
HETATM   26  O   UNL     1     -10.006   4.165  70.463  1.00  0.00    -0.201 OA 
BRANCH  25  27
HETATM   27  C   UNL     1     -10.002   6.352  71.364  1.00  0.00    -0.184 C  
HETATM   28  O   UNL     1     -11.377   6.633  71.093  1.00  0.00    -0.274 OA 
HETATM   29  H   UNL     1     -11.673   7.291  71.711  1.00  0.00     0.000 HD 
ENDBRANCH  25  27
ENDBRANCH   8  25
TORSDOF 2
ENDMDL
MODEL       88
REMARK 921   NORMALIZED FREE ENERGY PREDICTED BY IDOCK:   -3.35 KCAL/MOL
REMARK 922        TOTAL FREE ENERGY PREDICTED BY IDOCK:   -4.18 KCAL/MOL
REMARK 923 INTER-LIGAND FREE ENERGY PREDICTED BY IDOCK:   -4.00 KCAL/MOL
REMARK 924 INTRA-LIGAND FREE ENERGY PREDICTED BY IDOCK:   -0.18 KCAL/MOL
REMARK 927      BINDING AFFINITY PREDICTED BY RF-SCORE:    0.00 PKD
ROOT
HETATM    1  C   UNL     1      -7.020   9.897  70.247  1.00  0.00    -0.147 C  
HETATM    2  C   UNL     1      -6.538  10.522  68.925  1.00  0.00    -0.054 C  
HETATM    3  C   UNL     1      -5.805   9.460  68.046  1.00  0.00    -0.041 C  
HETATM    4  C   UNL     1      -6.796   8.501  67.335  1.00  0.00    -0.067 C  
HETATM    5  C   UNL     1      -6.144   7.293  66.542  1.00  0.00    -0.039 C  
HETATM    6  C   UNL     1      -5.742   6.131  67.509  1.00  0.00    -0.016 C  
HETATM    7  C   UNL     1      -6.746   4.960  67.273  1.00  0.00    -0.055 C  
HETATM    8  C   UNL     1      -7.908   5.645  66.563  1.00  0.00    -0.101 C  
HETATM    9  O   UNL     1      -8.557   6.388  67.626  1.00  0.00    -0.116 OA 
HETATM   10  C   UNL     1      -7.672  11.233  68.188  1.00  0.00    -0.112 C  
HETATM   11  C   UNL     1      -7.139   6.569  65.561  1.00  0.00    -0.064 C  
HETATM   12  C   UNL     1      -7.977   7.530  64.732  1.00  0.00    -0.132 C  
HETATM   13  H   UNL     1      -9.281   6.816  67.183  1.00  0.00     0.000 HD 
HETATM   14  O   UNL     1      -9.644  14.226  68.077  1.00  0.00    -0.210 OA 
HETATM   15  C   UNL     1      -7.999  12.527  68.380  1.00  0.00    -0.139 C  
HETATM   16  C   UNL     1      -6.393   5.752  64.463  1.00  0.00    -0.033 C  
HETATM   17  C   UNL     1      -8.649   8.522  65.593  1.00  0.00    -0.177 C  
HETATM   18  C   UNL     1      -9.187  13.159  67.701  1.00  0.00    -0.207 C  
HETATM   19  C   UNL     1      -7.723   9.359  66.455  1.00  0.00    -0.097 C  
HETATM   20  O   UNL     1      -9.867   8.669  65.491  1.00  0.00     0.070 OA 
HETATM   21  C   UNL     1      -9.841  12.401  66.578  1.00  0.00    -0.244 C  
HETATM   22  C   UNL     1      -8.539  10.408  67.240  1.00  0.00    -0.126 C  
HETATM   23  C   UNL     1      -9.069  11.386  66.169  1.00  0.00    -0.217 C  
HETATM   24  C   UNL     1      -9.675   9.794  68.111  1.00  0.00    -0.163 C  
ENDROOT
BRANCH   8  25
HETATM   25  C   UNL     1      -9.133   4.923  66.015  1.00  0.00    -0.139 C  
HETATM   26  O   UNL     1      -8.969   4.018  65.177  1.00  0.00    -0.122 OA 
BRANCH  25  27
HETATM   27  C   UNL     1     -10.528   5.344  66.361  1.00  0.00    -0.267 C  
HETATM   28  O   UNL     1     -11.424   4.731  65.430  1.00  0.00    -0.990 OA 
HETATM   29  H   UNL     1     -12.309   4.998  65.650  1.00  0.00     0.000 HD 
ENDBRANCH  25  27
ENDBRANCH   8  25
TORSDOF 2
ENDMDL
MODEL       89
REMARK 921   NORMALIZED FREE ENERGY PREDICTED BY IDOCK:   -3.27 KCAL/MOL
REMARK 922        TOTAL FREE ENERGY PREDICTED BY IDOCK:   -4.09 KCAL/MOL
REMARK 923 INTER-LIGAND FREE ENERGY PREDICTED BY IDOCK:   -4.68 KCAL/MOL
REMARK 924 INTRA-LIGAND FREE ENERGY PREDICTED BY IDOCK:    0.59 KCAL/MOL
REMARK 927      BINDING AFFINITY PREDICTED BY RF-SCORE:    0.00 PKD
ROOT
HETATM    1  C   UNL     1     -10.154  15.507  68.146  1.00  0.00    -0.218 C  
HETATM    2  C   UNL     1      -9.334  15.273  66.864  1.00  0.00    -0.255 C  
HETATM    3  C   UNL     1      -7.935  14.670  67.204  1.00  0.00    -0.184 C  
HETATM    4  C   UNL     1      -8.013  13.157  67.537  1.00  0.00    -0.179 C  
HETATM    5  C   UNL     1      -6.668  12.489  68.045  1.00  0.00    -0.090 C  
HETATM    6  C   UNL     1      -6.421  12.791  69.560  1.00  0.00    -0.077 C  
HETATM    7  C   UNL     1      -6.671  11.467  70.346  1.00  0.00     0.520 C  
HETATM    8  C   UNL     1      -7.474  10.630  69.357  1.00  0.00    -0.135 C  
HETATM    9  O   UNL     1      -8.785  11.248  69.384  1.00  0.00    -0.364 OA 
HETATM   10  C   UNL     1     -10.111  14.449  65.838  1.00  0.00    -0.344 C  
HETATM   11  C   UNL     1      -6.697  10.916  68.029  1.00  0.00    -0.063 C  
HETATM   12  C   UNL     1      -7.284  10.335  66.752  1.00  0.00    -0.105 C  
HETATM   13  H   UNL     1      -9.286  10.727  68.767  1.00  0.00     0.000 HD 
HETATM   14  O   UNL     1     -12.680  14.584  63.340  1.00  0.00    -0.627 OA 
HETATM   15  C   UNL     1     -10.929  14.983  64.908  1.00  0.00    -0.427 C  
HETATM   16  C   UNL     1      -5.265  10.300  68.042  1.00  0.00    -0.034 C  
HETATM   17  C   UNL     1      -8.601  10.931  66.458  1.00  0.00    -0.156 C  
HETATM   18  C   UNL     1     -11.749  14.123  63.981  1.00  0.00    -0.207 C  
HETATM   19  C   UNL     1      -8.607  12.441  66.311  1.00  0.00     0.170 C  
HETATM   20  O   UNL     1      -9.561  10.185  66.262  1.00  0.00    -0.174 OA 
HETATM   21  C   UNL     1     -11.426  12.655  63.911  1.00  0.00    -0.509 C  
HETATM   22  C   UNL     1     -10.021  12.927  65.925  1.00  0.00    -0.273 C  
HETATM   23  C   UNL     1     -10.250  12.394  64.494  1.00  0.00    -0.325 C  
HETATM   24  C   UNL     1     -11.131  12.480  66.921  1.00  0.00    -0.323 C  
ENDROOT
BRANCH   8  25
HETATM   25  C   UNL     1      -7.903   9.186  69.593  1.00  0.00    -0.084 C  
HETATM   26  O   UNL     1      -8.893   8.748  68.979  1.00  0.00    -0.135 OA 
BRANCH  25  27
HETATM   27  C   UNL     1      -7.247   8.317  70.622  1.00  0.00    -0.049 C  
HETATM   28  O   UNL     1      -5.956   8.862  70.909  1.00  0.00    -0.034 OA 
HETATM   29  H   UNL     1      -5.540   8.311  71.561  1.00  0.00     0.000 HD 
ENDBRANCH  25  27
ENDBRANCH   8  25
TORSDOF 2
ENDMDL
MODEL       90
REMARK 921   NORMALIZED FREE ENERGY PREDICTED BY IDOCK:   -3.21 KCAL/MOL
REMARK 922        TOTAL FREE ENERGY PREDICTED BY IDOCK:   -4.03 KCAL/MOL
REMARK 923 INTER-LIGAND FREE ENERGY PREDICTED BY IDOCK:   -4.09 KCAL/MOL
REMARK 924 INTRA-LIGAND FREE ENERGY PREDICTED BY IDOCK:    0.06 KCAL/MOL
REMARK 927      BINDING AFFINITY PREDICTED BY RF-SCORE:    0.00 PKD
ROOT
HETATM    1  C   UNL     1     -11.289  11.378  69.909  1.00  0.00    -0.300 C  
HETATM    2  C   UNL     1     -11.399   9.849  69.758  1.00  0.00    -0.241 C  
HETATM    3  C   UNL     1     -11.405   9.441  68.252  1.00  0.00     0.299 C  
HETATM    4  C   UNL     1      -9.987   9.489  67.625  1.00  0.00    -0.226 C  
HETATM    5  C   UNL     1      -9.913   9.239  66.060  1.00  0.00    -0.325 C  
HETATM    6  C   UNL     1     -10.290  10.530  65.261  1.00  0.00    -0.300 C  
HETATM    7  C   UNL     1      -8.977  11.089  64.629  1.00  0.00    -0.085 C  
HETATM    8  C   UNL     1      -7.888  10.401  65.445  1.00  0.00    -0.143 C  
HETATM    9  O   UNL     1      -7.931  11.100  66.715  1.00  0.00    -0.144 OA 
HETATM   10  C   UNL     1     -10.332   9.121  70.574  1.00  0.00    -0.288 C  
HETATM   11  C   UNL     1      -8.458   8.947  65.535  1.00  0.00    -0.174 C  
HETATM   12  C   UNL     1      -7.690   7.960  66.401  1.00  0.00    -0.096 C  
HETATM   13  H   UNL     1      -7.253  10.672  67.224  1.00  0.00     0.000 HD 
HETATM   14  O   UNL     1      -9.427   8.034  73.870  1.00  0.00    -0.140 OA 
HETATM   15  C   UNL     1     -10.494   8.747  71.860  1.00  0.00    -0.423 C  
HETATM   16  C   UNL     1      -8.465   8.232  64.149  1.00  0.00     0.021 C  
HETATM   17  C   UNL     1      -7.710   8.374  67.816  1.00  0.00    -0.103 C  
HETATM   18  C   UNL     1      -9.377   8.117  72.653  1.00  0.00    -0.272 C  
HETATM   19  C   UNL     1      -9.092   8.526  68.424  1.00  0.00    -0.139 C  
HETATM   20  O   UNL     1      -6.643   8.473  68.422  1.00  0.00    -0.058 OA 
HETATM   21  C   UNL     1      -8.159   7.647  71.904  1.00  0.00    -0.112 C  
HETATM   22  C   UNL     1      -8.973   8.878  69.922  1.00  0.00    -0.160 C  
HETATM   23  C   UNL     1      -8.390   7.611  70.586  1.00  0.00    -0.125 C  
HETATM   24  C   UNL     1      -8.121  10.151  70.201  1.00  0.00     0.006 C  
ENDROOT
BRANCH   8  25
HETATM   25  C   UNL     1      -6.393  10.527  65.172  1.00  0.00    -0.064 C  
HETATM   26  O   UNL     1      -5.699  11.208  65.948  1.00  0.00    -0.140 OA 
BRANCH  25  27
HETATM   27  C   UNL     1      -5.757   9.957  63.942  1.00  0.00    -0.115 C  
HETATM   28  O   UNL     1      -6.307  10.625  62.804  1.00  0.00    -0.242 OA 
HETATM   29  H   UNL     1      -5.903  10.264  62.023  1.00  0.00     0.000 HD 
ENDBRANCH  25  27
ENDBRANCH   8  25
TORSDOF 2
ENDMDL
MODEL       91
REMARK 921   NORMALIZED FREE ENERGY PREDICTED BY IDOCK:   -3.17 KCAL/MOL
REMARK 922        TOTAL FREE ENERGY PREDICTED BY IDOCK:   -3.98 KCAL/MOL
REMARK 923 INTER-LIGAND FREE ENERGY PREDICTED BY IDOCK:   -3.83 KCAL/MOL
REMARK 924 INTRA-LIGAND FREE ENERGY PREDICTED BY IDOCK:   -0.15 KCAL/MOL
REMARK 927      BINDING AFFINITY PREDICTED BY RF-SCORE:    0.00 PKD
ROOT
HETATM    1  C   UNL     1      -7.182   8.804  71.687  1.00  0.00    -0.095 C  
HETATM    2  C   UNL     1      -6.160   9.119  70.578  1.00  0.00    -0.043 C  
HETATM    3  C   UNL     1      -5.816   7.833  69.763  1.00  0.00    -0.023 C  
HETATM    4  C   UNL     1      -6.932   7.463  68.751  1.00  0.00    -0.078 C  
HETATM    5  C   UNL     1      -6.745   6.087  67.985  1.00  0.00    -0.061 C  
HETATM    6  C   UNL     1      -7.177   4.877  68.877  1.00  0.00    -0.053 C  
HETATM    7  C   UNL     1      -8.519   4.328  68.300  1.00  0.00    -0.103 C  
HETATM    8  C   UNL     1      -9.018   5.483  67.439  1.00  0.00    -0.107 C  
HETATM    9  O   UNL     1      -9.484   6.449  68.416  1.00  0.00    -0.121 OA 
HETATM   10  C   UNL     1      -6.617  10.283  69.701  1.00  0.00    -0.077 C  
HETATM   11  C   UNL     1      -7.690   5.924  66.737  1.00  0.00    -0.100 C  
HETATM   12  C   UNL     1      -7.756   7.166  65.863  1.00  0.00    -0.101 C  
HETATM   13  H   UNL     1      -9.794   7.169  67.879  1.00  0.00     0.000 HD 
HETATM   14  O   UNL     1      -6.879  13.855  69.510  1.00  0.00    -0.100 OA 
HETATM   15  C   UNL     1      -6.341  11.577  69.964  1.00  0.00    -0.116 C  
HETATM   16  C   UNL     1      -7.168   4.846  65.740  1.00  0.00    -0.076 C  
HETATM   17  C   UNL     1      -8.077   8.361  66.666  1.00  0.00    -0.101 C  
HETATM   18  C   UNL     1      -6.895  12.697  69.122  1.00  0.00    -0.057 C  
HETATM   19  C   UNL     1      -7.109   8.657  67.796  1.00  0.00    -0.079 C  
HETATM   20  O   UNL     1      -9.022   9.073  66.322  1.00  0.00    -0.144 OA 
HETATM   21  C   UNL     1      -7.531  12.341  67.806  1.00  0.00    -0.126 C  
HETATM   22  C   UNL     1      -7.508   9.971  68.502  1.00  0.00    -0.086 C  
HETATM   23  C   UNL     1      -7.246  11.079  67.460  1.00  0.00    -0.096 C  
HETATM   24  C   UNL     1      -8.972   9.976  69.032  1.00  0.00    -0.163 C  
ENDROOT
BRANCH   8  25
HETATM   25  C   UNL     1     -10.264   5.433  66.562  1.00  0.00    -0.245 C  
HETATM   26  O   UNL     1     -11.152   6.286  66.737  1.00  0.00    -0.343 OA 
BRANCH  25  27
HETATM   27  C   UNL     1     -10.504   4.327  65.581  1.00  0.00    -0.123 C  
HETATM   28  O   UNL     1     -11.750   4.575  64.925  1.00  0.00    -1.012 OA 
HETATM   29  H   UNL     1     -11.903   3.873  64.303  1.00  0.00     0.000 HD 
ENDBRANCH  25  27
ENDBRANCH   8  25
TORSDOF 2
ENDMDL
MODEL       92
REMARK 921   NORMALIZED FREE ENERGY PREDICTED BY IDOCK:   -3.16 KCAL/MOL
REMARK 922        TOTAL FREE ENERGY PREDICTED BY IDOCK:   -3.97 KCAL/MOL
REMARK 923 INTER-LIGAND FREE ENERGY PREDICTED BY IDOCK:   -3.81 KCAL/MOL
REMARK 924 INTRA-LIGAND FREE ENERGY PREDICTED BY IDOCK:   -0.16 KCAL/MOL
REMARK 927      BINDING AFFINITY PREDICTED BY RF-SCORE:    0.00 PKD
ROOT
HETATM    1  C   UNL     1     -10.841   8.230  67.493  1.00  0.00    -0.094 C  
HETATM    2  C   UNL     1      -9.687   7.913  66.524  1.00  0.00    -0.279 C  
HETATM    3  C   UNL     1      -8.941   9.219  66.106  1.00  0.00    -0.202 C  
HETATM    4  C   UNL     1      -7.987   9.732  67.216  1.00  0.00    -0.106 C  
HETATM    5  C   UNL     1      -7.302  11.136  66.946  1.00  0.00    -0.138 C  
HETATM    6  C   UNL     1      -8.278  12.316  67.266  1.00  0.00    -0.182 C  
HETATM    7  C   UNL     1      -7.774  12.996  68.577  1.00  0.00    -0.111 C  
HETATM    8  C   UNL     1      -6.859  11.936  69.181  1.00  0.00    -0.099 C  
HETATM    9  O   UNL     1      -7.788  10.947  69.693  1.00  0.00    -0.360 OA 
HETATM   10  C   UNL     1      -8.753   6.842  67.088  1.00  0.00    -0.120 C  
HETATM   11  C   UNL     1      -6.094  11.446  67.907  1.00  0.00    -0.050 C  
HETATM   12  C   UNL     1      -5.147  10.269  68.086  1.00  0.00    -0.035 C  
HETATM   13  H   UNL     1      -7.217  10.286  70.069  1.00  0.00     0.000 HD 
HETATM   14  O   UNL     1      -8.352   3.318  67.618  1.00  0.00    -0.083 OA 
HETATM   15  C   UNL     1      -8.929   5.518  66.901  1.00  0.00    -0.111 C  
HETATM   16  C   UNL     1      -5.149  12.544  67.330  1.00  0.00    -0.064 C  
HETATM   17  C   UNL     1      -5.884   9.053  68.475  1.00  0.00    -0.042 C  
HETATM   18  C   UNL     1      -8.036   4.496  67.557  1.00  0.00    -0.100 C  
HETATM   19  C   UNL     1      -6.966   8.617  67.504  1.00  0.00    -0.078 C  
HETATM   20  O   UNL     1      -5.525   8.434  69.477  1.00  0.00    -0.030 OA 
HETATM   21  C   UNL     1      -6.763   4.980  68.197  1.00  0.00    -0.055 C  
HETATM   22  C   UNL     1      -7.601   7.293  67.982  1.00  0.00    -0.115 C  
HETATM   23  C   UNL     1      -6.487   6.237  67.827  1.00  0.00    -0.049 C  
HETATM   24  C   UNL     1      -8.173   7.360  69.429  1.00  0.00    -0.131 C  
ENDROOT
BRANCH   8  25
HETATM   25  C   UNL     1      -6.023  12.132  70.440  1.00  0.00    -0.103 C  
HETATM   26  O   UNL     1      -5.806  11.149  71.172  1.00  0.00    -0.355 OA 
BRANCH  25  27
HETATM   27  C   UNL     1      -5.554  13.483  70.885  1.00  0.00    -0.197 C  
HETATM   28  O   UNL     1      -6.139  13.761  72.160  1.00  0.00    -0.524 OA 
HETATM   29  H   UNL     1      -5.842  14.618  72.442  1.00  0.00     0.000 HD 
ENDBRANCH  25  27
ENDBRANCH   8  25
TORSDOF 2
ENDMDL
MODEL       93
REMARK 921   NORMALIZED FREE ENERGY PREDICTED BY IDOCK:   -3.14 KCAL/MOL
REMARK 922        TOTAL FREE ENERGY PREDICTED BY IDOCK:   -3.95 KCAL/MOL
REMARK 923 INTER-LIGAND FREE ENERGY PREDICTED BY IDOCK:   -3.72 KCAL/MOL
REMARK 924 INTRA-LIGAND FREE ENERGY PREDICTED BY IDOCK:   -0.22 KCAL/MOL
REMARK 927      BINDING AFFINITY PREDICTED BY RF-SCORE:    0.00 PKD
ROOT
HETATM    1  C   UNL     1      -9.862   3.532  71.148  1.00  0.00    -0.185 C  
HETATM    2  C   UNL     1      -8.427   3.641  70.597  1.00  0.00    -0.102 C  
HETATM    3  C   UNL     1      -8.440   4.132  69.115  1.00  0.00    -0.098 C  
HETATM    4  C   UNL     1      -8.693   5.658  69.004  1.00  0.00    -0.104 C  
HETATM    5  C   UNL     1      -8.876   6.225  67.535  1.00  0.00    -0.103 C  
HETATM    6  C   UNL     1     -10.324   5.964  67.002  1.00  0.00    -0.298 C  
HETATM    7  C   UNL     1     -11.067   7.336  66.980  1.00  0.00    -0.066 C  
HETATM    8  C   UNL     1     -10.215   8.200  67.903  1.00  0.00    -0.218 C  
HETATM    9  O   UNL     1     -10.545   7.701  69.224  1.00  0.00    -0.221 OA 
HETATM   10  C   UNL     1      -7.536   4.488  71.504  1.00  0.00    -0.069 C  
HETATM   11  C   UNL     1      -8.775   7.793  67.444  1.00  0.00    -0.128 C  
HETATM   12  C   UNL     1      -7.613   8.370  68.237  1.00  0.00    -0.098 C  
HETATM   13  H   UNL     1     -10.013   8.239  69.800  1.00  0.00     0.000 HD 
HETATM   14  O   UNL     1      -5.626   4.479  74.539  1.00  0.00    -0.012 OA 
HETATM   15  C   UNL     1      -6.825   3.991  72.537  1.00  0.00    -0.046 C  
HETATM   16  C   UNL     1      -8.460   8.280  65.997  1.00  0.00    -0.148 C  
HETATM   17  C   UNL     1      -7.629   7.882  69.629  1.00  0.00    -0.098 C  
HETATM   18  C   UNL     1      -6.035   4.881  73.462  1.00  0.00    -0.026 C  
HETATM   19  C   UNL     1      -7.575   6.373  69.783  1.00  0.00    -0.093 C  
HETATM   20  O   UNL     1      -7.590   8.701  70.547  1.00  0.00    -0.063 OA 
HETATM   21  C   UNL     1      -5.817   6.312  73.048  1.00  0.00    -0.042 C  
HETATM   22  C   UNL     1      -7.513   5.998  71.279  1.00  0.00    -0.089 C  
HETATM   23  C   UNL     1      -6.131   6.492  71.759  1.00  0.00    -0.038 C  
HETATM   24  C   UNL     1      -8.687   6.582  72.119  1.00  0.00    -0.131 C  
ENDROOT
BRANCH   8  25
HETATM   25  C   UNL     1     -10.449   9.684  68.159  1.00  0.00    -0.222 C  
HETATM   26  O   UNL     1     -10.403  10.103  69.330  1.00  0.00    -0.195 OA 
BRANCH  25  27
HETATM   27  C   UNL     1     -10.847  10.629  67.067  1.00  0.00    -0.238 C  
HETATM   28  O   UNL     1     -11.817  11.538  67.593  1.00  0.00    -0.595 OA 
HETATM   29  H   UNL     1     -12.069  12.137  66.901  1.00  0.00     0.000 HD 
ENDBRANCH  25  27
ENDBRANCH   8  25
TORSDOF 2
ENDMDL
MODEL       94
REMARK 921   NORMALIZED FREE ENERGY PREDICTED BY IDOCK:   -3.13 KCAL/MOL
REMARK 922        TOTAL FREE ENERGY PREDICTED BY IDOCK:   -3.94 KCAL/MOL
REMARK 923 INTER-LIGAND FREE ENERGY PREDICTED BY IDOCK:   -3.67 KCAL/MOL
REMARK 924 INTRA-LIGAND FREE ENERGY PREDICTED BY IDOCK:   -0.27 KCAL/MOL
REMARK 927      BINDING AFFINITY PREDICTED BY RF-SCORE:    0.00 PKD
ROOT
HETATM    1  C   UNL     1      -7.524   9.840  67.682  1.00  0.00    -0.091 C  
HETATM    2  C   UNL     1      -6.606   8.607  67.592  1.00  0.00    -0.062 C  
HETATM    3  C   UNL     1      -6.073   8.210  69.004  1.00  0.00    -0.039 C  
HETATM    4  C   UNL     1      -7.141   7.464  69.846  1.00  0.00    -0.065 C  
HETATM    5  C   UNL     1      -6.746   7.156  71.351  1.00  0.00    -0.051 C  
HETATM    6  C   UNL     1      -6.937   8.416  72.258  1.00  0.00    -0.106 C  
HETATM    7  C   UNL     1      -8.183   8.155  73.161  1.00  0.00    -0.253 C  
HETATM    8  C   UNL     1      -8.898   7.020  72.436  1.00  0.00    -0.128 C  
HETATM    9  O   UNL     1      -9.491   7.680  71.289  1.00  0.00    -0.153 OA 
HETATM   10  C   UNL     1      -7.282   7.450  66.857  1.00  0.00    -0.088 C  
HETATM   11  C   UNL     1      -7.687   6.107  72.050  1.00  0.00    -0.097 C  
HETATM   12  C   UNL     1      -7.992   4.895  71.183  1.00  0.00    -0.092 C  
HETATM   13  H   UNL     1      -9.937   6.972  70.836  1.00  0.00     0.000 HD 
HETATM   14  O   UNL     1      -8.155   6.171  63.623  1.00  0.00    -0.118 OA 
HETATM   15  C   UNL     1      -7.222   7.270  65.522  1.00  0.00    -0.066 C  
HETATM   16  C   UNL     1      -7.020   5.457  73.300  1.00  0.00    -0.081 C  
HETATM   17  C   UNL     1      -8.486   5.306  69.856  1.00  0.00    -0.098 C  
HETATM   18  C   UNL     1      -7.985   6.169  64.832  1.00  0.00    -0.123 C  
HETATM   19  C   UNL     1      -7.549   6.201  69.067  1.00  0.00    -0.091 C  
HETATM   20  O   UNL     1      -9.548   4.838  69.445  1.00  0.00    -0.145 OA 
HETATM   21  C   UNL     1      -8.592   5.089  65.687  1.00  0.00    -0.135 C  
HETATM   22  C   UNL     1      -8.144   6.490  67.672  1.00  0.00    -0.118 C  
HETATM   23  C   UNL     1      -8.106   5.134  66.934  1.00  0.00    -0.108 C  
HETATM   24  C   UNL     1      -9.570   7.113  67.717  1.00  0.00    -0.146 C  
ENDROOT
BRANCH   8  25
HETATM   25  C   UNL     1     -10.144   6.311  72.955  1.00  0.00    -0.184 C  
HETATM   26  O   UNL     1     -10.020   5.482  73.875  1.00  0.00    -0.167 OA 
BRANCH  25  27
HETATM   27  C   UNL     1     -11.487   6.492  72.320  1.00  0.00    -0.289 C  
HETATM   28  O   UNL     1     -11.998   7.769  72.710  1.00  0.00    -0.579 OA 
HETATM   29  H   UNL     1     -12.851   7.884  72.307  1.00  0.00     0.000 HD 
ENDBRANCH  25  27
ENDBRANCH   8  25
TORSDOF 2
ENDMDL
MODEL       95
REMARK 921   NORMALIZED FREE ENERGY PREDICTED BY IDOCK:   -3.09 KCAL/MOL
REMARK 922        TOTAL FREE ENERGY PREDICTED BY IDOCK:   -3.89 KCAL/MOL
REMARK 923 INTER-LIGAND FREE ENERGY PREDICTED BY IDOCK:   -3.93 KCAL/MOL
REMARK 924 INTRA-LIGAND FREE ENERGY PREDICTED BY IDOCK:    0.05 KCAL/MOL
REMARK 927      BINDING AFFINITY PREDICTED BY RF-SCORE:    0.00 PKD
ROOT
HETATM    1  C   UNL     1     -10.778  10.096  66.911  1.00  0.00    -0.231 C  
HETATM    2  C   UNL     1      -9.484  10.523  67.629  1.00  0.00    -0.164 C  
HETATM    3  C   UNL     1      -9.525  10.110  69.134  1.00  0.00    -0.215 C  
HETATM    4  C   UNL     1      -9.244   8.598  69.335  1.00  0.00    -0.150 C  
HETATM    5  C   UNL     1      -9.415   8.052  70.815  1.00  0.00    -0.173 C  
HETATM    6  C   UNL     1     -10.920   7.800  71.156  1.00  0.00    -0.259 C  
HETATM    7  C   UNL     1     -11.135   6.255  71.202  1.00  0.00    -0.356 C  
HETATM    8  C   UNL     1      -9.920   5.719  70.453  1.00  0.00    -0.198 C  
HETATM    9  O   UNL     1     -10.221   6.024  69.068  1.00  0.00    -0.161 OA 
HETATM   10  C   UNL     1      -8.239  10.017  66.900  1.00  0.00    -0.121 C  
HETATM   11  C   UNL     1      -8.788   6.627  71.040  1.00  0.00    -0.142 C  
HETATM   12  C   UNL     1      -7.402   6.473  70.433  1.00  0.00    -0.085 C  
HETATM   13  H   UNL     1      -9.463   5.691  68.601  1.00  0.00     0.000 HD 
HETATM   14  O   UNL     1      -6.062  10.603  64.112  1.00  0.00    -0.065 OA 
HETATM   15  C   UNL     1      -7.613  10.700  65.920  1.00  0.00    -0.138 C  
HETATM   16  C   UNL     1      -8.522   6.332  72.548  1.00  0.00    -0.120 C  
HETATM   17  C   UNL     1      -7.399   6.877  69.015  1.00  0.00    -0.093 C  
HETATM   18  C   UNL     1      -6.446  10.118  65.164  1.00  0.00    -0.121 C  
HETATM   19  C   UNL     1      -7.852   8.301  68.749  1.00  0.00    -0.115 C  
HETATM   20  O   UNL     1      -6.954   6.095  68.175  1.00  0.00    -0.074 OA 
HETATM   21  C   UNL     1      -5.802   8.873  65.713  1.00  0.00    -0.051 C  
HETATM   22  C   UNL     1      -7.724   8.623  67.245  1.00  0.00    -0.097 C  
HETATM   23  C   UNL     1      -6.205   8.636  66.967  1.00  0.00    -0.056 C  
HETATM   24  C   UNL     1      -8.496   7.632  66.325  1.00  0.00    -0.140 C  
ENDROOT
BRANCH   8  25
HETATM   25  C   UNL     1      -9.587   4.241  70.290  1.00  0.00    -0.199 C  
HETATM   26  O   UNL     1      -9.980   3.440  71.157  1.00  0.00    -0.144 OA 
BRANCH  25  27
HETATM   27  C   UNL     1      -8.706   3.739  69.187  1.00  0.00    -0.090 C  
HETATM   28  O   UNL     1      -9.542   3.264  68.129  1.00  0.00    -0.177 OA 
HETATM   29  H   UNL     1      -8.984   2.946  67.429  1.00  0.00     0.000 HD 
ENDBRANCH  25  27
ENDBRANCH   8  25
TORSDOF 2
ENDMDL
MODEL       96
REMARK 921   NORMALIZED FREE ENERGY PREDICTED BY IDOCK:   -2.97 KCAL/MOL
REMARK 922        TOTAL FREE ENERGY PREDICTED BY IDOCK:   -3.75 KCAL/MOL
REMARK 923 INTER-LIGAND FREE ENERGY PREDICTED BY IDOCK:   -3.64 KCAL/MOL
REMARK 924 INTRA-LIGAND FREE ENERGY PREDICTED BY IDOCK:   -0.11 KCAL/MOL
REMARK 927      BINDING AFFINITY PREDICTED BY RF-SCORE:    0.00 PKD
ROOT
HETATM    1  C   UNL     1     -10.035   2.176  71.784  1.00  0.00    -0.209 C  
HETATM    2  C   UNL     1      -8.700   2.389  71.045  1.00  0.00    -0.114 C  
HETATM    3  C   UNL     1      -8.891   3.338  69.820  1.00  0.00    -0.154 C  
HETATM    4  C   UNL     1      -8.997   4.827  70.243  1.00  0.00    -0.147 C  
HETATM    5  C   UNL     1      -9.346   5.852  69.084  1.00  0.00    -0.137 C  
HETATM    6  C   UNL     1     -10.878   5.852  68.768  1.00  0.00    -0.353 C  
HETATM    7  C   UNL     1     -11.467   7.190  69.314  1.00  0.00     0.132 C  
HETATM    8  C   UNL     1     -10.396   7.661  70.291  1.00  0.00    -0.214 C  
HETATM    9  O   UNL     1     -10.567   6.773  71.425  1.00  0.00    -0.218 OA 
HETATM   10  C   UNL     1      -7.594   2.848  71.994  1.00  0.00    -0.052 C  
HETATM   11  C   UNL     1      -9.097   7.356  69.474  1.00  0.00    -0.143 C  
HETATM   12  C   UNL     1      -7.771   7.584  70.184  1.00  0.00    -0.089 C  
HETATM   13  H   UNL     1      -9.899   7.066  72.034  1.00  0.00     0.000 HD 
HETATM   14  O   UNL     1      -5.247   1.750  74.474  1.00  0.00     0.000 OA 
HETATM   15  C   UNL     1      -6.787   2.005  72.672  1.00  0.00    -0.022 C  
HETATM   16  C   UNL     1      -8.961   8.275  68.222  1.00  0.00    -0.136 C  
HETATM   17  C   UNL     1      -7.621   6.668  71.330  1.00  0.00    -0.093 C  
HETATM   18  C   UNL     1      -5.774   2.503  73.670  1.00  0.00     0.000 C  
HETATM   19  C   UNL     1      -7.702   5.192  70.990  1.00  0.00    -0.095 C  
HETATM   20  O   UNL     1      -7.354   7.138  72.436  1.00  0.00    -0.078 OA 
HETATM   21  C   UNL     1      -5.474   3.977  73.694  1.00  0.00    -0.004 C  
HETATM   22  C   UNL     1      -7.449   4.344  72.255  1.00  0.00    -0.073 C  
HETATM   23  C   UNL     1      -5.965   4.585  72.606  1.00  0.00    -0.016 C  
HETATM   24  C   UNL     1      -8.409   4.678  73.435  1.00  0.00    -0.103 C  
ENDROOT
BRANCH   8  25
HETATM   25  C   UNL     1     -10.431   8.989  71.039  1.00  0.00    -0.269 C  
HETATM   26  O   UNL     1      -9.821   9.083  72.119  1.00  0.00    -0.273 OA 
BRANCH  25  27
HETATM   27  C   UNL     1     -11.266  10.143  70.576  1.00  0.00    -0.336 C  
HETATM   28  O   UNL     1     -10.419  11.053  69.872  1.00  0.00    -0.446 OA 
HETATM   29  H   UNL     1     -10.949  11.786  69.578  1.00  0.00     0.000 HD 
ENDBRANCH  25  27
ENDBRANCH   8  25
TORSDOF 2
ENDMDL
MODEL       97
REMARK 921   NORMALIZED FREE ENERGY PREDICTED BY IDOCK:   -2.92 KCAL/MOL
REMARK 922        TOTAL FREE ENERGY PREDICTED BY IDOCK:   -3.70 KCAL/MOL
REMARK 923 INTER-LIGAND FREE ENERGY PREDICTED BY IDOCK:   -3.77 KCAL/MOL
REMARK 924 INTRA-LIGAND FREE ENERGY PREDICTED BY IDOCK:    0.07 KCAL/MOL
REMARK 927      BINDING AFFINITY PREDICTED BY RF-SCORE:    0.00 PKD
ROOT
HETATM    1  C   UNL     1      -9.837   5.574  69.143  1.00  0.00    -0.227 C  
HETATM    2  C   UNL     1      -9.667   5.455  67.617  1.00  0.00    -0.155 C  
HETATM    3  C   UNL     1     -10.371   6.642  66.888  1.00  0.00    -0.324 C  
HETATM    4  C   UNL     1      -9.546   7.953  66.968  1.00  0.00    -0.247 C  
HETATM    5  C   UNL     1     -10.250   9.251  66.389  1.00  0.00    -0.298 C  
HETATM    6  C   UNL     1     -11.267   9.850  67.416  1.00  0.00     0.071 C  
HETATM    7  C   UNL     1     -10.644  11.167  67.975  1.00  0.00    -0.233 C  
HETATM    8  C   UNL     1      -9.168  11.022  67.622  1.00  0.00    -0.149 C  
HETATM    9  O   UNL     1      -8.693  10.036  68.574  1.00  0.00    -0.118 OA 
HETATM   10  C   UNL     1      -8.199   5.293  67.223  1.00  0.00    -0.104 C  
HETATM   11  C   UNL     1      -9.266  10.458  66.166  1.00  0.00    -0.199 C  
HETATM   12  C   UNL     1      -7.961  10.058  65.495  1.00  0.00    -0.139 C  
HETATM   13  H   UNL     1      -7.773   9.946  68.354  1.00  0.00     0.000 HD 
HETATM   14  O   UNL     1      -5.485   2.959  67.009  1.00  0.00    -0.018 OA 
HETATM   15  C   UNL     1      -7.574   4.102  67.125  1.00  0.00    -0.077 C  
HETATM   16  C   UNL     1      -9.840  11.509  65.167  1.00  0.00    -0.294 C  
HETATM   17  C   UNL     1      -7.326   8.932  66.206  1.00  0.00    -0.087 C  
HETATM   18  C   UNL     1      -6.101   3.997  66.826  1.00  0.00    -0.028 C  
HETATM   19  C   UNL     1      -8.176   7.681  66.321  1.00  0.00    -0.120 C  
HETATM   20  O   UNL     1      -6.153   9.040  66.565  1.00  0.00    -0.061 OA 
HETATM   21  C   UNL     1      -5.389   5.236  66.353  1.00  0.00    -0.012 C  
HETATM   22  C   UNL     1      -7.371   6.557  67.007  1.00  0.00    -0.079 C  
HETATM   23  C   UNL     1      -6.262   6.186  65.999  1.00  0.00    -0.037 C  
HETATM   24  C   UNL     1      -6.808   6.953  68.404  1.00  0.00    -0.074 C  
ENDROOT
BRANCH   8  25
HETATM   25  C   UNL     1      -8.111  12.094  67.864  1.00  0.00    -0.153 C  
HETATM   26  O   UNL     1      -8.270  13.216  67.351  1.00  0.00    -0.171 OA 
BRANCH  25  27
HETATM   27  C   UNL     1      -6.838  11.807  68.598  1.00  0.00    -0.081 C  
HETATM   28  O   UNL     1      -7.173  11.325  69.902  1.00  0.00    -0.353 OA 
HETATM   29  H   UNL     1      -6.365  11.143  70.368  1.00  0.00     0.000 HD 
ENDBRANCH  25  27
ENDBRANCH   8  25
TORSDOF 2
ENDMDL
MODEL       98
REMARK 921   NORMALIZED FREE ENERGY PREDICTED BY IDOCK:   -2.86 KCAL/MOL
REMARK 922        TOTAL FREE ENERGY PREDICTED BY IDOCK:   -3.63 KCAL/MOL
REMARK 923 INTER-LIGAND FREE ENERGY PREDICTED BY IDOCK:   -4.00 KCAL/MOL
REMARK 924 INTRA-LIGAND FREE ENERGY PREDICTED BY IDOCK:    0.37 KCAL/MOL
REMARK 927      BINDING AFFINITY PREDICTED BY RF-SCORE:    0.00 PKD
ROOT
HETATM    1  C   UNL     1     -10.889  10.516  66.858  1.00  0.00    -0.252 C  
HETATM    2  C   UNL     1     -10.602  11.035  68.280  1.00  0.00    -0.220 C  
HETATM    3  C   UNL     1     -10.974   9.959  69.347  1.00  0.00    -0.263 C  
HETATM    4  C   UNL     1      -9.908   8.837  69.446  1.00  0.00    -0.186 C  
HETATM    5  C   UNL     1     -10.271   7.618  70.393  1.00  0.00    -0.203 C  
HETATM    6  C   UNL     1     -11.237   6.614  69.681  1.00  0.00    -0.397 C  
HETATM    7  C   UNL     1     -10.412   5.332  69.347  1.00  0.00    -0.284 C  
HETATM    8  C   UNL     1      -8.971   5.818  69.445  1.00  0.00    -0.116 C  
HETATM    9  O   UNL     1      -8.802   6.607  68.240  1.00  0.00    -0.125 OA 
HETATM   10  C   UNL     1      -9.169  11.547  68.416  1.00  0.00    -0.190 C  
HETATM   11  C   UNL     1      -9.043   6.697  70.739  1.00  0.00    -0.151 C  
HETATM   12  C   UNL     1      -7.790   7.475  71.110  1.00  0.00    -0.091 C  
HETATM   13  H   UNL     1      -7.904   6.911  68.302  1.00  0.00     0.000 HD 
HETATM   14  O   UNL     1      -6.985  14.304  67.717  1.00  0.00    -0.146 OA 
HETATM   15  C   UNL     1      -8.795  12.817  68.156  1.00  0.00    -0.194 C  
HETATM   16  C   UNL     1      -9.290   5.840  72.017  1.00  0.00    -0.163 C  
HETATM   17  C   UNL     1      -7.472   8.485  70.084  1.00  0.00    -0.060 C  
HETATM   18  C   UNL     1      -7.353  13.251  68.212  1.00  0.00    -0.113 C  
HETATM   19  C   UNL     1      -8.568   9.498  69.815  1.00  0.00    -0.201 C  
HETATM   20  O   UNL     1      -6.342   8.501  69.596  1.00  0.00    -0.038 OA 
HETATM   21  C   UNL     1      -6.360  12.314  68.843  1.00  0.00    -0.084 C  
HETATM   22  C   UNL     1      -8.081  10.543  68.788  1.00  0.00    -0.131 C  
HETATM   23  C   UNL     1      -6.981  11.340  69.521  1.00  0.00    -0.089 C  
HETATM   24  C   UNL     1      -7.585   9.920  67.450  1.00  0.00    -0.091 C  
ENDROOT
BRANCH   8  25
HETATM   25  C   UNL     1      -7.744   4.924  69.301  1.00  0.00    -0.074 C  
HETATM   26  O   UNL     1      -6.627   5.391  69.589  1.00  0.00    -0.043 OA 
BRANCH  25  27
HETATM   27  C   UNL     1      -7.825   3.548  68.717  1.00  0.00    -0.055 C  
HETATM   28  O   UNL     1      -7.924   2.611  69.793  1.00  0.00    -0.043 OA 
HETATM   29  H   UNL     1      -7.975   1.738  69.423  1.00  0.00     0.000 HD 
ENDBRANCH  25  27
ENDBRANCH   8  25
TORSDOF 2
ENDMDL
MODEL       99
REMARK 921   NORMALIZED FREE ENERGY PREDICTED BY IDOCK:   -2.63 KCAL/MOL
REMARK 922        TOTAL FREE ENERGY PREDICTED BY IDOCK:   -3.38 KCAL/MOL
REMARK 923 INTER-LIGAND FREE ENERGY PREDICTED BY IDOCK:   -3.14 KCAL/MOL
REMARK 924 INTRA-LIGAND FREE ENERGY PREDICTED BY IDOCK:   -0.24 KCAL/MOL
REMARK 927      BINDING AFFINITY PREDICTED BY RF-SCORE:    0.00 PKD
ROOT
HETATM    1  C   UNL     1      -6.516   7.581  66.246  1.00  0.00    -0.049 C  
HETATM    2  C   UNL     1      -6.102   6.115  66.470  1.00  0.00    -0.032 C  
HETATM    3  C   UNL     1      -5.861   5.834  67.987  1.00  0.00    -0.013 C  
HETATM    4  C   UNL     1      -7.189   5.673  68.772  1.00  0.00    -0.081 C  
HETATM    5  C   UNL     1      -7.051   5.538  70.346  1.00  0.00    -0.062 C  
HETATM    6  C   UNL     1      -6.844   6.934  71.020  1.00  0.00    -0.058 C  
HETATM    7  C   UNL     1      -8.166   7.292  71.768  1.00  0.00    -0.105 C  
HETATM    8  C   UNL     1      -9.184   6.356  71.127  1.00  0.00    -0.156 C  
HETATM    9  O   UNL     1      -9.407   6.949  69.822  1.00  0.00    -0.147 OA 
HETATM   10  C   UNL     1      -7.091   5.143  65.829  1.00  0.00    -0.068 C  
HETATM   11  C   UNL     1      -8.360   5.027  71.055  1.00  0.00    -0.118 C  
HETATM   12  C   UNL     1      -9.014   3.852  70.344  1.00  0.00    -0.161 C  
HETATM   13  H   UNL     1     -10.041   6.365  69.422  1.00  0.00     0.000 HD 
HETATM   14  O   UNL     1      -8.112   3.653  62.731  1.00  0.00    -0.070 OA 
HETATM   15  C   UNL     1      -6.996   4.704  64.557  1.00  0.00    -0.050 C  
HETATM   16  C   UNL     1      -8.073   4.437  72.469  1.00  0.00    -0.100 C  
HETATM   17  C   UNL     1      -9.220   4.149  68.914  1.00  0.00    -0.147 C  
HETATM   18  C   UNL     1      -8.050   3.821  63.938  1.00  0.00    -0.089 C  
HETATM   19  C   UNL     1      -7.964   4.502  68.140  1.00  0.00    -0.080 C  
HETATM   20  O   UNL     1     -10.345   4.005  68.433  1.00  0.00     0.345 OA 
HETATM   21  C   UNL     1      -9.071   3.197  64.851  1.00  0.00    -0.143 C  
HETATM   22  C   UNL     1      -8.303   4.708  66.648  1.00  0.00    -0.106 C  
HETATM   23  C   UNL     1      -8.701   3.308  66.133  1.00  0.00    -0.128 C  
HETATM   24  C   UNL     1      -9.406   5.779  66.399  1.00  0.00    -0.168 C  
ENDROOT
BRANCH   8  25
HETATM   25  C   UNL     1     -10.639   6.228  71.566  1.00  0.00    -0.237 C  
HETATM   26  O   UNL     1     -11.530   6.258  70.698  1.00  0.00    -0.347 OA 
BRANCH  25  27
HETATM   27  C   UNL     1     -11.035   6.185  73.009  1.00  0.00    -0.249 C  
HETATM   28  O   UNL     1     -11.997   5.141  73.178  1.00  0.00    -0.525 OA 
HETATM   29  H   UNL     1     -12.248   5.114  74.093  1.00  0.00     0.000 HD 
ENDBRANCH  25  27
ENDBRANCH   8  25
TORSDOF 2
ENDMDL
MODEL      100
REMARK 921   NORMALIZED FREE ENERGY PREDICTED BY IDOCK:   -2.53 KCAL/MOL
REMARK 922        TOTAL FREE ENERGY PREDICTED BY IDOCK:   -3.27 KCAL/MOL
REMARK 923 INTER-LIGAND FREE ENERGY PREDICTED BY IDOCK:   -3.55 KCAL/MOL
REMARK 924 INTRA-LIGAND FREE ENERGY PREDICTED BY IDOCK:    0.29 KCAL/MOL
REMARK 927      BINDING AFFINITY PREDICTED BY RF-SCORE:    0.00 PKD
ROOT
HETATM    1  C   UNL     1      -8.336   7.212  64.088  1.00  0.00     0.158 C  
HETATM    2  C   UNL     1      -7.163   6.771  64.983  1.00  0.00    -0.074 C  
HETATM    3  C   UNL     1      -6.861   7.849  66.071  1.00  0.00    -0.057 C  
HETATM    4  C   UNL     1      -7.883   7.807  67.238  1.00  0.00    -0.117 C  
HETATM    5  C   UNL     1      -7.751   8.962  68.315  1.00  0.00    -0.096 C  
HETATM    6  C   UNL     1      -8.410  10.288  67.810  1.00  0.00    -0.110 C  
HETATM    7  C   UNL     1      -9.724  10.496  68.626  1.00  0.00    -0.175 C  
HETATM    8  C   UNL     1      -9.994   9.109  69.197  1.00  0.00    -0.187 C  
HETATM    9  O   UNL     1     -10.468   8.362  68.048  1.00  0.00    -0.256 OA 
HETATM   10  C   UNL     1      -7.388   5.376  65.564  1.00  0.00    -0.073 C  
HETATM   11  C   UNL     1      -8.554   8.687  69.641  1.00  0.00    -0.131 C  
HETATM   12  C   UNL     1      -8.385   7.269  70.165  1.00  0.00    -0.137 C  
HETATM   13  H   UNL     1     -10.636   7.496  68.404  1.00  0.00     0.000 HD 
HETATM   14  O   UNL     1      -7.250   1.866  64.843  1.00  0.00    -0.050 OA 
HETATM   15  C   UNL     1      -7.011   4.235  64.951  1.00  0.00    -0.054 C  
HETATM   16  C   UNL     1      -8.032   9.543  70.835  1.00  0.00    -0.000 C  
HETATM   17  C   UNL     1      -8.672   6.278  69.111  1.00  0.00    -0.123 C  
HETATM   18  C   UNL     1      -7.341   2.879  65.518  1.00  0.00    -0.071 C  
HETATM   19  C   UNL     1      -7.819   6.401  67.862  1.00  0.00    -0.104 C  
HETATM   20  O   UNL     1      -9.489   5.386  69.339  1.00  0.00    -0.121 OA 
HETATM   21  C   UNL     1      -7.850   2.812  66.932  1.00  0.00    -0.075 C  
HETATM   22  C   UNL     1      -8.159   5.262  66.877  1.00  0.00    -0.104 C  
HETATM   23  C   UNL     1      -7.660   3.975  67.567  1.00  0.00    -0.068 C  
HETATM   24  C   UNL     1      -9.667   5.195  66.494  1.00  0.00    -0.184 C  
ENDROOT
BRANCH   8  25
HETATM   25  C   UNL     1     -11.125   8.776  70.163  1.00  0.00    -0.202 C  
HETATM   26  O   UNL     1     -11.893   9.687  70.522  1.00  0.00    -0.265 OA 
BRANCH  25  27
HETATM   27  C   UNL     1     -11.272   7.420  70.783  1.00  0.00    -0.271 C  
HETATM   28  O   UNL     1     -12.167   6.654  69.973  1.00  0.00    -0.605 OA 
HETATM   29  H   UNL     1     -12.260   5.793  70.366  1.00  0.00     0.000 HD 
ENDBRANCH  25  27
ENDBRANCH   8  25
TORSDOF 2
ENDMDL
MODEL      101
REMARK 921   NORMALIZED FREE ENERGY PREDICTED BY IDOCK:   -2.47 KCAL/MOL
REMARK 922        TOTAL FREE ENERGY PREDICTED BY IDOCK:   -3.20 KCAL/MOL
REMARK 923 INTER-LIGAND FREE ENERGY PREDICTED BY IDOCK:   -3.38 KCAL/MOL
REMARK 924 INTRA-LIGAND FREE ENERGY PREDICTED BY IDOCK:    0.18 KCAL/MOL
REMARK 927      BINDING AFFINITY PREDICTED BY RF-SCORE:    0.00 PKD
ROOT
HETATM    1  C   UNL     1      -8.790   9.671  70.201  1.00  0.00    -0.266 C  
HETATM    2  C   UNL     1      -7.790   9.830  69.041  1.00  0.00    -0.087 C  
HETATM    3  C   UNL     1      -6.745   8.671  69.048  1.00  0.00    -0.052 C  
HETATM    4  C   UNL     1      -7.328   7.350  68.481  1.00  0.00    -0.100 C  
HETATM    5  C   UNL     1      -6.391   6.076  68.590  1.00  0.00    -0.040 C  
HETATM    6  C   UNL     1      -6.437   5.458  70.027  1.00  0.00    -0.031 C  
HETATM    7  C   UNL     1      -7.235   4.120  69.934  1.00  0.00    -0.046 C  
HETATM    8  C   UNL     1      -7.983   4.261  68.613  1.00  0.00    -0.073 C  
HETATM    9  O   UNL     1      -9.030   5.215  68.922  1.00  0.00    -0.098 OA 
HETATM   10  C   UNL     1      -8.502   9.989  67.698  1.00  0.00    -0.114 C  
HETATM   11  C   UNL     1      -6.863   4.865  67.702  1.00  0.00    -0.060 C  
HETATM   12  C   UNL     1      -7.269   5.272  66.293  1.00  0.00    -0.073 C  
HETATM   13  H   UNL     1      -9.496   5.303  68.098  1.00  0.00     0.000 HD 
HETATM   14  O   UNL     1     -10.252  12.301  65.588  1.00  0.00    -0.250 OA 
HETATM   15  C   UNL     1      -8.887  11.177  67.187  1.00  0.00    -0.143 C  
HETATM   16  C   UNL     1      -5.712   3.849  67.432  1.00  0.00    -0.022 C  
HETATM   17  C   UNL     1      -8.251   6.372  66.323  1.00  0.00    -0.118 C  
HETATM   18  C   UNL     1      -9.671  11.275  65.904  1.00  0.00    -0.224 C  
HETATM   19  C   UNL     1      -7.791   7.627  67.040  1.00  0.00    -0.112 C  
HETATM   20  O   UNL     1      -9.308   6.242  65.706  1.00  0.00    -0.050 OA 
HETATM   21  C   UNL     1      -9.774  10.043  65.045  1.00  0.00    -0.386 C  
HETATM   22  C   UNL     1      -8.872   8.724  66.929  1.00  0.00    -0.142 C  
HETATM   23  C   UNL     1      -8.896   9.111  65.434  1.00  0.00    -0.236 C  
HETATM   24  C   UNL     1     -10.268   8.283  67.459  1.00  0.00    -0.309 C  
ENDROOT
BRANCH   8  25
HETATM   25  C   UNL     1      -8.849   3.172  67.989  1.00  0.00    -0.124 C  
HETATM   26  O   UNL     1      -9.884   3.506  67.384  1.00  0.00    -0.106 OA 
BRANCH  25  27
HETATM   27  C   UNL     1      -8.559   1.716  68.179  1.00  0.00    -0.072 C  
HETATM   28  O   UNL     1      -8.393   1.472  69.578  1.00  0.00    -0.044 OA 
HETATM   29  H   UNL     1      -8.209   0.548  69.700  1.00  0.00     0.000 HD 
ENDBRANCH  25  27
ENDBRANCH   8  25
TORSDOF 2
ENDMDL
MODEL      102
REMARK 921   NORMALIZED FREE ENERGY PREDICTED BY IDOCK:   -2.44 KCAL/MOL
REMARK 922        TOTAL FREE ENERGY PREDICTED BY IDOCK:   -3.17 KCAL/MOL
REMARK 923 INTER-LIGAND FREE ENERGY PREDICTED BY IDOCK:   -3.44 KCAL/MOL
REMARK 924 INTRA-LIGAND FREE ENERGY PREDICTED BY IDOCK:    0.27 KCAL/MOL
REMARK 927      BINDING AFFINITY PREDICTED BY RF-SCORE:    0.00 PKD
ROOT
HETATM    1  C   UNL     1      -7.549   6.825  63.530  1.00  0.00    -0.093 C  
HETATM    2  C   UNL     1      -6.743   6.408  64.774  1.00  0.00    -0.039 C  
HETATM    3  C   UNL     1      -6.356   7.657  65.627  1.00  0.00    -0.042 C  
HETATM    4  C   UNL     1      -7.548   8.187  66.466  1.00  0.00    -0.092 C  
HETATM    5  C   UNL     1      -7.296   9.543  67.247  1.00  0.00    -0.087 C  
HETATM    6  C   UNL     1      -7.438  10.779  66.299  1.00  0.00    -0.138 C  
HETATM    7  C   UNL     1      -8.766  11.507  66.676  1.00  0.00    -0.182 C  
HETATM    8  C   UNL     1      -9.526  10.443  67.460  1.00  0.00    -0.149 C  
HETATM    9  O   UNL     1      -9.970   9.523  66.430  1.00  0.00    -0.236 OA 
HETATM   10  C   UNL     1      -7.466   5.329  65.580  1.00  0.00    -0.081 C  
HETATM   11  C   UNL     1      -8.380   9.852  68.346  1.00  0.00    -0.107 C  
HETATM   12  C   UNL     1      -8.728   8.647  69.206  1.00  0.00    -0.133 C  
HETATM   13  H   UNL     1     -10.443   8.859  66.918  1.00  0.00     0.000 HD 
HETATM   14  O   UNL     1      -8.210   1.825  65.742  1.00  0.00    -0.078 OA 
HETATM   15  C   UNL     1      -7.324   4.006  65.363  1.00  0.00    -0.076 C  
HETATM   16  C   UNL     1      -7.870  10.876  69.405  1.00  0.00    -0.048 C  
HETATM   17  C   UNL     1      -9.083   7.486  68.369  1.00  0.00    -0.133 C  
HETATM   18  C   UNL     1      -8.131   2.983  66.121  1.00  0.00    -0.086 C  
HETATM   19  C   UNL     1      -8.011   7.046  67.390  1.00  0.00    -0.112 C  
HETATM   20  O   UNL     1     -10.150   6.907  68.576  1.00  0.00    -0.151 OA 
HETATM   21  C   UNL     1      -8.897   3.445  67.331  1.00  0.00    -0.150 C  
HETATM   22  C   UNL     1      -8.471   5.778  66.638  1.00  0.00    -0.113 C  
HETATM   23  C   UNL     1      -8.503   4.668  67.710  1.00  0.00    -0.103 C  
HETATM   24  C   UNL     1      -9.833   5.947  65.903  1.00  0.00     0.105 C  
ENDROOT
BRANCH   8  25
HETATM   25  C   UNL     1     -10.867  10.669  68.150  1.00  0.00    -0.245 C  
HETATM   26  O   UNL     1     -11.911  10.541  67.484  1.00  0.00    -0.223 OA 
BRANCH  25  27
HETATM   27  C   UNL     1     -10.965  11.152  69.564  1.00  0.00    -0.220 C  
HETATM   28  O   UNL     1     -11.183  12.564  69.539  1.00  0.00    -0.428 OA 
HETATM   29  H   UNL     1     -11.245  12.871  70.436  1.00  0.00     0.000 HD 
ENDBRANCH  25  27
ENDBRANCH   8  25
TORSDOF 2
ENDMDL
MODEL      103
REMARK 921   NORMALIZED FREE ENERGY PREDICTED BY IDOCK:   -2.37 KCAL/MOL
REMARK 922        TOTAL FREE ENERGY PREDICTED BY IDOCK:   -3.09 KCAL/MOL
REMARK 923 INTER-LIGAND FREE ENERGY PREDICTED BY IDOCK:   -2.88 KCAL/MOL
REMARK 924 INTRA-LIGAND FREE ENERGY PREDICTED BY IDOCK:   -0.21 KCAL/MOL
REMARK 927      BINDING AFFINITY PREDICTED BY RF-SCORE:    0.00 PKD
ROOT
HETATM    1  C   UNL     1      -9.153   9.958  69.536  1.00  0.00    -0.237 C  
HETATM    2  C   UNL     1      -7.654   9.636  69.680  1.00  0.00    -0.114 C  
HETATM    3  C   UNL     1      -7.439   8.114  69.957  1.00  0.00    -0.065 C  
HETATM    4  C   UNL     1      -7.591   7.257  68.674  1.00  0.00    -0.114 C  
HETATM    5  C   UNL     1      -7.543   5.685  68.881  1.00  0.00    -0.088 C  
HETATM    6  C   UNL     1      -8.918   5.137  69.389  1.00  0.00    -0.127 C  
HETATM    7  C   UNL     1      -9.575   4.359  68.207  1.00  0.00    -0.199 C  
HETATM    8  C   UNL     1      -8.809   4.873  66.993  1.00  0.00    -0.106 C  
HETATM    9  O   UNL     1      -9.341   6.209  66.805  1.00  0.00    -0.132 OA 
HETATM   10  C   UNL     1      -6.847  10.149  68.488  1.00  0.00    -0.058 C  
HETATM   11  C   UNL     1      -7.345   4.876  67.546  1.00  0.00    -0.078 C  
HETATM   12  C   UNL     1      -6.271   5.459  66.641  1.00  0.00    -0.035 C  
HETATM   13  H   UNL     1      -8.863   6.530  66.049  1.00  0.00     0.000 HD 
HETATM   14  O   UNL     1      -5.368  13.065  67.015  1.00  0.00    -0.323 OA 
HETATM   15  C   UNL     1      -6.310  11.384  68.419  1.00  0.00    -0.046 C  
HETATM   16  C   UNL     1      -6.812   3.434  67.804  1.00  0.00    -0.050 C  
HETATM   17  C   UNL     1      -6.501   6.896  66.405  1.00  0.00    -0.051 C  
HETATM   18  C   UNL     1      -5.605  11.879  67.183  1.00  0.00    -0.132 C  
HETATM   19  C   UNL     1      -6.551   7.754  67.655  1.00  0.00    -0.063 C  
HETATM   20  O   UNL     1      -6.542   7.310  65.246  1.00  0.00    -0.046 OA 
HETATM   21  C   UNL     1      -5.255  10.872  66.121  1.00  0.00    -0.114 C  
HETATM   22  C   UNL     1      -6.712   9.240  67.269  1.00  0.00    -0.069 C  
HETATM   23  C   UNL     1      -5.383   9.622  66.584  1.00  0.00    -0.045 C  
HETATM   24  C   UNL     1      -7.955   9.523  66.374  1.00  0.00    -0.111 C  
ENDROOT
BRANCH   8  25
HETATM   25  C   UNL     1      -8.995   4.357  65.570  1.00  0.00    -0.135 C  
HETATM   26  O   UNL     1      -9.152   5.180  64.651  1.00  0.00    -0.096 OA 
BRANCH  25  27
HETATM   27  C   UNL     1      -9.109   2.896  65.261  1.00  0.00    -0.149 C  
HETATM   28  O   UNL     1      -9.219   2.746  63.844  1.00  0.00    -0.101 OA 
HETATM   29  H   UNL     1      -9.291   1.820  63.647  1.00  0.00     0.000 HD 
ENDBRANCH  25  27
ENDBRANCH   8  25
TORSDOF 2
ENDMDL
MODEL      104
REMARK 921   NORMALIZED FREE ENERGY PREDICTED BY IDOCK:   -2.32 KCAL/MOL
REMARK 922        TOTAL FREE ENERGY PREDICTED BY IDOCK:   -3.03 KCAL/MOL
REMARK 923 INTER-LIGAND FREE ENERGY PREDICTED BY IDOCK:   -3.32 KCAL/MOL
REMARK 924 INTRA-LIGAND FREE ENERGY PREDICTED BY IDOCK:    0.29 KCAL/MOL
REMARK 927      BINDING AFFINITY PREDICTED BY RF-SCORE:    0.00 PKD
ROOT
HETATM    1  C   UNL     1      -7.979   4.207  66.614  1.00  0.00    -0.098 C  
HETATM    2  C   UNL     1      -9.255   5.029  66.876  1.00  0.00    -0.120 C  
HETATM    3  C   UNL     1     -10.020   4.481  68.121  1.00  0.00    -0.098 C  
HETATM    4  C   UNL     1      -9.359   4.915  69.455  1.00  0.00    -0.186 C  
HETATM    5  C   UNL     1      -9.975   4.281  70.772  1.00  0.00    -0.224 C  
HETATM    6  C   UNL     1      -9.444   2.827  71.003  1.00  0.00    -0.226 C  
HETATM    7  C   UNL     1      -8.455   2.879  72.209  1.00  0.00    -0.081 C  
HETATM    8  C   UNL     1      -8.112   4.361  72.306  1.00  0.00    -0.096 C  
HETATM    9  O   UNL     1      -7.224   4.572  71.179  1.00  0.00    -0.042 OA 
HETATM   10  C   UNL     1      -8.955   6.525  66.965  1.00  0.00    -0.121 C  
HETATM   11  C   UNL     1      -9.523   5.005  72.094  1.00  0.00    -0.175 C  
HETATM   12  C   UNL     1      -9.577   6.522  72.001  1.00  0.00    -0.154 C  
HETATM   13  H   UNL     1      -7.011   5.496  71.239  1.00  0.00     0.000 HD 
HETATM   14  O   UNL     1      -8.282   9.477  65.044  1.00  0.00    -0.124 OA 
HETATM   15  C   UNL     1      -8.950   7.355  65.902  1.00  0.00    -0.114 C  
HETATM   16  C   UNL     1     -10.486   4.714  73.284  1.00  0.00    -0.260 C  
HETATM   17  C   UNL     1      -8.850   7.005  70.812  1.00  0.00    -0.149 C  
HETATM   18  C   UNL     1      -8.554   8.804  66.025  1.00  0.00    -0.148 C  
HETATM   19  C   UNL     1      -9.343   6.454  69.487  1.00  0.00    -0.146 C  
HETATM   20  O   UNL     1      -7.982   7.866  70.954  1.00  0.00    -0.089 OA 
HETATM   21  C   UNL     1      -8.440   9.388  67.408  1.00  0.00    -0.125 C  
HETATM   22  C   UNL     1      -8.558   7.097  68.323  1.00  0.00    -0.122 C  
HETATM   23  C   UNL     1      -8.994   8.578  68.319  1.00  0.00    -0.139 C  
HETATM   24  C   UNL     1      -7.015   6.922  68.437  1.00  0.00    -0.080 C  
ENDROOT
BRANCH   8  25
HETATM   25  C   UNL     1      -7.243   4.978  73.395  1.00  0.00    -0.086 C  
HETATM   26  O   UNL     1      -7.789   5.658  74.283  1.00  0.00    -0.101 OA 
BRANCH  25  27
HETATM   27  C   UNL     1      -5.748   4.892  73.367  1.00  0.00    -0.017 C  
HETATM   28  O   UNL     1      -5.323   4.120  74.493  1.00  0.00    -0.004 OA 
HETATM   29  H   UNL     1      -4.375   4.065  74.475  1.00  0.00     0.000 HD 
ENDBRANCH  25  27
ENDBRANCH   8  25
TORSDOF 2
ENDMDL
MODEL      105
REMARK 921   NORMALIZED FREE ENERGY PREDICTED BY IDOCK:   -2.27 KCAL/MOL
REMARK 922        TOTAL FREE ENERGY PREDICTED BY IDOCK:   -2.98 KCAL/MOL
REMARK 923 INTER-LIGAND FREE ENERGY PREDICTED BY IDOCK:   -3.11 KCAL/MOL
REMARK 924 INTRA-LIGAND FREE ENERGY PREDICTED BY IDOCK:    0.13 KCAL/MOL
REMARK 927      BINDING AFFINITY PREDICTED BY RF-SCORE:    0.00 PKD
ROOT
HETATM    1  C   UNL     1     -10.026   6.526  69.477  1.00  0.00    -0.180 C  
HETATM    2  C   UNL     1      -8.510   6.500  69.206  1.00  0.00    -0.127 C  
HETATM    3  C   UNL     1      -8.197   6.996  67.759  1.00  0.00    -0.114 C  
HETATM    4  C   UNL     1      -8.283   8.540  67.636  1.00  0.00    -0.118 C  
HETATM    5  C   UNL     1      -8.133   9.127  66.171  1.00  0.00    -0.107 C  
HETATM    6  C   UNL     1      -9.472   9.007  65.372  1.00  0.00    -0.163 C  
HETATM    7  C   UNL     1     -10.067  10.444  65.241  1.00  0.00    -0.370 C  
HETATM    8  C   UNL     1      -9.328  11.219  66.325  1.00  0.00    -0.207 C  
HETATM    9  O   UNL     1      -9.946  10.749  67.551  1.00  0.00    -0.169 OA 
HETATM   10  C   UNL     1      -7.730   7.255  70.282  1.00  0.00    -0.094 C  
HETATM   11  C   UNL     1      -7.872  10.679  66.135  1.00  0.00    -0.152 C  
HETATM   12  C   UNL     1      -6.831  11.140  67.144  1.00  0.00    -0.107 C  
HETATM   13  H   UNL     1      -9.484  11.231  68.227  1.00  0.00     0.000 HD 
HETATM   14  O   UNL     1      -6.435   7.052  73.620  1.00  0.00    -0.066 OA 
HETATM   15  C   UNL     1      -7.275   6.689  71.418  1.00  0.00    -0.082 C  
HETATM   16  C   UNL     1      -7.247  11.140  64.783  1.00  0.00     0.869 C  
HETATM   17  C   UNL     1      -7.154  10.650  68.497  1.00  0.00    -0.069 C  
HETATM   18  C   UNL     1      -6.595   7.496  72.494  1.00  0.00    -0.059 C  
HETATM   19  C   UNL     1      -7.270   9.142  68.626  1.00  0.00    -0.075 C  
HETATM   20  O   UNL     1      -7.213  11.458  69.424  1.00  0.00    -0.106 OA 
HETATM   21  C   UNL     1      -6.171   8.900  72.159  1.00  0.00    -0.049 C  
HETATM   22  C   UNL     1      -7.526   8.757  70.098  1.00  0.00    -0.056 C  
HETATM   23  C   UNL     1      -6.219   9.115  70.838  1.00  0.00    -0.062 C  
HETATM   24  C   UNL     1      -8.778   9.446  70.717  1.00  0.00    -0.216 C  
ENDROOT
BRANCH   8  25
HETATM   25  C   UNL     1      -9.469  12.718  66.566  1.00  0.00    -0.253 C  
HETATM   26  O   UNL     1      -9.050  13.194  67.637  1.00  0.00    -0.182 OA 
BRANCH  25  27
HETATM   27  C   UNL     1     -10.195  13.614  65.610  1.00  0.00    -0.304 C  
HETATM   28  O   UNL     1      -9.464  14.838  65.503  1.00  0.00    -0.493 OA 
HETATM   29  H   UNL     1      -9.924  15.407  64.897  1.00  0.00     0.000 HD 
ENDBRANCH  25  27
ENDBRANCH   8  25
TORSDOF 2
ENDMDL
MODEL      106
REMARK 921   NORMALIZED FREE ENERGY PREDICTED BY IDOCK:   -2.23 KCAL/MOL
REMARK 922        TOTAL FREE ENERGY PREDICTED BY IDOCK:   -2.93 KCAL/MOL
REMARK 923 INTER-LIGAND FREE ENERGY PREDICTED BY IDOCK:   -3.06 KCAL/MOL
REMARK 924 INTRA-LIGAND FREE ENERGY PREDICTED BY IDOCK:    0.13 KCAL/MOL
REMARK 927      BINDING AFFINITY PREDICTED BY RF-SCORE:    0.00 PKD
ROOT
HETATM    1  C   UNL     1      -7.601  11.205  69.840  1.00  0.00     0.490 C  
HETATM    2  C   UNL     1      -6.720  11.905  68.789  1.00  0.00    -0.088 C  
HETATM    3  C   UNL     1      -7.063  11.398  67.353  1.00  0.00    -0.114 C  
HETATM    4  C   UNL     1      -8.371  12.026  66.805  1.00  0.00    -0.135 C  
HETATM    5  C   UNL     1      -8.884  11.456  65.417  1.00  0.00     0.018 C  
HETATM    6  C   UNL     1      -9.636  10.097  65.604  1.00  0.00    -0.302 C  
HETATM    7  C   UNL     1     -11.155  10.369  65.372  1.00  0.00     0.649 C  
HETATM    8  C   UNL     1     -11.258  11.882  65.526  1.00  0.00    -0.299 C  
HETATM    9  O   UNL     1     -11.132  12.081  66.957  1.00  0.00    -0.264 OA 
HETATM   10  C   UNL     1      -6.783  13.427  68.920  1.00  0.00    -0.110 C  
HETATM   11  C   UNL     1      -9.989  12.347  64.737  1.00  0.00    -0.196 C  
HETATM   12  C   UNL     1      -9.669  13.834  64.766  1.00  0.00     0.270 C  
HETATM   13  H   UNL     1     -11.196  13.024  67.054  1.00  0.00     0.000 HD 
HETATM   14  O   UNL     1      -5.578  16.239  70.790  1.00  0.00    -0.110 OA 
HETATM   15  C   UNL     1      -5.963  14.148  69.711  1.00  0.00    -0.121 C  
HETATM   16  C   UNL     1     -10.113  12.067  63.208  1.00  0.00    -0.379 C  
HETATM   17  C   UNL     1      -9.345  14.277  66.135  1.00  0.00    -0.160 C  
HETATM   18  C   UNL     1      -6.127  15.637  69.881  1.00  0.00    -0.162 C  
HETATM   19  C   UNL     1      -8.183  13.553  66.788  1.00  0.00     0.183 C  
HETATM   20  O   UNL     1      -9.952  15.238  66.609  1.00  0.00    -0.241 OA 
HETATM   21  C   UNL     1      -7.044  16.358  68.930  1.00  0.00    -0.195 C  
HETATM   22  C   UNL     1      -7.894  14.164  68.177  1.00  0.00    -0.142 C  
HETATM   23  C   UNL     1      -7.358  15.583  67.885  1.00  0.00    -0.155 C  
HETATM   24  C   UNL     1      -9.127  14.169  69.127  1.00  0.00     0.219 C  
ENDROOT
BRANCH   8  25
HETATM   25  C   UNL     1     -12.531  12.691  65.300  1.00  0.00    -0.416 C  
HETATM   26  O   UNL     1     -13.364  12.275  64.475  1.00  0.00    -0.769 OA 
BRANCH  25  27
HETATM   27  C   UNL     1     -12.755  14.023  65.947  1.00  0.00    -0.397 C  
HETATM   28  O   UNL     1     -12.963  14.991  64.917  1.00  0.00    -0.132 OA 
HETATM   29  H   UNL     1     -13.106  15.836  65.327  1.00  0.00     0.000 HD 
ENDBRANCH  25  27
ENDBRANCH   8  25
TORSDOF 2
ENDMDL
MODEL      107
REMARK 921   NORMALIZED FREE ENERGY PREDICTED BY IDOCK:   -2.23 KCAL/MOL
REMARK 922        TOTAL FREE ENERGY PREDICTED BY IDOCK:   -2.93 KCAL/MOL
REMARK 923 INTER-LIGAND FREE ENERGY PREDICTED BY IDOCK:   -3.32 KCAL/MOL
REMARK 924 INTRA-LIGAND FREE ENERGY PREDICTED BY IDOCK:    0.39 KCAL/MOL
REMARK 927      BINDING AFFINITY PREDICTED BY RF-SCORE:    0.00 PKD
ROOT
HETATM    1  C   UNL     1     -11.994  15.949  65.756  1.00  0.00     1.005 C  
HETATM    2  C   UNL     1     -10.908  14.896  65.469  1.00  0.00    -0.365 C  
HETATM    3  C   UNL     1      -9.552  15.583  65.115  1.00  0.00     0.189 C  
HETATM    4  C   UNL     1      -8.822  16.123  66.372  1.00  0.00    -0.355 C  
HETATM    5  C   UNL     1      -7.510  16.972  66.100  1.00  0.00    -0.255 C  
HETATM    6  C   UNL     1      -7.860  18.442  65.694  1.00  0.00     0.244 C  
HETATM    7  C   UNL     1      -7.483  19.361  66.897  1.00  0.00    -0.239 C  
HETATM    8  C   UNL     1      -7.386  18.379  68.059  1.00  0.00    -0.247 C  
HETATM    9  O   UNL     1      -8.773  18.062  68.344  1.00  0.00    -0.282 OA 
HETATM   10  C   UNL     1     -10.790  13.881  66.606  1.00  0.00    -0.289 C  
HETATM   11  C   UNL     1      -6.622  17.193  67.381  1.00  0.00    -0.175 C  
HETATM   12  C   UNL     1      -6.435  15.933  68.211  1.00  0.00    -0.124 C  
HETATM   13  H   UNL     1      -8.712  17.449  69.068  1.00  0.00     0.000 HD 
HETATM   14  O   UNL     1     -12.265  10.953  68.057  1.00  0.00    -0.422 OA 
HETATM   15  C   UNL     1     -11.509  12.743  66.676  1.00  0.00    -0.404 C  
HETATM   16  C   UNL     1      -5.153  17.571  67.021  1.00  0.00    -0.164 C  
HETATM   17  C   UNL     1      -7.734  15.308  68.522  1.00  0.00    -0.128 C  
HETATM   18  C   UNL     1     -11.428  11.820  67.864  1.00  0.00    -0.317 C  
HETATM   19  C   UNL     1      -8.574  14.932  67.315  1.00  0.00    -0.232 C  
HETATM   20  O   UNL     1      -8.006  15.051  69.695  1.00  0.00    -0.184 OA 
HETATM   21  C   UNL     1     -10.313  12.040  68.852  1.00  0.00    -0.117 C  
HETATM   22  C   UNL     1      -9.863  14.216  67.772  1.00  0.00    -0.231 C  
HETATM   23  C   UNL     1      -9.386  12.867  68.353  1.00  0.00    -0.147 C  
HETATM   24  C   UNL     1     -10.713  15.041  68.782  1.00  0.00    -0.241 C  
ENDROOT
BRANCH   8  25
HETATM   25  C   UNL     1      -6.946  18.749  69.471  1.00  0.00    -0.066 C  
HETATM   26  O   UNL     1      -6.793  17.840  70.307  1.00  0.00     0.618 OA 
BRANCH  25  27
HETATM   27  C   UNL     1      -6.806  20.173  69.915  1.00  0.00    -0.090 C  
HETATM   28  O   UNL     1      -6.594  20.181  71.328  1.00  0.00    -0.302 OA 
HETATM   29  H   UNL     1      -6.505  21.084  71.610  1.00  0.00     0.000 HD 
ENDBRANCH  25  27
ENDBRANCH   8  25
TORSDOF 2
ENDMDL
MODEL      108
REMARK 921   NORMALIZED FREE ENERGY PREDICTED BY IDOCK:   -1.95 KCAL/MOL
REMARK 922        TOTAL FREE ENERGY PREDICTED BY IDOCK:   -2.62 KCAL/MOL
REMARK 923 INTER-LIGAND FREE ENERGY PREDICTED BY IDOCK:   -3.10 KCAL/MOL
REMARK 924 INTRA-LIGAND FREE ENERGY PREDICTED BY IDOCK:    0.48 KCAL/MOL
REMARK 927      BINDING AFFINITY PREDICTED BY RF-SCORE:    0.00 PKD
ROOT
HETATM    1  C   UNL     1     -11.102  15.266  66.776  1.00  0.00    -0.278 C  
HETATM    2  C   UNL     1     -12.123  14.121  66.915  1.00  0.00    -0.466 C  
HETATM    3  C   UNL     1     -11.977  13.103  65.741  1.00  0.00    -0.473 C  
HETATM    4  C   UNL     1     -10.760  12.160  65.930  1.00  0.00    -0.302 C  
HETATM    5  C   UNL     1     -10.438  11.193  64.715  1.00  0.00    -0.388 C  
HETATM    6  C   UNL     1      -9.658  11.943  63.584  1.00  0.00    -0.174 C  
HETATM    7  C   UNL     1      -8.187  11.423  63.609  1.00  0.00     0.788 C  
HETATM    8  C   UNL     1      -8.074  10.785  64.989  1.00  0.00     0.036 C  
HETATM    9  O   UNL     1      -8.004  11.928  65.879  1.00  0.00    -0.251 OA 
HETATM   10  C   UNL     1     -12.052  13.464  68.293  1.00  0.00    -0.271 C  
HETATM   11  C   UNL     1      -9.442  10.030  65.079  1.00  0.00    -0.339 C  
HETATM   12  C   UNL     1      -9.764   9.350  66.401  1.00  0.00    -0.315 C  
HETATM   13  H   UNL     1      -7.934  11.530  66.740  1.00  0.00     0.000 HD 
HETATM   14  O   UNL     1     -13.008  13.806  71.732  1.00  0.00    -0.334 OA 
HETATM   15  C   UNL     1     -12.761  13.881  69.362  1.00  0.00     0.356 C  
HETATM   16  C   UNL     1      -9.526   8.845  64.070  1.00  0.00     1.069 C  
HETATM   17  C   UNL     1      -9.901  10.340  67.485  1.00  0.00    -0.173 C  
HETATM   18  C   UNL     1     -12.585  13.261  70.725  1.00  0.00    -0.280 C  
HETATM   19  C   UNL     1     -10.958  11.404  67.256  1.00  0.00    -0.336 C  
HETATM   20  O   UNL     1      -9.241  10.192  68.513  1.00  0.00    -0.136 OA 
HETATM   21  C   UNL     1     -11.811  11.974  70.819  1.00  0.00     0.045 C  
HETATM   22  C   UNL     1     -11.058  12.323  68.493  1.00  0.00    -0.290 C  
HETATM   23  C   UNL     1     -11.638  11.428  69.609  1.00  0.00    -0.399 C  
HETATM   24  C   UNL     1      -9.706  12.985  68.891  1.00  0.00     0.177 C  
ENDROOT
BRANCH   8  25
HETATM   25  C   UNL     1      -6.849  10.032  65.496  1.00  0.00    -0.120 C  
HETATM   26  O   UNL     1      -5.763  10.634  65.565  1.00  0.00    -0.118 OA 
BRANCH  25  27
HETATM   27  C   UNL     1      -6.885   8.566  65.801  1.00  0.00    -0.067 C  
HETATM   28  O   UNL     1      -6.758   8.400  67.215  1.00  0.00    -0.061 OA 
HETATM   29  H   UNL     1      -6.780   7.471  67.409  1.00  0.00     0.000 HD 
ENDBRANCH  25  27
ENDBRANCH   8  25
TORSDOF 2
ENDMDL
MODEL      109
REMARK 921   NORMALIZED FREE ENERGY PREDICTED BY IDOCK:   -1.91 KCAL/MOL
REMARK 922        TOTAL FREE ENERGY PREDICTED BY IDOCK:   -2.57 KCAL/MOL
REMARK 923 INTER-LIGAND FREE ENERGY PREDICTED BY IDOCK:   -2.70 KCAL/MOL
REMARK 924 INTRA-LIGAND FREE ENERGY PREDICTED BY IDOCK:    0.12 KCAL/MOL
REMARK 927      BINDING AFFINITY PREDICTED BY RF-SCORE:    0.00 PKD
ROOT
HETATM    1  C   UNL     1     -11.336   7.000  67.658  1.00  0.00     0.098 C  
HETATM    2  C   UNL     1     -10.209   8.048  67.734  1.00  0.00    -0.282 C  
HETATM    3  C   UNL     1      -9.899   8.419  69.218  1.00  0.00    -0.186 C  
HETATM    4  C   UNL     1      -9.057   7.330  69.932  1.00  0.00    -0.141 C  
HETATM    5  C   UNL     1      -8.821   7.545  71.485  1.00  0.00    -0.133 C  
HETATM    6  C   UNL     1     -10.069   7.098  72.316  1.00  0.00    -0.202 C  
HETATM    7  C   UNL     1      -9.690   5.774  73.051  1.00  0.00    -0.164 C  
HETATM    8  C   UNL     1      -8.471   5.290  72.274  1.00  0.00    -0.125 C  
HETATM    9  O   UNL     1      -9.041   4.794  71.036  1.00  0.00    -0.125 OA 
HETATM   10  C   UNL     1      -8.972   7.606  66.954  1.00  0.00    -0.156 C  
HETATM   11  C   UNL     1      -7.688   6.632  72.086  1.00  0.00    -0.096 C  
HETATM   12  C   UNL     1      -6.435   6.580  71.226  1.00  0.00    -0.050 C  
HETATM   13  H   UNL     1      -8.280   4.493  70.551  1.00  0.00     0.000 HD 
HETATM   14  O   UNL     1      -7.546   7.327  63.675  1.00  0.00    -0.100 OA 
HETATM   15  C   UNL     1      -8.775   7.868  65.645  1.00  0.00    -0.145 C  
HETATM   16  C   UNL     1      -7.139   7.185  73.436  1.00  0.00    -0.074 C  
HETATM   17  C   UNL     1      -6.765   6.232  69.831  1.00  0.00    -0.056 C  
HETATM   18  C   UNL     1      -7.584   7.328  64.895  1.00  0.00    -0.102 C  
HETATM   19  C   UNL     1      -7.742   7.170  69.148  1.00  0.00    -0.109 C  
HETATM   20  O   UNL     1      -6.176   5.293  69.297  1.00  0.00    -0.030 OA 
HETATM   21  C   UNL     1      -6.461   6.727  65.696  1.00  0.00    -0.050 C  
HETATM   22  C   UNL     1      -7.938   6.746  67.676  1.00  0.00    -0.113 C  
HETATM   23  C   UNL     1      -6.582   7.028  66.995  1.00  0.00    -0.055 C  
HETATM   24  C   UNL     1      -8.402   5.270  67.507  1.00  0.00    -0.106 C  
ENDROOT
BRANCH   8  25
HETATM   25  C   UNL     1      -7.640   4.066  72.643  1.00  0.00    -0.073 C  
HETATM   26  O   UNL     1      -6.649   4.217  73.380  1.00  0.00    -0.047 OA 
BRANCH  25  27
HETATM   27  C   UNL     1      -7.907   2.714  72.057  1.00  0.00    -0.053 C  
HETATM   28  O   UNL     1      -6.670   2.184  71.575  1.00  0.00    -0.022 OA 
HETATM   29  H   UNL     1      -6.839   1.327  71.203  1.00  0.00     0.000 HD 
ENDBRANCH  25  27
ENDBRANCH   8  25
TORSDOF 2
ENDMDL
MODEL      110
REMARK 921   NORMALIZED FREE ENERGY PREDICTED BY IDOCK:   -1.79 KCAL/MOL
REMARK 922        TOTAL FREE ENERGY PREDICTED BY IDOCK:   -2.44 KCAL/MOL
REMARK 923 INTER-LIGAND FREE ENERGY PREDICTED BY IDOCK:   -2.24 KCAL/MOL
REMARK 924 INTRA-LIGAND FREE ENERGY PREDICTED BY IDOCK:   -0.19 KCAL/MOL
REMARK 927      BINDING AFFINITY PREDICTED BY RF-SCORE:    0.00 PKD
ROOT
HETATM    1  C   UNL     1     -10.041  13.523  64.848  1.00  0.00    -0.280 C  
HETATM    2  C   UNL     1     -10.550  13.451  66.300  1.00  0.00    -0.292 C  
HETATM    3  C   UNL     1     -10.967  11.993  66.668  1.00  0.00    -0.330 C  
HETATM    4  C   UNL     1      -9.742  11.086  66.957  1.00  0.00    -0.208 C  
HETATM    5  C   UNL     1     -10.057   9.550  67.190  1.00  0.00    -0.290 C  
HETATM    6  C   UNL     1     -10.266   8.801  65.832  1.00  0.00     0.333 C  
HETATM    7  C   UNL     1      -9.017   7.895  65.601  1.00  0.00    -0.077 C  
HETATM    8  C   UNL     1      -7.983   8.492  66.549  1.00  0.00    -0.099 C  
HETATM    9  O   UNL     1      -7.591   9.719  65.883  1.00  0.00    -0.098 OA 
HETATM   10  C   UNL     1      -9.546  14.055  67.281  1.00  0.00    -0.238 C  
HETATM   11  C   UNL     1      -8.859   8.746  67.820  1.00  0.00    -0.137 C  
HETATM   12  C   UNL     1      -8.191   9.469  68.980  1.00  0.00    -0.113 C  
HETATM   13  H   UNL     1      -6.946  10.092  66.474  1.00  0.00     0.000 HD 
HETATM   14  O   UNL     1      -8.269  17.129  68.615  1.00  0.00    -0.245 OA 
HETATM   15  C   UNL     1      -9.523  15.358  67.628  1.00  0.00    -0.205 C  
HETATM   16  C   UNL     1      -9.327   7.417  68.487  1.00  0.00    -0.141 C  
HETATM   17  C   UNL     1      -7.816  10.844  68.600  1.00  0.00    -0.126 C  
HETATM   18  C   UNL     1      -8.454  15.926  68.525  1.00  0.00    -0.184 C  
HETATM   19  C   UNL     1      -8.962  11.717  68.125  1.00  0.00    -0.181 C  
HETATM   20  O   UNL     1      -6.655  11.214  68.776  1.00  0.00    -0.052 OA 
HETATM   21  C   UNL     1      -7.570  14.959  69.266  1.00  0.00    -0.170 C  
HETATM   22  C   UNL     1      -8.453  13.146  67.839  1.00  0.00    -0.181 C  
HETATM   23  C   UNL     1      -8.071  13.718  69.221  1.00  0.00     0.418 C  
HETATM   24  C   UNL     1      -7.278  13.200  66.818  1.00  0.00     0.794 C  
ENDROOT
BRANCH   8  25
HETATM   25  C   UNL     1      -6.593   7.914  66.788  1.00  0.00    -0.059 C  
HETATM   26  O   UNL     1      -5.607   8.667  66.692  1.00  0.00    -0.038 OA 
BRANCH  25  27
HETATM   27  C   UNL     1      -6.367   6.451  67.020  1.00  0.00    -0.041 C  
HETATM   28  O   UNL     1      -5.197   6.302  67.827  1.00  0.00    -0.004 OA 
HETATM   29  H   UNL     1      -5.053   5.375  67.974  1.00  0.00     0.000 HD 
ENDBRANCH  25  27
ENDBRANCH   8  25
TORSDOF 2
ENDMDL
MODEL      111
REMARK 921   NORMALIZED FREE ENERGY PREDICTED BY IDOCK:   -1.63 KCAL/MOL
REMARK 922        TOTAL FREE ENERGY PREDICTED BY IDOCK:   -2.26 KCAL/MOL
REMARK 923 INTER-LIGAND FREE ENERGY PREDICTED BY IDOCK:   -2.35 KCAL/MOL
REMARK 924 INTRA-LIGAND FREE ENERGY PREDICTED BY IDOCK:    0.08 KCAL/MOL
REMARK 927      BINDING AFFINITY PREDICTED BY RF-SCORE:    0.00 PKD
ROOT
HETATM    1  C   UNL     1     -10.175   4.594  73.009  1.00  0.00    -0.219 C  
HETATM    2  C   UNL     1      -9.809   6.045  73.372  1.00  0.00    -0.166 C  
HETATM    3  C   UNL     1      -8.334   6.361  72.971  1.00  0.00    -0.116 C  
HETATM    4  C   UNL     1      -8.181   6.610  71.448  1.00  0.00    -0.116 C  
HETATM    5  C   UNL     1      -6.696   6.787  70.921  1.00  0.00    -0.054 C  
HETATM    6  C   UNL     1      -5.986   5.404  70.748  1.00  0.00    -0.021 C  
HETATM    7  C   UNL     1      -5.860   5.133  69.216  1.00  0.00    -0.016 C  
HETATM    8  C   UNL     1      -6.877   6.096  68.615  1.00  0.00    -0.070 C  
HETATM    9  O   UNL     1      -8.149   5.474  68.926  1.00  0.00    -0.094 OA 
HETATM   10  C   UNL     1     -10.815   7.043  72.799  1.00  0.00    -0.321 C  
HETATM   11  C   UNL     1      -6.606   7.381  69.466  1.00  0.00    -0.037 C  
HETATM   12  C   UNL     1      -7.536   8.563  69.238  1.00  0.00    -0.082 C  
HETATM   13  H   UNL     1      -8.783   6.075  68.551  1.00  0.00     0.000 HD 
HETATM   14  O   UNL     1     -14.068   8.483  73.255  1.00  0.00    -0.060 OA 
HETATM   15  C   UNL     1     -11.933   7.437  73.443  1.00  0.00     1.157 C  
HETATM   16  C   UNL     1      -5.207   8.000  69.167  1.00  0.00    -0.026 C  
HETATM   17  C   UNL     1      -8.918   8.232  69.633  1.00  0.00    -0.149 C  
HETATM   18  C   UNL     1     -12.944   8.350  72.797  1.00  0.00     0.028 C  
HETATM   19  C   UNL     1      -9.089   7.796  71.076  1.00  0.00    -0.152 C  
HETATM   20  O   UNL     1      -9.828   8.415  68.824  1.00  0.00    -0.165 OA 
HETATM   21  C   UNL     1     -12.550   9.049  71.524  1.00  0.00    -0.400 C  
HETATM   22  C   UNL     1     -10.584   7.560  71.382  1.00  0.00    -0.229 C  
HETATM   23  C   UNL     1     -11.230   8.961  71.316  1.00  0.00    -0.368 C  
HETATM   24  C   UNL     1     -11.265   6.536  70.427  1.00  0.00    -0.414 C  
ENDROOT
BRANCH   8  25
HETATM   25  C   UNL     1      -7.090   6.306  67.120  1.00  0.00    -0.073 C  
HETATM   26  O   UNL     1      -8.141   6.851  66.737  1.00  0.00    -0.106 OA 
BRANCH  25  27
HETATM   27  C   UNL     1      -6.134   5.776  66.096  1.00  0.00    -0.029 C  
HETATM   28  O   UNL     1      -6.895   5.191  65.036  1.00  0.00    -0.047 OA 
HETATM   29  H   UNL     1      -6.289   4.855  64.386  1.00  0.00     0.000 HD 
ENDBRANCH  25  27
ENDBRANCH   8  25
TORSDOF 2
ENDMDL
MODEL      112
REMARK 921   NORMALIZED FREE ENERGY PREDICTED BY IDOCK:   -1.41 KCAL/MOL
REMARK 922        TOTAL FREE ENERGY PREDICTED BY IDOCK:   -2.02 KCAL/MOL
REMARK 923 INTER-LIGAND FREE ENERGY PREDICTED BY IDOCK:   -2.31 KCAL/MOL
REMARK 924 INTRA-LIGAND FREE ENERGY PREDICTED BY IDOCK:    0.29 KCAL/MOL
REMARK 927      BINDING AFFINITY PREDICTED BY RF-SCORE:    0.00 PKD
ROOT
HETATM    1  C   UNL     1      -7.899  13.234  69.243  1.00  0.00     0.488 C  
HETATM    2  C   UNL     1      -9.193  13.091  68.420  1.00  0.00    -0.136 C  
HETATM    3  C   UNL     1      -8.889  12.495  67.010  1.00  0.00    -0.212 C  
HETATM    4  C   UNL     1      -8.646  10.964  67.059  1.00  0.00    -0.136 C  
HETATM    5  C   UNL     1      -8.179  10.292  65.701  1.00  0.00    -0.153 C  
HETATM    6  C   UNL     1      -6.649  10.509  65.458  1.00  0.00    -0.097 C  
HETATM    7  C   UNL     1      -5.942   9.136  65.683  1.00  0.00    -0.055 C  
HETATM    8  C   UNL     1      -6.979   8.344  66.471  1.00  0.00    -0.071 C  
HETATM    9  O   UNL     1      -6.915   8.935  67.793  1.00  0.00    -0.073 OA 
HETATM   10  C   UNL     1     -10.266  12.314  69.183  1.00  0.00     0.177 C  
HETATM   11  C   UNL     1      -8.287   8.722  65.701  1.00  0.00    -0.144 C  
HETATM   12  C   UNL     1      -9.597   8.207  66.279  1.00  0.00    -0.248 C  
HETATM   13  H   UNL     1      -7.562   8.442  68.285  1.00  0.00     0.000 HD 
HETATM   14  O   UNL     1     -12.751  12.548  71.757  1.00  0.00    -0.246 OA 
HETATM   15  C   UNL     1     -11.163  12.886  70.012  1.00  0.00     0.216 C  
HETATM   16  C   UNL     1      -8.311   8.134  64.257  1.00  0.00    -0.038 C  
HETATM   17  C   UNL     1      -9.855   8.795  67.607  1.00  0.00    -0.180 C  
HETATM   18  C   UNL     1     -12.139  12.068  70.816  1.00  0.00    -0.198 C  
HETATM   19  C   UNL     1      -9.912  10.310  67.641  1.00  0.00    -0.212 C  
HETATM   20  O   UNL     1     -10.094   8.044  68.553  1.00  0.00    -0.188 OA 
HETATM   21  C   UNL     1     -12.295  10.613  70.467  1.00  0.00    -0.448 C  
HETATM   22  C   UNL     1     -10.269  10.792  69.064  1.00  0.00    -0.229 C  
HETATM   23  C   UNL     1     -11.729  10.339  69.285  1.00  0.00    -0.141 C  
HETATM   24  C   UNL     1      -9.301  10.266  70.164  1.00  0.00     0.185 C  
ENDROOT
BRANCH   8  25
HETATM   25  C   UNL     1      -6.828   6.881  66.872  1.00  0.00    -0.065 C  
HETATM   26  O   UNL     1      -7.466   6.019  66.241  1.00  0.00    -0.083 OA 
BRANCH  25  27
HETATM   27  C   UNL     1      -6.032   6.461  68.069  1.00  0.00    -0.020 C  
HETATM   28  O   UNL     1      -5.148   5.410  67.671  1.00  0.00    -0.004 OA 
HETATM   29  H   UNL     1      -4.643   5.143  68.430  1.00  0.00     0.000 HD 
ENDBRANCH  25  27
ENDBRANCH   8  25
TORSDOF 2
ENDMDL
MODEL      113
REMARK 921   NORMALIZED FREE ENERGY PREDICTED BY IDOCK:   -1.36 KCAL/MOL
REMARK 922        TOTAL FREE ENERGY PREDICTED BY IDOCK:   -1.96 KCAL/MOL
REMARK 923 INTER-LIGAND FREE ENERGY PREDICTED BY IDOCK:   -1.87 KCAL/MOL
REMARK 924 INTRA-LIGAND FREE ENERGY PREDICTED BY IDOCK:   -0.08 KCAL/MOL
REMARK 927      BINDING AFFINITY PREDICTED BY RF-SCORE:    0.00 PKD
ROOT
HETATM    1  C   UNL     1      -9.173  10.075  69.486  1.00  0.00    -0.238 C  
HETATM    2  C   UNL     1     -10.549  10.077  68.794  1.00  0.00    -0.241 C  
HETATM    3  C   UNL     1     -11.604  10.830  69.664  1.00  0.00    -0.388 C  
HETATM    4  C   UNL     1     -11.453  12.371  69.567  1.00  0.00    -0.309 C  
HETATM    5  C   UNL     1     -12.380  13.220  70.534  1.00  0.00    -0.389 C  
HETATM    6  C   UNL     1     -11.792  13.272  71.983  1.00  0.00     1.713 C  
HETATM    7  C   UNL     1     -11.249  14.717  72.214  1.00  0.00     0.705 C  
HETATM    8  C   UNL     1     -11.122  15.264  70.796  1.00  0.00    -0.302 C  
HETATM    9  O   UNL     1      -9.952  14.582  70.279  1.00  0.00    -0.082 OA 
HETATM   10  C   UNL     1     -10.462  10.606  67.363  1.00  0.00    -0.280 C  
HETATM   11  C   UNL     1     -12.455  14.747  70.160  1.00  0.00    -0.359 C  
HETATM   12  C   UNL     1     -12.646  14.995  68.671  1.00  0.00     0.418 C  
HETATM   13  H   UNL     1      -9.873  14.922  69.395  1.00  0.00     0.000 HD 
HETATM   14  O   UNL     1      -9.547   9.761  64.000  1.00  0.00    -0.190 OA 
HETATM   15  C   UNL     1     -10.212   9.830  66.289  1.00  0.00    -0.282 C  
HETATM   16  C   UNL     1     -13.708  15.443  70.772  1.00  0.00    -0.186 C  
HETATM   17  C   UNL     1     -11.637  14.265  67.880  1.00  0.00    -0.336 C  
HETATM   18  C   UNL     1     -10.040  10.411  64.909  1.00  0.00    -0.312 C  
HETATM   19  C   UNL     1     -11.620  12.762  68.088  1.00  0.00    -0.380 C  
HETATM   20  O   UNL     1     -10.961  14.886  67.060  1.00  0.00    -0.312 OA 
HETATM   21  C   UNL     1     -10.436  11.847  64.695  1.00  0.00    -0.340 C  
HETATM   22  C   UNL     1     -10.583  12.112  67.147  1.00  0.00    -0.254 C  
HETATM   23  C   UNL     1     -11.156  12.305  65.726  1.00  0.00    -0.362 C  
HETATM   24  C   UNL     1      -9.147  12.692  67.301  1.00  0.00    -0.191 C  
ENDROOT
BRANCH   8  25
HETATM   25  C   UNL     1     -10.718  16.693  70.454  1.00  0.00     0.126 C  
HETATM   26  O   UNL     1     -11.247  17.630  71.079  1.00  0.00     1.272 OA 
BRANCH  25  27
HETATM   27  C   UNL     1      -9.797  17.010  69.316  1.00  0.00    -0.126 C  
HETATM   28  O   UNL     1      -9.723  18.432  69.184  1.00  0.00    -0.248 OA 
HETATM   29  H   UNL     1      -9.139  18.633  68.462  1.00  0.00     0.000 HD 
ENDBRANCH  25  27
ENDBRANCH   8  25
TORSDOF 2
ENDMDL
MODEL      114
REMARK 921   NORMALIZED FREE ENERGY PREDICTED BY IDOCK:   -0.57 KCAL/MOL
REMARK 922        TOTAL FREE ENERGY PREDICTED BY IDOCK:   -1.08 KCAL/MOL
REMARK 923 INTER-LIGAND FREE ENERGY PREDICTED BY IDOCK:   -1.13 KCAL/MOL
REMARK 924 INTRA-LIGAND FREE ENERGY PREDICTED BY IDOCK:    0.05 KCAL/MOL
REMARK 927      BINDING AFFINITY PREDICTED BY RF-SCORE:    0.00 PKD
ROOT
HETATM    1  C   UNL     1     -12.155  16.122  64.139  1.00  0.00     0.466 C  
HETATM    2  C   UNL     1     -10.831  15.335  64.144  1.00  0.00     0.622 C  
HETATM    3  C   UNL     1      -9.827  15.950  65.169  1.00  0.00     0.148 C  
HETATM    4  C   UNL     1     -10.167  15.559  66.631  1.00  0.00    -0.280 C  
HETATM    5  C   UNL     1      -9.296  16.260  67.756  1.00  0.00    -0.216 C  
HETATM    6  C   UNL     1      -9.803  17.711  68.044  1.00  0.00    -0.310 C  
HETATM    7  C   UNL     1     -10.502  17.692  69.439  1.00  0.00     0.078 C  
HETATM    8  C   UNL     1     -10.774  16.209  69.664  1.00  0.00    -0.325 C  
HETATM    9  O   UNL     1     -11.882  15.935  68.769  1.00  0.00    -0.419 OA 
HETATM   10  C   UNL     1     -11.062  13.839  64.352  1.00  0.00    -0.356 C  
HETATM   11  C   UNL     1      -9.427  15.583  69.171  1.00  0.00    -0.246 C  
HETATM   12  C   UNL     1      -9.353  14.065  69.124  1.00  0.00     0.250 C  
HETATM   13  H   UNL     1     -12.051  15.010  68.908  1.00  0.00     0.000 HD 
HETATM   14  O   UNL     1     -12.059  10.797  62.736  1.00  0.00     1.372 OA 
HETATM   15  C   UNL     1     -11.278  12.965  63.347  1.00  0.00    -0.237 C  
HETATM   16  C   UNL     1      -8.235  15.942  70.108  1.00  0.00     0.968 C  
HETATM   17  C   UNL     1     -10.310  13.519  68.142  1.00  0.00    -0.247 C  
HETATM   18  C   UNL     1     -11.597  11.515  63.608  1.00  0.00    -0.223 C  
HETATM   19  C   UNL     1     -10.134  14.023  66.722  1.00  0.00    -0.264 C  
HETATM   20  O   UNL     1     -11.101  12.648  68.504  1.00  0.00    -0.237 OA 
HETATM   21  C   UNL     1     -11.389  10.988  65.002  1.00  0.00     0.234 C  
HETATM   22  C   UNL     1     -11.136  13.317  65.784  1.00  0.00    -0.296 C  
HETATM   23  C   UNL     1     -10.672  11.846  65.738  1.00  0.00    -0.327 C  
HETATM   24  C   UNL     1     -12.621  13.468  66.228  1.00  0.00    -0.298 C  
ENDROOT
BRANCH   8  25
HETATM   25  C   UNL     1     -11.367  15.622  70.940  1.00  0.00    -0.380 C  
HETATM   26  O   UNL     1     -10.594  15.207  71.822  1.00  0.00     0.178 OA 
BRANCH  25  27
HETATM   27  C   UNL     1     -12.841  15.422  71.116  1.00  0.00    -0.455 C  
HETATM   28  O   UNL     1     -13.095  14.018  71.193  1.00  0.00    -0.329 OA 
HETATM   29  H   UNL     1     -14.030  13.891  71.305  1.00  0.00     0.000 HD 
ENDBRANCH  25  27
ENDBRANCH   8  25
TORSDOF 2
ENDMDL
MODEL      115
REMARK 921   NORMALIZED FREE ENERGY PREDICTED BY IDOCK:   -0.52 KCAL/MOL
REMARK 922        TOTAL FREE ENERGY PREDICTED BY IDOCK:   -1.02 KCAL/MOL
REMARK 923 INTER-LIGAND FREE ENERGY PREDICTED BY IDOCK:   -0.80 KCAL/MOL
REMARK 924 INTRA-LIGAND FREE ENERGY PREDICTED BY IDOCK:   -0.22 KCAL/MOL
REMARK 927      BINDING AFFINITY PREDICTED BY RF-SCORE:    0.00 PKD
ROOT
HETATM    1  C   UNL     1      -6.821   9.254  69.733  1.00  0.00    -0.053 C  
HETATM    2  C   UNL     1      -7.348  10.465  68.941  1.00  0.00    -0.094 C  
HETATM    3  C   UNL     1      -6.651  10.561  67.548  1.00  0.00    -0.066 C  
HETATM    4  C   UNL     1      -7.224   9.536  66.534  1.00  0.00    -0.089 C  
HETATM    5  C   UNL     1      -6.476   9.451  65.138  1.00  0.00    -0.075 C  
HETATM    6  C   UNL     1      -5.173   8.591  65.243  1.00  0.00    -0.035 C  
HETATM    7  C   UNL     1      -5.442   7.244  64.503  1.00  0.00    -0.033 C  
HETATM    8  C   UNL     1      -6.964   7.197  64.424  1.00  0.00    -0.052 C  
HETATM    9  O   UNL     1      -7.358   6.877  65.782  1.00  0.00    -0.074 OA 
HETATM   10  C   UNL     1      -8.874  10.463  68.852  1.00  0.00    -0.161 C  
HETATM   11  C   UNL     1      -7.286   8.677  64.032  1.00  0.00    -0.092 C  
HETATM   12  C   UNL     1      -8.755   9.068  63.975  1.00  0.00    -0.115 C  
HETATM   13  H   UNL     1      -8.307   6.848  65.733  1.00  0.00     0.000 HD 
HETATM   14  O   UNL     1     -11.894  11.197  70.640  1.00  0.00    -0.335 OA 
HETATM   15  C   UNL     1      -9.681  11.037  69.767  1.00  0.00     0.518 C  
HETATM   16  C   UNL     1      -6.797   9.024  62.593  1.00  0.00    -0.092 C  
HETATM   17  C   UNL     1      -9.379   8.972  65.308  1.00  0.00    -0.088 C  
HETATM   18  C   UNL     1     -11.182  10.925  69.686  1.00  0.00    -0.282 C  
HETATM   19  C   UNL     1      -8.729   9.819  66.386  1.00  0.00    -0.144 C  
HETATM   20  O   UNL     1     -10.409   8.310  65.436  1.00  0.00     1.501 OA 
HETATM   21  C   UNL     1     -11.782  10.404  68.408  1.00  0.00     0.001 C  
HETATM   22  C   UNL     1      -9.523   9.694  67.704  1.00  0.00    -0.155 C  
HETATM   23  C   UNL     1     -10.875  10.385  67.424  1.00  0.00    -0.344 C  
HETATM   24  C   UNL     1      -9.687   8.227  68.199  1.00  0.00    -0.178 C  
ENDROOT
BRANCH   8  25
HETATM   25  C   UNL     1      -7.759   6.116  63.700  1.00  0.00    -0.101 C  
HETATM   26  O   UNL     1      -8.720   5.587  64.287  1.00  0.00    -0.070 OA 
BRANCH  25  27
HETATM   27  C   UNL     1      -7.352   5.591  62.358  1.00  0.00    -0.046 C  
HETATM   28  O   UNL     1      -7.367   4.163  62.414  1.00  0.00    -0.042 OA 
HETATM   29  H   UNL     1      -7.109   3.829  61.563  1.00  0.00     0.000 HD 
ENDBRANCH  25  27
ENDBRANCH   8  25
TORSDOF 2
ENDMDL
MODEL      116
REMARK 921   NORMALIZED FREE ENERGY PREDICTED BY IDOCK:   -0.49 KCAL/MOL
REMARK 922        TOTAL FREE ENERGY PREDICTED BY IDOCK:   -0.99 KCAL/MOL
REMARK 923 INTER-LIGAND FREE ENERGY PREDICTED BY IDOCK:   -0.96 KCAL/MOL
REMARK 924 INTRA-LIGAND FREE ENERGY PREDICTED BY IDOCK:   -0.03 KCAL/MOL
REMARK 927      BINDING AFFINITY PREDICTED BY RF-SCORE:    0.00 PKD
ROOT
HETATM    1  C   UNL     1      -6.943   9.789  69.386  1.00  0.00    -0.059 C  
HETATM    2  C   UNL     1      -8.078   9.198  68.529  1.00  0.00    -0.103 C  
HETATM    3  C   UNL     1      -9.450   9.838  68.911  1.00  0.00    -0.161 C  
HETATM    4  C   UNL     1      -9.621  11.260  68.317  1.00  0.00    -0.193 C  
HETATM    5  C   UNL     1     -10.916  12.052  68.776  1.00  0.00    -0.282 C  
HETATM    6  C   UNL     1     -10.720  12.687  70.192  1.00  0.00     1.389 C  
HETATM    7  C   UNL     1     -10.578  14.229  69.996  1.00  0.00     0.306 C  
HETATM    8  C   UNL     1     -10.237  14.354  68.516  1.00  0.00    -0.243 C  
HETATM    9  O   UNL     1      -8.856  13.915  68.454  1.00  0.00    -0.184 OA 
HETATM   10  C   UNL     1      -7.767   9.291  67.035  1.00  0.00    -0.095 C  
HETATM   11  C   UNL     1     -11.231  13.317  67.894  1.00  0.00    -0.302 C  
HETATM   12  C   UNL     1     -11.107  13.058  66.401  1.00  0.00    -0.313 C  
HETATM   13  H   UNL     1      -8.643  13.992  67.531  1.00  0.00     0.000 HD 
HETATM   14  O   UNL     1      -5.907   7.806  64.353  1.00  0.00    -0.040 OA 
HETATM   15  C   UNL     1      -7.102   8.342  66.345  1.00  0.00    -0.071 C  
HETATM   16  C   UNL     1     -12.715  13.773  68.027  1.00  0.00     0.944 C  
HETATM   17  C   UNL     1      -9.803  12.449  66.076  1.00  0.00    -0.257 C  
HETATM   18  C   UNL     1      -6.734   8.522  64.895  1.00  0.00    -0.068 C  
HETATM   19  C   UNL     1      -9.508  11.141  66.786  1.00  0.00    -0.203 C  
HETATM   20  O   UNL     1      -9.102  12.971  65.209  1.00  0.00     0.519 OA 
HETATM   21  C   UNL     1      -7.372   9.659  64.142  1.00  0.00    -0.122 C  
HETATM   22  C   UNL     1      -8.159  10.570  66.300  1.00  0.00    -0.142 C  
HETATM   23  C   UNL     1      -8.401  10.171  64.828  1.00  0.00    -0.167 C  
HETATM   24  C   UNL     1      -6.964  11.555  66.469  1.00  0.00    -0.009 C  
ENDROOT
BRANCH   8  25
HETATM   25  C   UNL     1     -10.085  15.676  67.772  1.00  0.00    -0.226 C  
HETATM   26  O   UNL     1      -9.389  15.705  66.740  1.00  0.00    -0.220 OA 
BRANCH  25  27
HETATM   27  C   UNL     1     -10.645  16.959  68.303  1.00  0.00    -0.363 C  
HETATM   28  O   UNL     1      -9.588  17.919  68.361  1.00  0.00    -0.293 OA 
HETATM   29  H   UNL     1      -9.943  18.733  68.698  1.00  0.00     0.000 HD 
ENDBRANCH  25  27
ENDBRANCH   8  25
TORSDOF 2
ENDMDL
MODEL      117
REMARK 921   NORMALIZED FREE ENERGY PREDICTED BY IDOCK:    0.14 KCAL/MOL
REMARK 922        TOTAL FREE ENERGY PREDICTED BY IDOCK:   -0.29 KCAL/MOL
REMARK 923 INTER-LIGAND FREE ENERGY PREDICTED BY IDOCK:   -0.64 KCAL/MOL
REMARK 924 INTRA-LIGAND FREE ENERGY PREDICTED BY IDOCK:    0.35 KCAL/MOL
REMARK 927      BINDING AFFINITY PREDICTED BY RF-SCORE:    0.00 PKD
ROOT
HETATM    1  C   UNL     1      -5.284  13.131  67.023  1.00  0.00     0.616 C  
HETATM    2  C   UNL     1      -6.049  12.344  68.104  1.00  0.00    -0.065 C  
HETATM    3  C   UNL     1      -6.561  13.301  69.226  1.00  0.00    -0.093 C  
HETATM    4  C   UNL     1      -7.818  14.098  68.790  1.00  0.00    -0.114 C  
HETATM    5  C   UNL     1      -8.321  15.208  69.805  1.00  0.00     0.041 C  
HETATM    6  C   UNL     1      -7.471  16.516  69.682  1.00  0.00     0.219 C  
HETATM    7  C   UNL     1      -8.368  17.592  68.994  1.00  0.00    -0.048 C  
HETATM    8  C   UNL     1      -9.470  16.757  68.353  1.00  0.00    -0.241 C  
HETATM    9  O   UNL     1      -8.808  16.146  67.217  1.00  0.00    -0.180 OA 
HETATM   10  C   UNL     1      -7.156  11.481  67.499  1.00  0.00    -0.106 C  
HETATM   11  C   UNL     1      -9.772  15.735  69.499  1.00  0.00    -0.276 C  
HETATM   12  C   UNL     1     -10.764  14.625  69.185  1.00  0.00    -0.263 C  
HETATM   13  H   UNL     1      -9.495  15.625  66.817  1.00  0.00     0.000 HD 
HETATM   14  O   UNL     1      -7.836   8.414  65.770  1.00  0.00    -0.093 OA 
HETATM   15  C   UNL     1      -6.973  10.214  67.073  1.00  0.00    -0.088 C  
HETATM   16  C   UNL     1     -10.424  16.418  70.739  1.00  0.00     0.738 C  
HETATM   17  C   UNL     1     -10.246  13.738  68.127  1.00  0.00    -0.253 C  
HETATM   18  C   UNL     1      -8.071   9.436  66.395  1.00  0.00    -0.108 C  
HETATM   19  C   UNL     1      -8.914  13.079  68.432  1.00  0.00    -0.126 C  
HETATM   20  O   UNL     1     -10.947  13.520  67.138  1.00  0.00    -0.284 OA 
HETATM   21  C   UNL     1      -9.469   9.991  66.455  1.00  0.00    -0.235 C  
HETATM   22  C   UNL     1      -8.527  12.118  67.287  1.00  0.00    -0.178 C  
HETATM   23  C   UNL     1      -9.558  10.971  67.362  1.00  0.00    -0.180 C  
HETATM   24  C   UNL     1      -8.482  12.798  65.887  1.00  0.00     1.012 C  
ENDROOT
BRANCH   8  25
HETATM   25  C   UNL     1     -10.679  17.333  67.624  1.00  0.00    -0.307 C  
HETATM   26  O   UNL     1     -11.812  17.138  68.099  1.00  0.00     0.563 OA 
BRANCH  25  27
HETATM   27  C   UNL     1     -10.558  18.023  66.300  1.00  0.00    -0.253 C  
HETATM   28  O   UNL     1      -9.945  19.296  66.514  1.00  0.00    -0.336 OA 
HETATM   29  H   UNL     1      -9.867  19.734  65.675  1.00  0.00     0.000 HD 
ENDBRANCH  25  27
ENDBRANCH   8  25
TORSDOF 2
ENDMDL
MODEL      118
REMARK 921   NORMALIZED FREE ENERGY PREDICTED BY IDOCK:    0.59 KCAL/MOL
REMARK 922        TOTAL FREE ENERGY PREDICTED BY IDOCK:    0.22 KCAL/MOL
REMARK 923 INTER-LIGAND FREE ENERGY PREDICTED BY IDOCK:    0.71 KCAL/MOL
REMARK 924 INTRA-LIGAND FREE ENERGY PREDICTED BY IDOCK:   -0.49 KCAL/MOL
REMARK 927      BINDING AFFINITY PREDICTED BY RF-SCORE:    0.00 PKD
ROOT
HETATM    1  C   UNL     1     -11.895   6.409  67.367  1.00  0.00     1.558 C  
HETATM    2  C   UNL     1     -10.787   6.436  66.298  1.00  0.00     0.349 C  
HETATM    3  C   UNL     1      -9.606   7.352  66.749  1.00  0.00    -0.249 C  
HETATM    4  C   UNL     1      -8.698   6.663  67.801  1.00  0.00    -0.116 C  
HETATM    5  C   UNL     1      -7.561   7.568  68.435  1.00  0.00    -0.114 C  
HETATM    6  C   UNL     1      -8.132   8.493  69.560  1.00  0.00    -0.111 C  
HETATM    7  C   UNL     1      -7.618   7.938  70.925  1.00  0.00    -0.078 C  
HETATM    8  C   UNL     1      -7.191   6.517  70.576  1.00  0.00    -0.074 C  
HETATM    9  O   UNL     1      -8.453   5.818  70.424  1.00  0.00    -0.124 OA 
HETATM   10  C   UNL     1     -10.341   5.027  65.909  1.00  0.00    -0.223 C  
HETATM   11  C   UNL     1      -6.461   6.753  69.212  1.00  0.00    -0.043 C  
HETATM   12  C   UNL     1      -5.985   5.517  68.465  1.00  0.00    -0.021 C  
HETATM   13  H   UNL     1      -8.187   4.932  70.206  1.00  0.00     0.000 HD 
HETATM   14  O   UNL     1     -11.191   2.141  63.958  1.00  0.00     0.144 OA 
HETATM   15  C   UNL     1     -10.913   4.302  64.926  1.00  0.00    -0.057 C  
HETATM   16  C   UNL     1      -5.140   7.562  69.385  1.00  0.00    -0.015 C  
HETATM   17  C   UNL     1      -7.126   4.679  68.049  1.00  0.00    -0.061 C  
HETATM   18  C   UNL     1     -10.502   2.880  64.644  1.00  0.00     0.376 C  
HETATM   19  C   UNL     1      -8.147   5.373  67.168  1.00  0.00    -0.101 C  
HETATM   20  O   UNL     1      -7.130   3.486  68.353  1.00  0.00    -0.049 OA 
HETATM   21  C   UNL     1      -9.241   2.370  65.287  1.00  0.00    -0.094 C  
HETATM   22  C   UNL     1      -9.239   4.370  66.737  1.00  0.00    -0.147 C  
HETATM   23  C   UNL     1      -8.521   3.376  65.798  1.00  0.00    -0.109 C  
HETATM   24  C   UNL     1      -9.949   3.667  67.930  1.00  0.00     0.207 C  
ENDROOT
BRANCH   8  25
HETATM   25  C   UNL     1      -6.518   5.553  71.547  1.00  0.00    -0.044 C  
HETATM   26  O   UNL     1      -5.397   5.847  72.000  1.00  0.00    -0.020 OA 
BRANCH  25  27
HETATM   27  C   UNL     1      -7.105   4.216  71.880  1.00  0.00    -0.050 C  
HETATM   28  O   UNL     1      -6.459   3.230  71.071  1.00  0.00    -0.025 OA 
HETATM   29  H   UNL     1      -6.831   2.382  71.282  1.00  0.00     0.000 HD 
ENDBRANCH  25  27
ENDBRANCH   8  25
TORSDOF 2
ENDMDL
MODEL      119
REMARK 921   NORMALIZED FREE ENERGY PREDICTED BY IDOCK:    0.66 KCAL/MOL
REMARK 922        TOTAL FREE ENERGY PREDICTED BY IDOCK:    0.30 KCAL/MOL
REMARK 923 INTER-LIGAND FREE ENERGY PREDICTED BY IDOCK:   -0.31 KCAL/MOL
REMARK 924 INTRA-LIGAND FREE ENERGY PREDICTED BY IDOCK:    0.61 KCAL/MOL
REMARK 927      BINDING AFFINITY PREDICTED BY RF-SCORE:    0.00 PKD
ROOT
HETATM    1  C   UNL     1     -12.040   6.733  67.924  1.00  0.00     2.678 C  
HETATM    2  C   UNL     1     -10.758   7.387  67.376  1.00  0.00    -0.348 C  
HETATM    3  C   UNL     1     -10.201   8.441  68.384  1.00  0.00    -0.239 C  
HETATM    4  C   UNL     1      -9.461   7.780  69.576  1.00  0.00    -0.160 C  
HETATM    5  C   UNL     1      -8.994   8.762  70.731  1.00  0.00    -0.231 C  
HETATM    6  C   UNL     1     -10.179   9.118  71.687  1.00  0.00    -0.372 C  
HETATM    7  C   UNL     1      -9.929   8.375  73.037  1.00  0.00    -0.102 C  
HETATM    8  C   UNL     1      -8.916   7.303  72.653  1.00  0.00    -0.131 C  
HETATM    9  O   UNL     1      -9.715   6.337  71.922  1.00  0.00    -0.154 OA 
HETATM   10  C   UNL     1      -9.721   6.342  66.965  1.00  0.00    -0.173 C  
HETATM   11  C   UNL     1      -7.957   8.120  71.726  1.00  0.00    -0.149 C  
HETATM   12  C   UNL     1      -6.851   7.343  71.028  1.00  0.00    -0.054 C  
HETATM   13  H   UNL     1      -9.083   5.668  71.682  1.00  0.00     0.000 HD 
HETATM   14  O   UNL     1      -8.797   4.012  64.400  1.00  0.00    -0.119 OA 
HETATM   15  C   UNL     1      -9.655   5.791  65.736  1.00  0.00     0.048 C  
HETATM   16  C   UNL     1      -7.153   9.197  72.516  1.00  0.00     0.453 C  
HETATM   17  C   UNL     1      -7.411   6.362  70.080  1.00  0.00    -0.094 C  
HETATM   18  C   UNL     1      -8.676   4.694  65.406  1.00  0.00    -0.134 C  
HETATM   19  C   UNL     1      -8.304   6.945  69.001  1.00  0.00    -0.125 C  
HETATM   20  O   UNL     1      -7.058   5.185  70.164  1.00  0.00    -0.051 OA 
HETATM   21  C   UNL     1      -7.571   4.416  66.389  1.00  0.00    -0.086 C  
HETATM   22  C   UNL     1      -8.756   5.831  68.032  1.00  0.00    -0.103 C  
HETATM   23  C   UNL     1      -7.471   5.402  67.290  1.00  0.00    -0.084 C  
HETATM   24  C   UNL     1      -9.472   4.642  68.736  1.00  0.00    -0.214 C  
ENDROOT
BRANCH   8  25
HETATM   25  C   UNL     1      -8.254   6.345  73.638  1.00  0.00    -0.112 C  
HETATM   26  O   UNL     1      -8.976   5.687  74.408  1.00  0.00    -0.120 OA 
BRANCH  25  27
HETATM   27  C   UNL     1      -6.767   6.259  73.788  1.00  0.00    -0.075 C  
HETATM   28  O   UNL     1      -6.458   5.053  74.491  1.00  0.00    -0.062 OA 
HETATM   29  H   UNL     1      -5.514   4.997  74.586  1.00  0.00     0.000 HD 
ENDBRANCH  25  27
ENDBRANCH   8  25
TORSDOF 2
ENDMDL
MODEL      120
REMARK 921   NORMALIZED FREE ENERGY PREDICTED BY IDOCK:    0.83 KCAL/MOL
REMARK 922        TOTAL FREE ENERGY PREDICTED BY IDOCK:    0.48 KCAL/MOL
REMARK 923 INTER-LIGAND FREE ENERGY PREDICTED BY IDOCK:    0.07 KCAL/MOL
REMARK 924 INTRA-LIGAND FREE ENERGY PREDICTED BY IDOCK:    0.41 KCAL/MOL
REMARK 927      BINDING AFFINITY PREDICTED BY RF-SCORE:    0.00 PKD
ROOT
HETATM    1  C   UNL     1      -7.192  14.035  70.625  1.00  0.00     1.258 C  
HETATM    2  C   UNL     1      -6.687  13.324  69.356  1.00  0.00    -0.032 C  
HETATM    3  C   UNL     1      -5.916  12.017  69.724  1.00  0.00    -0.136 C  
HETATM    4  C   UNL     1      -6.875  10.857  70.101  1.00  0.00    -0.014 C  
HETATM    5  C   UNL     1      -6.184   9.535  70.638  1.00  0.00    -0.077 C  
HETATM    6  C   UNL     1      -5.788   9.673  72.145  1.00  0.00     0.163 C  
HETATM    7  C   UNL     1      -6.768   8.779  72.968  1.00  0.00     0.059 C  
HETATM    8  C   UNL     1      -7.922   8.556  71.997  1.00  0.00    -0.105 C  
HETATM    9  O   UNL     1      -8.609   9.833  71.997  1.00  0.00     0.732 OA 
HETATM   10  C   UNL     1      -7.814  13.094  68.349  1.00  0.00    -0.135 C  
HETATM   11  C   UNL     1      -7.142   8.287  70.668  1.00  0.00    -0.042 C  
HETATM   12  C   UNL     1      -7.974   8.134  69.403  1.00  0.00    -0.114 C  
HETATM   13  H   UNL     1      -9.328   9.694  71.391  1.00  0.00     0.000 HD 
HETATM   14  O   UNL     1      -9.828  14.660  65.829  1.00  0.00    -0.317 OA 
HETATM   15  C   UNL     1      -8.165  13.984  67.398  1.00  0.00    -0.203 C  
HETATM   16  C   UNL     1      -6.357   6.941  70.709  1.00  0.00    -0.040 C  
HETATM   17  C   UNL     1      -8.683   9.387  69.083  1.00  0.00    -0.142 C  
HETATM   18  C   UNL     1      -9.345  13.754  66.490  1.00  0.00    -0.233 C  
HETATM   19  C   UNL     1      -7.792  10.600  68.892  1.00  0.00    -0.129 C  
HETATM   20  O   UNL     1      -9.900   9.352  68.902  1.00  0.00    -0.163 OA 
HETATM   21  C   UNL     1      -9.960  12.381  66.466  1.00  0.00    -0.242 C  
HETATM   22  C   UNL     1      -8.644  11.820  68.481  1.00  0.00    -0.123 C  
HETATM   23  C   UNL     1      -9.162  11.487  67.065  1.00  0.00    -0.180 C  
HETATM   24  C   UNL     1      -9.791  12.148  69.481  1.00  0.00     1.019 C  
ENDROOT
BRANCH   8  25
HETATM   25  C   UNL     1      -9.122   7.657  72.273  1.00  0.00    -0.140 C  
HETATM   26  O   UNL     1      -9.693   7.110  71.312  1.00  0.00    -0.170 OA 
BRANCH  25  27
HETATM   27  C   UNL     1      -9.706   7.504  73.644  1.00  0.00    -0.286 C  
HETATM   28  O   UNL     1      -9.452   6.171  74.092  1.00  0.00    -0.141 OA 
HETATM   29  H   UNL     1      -9.822   6.074  74.961  1.00  0.00     0.000 HD 
ENDBRANCH  25  27
ENDBRANCH   8  25
TORSDOF 2
ENDMDL
MODEL      121
REMARK 921   NORMALIZED FREE ENERGY PREDICTED BY IDOCK:    0.95 KCAL/MOL
REMARK 922        TOTAL FREE ENERGY PREDICTED BY IDOCK:    0.62 KCAL/MOL
REMARK 923 INTER-LIGAND FREE ENERGY PREDICTED BY IDOCK:    0.69 KCAL/MOL
REMARK 924 INTRA-LIGAND FREE ENERGY PREDICTED BY IDOCK:   -0.07 KCAL/MOL
REMARK 927      BINDING AFFINITY PREDICTED BY RF-SCORE:    0.00 PKD
ROOT
HETATM    1  C   UNL     1      -6.291   8.904  69.581  1.00  0.00    -0.042 C  
HETATM    2  C   UNL     1      -7.271   7.925  68.906  1.00  0.00    -0.076 C  
HETATM    3  C   UNL     1      -8.718   8.126  69.454  1.00  0.00    -0.143 C  
HETATM    4  C   UNL     1      -9.408   9.375  68.847  1.00  0.00    -0.154 C  
HETATM    5  C   UNL     1     -10.824   9.749  69.456  1.00  0.00    -0.264 C  
HETATM    6  C   UNL     1     -10.674  10.514  70.813  1.00  0.00     0.367 C  
HETATM    7  C   UNL     1     -11.060  12.004  70.554  1.00  0.00     1.238 C  
HETATM    8  C   UNL     1     -10.958  12.123  69.038  1.00  0.00    -0.205 C  
HETATM    9  O   UNL     1      -9.527  12.138  68.800  1.00  0.00    -0.388 OA 
HETATM   10  C   UNL     1      -7.188   8.004  67.382  1.00  0.00    -0.088 C  
HETATM   11  C   UNL     1     -11.633  10.785  68.589  1.00  0.00    -0.342 C  
HETATM   12  C   UNL     1     -11.613  10.471  67.101  1.00  0.00     0.546 C  
HETATM   13  H   UNL     1      -9.464  12.213  67.855  1.00  0.00     0.000 HD 
HETATM   14  O   UNL     1      -5.288   6.992  64.514  1.00  0.00    -0.027 OA 
HETATM   15  C   UNL     1      -6.341   7.266  66.635  1.00  0.00    -0.051 C  
HETATM   16  C   UNL     1     -13.158  10.758  68.911  1.00  0.00     2.557 C  
HETATM   17  C   UNL     1     -10.232  10.283  66.619  1.00  0.00    -0.233 C  
HETATM   18  C   UNL     1      -6.229   7.449  65.143  1.00  0.00    -0.038 C  
HETATM   19  C   UNL     1      -9.449   9.189  67.320  1.00  0.00    -0.187 C  
HETATM   20  O   UNL     1      -9.846  10.936  65.649  1.00  0.00    -0.216 OA 
HETATM   21  C   UNL     1      -7.284   8.270  64.452  1.00  0.00    -0.088 C  
HETATM   22  C   UNL     1      -8.056   9.038  66.670  1.00  0.00    -0.107 C  
HETATM   23  C   UNL     1      -8.333   8.479  65.257  1.00  0.00    -0.168 C  
HETATM   24  C   UNL     1      -7.231  10.359  66.645  1.00  0.00    -0.113 C  
ENDROOT
BRANCH   8  25
HETATM   25  C   UNL     1     -11.330  13.369  68.242  1.00  0.00    -0.295 C  
HETATM   26  O   UNL     1     -10.783  13.560  67.140  1.00  0.00    -0.275 OA 
BRANCH  25  27
HETATM   27  C   UNL     1     -12.239  14.425  68.791  1.00  0.00    -0.165 C  
HETATM   28  O   UNL     1     -11.574  15.686  68.689  1.00  0.00    -0.356 OA 
HETATM   29  H   UNL     1     -12.150  16.355  69.037  1.00  0.00     0.000 HD 
ENDBRANCH  25  27
ENDBRANCH   8  25
TORSDOF 2
ENDMDL
MODEL      122
REMARK 921   NORMALIZED FREE ENERGY PREDICTED BY IDOCK:    1.15 KCAL/MOL
REMARK 922        TOTAL FREE ENERGY PREDICTED BY IDOCK:    0.85 KCAL/MOL
REMARK 923 INTER-LIGAND FREE ENERGY PREDICTED BY IDOCK:    1.06 KCAL/MOL
REMARK 924 INTRA-LIGAND FREE ENERGY PREDICTED BY IDOCK:   -0.21 KCAL/MOL
REMARK 927      BINDING AFFINITY PREDICTED BY RF-SCORE:    0.00 PKD
ROOT
HETATM    1  C   UNL     1      -8.045   7.177  64.868  1.00  0.00    -0.107 C  
HETATM    2  C   UNL     1      -8.721   8.561  64.849  1.00  0.00    -0.090 C  
HETATM    3  C   UNL     1      -9.868   8.631  65.905  1.00  0.00    -0.073 C  
HETATM    4  C   UNL     1      -9.327   8.817  67.347  1.00  0.00    -0.166 C  
HETATM    5  C   UNL     1     -10.407   8.745  68.507  1.00  0.00    -0.231 C  
HETATM    6  C   UNL     1     -10.771   7.264  68.853  1.00  0.00    -0.173 C  
HETATM    7  C   UNL     1     -10.135   6.940  70.241  1.00  0.00    -0.196 C  
HETATM    8  C   UNL     1      -9.089   8.037  70.401  1.00  0.00    -0.150 C  
HETATM    9  O   UNL     1      -8.038   7.630  69.488  1.00  0.00    -0.122 OA 
HETATM   10  C   UNL     1      -7.702   9.691  64.992  1.00  0.00    -0.119 C  
HETATM   11  C   UNL     1      -9.886   9.283  69.891  1.00  0.00    -0.219 C  
HETATM   12  C   UNL     1      -9.117  10.591  69.781  1.00  0.00     0.124 C  
HETATM   13  H   UNL     1      -7.386   8.314  69.587  1.00  0.00     0.000 HD 
HETATM   14  O   UNL     1      -5.249  11.635  63.242  1.00  0.00     0.297 OA 
HETATM   15  C   UNL     1      -7.071  10.271  63.950  1.00  0.00    -0.055 C  
HETATM   16  C   UNL     1     -11.053   9.667  70.851  1.00  0.00    -0.422 C  
HETATM   17  C   UNL     1      -8.047  10.491  68.771  1.00  0.00    -0.131 C  
HETATM   18  C   UNL     1      -6.003  11.315  64.147  1.00  0.00     1.340 C  
HETATM   19  C   UNL     1      -8.511  10.121  67.374  1.00  0.00    -0.122 C  
HETATM   20  O   UNL     1      -6.898  10.796  69.090  1.00  0.00    -0.066 OA 
HETATM   21  C   UNL     1      -5.847  11.914  65.519  1.00  0.00     2.100 C  
HETATM   22  C   UNL     1      -7.313  10.131  66.401  1.00  0.00    -0.108 C  
HETATM   23  C   UNL     1      -6.896  11.614  66.296  1.00  0.00     0.244 C  
HETATM   24  C   UNL     1      -6.141   9.205  66.840  1.00  0.00    -0.061 C  
ENDROOT
BRANCH   8  25
HETATM   25  C   UNL     1      -8.235   8.242  71.647  1.00  0.00    -0.137 C  
HETATM   26  O   UNL     1      -8.762   8.094  72.764  1.00  0.00    -0.177 OA 
BRANCH  25  27
HETATM   27  C   UNL     1      -6.820   8.728  71.573  1.00  0.00    -0.084 C  
HETATM   28  O   UNL     1      -5.967   7.595  71.392  1.00  0.00    -0.035 OA 
HETATM   29  H   UNL     1      -5.070   7.902  71.345  1.00  0.00     0.000 HD 
ENDBRANCH  25  27
ENDBRANCH   8  25
TORSDOF 2
ENDMDL
MODEL      123
REMARK 921   NORMALIZED FREE ENERGY PREDICTED BY IDOCK:    1.19 KCAL/MOL
REMARK 922        TOTAL FREE ENERGY PREDICTED BY IDOCK:    0.89 KCAL/MOL
REMARK 923 INTER-LIGAND FREE ENERGY PREDICTED BY IDOCK:    0.23 KCAL/MOL
REMARK 924 INTRA-LIGAND FREE ENERGY PREDICTED BY IDOCK:    0.66 KCAL/MOL
REMARK 927      BINDING AFFINITY PREDICTED BY RF-SCORE:    0.00 PKD
ROOT
HETATM    1  C   UNL     1      -9.952  16.951  69.957  1.00  0.00     0.622 C  
HETATM    2  C   UNL     1      -9.028  17.168  68.744  1.00  0.00    -0.233 C  
HETATM    3  C   UNL     1      -8.111  15.926  68.518  1.00  0.00    -0.157 C  
HETATM    4  C   UNL     1      -8.869  14.752  67.844  1.00  0.00    -0.167 C  
HETATM    5  C   UNL     1      -8.064  13.392  67.712  1.00  0.00    -0.173 C  
HETATM    6  C   UNL     1      -8.068  12.597  69.060  1.00  0.00     0.343 C  
HETATM    7  C   UNL     1      -9.005  11.364  68.871  1.00  0.00    -0.016 C  
HETATM    8  C   UNL     1      -9.829  11.747  67.647  1.00  0.00    -0.185 C  
HETATM    9  O   UNL     1     -10.746  12.745  68.162  1.00  0.00    -0.213 OA 
HETATM   10  C   UNL     1      -9.817  17.569  67.497  1.00  0.00    -0.293 C  
HETATM   11  C   UNL     1      -8.723  12.359  66.725  1.00  0.00    -0.160 C  
HETATM   12  C   UNL     1      -9.187  12.984  65.418  1.00  0.00     0.538 C  
HETATM   13  H   UNL     1     -11.260  12.985  67.398  1.00  0.00     0.000 HD 
HETATM   14  O   UNL     1     -11.467  20.293  65.850  1.00  0.00     0.606 OA 
HETATM   15  C   UNL     1     -10.113  18.844  67.173  1.00  0.00    -0.414 C  
HETATM   16  C   UNL     1      -7.707  11.284  66.233  1.00  0.00    -0.053 C  
HETATM   17  C   UNL     1     -10.045  14.157  65.669  1.00  0.00    -0.328 C  
HETATM   18  C   UNL     1     -10.975  19.184  65.985  1.00  0.00    -0.052 C  
HETATM   19  C   UNL     1      -9.406  15.258  66.493  1.00  0.00    -0.309 C  
HETATM   20  O   UNL     1     -11.152  14.209  65.133  1.00  0.00    -0.317 OA 
HETATM   21  C   UNL     1     -11.268  18.092  64.992  1.00  0.00     1.383 C  
HETATM   22  C   UNL     1     -10.372  16.456  66.612  1.00  0.00    -0.292 C  
HETATM   23  C   UNL     1     -10.465  17.038  65.185  1.00  0.00     0.045 C  
HETATM   24  C   UNL     1     -11.763  16.082  67.203  1.00  0.00     0.530 C  
ENDROOT
BRANCH   8  25
HETATM   25  C   UNL     1     -10.848  10.836  66.970  1.00  0.00    -0.252 C  
HETATM   26  O   UNL     1     -11.760  10.345  67.658  1.00  0.00    -0.309 OA 
BRANCH  25  27
HETATM   27  C   UNL     1     -10.718  10.422  65.536  1.00  0.00     0.098 C  
HETATM   28  O   UNL     1     -11.538  11.286  64.746  1.00  0.00    -0.010 OA 
HETATM   29  H   UNL     1     -11.456  11.024  63.837  1.00  0.00     0.000 HD 
ENDBRANCH  25  27
ENDBRANCH   8  25
TORSDOF 2
ENDMDL
MODEL      124
REMARK 921   NORMALIZED FREE ENERGY PREDICTED BY IDOCK:    1.28 KCAL/MOL
REMARK 922        TOTAL FREE ENERGY PREDICTED BY IDOCK:    0.99 KCAL/MOL
REMARK 923 INTER-LIGAND FREE ENERGY PREDICTED BY IDOCK:    1.06 KCAL/MOL
REMARK 924 INTRA-LIGAND FREE ENERGY PREDICTED BY IDOCK:   -0.07 KCAL/MOL
REMARK 927      BINDING AFFINITY PREDICTED BY RF-SCORE:    0.00 PKD
ROOT
HETATM    1  C   UNL     1      -7.586   7.241  72.570  1.00  0.00    -0.088 C  
HETATM    2  C   UNL     1      -8.965   7.677  72.042  1.00  0.00    -0.158 C  
HETATM    3  C   UNL     1      -8.890   9.103  71.412  1.00  0.00    -0.115 C  
HETATM    4  C   UNL     1      -8.255   9.087  69.997  1.00  0.00    -0.128 C  
HETATM    5  C   UNL     1      -7.995  10.505  69.338  1.00  0.00    -0.146 C  
HETATM    6  C   UNL     1      -6.689  11.161  69.897  1.00  0.00    -0.098 C  
HETATM    7  C   UNL     1      -5.617  11.105  68.764  1.00  0.00    -0.039 C  
HETATM    8  C   UNL     1      -6.175  10.047  67.819  1.00  0.00    -0.054 C  
HETATM    9  O   UNL     1      -5.929   8.806  68.526  1.00  0.00    -0.044 OA 
HETATM   10  C   UNL     1      -9.566   6.634  71.101  1.00  0.00    -0.177 C  
HETATM   11  C   UNL     1      -7.690  10.441  67.795  1.00  0.00    -0.089 C  
HETATM   12  C   UNL     1      -8.627   9.517  67.032  1.00  0.00    -0.131 C  
HETATM   13  H   UNL     1      -6.277   8.146  67.937  1.00  0.00     0.000 HD 
HETATM   14  O   UNL     1     -11.279   3.487  70.958  1.00  0.00     2.516 OA 
HETATM   15  C   UNL     1     -10.336   5.606  71.511  1.00  0.00    -0.279 C  
HETATM   16  C   UNL     1      -7.930  11.809  67.089  1.00  0.00    -0.166 C  
HETATM   17  C   UNL     1      -8.678   8.182  67.658  1.00  0.00    -0.130 C  
HETATM   18  C   UNL     1     -10.827   4.548  70.557  1.00  0.00     1.046 C  
HETATM   19  C   UNL     1      -9.115   8.168  69.111  1.00  0.00    -0.148 C  
HETATM   20  O   UNL     1      -8.463   7.190  66.961  1.00  0.00    -0.119 OA 
HETATM   21  C   UNL     1     -10.685   4.809  69.082  1.00  0.00     0.685 C  
HETATM   22  C   UNL     1      -9.206   6.713  69.620  1.00  0.00    -0.145 C  
HETATM   23  C   UNL     1     -10.391   6.094  68.847  1.00  0.00    -0.258 C  
HETATM   24  C   UNL     1      -7.886   5.906  69.447  1.00  0.00    -0.094 C  
ENDROOT
BRANCH   8  25
HETATM   25  C   UNL     1      -5.553   9.669  66.480  1.00  0.00    -0.049 C  
HETATM   26  O   UNL     1      -5.227   8.484  66.285  1.00  0.00    -0.030 OA 
BRANCH  25  27
HETATM   27  C   UNL     1      -5.215  10.693  65.440  1.00  0.00    -0.133 C  
HETATM   28  O   UNL     1      -6.326  10.806  64.548  1.00  0.00    -0.370 OA 
HETATM   29  H   UNL     1      -6.112  11.456  63.888  1.00  0.00     0.000 HD 
ENDBRANCH  25  27
ENDBRANCH   8  25
TORSDOF 2
ENDMDL
MODEL      125
REMARK 921   NORMALIZED FREE ENERGY PREDICTED BY IDOCK:    1.29 KCAL/MOL
REMARK 922        TOTAL FREE ENERGY PREDICTED BY IDOCK:    1.00 KCAL/MOL
REMARK 923 INTER-LIGAND FREE ENERGY PREDICTED BY IDOCK:    1.30 KCAL/MOL
REMARK 924 INTRA-LIGAND FREE ENERGY PREDICTED BY IDOCK:   -0.30 KCAL/MOL
REMARK 927      BINDING AFFINITY PREDICTED BY RF-SCORE:    0.00 PKD
ROOT
HETATM    1  C   UNL     1     -11.097  16.203  66.264  1.00  0.00     0.092 C  
HETATM    2  C   UNL     1     -10.499  16.890  67.505  1.00  0.00    -0.328 C  
HETATM    3  C   UNL     1     -10.153  15.839  68.607  1.00  0.00    -0.211 C  
HETATM    4  C   UNL     1      -8.844  15.068  68.292  1.00  0.00    -0.172 C  
HETATM    5  C   UNL     1      -8.491  13.874  69.273  1.00  0.00     0.468 C  
HETATM    6  C   UNL     1      -9.311  12.589  68.921  1.00  0.00     0.266 C  
HETATM    7  C   UNL     1      -8.321  11.564  68.283  1.00  0.00    -0.154 C  
HETATM    8  C   UNL     1      -7.140  12.439  67.879  1.00  0.00    -0.109 C  
HETATM    9  O   UNL     1      -7.632  13.147  66.714  1.00  0.00    -0.339 OA 
HETATM   10  C   UNL     1      -9.319  17.789  67.140  1.00  0.00    -0.264 C  
HETATM   11  C   UNL     1      -7.010  13.360  69.138  1.00  0.00    -0.044 C  
HETATM   12  C   UNL     1      -5.986  14.482  69.064  1.00  0.00    -0.089 C  
HETATM   13  H   UNL     1      -6.896  13.693  66.462  1.00  0.00     0.000 HD 
HETATM   14  O   UNL     1      -8.402  20.982  65.789  1.00  0.00     0.865 OA 
HETATM   15  C   UNL     1      -9.440  19.089  66.800  1.00  0.00    -0.365 C  
HETATM   16  C   UNL     1      -6.542  12.570  70.398  1.00  0.00     0.694 C  
HETATM   17  C   UNL     1      -6.346  15.458  68.019  1.00  0.00    -0.139 C  
HETATM   18  C   UNL     1      -8.257  19.909  66.354  1.00  0.00    -0.335 C  
HETATM   19  C   UNL     1      -7.710  16.103  68.182  1.00  0.00    -0.143 C  
HETATM   20  O   UNL     1      -5.510  15.750  67.164  1.00  0.00    -0.338 OA 
HETATM   21  C   UNL     1      -6.882  19.337  66.569  1.00  0.00    -0.209 C  
HETATM   22  C   UNL     1      -7.930  17.159  67.077  1.00  0.00    -0.230 C  
HETATM   23  C   UNL     1      -6.923  18.285  67.396  1.00  0.00    -0.207 C  
HETATM   24  C   UNL     1      -7.770  16.597  65.634  1.00  0.00     1.138 C  
ENDROOT
BRANCH   8  25
HETATM   25  C   UNL     1      -5.837  11.913  67.287  1.00  0.00    -0.130 C  
HETATM   26  O   UNL     1      -5.131  11.154  67.976  1.00  0.00    -0.043 OA 
BRANCH  25  27
HETATM   27  C   UNL     1      -5.324  12.370  65.957  1.00  0.00     2.104 C  
HETATM   28  O   UNL     1      -5.578  11.337  65.001  1.00  0.00    -0.480 OA 
HETATM   29  H   UNL     1      -5.253  11.627  64.157  1.00  0.00     0.000 HD 
ENDBRANCH  25  27
ENDBRANCH   8  25
TORSDOF 2
ENDMDL
MODEL      126
REMARK 921   NORMALIZED FREE ENERGY PREDICTED BY IDOCK:    1.42 KCAL/MOL
REMARK 922        TOTAL FREE ENERGY PREDICTED BY IDOCK:    1.14 KCAL/MOL
REMARK 923 INTER-LIGAND FREE ENERGY PREDICTED BY IDOCK:    0.71 KCAL/MOL
REMARK 924 INTRA-LIGAND FREE ENERGY PREDICTED BY IDOCK:    0.43 KCAL/MOL
REMARK 927      BINDING AFFINITY PREDICTED BY RF-SCORE:    0.00 PKD
ROOT
HETATM    1  C   UNL     1      -5.790  14.539  70.680  1.00  0.00    -0.179 C  
HETATM    2  C   UNL     1      -7.288  14.385  70.358  1.00  0.00     0.690 C  
HETATM    3  C   UNL     1      -8.011  15.768  70.415  1.00  0.00     1.374 C  
HETATM    4  C   UNL     1      -7.736  16.626  69.152  1.00  0.00    -0.186 C  
HETATM    5  C   UNL     1      -8.302  18.107  69.185  1.00  0.00     0.094 C  
HETATM    6  C   UNL     1      -7.367  19.053  70.009  1.00  0.00     0.577 C  
HETATM    7  C   UNL     1      -6.642  19.992  68.994  1.00  0.00    -0.346 C  
HETATM    8  C   UNL     1      -6.821  19.262  67.668  1.00  0.00    -0.215 C  
HETATM    9  O   UNL     1      -5.891  18.154  67.769  1.00  0.00    -0.152 OA 
HETATM   10  C   UNL     1      -7.510  13.644  69.041  1.00  0.00     0.021 C  
HETATM   11  C   UNL     1      -8.315  18.811  67.777  1.00  0.00    -0.293 C  
HETATM   12  C   UNL     1      -8.847  17.922  66.663  1.00  0.00    -0.285 C  
HETATM   13  H   UNL     1      -6.003  17.698  66.942  1.00  0.00     0.000 HD 
HETATM   14  O   UNL     1      -7.556  10.409  67.494  1.00  0.00    -0.093 OA 
HETATM   15  C   UNL     1      -7.616  12.303  68.941  1.00  0.00     0.021 C  
HETATM   16  C   UNL     1      -9.299  20.019  67.732  1.00  0.00    -0.467 C  
HETATM   17  C   UNL     1      -8.147  16.624  66.643  1.00  0.00    -0.274 C  
HETATM   18  C   UNL     1      -7.738  11.611  67.608  1.00  0.00    -0.133 C  
HETATM   19  C   UNL     1      -8.228  15.828  67.931  1.00  0.00    -0.151 C  
HETATM   20  O   UNL     1      -7.640  16.239  65.589  1.00  0.00     0.812 OA 
HETATM   21  C   UNL     1      -8.030  12.457  66.398  1.00  0.00     0.420 C  
HETATM   22  C   UNL     1      -7.531  14.463  67.752  1.00  0.00    -0.182 C  
HETATM   23  C   UNL     1      -8.420  13.688  66.756  1.00  0.00     0.012 C  
HETATM   24  C   UNL     1      -6.051  14.573  67.281  1.00  0.00     0.444 C  
ENDROOT
BRANCH   8  25
HETATM   25  C   UNL     1      -6.375  19.805  66.315  1.00  0.00    -0.183 C  
HETATM   26  O   UNL     1      -5.168  19.747  66.016  1.00  0.00    -0.157 OA 
BRANCH  25  27
HETATM   27  C   UNL     1      -7.318  20.508  65.387  1.00  0.00     0.030 C  
HETATM   28  O   UNL     1      -6.564  21.011  64.282  1.00  0.00    -0.495 OA 
HETATM   29  H   UNL     1      -7.162  21.457  63.693  1.00  0.00     0.000 HD 
ENDBRANCH  25  27
ENDBRANCH   8  25
TORSDOF 2
ENDMDL
MODEL      127
REMARK 921   NORMALIZED FREE ENERGY PREDICTED BY IDOCK:    1.58 KCAL/MOL
REMARK 922        TOTAL FREE ENERGY PREDICTED BY IDOCK:    1.32 KCAL/MOL
REMARK 923 INTER-LIGAND FREE ENERGY PREDICTED BY IDOCK:    0.92 KCAL/MOL
REMARK 924 INTRA-LIGAND FREE ENERGY PREDICTED BY IDOCK:    0.40 KCAL/MOL
REMARK 927      BINDING AFFINITY PREDICTED BY RF-SCORE:    0.00 PKD
ROOT
HETATM    1  C   UNL     1      -7.502  11.391  69.328  1.00  0.00    -0.005 C  
HETATM    2  C   UNL     1      -8.962  11.281  68.849  1.00  0.00    -0.054 C  
HETATM    3  C   UNL     1      -9.723  12.624  69.083  1.00  0.00     0.495 C  
HETATM    4  C   UNL     1      -9.362  13.696  68.022  1.00  0.00    -0.208 C  
HETATM    5  C   UNL     1      -9.967  15.141  68.263  1.00  0.00    -0.223 C  
HETATM    6  C   UNL     1      -9.134  15.936  69.323  1.00  0.00    -0.253 C  
HETATM    7  C   UNL     1      -8.348  17.047  68.560  1.00  0.00    -0.260 C  
HETATM    8  C   UNL     1      -8.390  16.563  67.115  1.00  0.00    -0.180 C  
HETATM    9  O   UNL     1      -7.444  15.465  67.103  1.00  0.00    -0.205 OA 
HETATM   10  C   UNL     1      -9.048  10.784  67.407  1.00  0.00    -0.148 C  
HETATM   11  C   UNL     1      -9.876  16.084  67.007  1.00  0.00    -0.240 C  
HETATM   12  C   UNL     1     -10.284  15.403  65.709  1.00  0.00    -0.378 C  
HETATM   13  H   UNL     1      -7.470  15.163  66.203  1.00  0.00     0.000 HD 
HETATM   14  O   UNL     1      -8.873   7.876  65.316  1.00  0.00    -0.070 OA 
HETATM   15  C   UNL     1      -9.109   9.481  67.063  1.00  0.00    -0.154 C  
HETATM   16  C   UNL     1     -10.883  17.271  67.086  1.00  0.00    -0.085 C  
HETATM   17  C   UNL     1      -9.551  14.137  65.524  1.00  0.00    -0.018 C  
HETATM   18  C   UNL     1      -9.096   9.036  65.623  1.00  0.00    -0.223 C  
HETATM   19  C   UNL     1      -9.724  13.123  66.640  1.00  0.00    -0.261 C  
HETATM   20  O   UNL     1      -8.943  13.950  64.470  1.00  0.00     2.069 OA 
HETATM   21  C   UNL     1      -9.303  10.082  64.560  1.00  0.00    -0.345 C  
HETATM   22  C   UNL     1      -8.977  11.819  66.287  1.00  0.00    -0.176 C  
HETATM   23  C   UNL     1      -9.754  11.224  65.092  1.00  0.00    -0.285 C  
HETATM   24  C   UNL     1      -7.465  12.027  65.979  1.00  0.00     0.934 C  
ENDROOT
BRANCH   8  25
HETATM   25  C   UNL     1      -7.841  17.343  65.925  1.00  0.00    -0.042 C  
HETATM   26  O   UNL     1      -8.614  17.638  64.996  1.00  0.00     1.586 OA 
BRANCH  25  27
HETATM   27  C   UNL     1      -6.385  17.664  65.785  1.00  0.00    -0.107 C  
HETATM   28  O   UNL     1      -6.267  18.993  65.273  1.00  0.00    -0.240 OA 
HETATM   29  H   UNL     1      -5.344  19.197  65.184  1.00  0.00     0.000 HD 
ENDBRANCH  25  27
ENDBRANCH   8  25
TORSDOF 2
ENDMDL
MODEL      128
REMARK 921   NORMALIZED FREE ENERGY PREDICTED BY IDOCK:    3.14 KCAL/MOL
REMARK 922        TOTAL FREE ENERGY PREDICTED BY IDOCK:    3.06 KCAL/MOL
REMARK 923 INTER-LIGAND FREE ENERGY PREDICTED BY IDOCK:    2.80 KCAL/MOL
REMARK 924 INTRA-LIGAND FREE ENERGY PREDICTED BY IDOCK:    0.26 KCAL/MOL
REMARK 927      BINDING AFFINITY PREDICTED BY RF-SCORE:    0.00 PKD
ROOT
HETATM    1  C   UNL     1      -5.129  14.784  71.047  1.00  0.00    -0.131 C  
HETATM    2  C   UNL     1      -6.447  13.988  71.050  1.00  0.00     0.316 C  
HETATM    3  C   UNL     1      -7.675  14.951  71.033  1.00  0.00     2.101 C  
HETATM    4  C   UNL     1      -7.935  15.546  69.624  1.00  0.00    -0.123 C  
HETATM    5  C   UNL     1      -9.066  16.654  69.539  1.00  0.00     0.242 C  
HETATM    6  C   UNL     1      -8.533  18.047  70.010  1.00  0.00     2.087 C  
HETATM    7  C   UNL     1      -8.393  18.947  68.742  1.00  0.00    -0.345 C  
HETATM    8  C   UNL     1      -8.395  17.933  67.604  1.00  0.00    -0.234 C  
HETATM    9  O   UNL     1      -7.079  17.330  67.691  1.00  0.00    -0.159 OA 
HETATM   10  C   UNL     1      -6.482  12.948  69.930  1.00  0.00     0.046 C  
HETATM   11  C   UNL     1      -9.535  16.967  68.069  1.00  0.00    -0.256 C  
HETATM   12  C   UNL     1      -9.764  15.720  67.230  1.00  0.00    -0.223 C  
HETATM   13  H   UNL     1      -7.080  16.698  66.982  1.00  0.00     0.000 HD 
HETATM   14  O   UNL     1      -5.330   9.701  68.938  1.00  0.00    -0.037 OA 
HETATM   15  C   UNL     1      -6.021  11.687  70.060  1.00  0.00    -0.152 C  
HETATM   16  C   UNL     1     -10.936  17.650  68.031  1.00  0.00    -0.107 C  
HETATM   17  C   UNL     1      -8.588  14.831  67.273  1.00  0.00    -0.212 C  
HETATM   18  C   UNL     1      -5.989  10.727  68.899  1.00  0.00    -0.040 C  
HETATM   19  C   UNL     1      -8.177  14.372  68.660  1.00  0.00    -0.148 C  
HETATM   20  O   UNL     1      -8.088  14.453  66.213  1.00  0.00     0.647 OA 
HETATM   21  C   UNL     1      -6.747  11.102  67.654  1.00  0.00    -0.071 C  
HETATM   22  C   UNL     1      -6.993  13.387  68.560  1.00  0.00    -0.102 C  
HETATM   23  C   UNL     1      -7.577  12.127  67.887  1.00  0.00    -0.123 C  
HETATM   24  C   UNL     1      -5.762  13.963  67.799  1.00  0.00    -0.079 C  
ENDROOT
BRANCH   8  25
HETATM   25  C   UNL     1      -8.377  18.295  66.123  1.00  0.00    -0.129 C  
HETATM   26  O   UNL     1      -9.445  18.256  65.485  1.00  0.00    -0.131 OA 
BRANCH  25  27
HETATM   27  C   UNL     1      -7.104  18.580  65.387  1.00  0.00     0.040 C  
HETATM   28  O   UNL     1      -7.317  19.721  64.552  1.00  0.00     0.122 OA 
HETATM   29  H   UNL     1      -6.510  19.903  64.086  1.00  0.00     0.000 HD 
ENDBRANCH  25  27
ENDBRANCH   8  25
TORSDOF 2
ENDMDL
MODEL      129
REMARK 921   NORMALIZED FREE ENERGY PREDICTED BY IDOCK:    3.18 KCAL/MOL
REMARK 922        TOTAL FREE ENERGY PREDICTED BY IDOCK:    3.11 KCAL/MOL
REMARK 923 INTER-LIGAND FREE ENERGY PREDICTED BY IDOCK:    3.00 KCAL/MOL
REMARK 924 INTRA-LIGAND FREE ENERGY PREDICTED BY IDOCK:    0.11 KCAL/MOL
REMARK 927      BINDING AFFINITY PREDICTED BY RF-SCORE:    0.00 PKD
ROOT
HETATM    1  C   UNL     1      -5.206  15.061  66.298  1.00  0.00     3.992 C  
HETATM    2  C   UNL     1      -5.517  14.651  67.750  1.00  0.00    -0.042 C  
HETATM    3  C   UNL     1      -5.558  15.904  68.681  1.00  0.00    -0.102 C  
HETATM    4  C   UNL     1      -6.878  16.704  68.530  1.00  0.00    -0.157 C  
HETATM    5  C   UNL     1      -6.950  18.077  69.321  1.00  0.00    -0.155 C  
HETATM    6  C   UNL     1      -6.194  19.213  68.555  1.00  0.00    -0.258 C  
HETATM    7  C   UNL     1      -7.272  20.181  67.975  1.00  0.00    -0.316 C  
HETATM    8  C   UNL     1      -8.544  19.342  68.022  1.00  0.00    -0.321 C  
HETATM    9  O   UNL     1      -8.364  18.403  66.931  1.00  0.00    -0.239 OA 
HETATM   10  C   UNL     1      -6.779  13.794  67.838  1.00  0.00    -0.162 C  
HETATM   11  C   UNL     1      -8.404  18.670  69.428  1.00  0.00     0.311 C  
HETATM   12  C   UNL     1      -9.453  17.634  69.802  1.00  0.00     0.914 C  
HETATM   13  H   UNL     1      -9.157  17.879  66.961  1.00  0.00     0.000 HD 
HETATM   14  O   UNL     1      -8.094  10.493  67.359  1.00  0.00    -0.110 OA 
HETATM   15  C   UNL     1      -6.784  12.450  67.731  1.00  0.00    -0.115 C  
HETATM   16  C   UNL     1      -8.534  19.703  70.588  1.00  0.00     1.980 C  
HETATM   17  C   UNL     1      -9.381  16.464  68.907  1.00  0.00    -0.249 C  
HETATM   18  C   UNL     1      -8.065  11.656  67.728  1.00  0.00    -0.139 C  
HETATM   19  C   UNL     1      -8.040  15.756  68.877  1.00  0.00    -0.207 C  
HETATM   20  O   UNL     1     -10.405  16.090  68.334  1.00  0.00    -0.238 OA 
HETATM   21  C   UNL     1      -9.331  12.360  68.136  1.00  0.00    -0.209 C  
HETATM   22  C   UNL     1      -8.122  14.508  67.972  1.00  0.00    -0.139 C  
HETATM   23  C   UNL     1      -9.061  13.536  68.717  1.00  0.00     0.090 C  
HETATM   24  C   UNL     1      -8.599  14.816  66.522  1.00  0.00    -0.075 C  
ENDROOT
BRANCH   8  25
HETATM   25  C   UNL     1      -9.932  19.852  67.651  1.00  0.00    -0.419 C  
HETATM   26  O   UNL     1     -10.492  20.666  68.408  1.00  0.00    -0.047 OA 
BRANCH  25  27
HETATM   27  C   UNL     1     -10.688  19.322  66.472  1.00  0.00    -0.393 C  
HETATM   28  O   UNL     1     -10.876  17.917  66.657  1.00  0.00    -0.192 OA 
HETATM   29  H   UNL     1     -11.355  17.580  65.910  1.00  0.00     0.000 HD 
ENDBRANCH  25  27
ENDBRANCH   8  25
TORSDOF 2
ENDMDL
MODEL      130
REMARK 921   NORMALIZED FREE ENERGY PREDICTED BY IDOCK:    3.34 KCAL/MOL
REMARK 922        TOTAL FREE ENERGY PREDICTED BY IDOCK:    3.29 KCAL/MOL
REMARK 923 INTER-LIGAND FREE ENERGY PREDICTED BY IDOCK:    3.08 KCAL/MOL
REMARK 924 INTRA-LIGAND FREE ENERGY PREDICTED BY IDOCK:    0.20 KCAL/MOL
REMARK 927      BINDING AFFINITY PREDICTED BY RF-SCORE:    0.00 PKD
ROOT
HETATM    1  C   UNL     1      -8.619   6.737  66.791  1.00  0.00    -0.119 C  
HETATM    2  C   UNL     1      -7.530   7.555  67.510  1.00  0.00    -0.104 C  
HETATM    3  C   UNL     1      -7.834   9.084  67.415  1.00  0.00    -0.100 C  
HETATM    4  C   UNL     1      -8.944   9.524  68.405  1.00  0.00    -0.127 C  
HETATM    5  C   UNL     1      -9.430  11.028  68.276  1.00  0.00    -0.172 C  
HETATM    6  C   UNL     1     -10.441  11.199  67.095  1.00  0.00    -0.270 C  
HETATM    7  C   UNL     1     -11.854  11.425  67.719  1.00  0.00    -0.196 C  
HETATM    8  C   UNL     1     -11.679  10.924  69.148  1.00  0.00    -0.326 C  
HETATM    9  O   UNL     1     -11.646   9.482  68.993  1.00  0.00    -0.409 OA 
HETATM   10  C   UNL     1      -7.314   7.073  68.944  1.00  0.00    -0.093 C  
HETATM   11  C   UNL     1     -10.280  11.526  69.504  1.00  0.00     0.293 C  
HETATM   12  C   UNL     1      -9.686  11.135  70.848  1.00  0.00     4.507 C  
HETATM   13  H   UNL     1     -11.537   9.169  69.884  1.00  0.00     0.000 HD 
HETATM   14  O   UNL     1      -5.767   4.544  70.961  1.00  0.00    -0.014 OA 
HETATM   15  C   UNL     1      -6.445   6.100  69.287  1.00  0.00    -0.043 C  
HETATM   16  C   UNL     1     -10.318  13.082  69.602  1.00  0.00     0.852 C  
HETATM   17  C   UNL     1      -9.406   9.687  70.900  1.00  0.00     0.074 C  
HETATM   18  C   UNL     1      -6.337   5.592  70.702  1.00  0.00    -0.031 C  
HETATM   19  C   UNL     1      -8.467   9.173  69.826  1.00  0.00    -0.140 C  
HETATM   20  O   UNL     1      -9.860   9.027  71.836  1.00  0.00    -0.323 OA 
HETATM   21  C   UNL     1      -7.010   6.385  71.789  1.00  0.00    -0.076 C  
HETATM   22  C   UNL     1      -8.193   7.669  70.041  1.00  0.00    -0.125 C  
HETATM   23  C   UNL     1      -7.372   7.595  71.347  1.00  0.00    -0.074 C  
HETATM   24  C   UNL     1      -9.483   6.798  70.089  1.00  0.00    -0.159 C  
ENDROOT
BRANCH   8  25
HETATM   25  C   UNL     1     -12.749  11.008  70.231  1.00  0.00    -0.183 C  
HETATM   26  O   UNL     1     -13.546  11.964  70.211  1.00  0.00     1.366 OA 
BRANCH  25  27
HETATM   27  C   UNL     1     -12.798  10.048  71.379  1.00  0.00    -0.417 C  
HETATM   28  O   UNL     1     -13.117   8.753  70.865  1.00  0.00    -0.505 OA 
HETATM   29  H   UNL     1     -13.149   8.144  71.593  1.00  0.00     0.000 HD 
ENDBRANCH  25  27
ENDBRANCH   8  25
TORSDOF 2
ENDMDL
MODEL      131
REMARK 921   NORMALIZED FREE ENERGY PREDICTED BY IDOCK:    4.28 KCAL/MOL
REMARK 922        TOTAL FREE ENERGY PREDICTED BY IDOCK:    4.34 KCAL/MOL
REMARK 923 INTER-LIGAND FREE ENERGY PREDICTED BY IDOCK:    4.52 KCAL/MOL
REMARK 924 INTRA-LIGAND FREE ENERGY PREDICTED BY IDOCK:   -0.17 KCAL/MOL
REMARK 927      BINDING AFFINITY PREDICTED BY RF-SCORE:    0.00 PKD
ROOT
HETATM    1  C   UNL     1     -10.998  17.561  71.624  1.00  0.00     2.078 C  
HETATM    2  C   UNL     1     -11.831  17.197  70.381  1.00  0.00     2.325 C  
HETATM    3  C   UNL     1     -11.484  18.140  69.187  1.00  0.00     2.623 C  
HETATM    4  C   UNL     1     -10.142  17.760  68.509  1.00  0.00    -0.377 C  
HETATM    5  C   UNL     1      -9.628  18.753  67.384  1.00  0.00    -0.337 C  
HETATM    6  C   UNL     1      -8.936  20.009  68.009  1.00  0.00    -0.317 C  
HETATM    7  C   UNL     1      -7.403  19.875  67.749  1.00  0.00    -0.323 C  
HETATM    8  C   UNL     1      -7.241  18.394  67.425  1.00  0.00    -0.205 C  
HETATM    9  O   UNL     1      -7.384  17.753  68.718  1.00  0.00    -0.263 OA 
HETATM   10  C   UNL     1     -11.707  15.714  70.031  1.00  0.00    -0.369 C  
HETATM   11  C   UNL     1      -8.475  18.158  66.493  1.00  0.00    -0.283 C  
HETATM   12  C   UNL     1      -8.735  16.728  66.046  1.00  0.00    -0.218 C  
HETATM   13  H   UNL     1      -7.283  16.829  68.516  1.00  0.00     0.000 HD 
HETATM   14  O   UNL     1     -12.828  12.418  70.892  1.00  0.00    -0.218 OA 
HETATM   15  C   UNL     1     -12.511  14.754  70.532  1.00  0.00    -0.411 C  
HETATM   16  C   UNL     1      -8.336  18.907  65.133  1.00  0.00     1.980 C  
HETATM   17  C   UNL     1      -9.065  15.866  67.197  1.00  0.00    -0.209 C  
HETATM   18  C   UNL     1     -12.289  13.293  70.233  1.00  0.00    -0.264 C  
HETATM   19  C   UNL     1     -10.267  16.310  68.010  1.00  0.00    -0.256 C  
HETATM   20  O   UNL     1      -8.426  14.827  67.365  1.00  0.00    -0.175 OA 
HETATM   21  C   UNL     1     -11.327  12.938  69.132  1.00  0.00    -0.329 C  
HETATM   22  C   UNL     1     -10.554  15.285  69.128  1.00  0.00    -0.250 C  
HETATM   23  C   UNL     1     -11.026  14.012  68.392  1.00  0.00    -0.269 C  
HETATM   24  C   UNL     1      -9.338  15.023  70.065  1.00  0.00     0.305 C  
ENDROOT
BRANCH   8  25
HETATM   25  C   UNL     1      -5.932  17.741  66.995  1.00  0.00    -0.145 C  
HETATM   26  O   UNL     1      -5.454  16.836  67.703  1.00  0.00    -0.120 OA 
BRANCH  25  27
HETATM   27  C   UNL     1      -5.147  18.229  65.816  1.00  0.00    -0.170 C  
HETATM   28  O   UNL     1      -5.347  17.313  64.736  1.00  0.00     0.715 OA 
HETATM   29  H   UNL     1      -4.849  17.622  63.989  1.00  0.00     0.000 HD 
ENDBRANCH  25  27
ENDBRANCH   8  25
TORSDOF 2
ENDMDL
MODEL      132
REMARK 921   NORMALIZED FREE ENERGY PREDICTED BY IDOCK:    5.43 KCAL/MOL
REMARK 922        TOTAL FREE ENERGY PREDICTED BY IDOCK:    5.62 KCAL/MOL
REMARK 923 INTER-LIGAND FREE ENERGY PREDICTED BY IDOCK:    5.70 KCAL/MOL
REMARK 924 INTRA-LIGAND FREE ENERGY PREDICTED BY IDOCK:   -0.08 KCAL/MOL
REMARK 927      BINDING AFFINITY PREDICTED BY RF-SCORE:    0.00 PKD
ROOT
HETATM    1  C   UNL     1     -10.437   7.323  66.055  1.00  0.00     1.093 C  
HETATM    2  C   UNL     1     -11.103   8.596  66.609  1.00  0.00     0.956 C  
HETATM    3  C   UNL     1     -11.135   8.569  68.170  1.00  0.00     0.301 C  
HETATM    4  C   UNL     1      -9.756   8.913  68.791  1.00  0.00    -0.170 C  
HETATM    5  C   UNL     1      -9.648   8.762  70.365  1.00  0.00    -0.210 C  
HETATM    6  C   UNL     1      -9.441   7.267  70.779  1.00  0.00    -0.164 C  
HETATM    7  C   UNL     1      -7.965   7.118  71.265  1.00  0.00    -0.102 C  
HETATM    8  C   UNL     1      -7.290   8.357  70.688  1.00  0.00    -0.056 C  
HETATM    9  O   UNL     1      -7.174   8.047  69.276  1.00  0.00    -0.072 OA 
HETATM   10  C   UNL     1     -10.463   9.863  66.043  1.00  0.00    -0.112 C  
HETATM   11  C   UNL     1      -8.372   9.448  70.982  1.00  0.00    -0.028 C  
HETATM   12  C   UNL     1      -8.110  10.841  70.430  1.00  0.00     1.531 C  
HETATM   13  H   UNL     1      -6.753   8.819  68.916  1.00  0.00     0.000 HD 
HETATM   14  O   UNL     1     -10.320  12.021  63.182  1.00  0.00    -0.404 OA 
HETATM   15  C   UNL     1     -10.863  10.462  64.902  1.00  0.00     0.434 C  
HETATM   16  C   UNL     1      -8.530   9.723  72.508  1.00  0.00     3.705 C  
HETATM   17  C   UNL     1      -8.093  10.831  68.955  1.00  0.00    -0.140 C  
HETATM   18  C   UNL     1     -10.139  11.654  64.333  1.00  0.00    -0.279 C  
HETATM   19  C   UNL     1      -9.362  10.318  68.300  1.00  0.00    -0.140 C  
HETATM   20  O   UNL     1      -7.123  11.310  68.368  1.00  0.00    -0.072 OA 
HETATM   21  C   UNL     1      -9.130  12.349  65.206  1.00  0.00     0.503 C  
HETATM   22  C   UNL     1      -9.247  10.436  66.765  1.00  0.00    -0.176 C  
HETATM   23  C   UNL     1      -9.244  11.953  66.480  1.00  0.00    -0.216 C  
HETATM   24  C   UNL     1      -8.004   9.709  66.172  1.00  0.00    -0.108 C  
ENDROOT
BRANCH   8  25
HETATM   25  C   UNL     1      -5.841   8.753  70.949  1.00  0.00    -0.036 C  
HETATM   26  O   UNL     1      -5.155   9.173  69.999  1.00  0.00    -0.029 OA 
BRANCH  25  27
HETATM   27  C   UNL     1      -5.184   8.544  72.279  1.00  0.00    -0.041 C  
HETATM   28  O   UNL     1      -5.507   9.656  73.116  1.00  0.00    -0.273 OA 
HETATM   29  H   UNL     1      -5.091   9.524  73.960  1.00  0.00     0.000 HD 
ENDBRANCH  25  27
ENDBRANCH   8  25
TORSDOF 2
ENDMDL
MODEL      133
REMARK 921   NORMALIZED FREE ENERGY PREDICTED BY IDOCK:    5.45 KCAL/MOL
REMARK 922        TOTAL FREE ENERGY PREDICTED BY IDOCK:    5.64 KCAL/MOL
REMARK 923 INTER-LIGAND FREE ENERGY PREDICTED BY IDOCK:    5.46 KCAL/MOL
REMARK 924 INTRA-LIGAND FREE ENERGY PREDICTED BY IDOCK:    0.19 KCAL/MOL
REMARK 927      BINDING AFFINITY PREDICTED BY RF-SCORE:    0.00 PKD
ROOT
HETATM    1  C   UNL     1     -13.277  13.947  67.591  1.00  0.00     3.294 C  
HETATM    2  C   UNL     1     -12.468  13.264  68.710  1.00  0.00     0.312 C  
HETATM    3  C   UNL     1     -11.048  12.865  68.201  1.00  0.00    -0.282 C  
HETATM    4  C   UNL     1     -10.087  14.080  68.126  1.00  0.00    -0.244 C  
HETATM    5  C   UNL     1      -8.668  13.803  67.475  1.00  0.00    -0.194 C  
HETATM    6  C   UNL     1      -8.752  13.797  65.913  1.00  0.00     0.972 C  
HETATM    7  C   UNL     1      -8.064  15.101  65.403  1.00  0.00     4.182 C  
HETATM    8  C   UNL     1      -8.042  15.983  66.647  1.00  0.00    -0.276 C  
HETATM    9  O   UNL     1      -9.423  16.404  66.781  1.00  0.00    -0.229 OA 
HETATM   10  C   UNL     1     -12.434  14.111  69.982  1.00  0.00    -0.352 C  
HETATM   11  C   UNL     1      -7.617  14.944  67.738  1.00  0.00    -0.171 C  
HETATM   12  C   UNL     1      -7.601  15.431  69.179  1.00  0.00    -0.198 C  
HETATM   13  H   UNL     1      -9.409  16.953  67.557  1.00  0.00     0.000 HD 
HETATM   14  O   UNL     1     -14.308  15.082  72.881  1.00  0.00    -0.207 OA 
HETATM   15  C   UNL     1     -13.360  14.036  70.960  1.00  0.00    -0.241 C  
HETATM   16  C   UNL     1      -6.151  14.452  67.541  1.00  0.00     0.049 C  
HETATM   17  C   UNL     1      -8.958  15.793  69.629  1.00  0.00    -0.084 C  
HETATM   18  C   UNL     1     -13.338  14.959  72.151  1.00  0.00    -0.375 C  
HETATM   19  C   UNL     1      -9.986  14.681  69.539  1.00  0.00     0.041 C  
HETATM   20  O   UNL     1      -9.144  16.907  70.120  1.00  0.00     1.270 OA 
HETATM   21  C   UNL     1     -12.099  15.783  72.380  1.00  0.00    -0.588 C  
HETATM   22  C   UNL     1     -11.335  15.162  70.114  1.00  0.00    -0.300 C  
HETATM   23  C   UNL     1     -11.083  15.343  71.627  1.00  0.00    -0.273 C  
HETATM   24  C   UNL     1     -11.881  16.453  69.435  1.00  0.00     0.136 C  
ENDROOT
BRANCH   8  25
HETATM   25  C   UNL     1      -7.381  17.354  66.723  1.00  0.00    -0.215 C  
HETATM   26  O   UNL     1      -8.084  18.367  66.558  1.00  0.00    -0.252 OA 
BRANCH  25  27
HETATM   27  C   UNL     1      -5.900  17.519  66.875  1.00  0.00    -0.159 C  
HETATM   28  O   UNL     1      -5.562  18.865  66.533  1.00  0.00    -0.155 OA 
HETATM   29  H   UNL     1      -4.623  18.970  66.629  1.00  0.00     0.000 HD 
ENDBRANCH  25  27
ENDBRANCH   8  25
TORSDOF 2
ENDMDL
MODEL      134
REMARK 921   NORMALIZED FREE ENERGY PREDICTED BY IDOCK:    7.29 KCAL/MOL
REMARK 922        TOTAL FREE ENERGY PREDICTED BY IDOCK:    7.70 KCAL/MOL
REMARK 923 INTER-LIGAND FREE ENERGY PREDICTED BY IDOCK:    7.93 KCAL/MOL
REMARK 924 INTRA-LIGAND FREE ENERGY PREDICTED BY IDOCK:   -0.23 KCAL/MOL
REMARK 927      BINDING AFFINITY PREDICTED BY RF-SCORE:    0.00 PKD
ROOT
HETATM    1  C   UNL     1      -6.006  15.833  66.765  1.00  0.00     0.781 C  
HETATM    2  C   UNL     1      -5.921  15.130  68.132  1.00  0.00    -0.142 C  
HETATM    3  C   UNL     1      -6.710  15.931  69.215  1.00  0.00    -0.176 C  
HETATM    4  C   UNL     1      -8.243  15.719  69.102  1.00  0.00    -0.247 C  
HETATM    5  C   UNL     1      -9.138  16.611  70.060  1.00  0.00     1.310 C  
HETATM    6  C   UNL     1      -9.313  18.057  69.491  1.00  0.00     0.524 C  
HETATM    7  C   UNL     1     -10.785  18.184  68.986  1.00  0.00     0.399 C  
HETATM    8  C   UNL     1     -11.227  16.731  68.857  1.00  0.00    -0.113 C  
HETATM    9  O   UNL     1     -10.538  16.278  67.663  1.00  0.00    -0.299 OA 
HETATM   10  C   UNL     1      -6.344  13.664  68.042  1.00  0.00    -0.139 C  
HETATM   11  C   UNL     1     -10.630  16.122  70.169  1.00  0.00    -0.226 C  
HETATM   12  C   UNL     1     -10.761  14.617  70.348  1.00  0.00     0.146 C  
HETATM   13  H   UNL     1     -10.814  15.372  67.583  1.00  0.00     0.000 HD 
HETATM   14  O   UNL     1      -5.274  10.383  67.067  1.00  0.00    -0.040 OA 
HETATM   15  C   UNL     1      -5.496  12.653  67.760  1.00  0.00    -0.116 C  
HETATM   16  C   UNL     1     -11.338  16.669  71.445  1.00  0.00     0.139 C  
HETATM   17  C   UNL     1     -10.000  13.894  69.313  1.00  0.00     0.255 C  
HETATM   18  C   UNL     1      -5.976  11.236  67.586  1.00  0.00    -0.051 C  
HETATM   19  C   UNL     1      -8.518  14.213  69.261  1.00  0.00     0.322 C  
HETATM   20  O   UNL     1     -10.575  13.035  68.643  1.00  0.00    -0.249 OA 
HETATM   21  C   UNL     1      -7.382  10.911  68.015  1.00  0.00    -0.088 C  
HETATM   22  C   UNL     1      -7.826  13.334  68.197  1.00  0.00    -0.145 C  
HETATM   23  C   UNL     1      -7.897  11.898  68.759  1.00  0.00    -0.052 C  
HETATM   24  C   UNL     1      -8.452  13.459  66.777  1.00  0.00     0.021 C  
ENDROOT
BRANCH   8  25
HETATM   25  C   UNL     1     -12.637  16.286  68.483  1.00  0.00     1.632 C  
HETATM   26  O   UNL     1     -13.516  16.285  69.364  1.00  0.00     1.560 OA 
BRANCH  25  27
HETATM   27  C   UNL     1     -12.969  15.742  67.128  1.00  0.00     3.446 C  
HETATM   28  O   UNL     1     -12.264  14.511  66.956  1.00  0.00    -0.523 OA 
HETATM   29  H   UNL     1     -12.474  14.165  66.097  1.00  0.00     0.000 HD 
ENDBRANCH  25  27
ENDBRANCH   8  25
TORSDOF 2
ENDMDL
MODEL      135
REMARK 921   NORMALIZED FREE ENERGY PREDICTED BY IDOCK:    8.28 KCAL/MOL
REMARK 922        TOTAL FREE ENERGY PREDICTED BY IDOCK:    8.81 KCAL/MOL
REMARK 923 INTER-LIGAND FREE ENERGY PREDICTED BY IDOCK:    7.97 KCAL/MOL
REMARK 924 INTRA-LIGAND FREE ENERGY PREDICTED BY IDOCK:    0.84 KCAL/MOL
REMARK 927      BINDING AFFINITY PREDICTED BY RF-SCORE:    0.00 PKD
ROOT
HETATM    1  C   UNL     1     -11.986  18.952  65.395  1.00  0.00     4.626 C  
HETATM    2  C   UNL     1     -10.943  17.955  64.856  1.00  0.00     1.197 C  
HETATM    3  C   UNL     1      -9.512  18.578  64.892  1.00  0.00     3.564 C  
HETATM    4  C   UNL     1      -8.906  18.577  66.320  1.00  0.00    -0.221 C  
HETATM    5  C   UNL     1      -7.520  19.328  66.484  1.00  0.00    -0.258 C  
HETATM    6  C   UNL     1      -7.721  20.876  66.590  1.00  0.00    -0.002 C  
HETATM    7  C   UNL     1      -7.435  21.283  68.069  1.00  0.00     0.534 C  
HETATM    8  C   UNL     1      -7.543  19.958  68.815  1.00  0.00    -0.196 C  
HETATM    9  O   UNL     1      -8.971  19.708  68.843  1.00  0.00    -0.333 OA 
HETATM   10  C   UNL     1     -11.029  16.606  65.569  1.00  0.00    -0.063 C  
HETATM   11  C   UNL     1      -6.781  19.005  67.836  1.00  0.00    -0.237 C  
HETATM   12  C   UNL     1      -6.778  17.524  68.183  1.00  0.00    -0.191 C  
HETATM   13  H   UNL     1      -9.039  18.881  69.308  1.00  0.00     0.000 HD 
HETATM   14  O   UNL     1     -12.856  13.526  65.757  1.00  0.00    -0.420 OA 
HETATM   15  C   UNL     1     -11.825  15.593  65.168  1.00  0.00     0.235 C  
HETATM   16  C   UNL     1      -5.258  19.329  67.767  1.00  0.00    -0.174 C  
HETATM   17  C   UNL     1      -8.143  16.968  68.134  1.00  0.00    -0.212 C  
HETATM   18  C   UNL     1     -11.948  14.316  65.959  1.00  0.00    -0.400 C  
HETATM   19  C   UNL     1      -8.853  17.117  66.802  1.00  0.00    -0.270 C  
HETATM   20  O   UNL     1      -8.571  16.354  69.113  1.00  0.00    -0.242 OA 
HETATM   21  C   UNL     1     -10.949  14.069  67.057  1.00  0.00    -0.302 C  
HETATM   22  C   UNL     1     -10.232  16.424  66.858  1.00  0.00    -0.290 C  
HETATM   23  C   UNL     1      -9.917  14.917  66.968  1.00  0.00    -0.240 C  
HETATM   24  C   UNL     1     -11.143  16.936  68.012  1.00  0.00    -0.190 C  
ENDROOT
BRANCH   8  25
HETATM   25  C   UNL     1      -7.255  19.775  70.301  1.00  0.00     0.389 C  
HETATM   26  O   UNL     1      -8.039  20.274  71.128  1.00  0.00     1.032 OA 
BRANCH  25  27
HETATM   27  C   UNL     1      -6.003  19.118  70.795  1.00  0.00     0.002 C  
HETATM   28  O   UNL     1      -6.259  17.719  70.937  1.00  0.00     0.628 OA 
HETATM   29  H   UNL     1      -5.465  17.301  71.250  1.00  0.00     0.000 HD 
ENDBRANCH  25  27
ENDBRANCH   8  25
TORSDOF 2
ENDMDL
MODEL      136
REMARK 921   NORMALIZED FREE ENERGY PREDICTED BY IDOCK:    9.76 KCAL/MOL
REMARK 922        TOTAL FREE ENERGY PREDICTED BY IDOCK:   10.46 KCAL/MOL
REMARK 923 INTER-LIGAND FREE ENERGY PREDICTED BY IDOCK:    9.35 KCAL/MOL
REMARK 924 INTRA-LIGAND FREE ENERGY PREDICTED BY IDOCK:    1.11 KCAL/MOL
REMARK 927      BINDING AFFINITY PREDICTED BY RF-SCORE:    0.00 PKD
ROOT
HETATM    1  C   UNL     1      -7.989   5.668  73.231  1.00  0.00    -0.110 C  
HETATM    2  C   UNL     1      -9.507   5.918  73.286  1.00  0.00    -0.142 C  
HETATM    3  C   UNL     1      -9.888   7.197  72.477  1.00  0.00    -0.183 C  
HETATM    4  C   UNL     1      -9.895   6.943  70.947  1.00  0.00    -0.193 C  
HETATM    5  C   UNL     1     -10.119   8.220  70.033  1.00  0.00    -0.196 C  
HETATM    6  C   UNL     1      -8.798   9.041  69.872  1.00  0.00    -0.164 C  
HETATM    7  C   UNL     1      -8.291   8.827  68.411  1.00  0.00    -0.126 C  
HETATM    8  C   UNL     1      -9.044   7.577  67.970  1.00  0.00    -0.131 C  
HETATM    9  O   UNL     1      -8.367   6.511  68.682  1.00  0.00    -0.120 OA 
HETATM   10  C   UNL     1     -10.300   4.681  72.864  1.00  0.00    -0.242 C  
HETATM   11  C   UNL     1     -10.471   7.875  68.539  1.00  0.00    -0.202 C  
HETATM   12  C   UNL     1     -11.509   6.771  68.401  1.00  0.00     0.127 C  
HETATM   13  H   UNL     1      -8.837   5.732  68.407  1.00  0.00     0.000 HD 
HETATM   14  O   UNL     1     -11.488   1.477  73.949  1.00  0.00    -0.162 OA 
HETATM   15  C   UNL     1     -10.690   3.711  73.716  1.00  0.00    -0.306 C  
HETATM   16  C   UNL     1     -11.159   9.066  67.805  1.00  0.00     0.190 C  
HETATM   17  C   UNL     1     -11.121   5.582  69.182  1.00  0.00     0.212 C  
HETATM   18  C   UNL     1     -11.386   2.463  73.237  1.00  0.00    -0.095 C  
HETATM   19  C   UNL     1     -10.914   5.824  70.666  1.00  0.00    -0.319 C  
HETATM   20  O   UNL     1     -11.084   4.487  68.620  1.00  0.00     1.583 OA 
HETATM   21  C   UNL     1     -11.900   2.442  71.823  1.00  0.00     3.809 C  
HETATM   22  C   UNL     1     -10.596   4.492  71.379  1.00  0.00     0.081 C  
HETATM   23  C   UNL     1     -11.900   3.671  71.293  1.00  0.00     6.091 C  
HETATM   24  C   UNL     1      -9.370   3.741  70.781  1.00  0.00    -0.218 C  
ENDROOT
BRANCH   8  25
HETATM   25  C   UNL     1      -8.985   6.982  66.567  1.00  0.00    -0.147 C  
HETATM   26  O   UNL     1      -7.933   7.099  65.912  1.00  0.00    -0.103 OA 
BRANCH  25  27
HETATM   27  C   UNL     1     -10.182   6.367  65.911  1.00  0.00     0.637 C  
HETATM   28  O   UNL     1     -10.231   4.985  66.275  1.00  0.00    -0.222 OA 
HETATM   29  H   UNL     1     -10.990   4.594  65.859  1.00  0.00     0.000 HD 
ENDBRANCH  25  27
ENDBRANCH   8  25
TORSDOF 2
ENDMDL
MODEL      137
REMARK 921   NORMALIZED FREE ENERGY PREDICTED BY IDOCK:   10.12 KCAL/MOL
REMARK 922        TOTAL FREE ENERGY PREDICTED BY IDOCK:   10.86 KCAL/MOL
REMARK 923 INTER-LIGAND FREE ENERGY PREDICTED BY IDOCK:   11.03 KCAL/MOL
REMARK 924 INTRA-LIGAND FREE ENERGY PREDICTED BY IDOCK:   -0.17 KCAL/MOL
REMARK 927      BINDING AFFINITY PREDICTED BY RF-SCORE:    0.00 PKD
ROOT
HETATM    1  C   UNL     1      -9.668   1.551  71.677  1.00  0.00    -0.199 C  
HETATM    2  C   UNL     1      -8.282   1.772  71.043  1.00  0.00    -0.058 C  
HETATM    3  C   UNL     1      -8.397   1.900  69.492  1.00  0.00    -0.071 C  
HETATM    4  C   UNL     1      -8.919   3.294  69.054  1.00  0.00    -0.187 C  
HETATM    5  C   UNL     1      -9.216   3.468  67.507  1.00  0.00    -0.224 C  
HETATM    6  C   UNL     1     -10.600   2.849  67.121  1.00  0.00     3.497 C  
HETATM    7  C   UNL     1     -11.575   4.032  66.830  1.00  0.00     6.246 C  
HETATM    8  C   UNL     1     -10.880   5.217  67.491  1.00  0.00     0.309 C  
HETATM    9  O   UNL     1     -11.101   4.987  68.905  1.00  0.00     0.556 OA 
HETATM   10  C   UNL     1      -7.545   2.945  71.690  1.00  0.00    -0.048 C  
HETATM   11  C   UNL     1      -9.396   4.967  67.061  1.00  0.00    -0.136 C  
HETATM   12  C   UNL     1      -8.346   5.900  67.644  1.00  0.00    -0.104 C  
HETATM   13  H   UNL     1     -10.668   5.725  69.317  1.00  0.00     0.000 HD 
HETATM   14  O   UNL     1      -5.631   3.958  74.548  1.00  0.00    -0.004 OA 
HETATM   15  C   UNL     1      -6.745   2.827  72.770  1.00  0.00    -0.022 C  
HETATM   16  C   UNL     1      -9.189   5.155  65.528  1.00  0.00    -0.144 C  
HETATM   17  C   UNL     1      -8.260   5.749  69.109  1.00  0.00    -0.101 C  
HETATM   18  C   UNL     1      -6.116   4.027  73.430  1.00  0.00    -0.015 C  
HETATM   19  C   UNL     1      -7.937   4.349  69.594  1.00  0.00    -0.057 C  
HETATM   20  O   UNL     1      -8.357   6.752  69.817  1.00  0.00    -0.128 OA 
HETATM   21  C   UNL     1      -6.160   5.339  72.695  1.00  0.00    -0.027 C  
HETATM   22  C   UNL     1      -7.793   4.343  71.131  1.00  0.00    -0.072 C  
HETATM   23  C   UNL     1      -6.516   5.162  71.416  1.00  0.00    -0.031 C  
HETATM   24  C   UNL     1      -9.043   4.896  71.878  1.00  0.00    -0.160 C  
ENDROOT
BRANCH   8  25
HETATM   25  C   UNL     1     -11.372   6.658  67.419  1.00  0.00    -0.025 C  
HETATM   26  O   UNL     1     -11.380   7.233  66.316  1.00  0.00     1.247 OA 
BRANCH  25  27
HETATM   27  C   UNL     1     -11.733   7.439  68.645  1.00  0.00     1.220 C  
HETATM   28  O   UNL     1     -11.302   8.789  68.458  1.00  0.00    -0.230 OA 
HETATM   29  H   UNL     1     -11.531   9.285  69.236  1.00  0.00     0.000 HD 
ENDBRANCH  25  27
ENDBRANCH   8  25
TORSDOF 2
ENDMDL
MODEL      138
REMARK 921   NORMALIZED FREE ENERGY PREDICTED BY IDOCK:   10.56 KCAL/MOL
REMARK 922        TOTAL FREE ENERGY PREDICTED BY IDOCK:   11.35 KCAL/MOL
REMARK 923 INTER-LIGAND FREE ENERGY PREDICTED BY IDOCK:   11.09 KCAL/MOL
REMARK 924 INTRA-LIGAND FREE ENERGY PREDICTED BY IDOCK:    0.26 KCAL/MOL
REMARK 927      BINDING AFFINITY PREDICTED BY RF-SCORE:    0.00 PKD
ROOT
HETATM    1  C   UNL     1      -6.373   6.407  68.679  1.00  0.00    -0.038 C  
HETATM    2  C   UNL     1      -7.146   7.077  67.527  1.00  0.00    -0.085 C  
HETATM    3  C   UNL     1      -8.582   6.477  67.403  1.00  0.00    -0.118 C  
HETATM    4  C   UNL     1      -9.544   7.028  68.487  1.00  0.00    -0.137 C  
HETATM    5  C   UNL     1     -10.983   6.364  68.539  1.00  0.00    -0.396 C  
HETATM    6  C   UNL     1     -10.949   4.993  69.291  1.00  0.00     0.881 C  
HETATM    7  C   UNL     1     -11.653   5.200  70.669  1.00  0.00     1.802 C  
HETATM    8  C   UNL     1     -11.635   6.715  70.837  1.00  0.00    -0.361 C  
HETATM    9  O   UNL     1     -10.251   6.998  71.161  1.00  0.00    -0.196 OA 
HETATM   10  C   UNL     1      -7.139   8.600  67.651  1.00  0.00    -0.080 C  
HETATM   11  C   UNL     1     -12.026   7.177  69.393  1.00  0.00     0.619 C  
HETATM   12  C   UNL     1     -11.995   8.673  69.120  1.00  0.00     1.751 C  
HETATM   13  H   UNL     1     -10.239   7.943  71.266  1.00  0.00     0.000 HD 
HETATM   14  O   UNL     1      -5.174  11.553  67.123  1.00  0.00    -0.059 OA 
HETATM   15  C   UNL     1      -6.183   9.393  67.125  1.00  0.00    -0.065 C  
HETATM   16  C   UNL     1     -13.497   6.807  69.036  1.00  0.00     9.322 C  
HETATM   17  C   UNL     1     -10.625   9.204  69.240  1.00  0.00    -0.216 C  
HETATM   18  C   UNL     1      -6.167  10.882  67.356  1.00  0.00    -0.056 C  
HETATM   19  C   UNL     1      -9.601   8.558  68.326  1.00  0.00    -0.156 C  
HETATM   20  O   UNL     1     -10.423  10.168  69.979  1.00  0.00    -0.264 OA 
HETATM   21  C   UNL     1      -7.398  11.517  67.945  1.00  0.00    -0.094 C  
HETATM   22  C   UNL     1      -8.233   9.256  68.489  1.00  0.00    -0.114 C  
HETATM   23  C   UNL     1      -8.437  10.673  67.911  1.00  0.00    -0.120 C  
HETATM   24  C   UNL     1      -7.710   9.272  69.955  1.00  0.00    -0.104 C  
ENDROOT
BRANCH   8  25
HETATM   25  C   UNL     1     -12.293   7.465  71.989  1.00  0.00    -0.266 C  
HETATM   26  O   UNL     1     -13.525   7.637  71.965  1.00  0.00    -0.262 OA 
BRANCH  25  27
HETATM   27  C   UNL     1     -11.495   8.101  73.086  1.00  0.00     0.230 C  
HETATM   28  O   UNL     1     -10.508   7.163  73.521  1.00  0.00    -0.328 OA 
HETATM   29  H   UNL     1     -10.001   7.566  74.216  1.00  0.00     0.000 HD 
ENDBRANCH  25  27
ENDBRANCH   8  25
TORSDOF 2
ENDMDL
MODEL      139
REMARK 921   NORMALIZED FREE ENERGY PREDICTED BY IDOCK:   11.36 KCAL/MOL
REMARK 922        TOTAL FREE ENERGY PREDICTED BY IDOCK:   12.25 KCAL/MOL
REMARK 923 INTER-LIGAND FREE ENERGY PREDICTED BY IDOCK:   11.69 KCAL/MOL
REMARK 924 INTRA-LIGAND FREE ENERGY PREDICTED BY IDOCK:    0.56 KCAL/MOL
REMARK 927      BINDING AFFINITY PREDICTED BY RF-SCORE:    0.00 PKD
ROOT
HETATM    1  C   UNL     1     -11.372   4.437  69.846  1.00  0.00     4.443 C  
HETATM    2  C   UNL     1     -10.113   3.560  69.709  1.00  0.00     0.555 C  
HETATM    3  C   UNL     1     -10.043   2.910  68.292  1.00  0.00     1.010 C  
HETATM    4  C   UNL     1      -9.570   3.914  67.208  1.00  0.00    -0.222 C  
HETATM    5  C   UNL     1      -9.614   3.390  65.712  1.00  0.00    -0.072 C  
HETATM    6  C   UNL     1     -11.062   3.468  65.126  1.00  0.00     1.243 C  
HETATM    7  C   UNL     1     -11.082   4.632  64.086  1.00  0.00     0.770 C  
HETATM    8  C   UNL     1      -9.840   5.437  64.452  1.00  0.00     1.069 C  
HETATM    9  O   UNL     1     -10.231   6.117  65.672  1.00  0.00    -0.106 OA 
HETATM   10  C   UNL     1      -8.846   4.328  70.082  1.00  0.00    -0.130 C  
HETATM   11  C   UNL     1      -8.807   4.289  64.703  1.00  0.00    -0.141 C  
HETATM   12  C   UNL     1      -7.437   4.700  65.222  1.00  0.00    -0.077 C  
HETATM   13  H   UNL     1      -9.457   6.618  65.900  1.00  0.00     0.000 HD 
HETATM   14  O   UNL     1      -6.869   5.524  72.825  1.00  0.00    -0.073 OA 
HETATM   15  C   UNL     1      -8.348   4.395  71.334  1.00  0.00    -0.096 C  
HETATM   16  C   UNL     1      -8.447   3.525  63.393  1.00  0.00    -0.090 C  
HETATM   17  C   UNL     1      -7.540   5.304  66.563  1.00  0.00    -0.088 C  
HETATM   18  C   UNL     1      -7.149   5.244  71.670  1.00  0.00    -0.071 C  
HETATM   19  C   UNL     1      -8.177   4.421  67.621  1.00  0.00    -0.099 C  
HETATM   20  O   UNL     1      -7.036   6.410  66.758  1.00  0.00    -0.064 OA 
HETATM   21  C   UNL     1      -6.335   5.795  70.531  1.00  0.00    -0.032 C  
HETATM   22  C   UNL     1      -8.149   5.134  68.990  1.00  0.00    -0.085 C  
HETATM   23  C   UNL     1      -6.655   5.197  69.377  1.00  0.00    -0.046 C  
HETATM   24  C   UNL     1      -8.828   6.535  68.979  1.00  0.00    -0.130 C  
ENDROOT
BRANCH   8  25
HETATM   25  C   UNL     1      -9.334   6.646  63.674  1.00  0.00     2.249 C  
HETATM   26  O   UNL     1      -9.768   6.843  62.525  1.00  0.00     2.068 OA 
BRANCH  25  27
HETATM   27  C   UNL     1      -8.249   7.535  64.200  1.00  0.00     0.026 C  
HETATM   28  O   UNL     1      -7.750   8.321  63.115  1.00  0.00    -0.123 OA 
HETATM   29  H   UNL     1      -7.062   8.885  63.448  1.00  0.00     0.000 HD 
ENDBRANCH  25  27
ENDBRANCH   8  25
TORSDOF 2
ENDMDL
MODEL      140
REMARK 921   NORMALIZED FREE ENERGY PREDICTED BY IDOCK:   12.05 KCAL/MOL
REMARK 922        TOTAL FREE ENERGY PREDICTED BY IDOCK:   13.02 KCAL/MOL
REMARK 923 INTER-LIGAND FREE ENERGY PREDICTED BY IDOCK:   13.24 KCAL/MOL
REMARK 924 INTRA-LIGAND FREE ENERGY PREDICTED BY IDOCK:   -0.22 KCAL/MOL
REMARK 927      BINDING AFFINITY PREDICTED BY RF-SCORE:    0.00 PKD
ROOT
HETATM    1  C   UNL     1      -9.253  18.913  72.605  1.00  0.00     7.944 C  
HETATM    2  C   UNL     1     -10.641  18.884  71.939  1.00  0.00     3.524 C  
HETATM    3  C   UNL     1     -10.649  19.748  70.639  1.00  0.00     1.938 C  
HETATM    4  C   UNL     1      -9.966  19.024  69.449  1.00  0.00    -0.062 C  
HETATM    5  C   UNL     1      -9.788  19.881  68.127  1.00  0.00    -0.524 C  
HETATM    6  C   UNL     1      -8.553  20.836  68.231  1.00  0.00     0.502 C  
HETATM    7  C   UNL     1      -7.442  20.266  67.296  1.00  0.00    -0.338 C  
HETATM    8  C   UNL     1      -7.888  18.825  67.076  1.00  0.00    -0.240 C  
HETATM    9  O   UNL     1      -7.576  18.183  68.338  1.00  0.00    -0.264 OA 
HETATM   10  C   UNL     1     -11.132  17.455  71.715  1.00  0.00     1.750 C  
HETATM   11  C   UNL     1      -9.425  19.021  66.859  1.00  0.00    -0.355 C  
HETATM   12  C   UNL     1     -10.266  17.760  66.725  1.00  0.00    -0.351 C  
HETATM   13  H   UNL     1      -7.855  17.284  68.202  1.00  0.00     0.000 HD 
HETATM   14  O   UNL     1     -12.604  14.600  73.309  1.00  0.00    -0.434 OA 
HETATM   15  C   UNL     1     -11.838  16.751  72.623  1.00  0.00    -0.092 C  
HETATM   16  C   UNL     1      -9.741  19.770  65.529  1.00  0.00     0.175 C  
HETATM   17  C   UNL     1     -10.241  16.973  67.972  1.00  0.00    -0.319 C  
HETATM   18  C   UNL     1     -12.217  15.310  72.395  1.00  0.00    -0.383 C  
HETATM   19  C   UNL     1     -10.725  17.707  69.208  1.00  0.00     0.246 C  
HETATM   20  O   UNL     1      -9.930  15.782  67.917  1.00  0.00    -0.224 OA 
HETATM   21  C   UNL     1     -12.044  14.747  71.010  1.00  0.00    -0.391 C  
HETATM   22  C   UNL     1     -10.727  16.753  70.421  1.00  0.00     0.220 C  
HETATM   23  C   UNL     1     -11.836  15.723  70.117  1.00  0.00    -0.369 C  
HETATM   24  C   UNL     1      -9.347  16.089  70.698  1.00  0.00     1.903 C  
ENDROOT
BRANCH   8  25
HETATM   25  C   UNL     1      -7.194  17.836  66.145  1.00  0.00    -0.311 C  
HETATM   26  O   UNL     1      -6.903  18.204  64.993  1.00  0.00    -0.306 OA 
BRANCH  25  27
HETATM   27  C   UNL     1      -6.956  16.409  66.532  1.00  0.00     0.031 C  
HETATM   28  O   UNL     1      -7.998  15.613  65.962  1.00  0.00    -0.035 OA 
HETATM   29  H   UNL     1      -7.848  14.707  66.207  1.00  0.00     0.000 HD 
ENDBRANCH  25  27
ENDBRANCH   8  25
TORSDOF 2
ENDMDL
MODEL      141
REMARK 921   NORMALIZED FREE ENERGY PREDICTED BY IDOCK:   12.37 KCAL/MOL
REMARK 922        TOTAL FREE ENERGY PREDICTED BY IDOCK:   13.37 KCAL/MOL
REMARK 923 INTER-LIGAND FREE ENERGY PREDICTED BY IDOCK:   13.19 KCAL/MOL
REMARK 924 INTRA-LIGAND FREE ENERGY PREDICTED BY IDOCK:    0.18 KCAL/MOL
REMARK 927      BINDING AFFINITY PREDICTED BY RF-SCORE:    0.00 PKD
ROOT
HETATM    1  C   UNL     1      -6.961  10.879  72.057  1.00  0.00     4.549 C  
HETATM    2  C   UNL     1      -7.992  10.043  71.276  1.00  0.00     1.610 C  
HETATM    3  C   UNL     1      -9.288  10.871  71.010  1.00  0.00     4.650 C  
HETATM    4  C   UNL     1      -9.107  11.889  69.854  1.00  0.00     2.430 C  
HETATM    5  C   UNL     1     -10.319  12.883  69.610  1.00  0.00     0.879 C  
HETATM    6  C   UNL     1     -10.297  14.067  70.633  1.00  0.00     2.042 C  
HETATM    7  C   UNL     1      -9.869  15.349  69.852  1.00  0.00    -0.191 C  
HETATM    8  C   UNL     1      -9.235  14.782  68.587  1.00  0.00    -0.194 C  
HETATM    9  O   UNL     1      -7.959  14.275  69.053  1.00  0.00    -0.255 OA 
HETATM   10  C   UNL     1      -7.390   9.443  70.006  1.00  0.00    -0.101 C  
HETATM   11  C   UNL     1     -10.247  13.643  68.234  1.00  0.00    -0.243 C  
HETATM   12  C   UNL     1      -9.884  12.741  67.064  1.00  0.00    -0.231 C  
HETATM   13  H   UNL     1      -7.563  13.921  68.265  1.00  0.00     0.000 HD 
HETATM   14  O   UNL     1      -5.320   6.808  68.730  1.00  0.00    -0.015 OA 
HETATM   15  C   UNL     1      -6.770   8.247  69.960  1.00  0.00    -0.042 C  
HETATM   16  C   UNL     1     -11.635  14.204  67.798  1.00  0.00    -0.379 C  
HETATM   17  C   UNL     1      -8.660  11.970  67.352  1.00  0.00    -0.171 C  
HETATM   18  C   UNL     1      -6.107   7.741  68.705  1.00  0.00    -0.035 C  
HETATM   19  C   UNL     1      -8.724  11.097  68.591  1.00  0.00    -0.153 C  
HETATM   20  O   UNL     1      -7.730  12.007  66.546  1.00  0.00    -0.006 OA 
HETATM   21  C   UNL     1      -6.393   8.463  67.416  1.00  0.00    -0.057 C  
HETATM   22  C   UNL     1      -7.419  10.285  68.733  1.00  0.00    -0.089 C  
HETATM   23  C   UNL     1      -7.437   9.291  67.552  1.00  0.00    -0.088 C  
HETATM   24  C   UNL     1      -6.134  11.165  68.761  1.00  0.00    -0.043 C  
ENDROOT
BRANCH   8  25
HETATM   25  C   UNL     1      -8.729  15.624  67.422  1.00  0.00    -0.179 C  
HETATM   26  O   UNL     1      -8.604  15.088  66.306  1.00  0.00    -0.154 OA 
BRANCH  25  27
HETATM   27  C   UNL     1      -8.267  17.038  67.600  1.00  0.00    -0.185 C  
HETATM   28  O   UNL     1      -6.921  17.011  68.081  1.00  0.00    -0.163 OA 
HETATM   29  H   UNL     1      -6.628  17.908  68.194  1.00  0.00     0.000 HD 
ENDBRANCH  25  27
ENDBRANCH   8  25
TORSDOF 2
ENDMDL
MODEL      142
REMARK 921   NORMALIZED FREE ENERGY PREDICTED BY IDOCK:   21.95 KCAL/MOL
REMARK 922        TOTAL FREE ENERGY PREDICTED BY IDOCK:   24.07 KCAL/MOL
REMARK 923 INTER-LIGAND FREE ENERGY PREDICTED BY IDOCK:   23.91 KCAL/MOL
REMARK 924 INTRA-LIGAND FREE ENERGY PREDICTED BY IDOCK:    0.17 KCAL/MOL
REMARK 927      BINDING AFFINITY PREDICTED BY RF-SCORE:    0.00 PKD
ROOT
HETATM    1  C   UNL     1     -12.668  16.034  67.691  1.00  0.00     2.501 C  
HETATM    2  C   UNL     1     -12.784  15.424  69.100  1.00  0.00     0.390 C  
HETATM    3  C   UNL     1     -12.886  13.868  69.022  1.00  0.00     1.004 C  
HETATM    4  C   UNL     1     -11.511  13.203  68.750  1.00  0.00    -0.348 C  
HETATM    5  C   UNL     1     -11.536  11.637  68.502  1.00  0.00    -0.379 C  
HETATM    6  C   UNL     1     -11.967  11.302  67.036  1.00  0.00     0.610 C  
HETATM    7  C   UNL     1     -10.698  10.797  66.280  1.00  0.00    -0.205 C  
HETATM    8  C   UNL     1      -9.558  11.292  67.162  1.00  0.00    -0.177 C  
HETATM    9  O   UNL     1      -9.521  12.716  66.891  1.00  0.00    -0.215 OA 
HETATM   10  C   UNL     1     -11.665  15.908  70.021  1.00  0.00    -0.340 C  
HETATM   11  C   UNL     1     -10.118  10.960  68.585  1.00  0.00    -0.200 C  
HETATM   12  C   UNL     1      -9.293  11.429  69.774  1.00  0.00     1.228 C  
HETATM   13  H   UNL     1      -8.810  13.025  67.441  1.00  0.00     0.000 HD 
HETATM   14  O   UNL     1     -10.548  18.643  72.054  1.00  0.00     2.255 OA 
HETATM   15  C   UNL     1     -11.743  17.021  70.778  1.00  0.00     1.406 C  
HETATM   16  C   UNL     1     -10.212   9.424  68.835  1.00  0.00    -0.215 C  
HETATM   17  C   UNL     1      -9.223  12.902  69.820  1.00  0.00     2.446 C  
HETATM   18  C   UNL     1     -10.576  17.511  71.597  1.00  0.00     3.062 C  
HETATM   19  C   UNL     1     -10.564  13.609  69.894  1.00  0.00     0.648 C  
HETATM   20  O   UNL     1      -8.120  13.443  69.889  1.00  0.00     1.332 OA 
HETATM   21  C   UNL     1      -9.408  16.581  71.785  1.00  0.00     7.621 C  
HETATM   22  C   UNL     1     -10.350  15.132  70.020  1.00  0.00    -0.180 C  
HETATM   23  C   UNL     1      -9.723  15.333  71.416  1.00  0.00     2.329 C  
HETATM   24  C   UNL     1      -9.485  15.740  68.877  1.00  0.00    -0.229 C  
ENDROOT
BRANCH   8  25
HETATM   25  C   UNL     1      -8.084  10.982  66.925  1.00  0.00    -0.142 C  
HETATM   26  O   UNL     1      -7.229  11.607  67.577  1.00  0.00    -0.102 OA 
BRANCH  25  27
HETATM   27  C   UNL     1      -7.630  10.038  65.854  1.00  0.00    -0.114 C  
HETATM   28  O   UNL     1      -7.030   8.904  66.484  1.00  0.00    -0.078 OA 
HETATM   29  H   UNL     1      -6.742   8.304  65.805  1.00  0.00     0.000 HD 
ENDBRANCH  25  27
ENDBRANCH   8  25
TORSDOF 2
ENDMDL
MODEL      143
REMARK 921   NORMALIZED FREE ENERGY PREDICTED BY IDOCK:   22.42 KCAL/MOL
REMARK 922        TOTAL FREE ENERGY PREDICTED BY IDOCK:   24.60 KCAL/MOL
REMARK 923 INTER-LIGAND FREE ENERGY PREDICTED BY IDOCK:   24.68 KCAL/MOL
REMARK 924 INTRA-LIGAND FREE ENERGY PREDICTED BY IDOCK:   -0.08 KCAL/MOL
REMARK 927      BINDING AFFINITY PREDICTED BY RF-SCORE:    0.00 PKD
ROOT
HETATM    1  C   UNL     1     -12.678   7.054  67.642  1.00  0.00     8.311 C  
HETATM    2  C   UNL     1     -12.012   7.703  66.414  1.00  0.00     5.767 C  
HETATM    3  C   UNL     1     -11.592   9.174  66.725  1.00  0.00     2.823 C  
HETATM    4  C   UNL     1     -10.297   9.246  67.577  1.00  0.00    -0.323 C  
HETATM    5  C   UNL     1      -9.875  10.691  68.074  1.00  0.00    -0.177 C  
HETATM    6  C   UNL     1     -10.702  11.124  69.329  1.00  0.00    -0.241 C  
HETATM    7  C   UNL     1      -9.744  11.076  70.559  1.00  0.00     2.389 C  
HETATM    8  C   UNL     1      -8.596  10.203  70.063  1.00  0.00     0.016 C  
HETATM    9  O   UNL     1      -9.164   8.869  70.072  1.00  0.00    -0.159 OA 
HETATM   10  C   UNL     1     -10.864   6.850  65.876  1.00  0.00     2.034 C  
HETATM   11  C   UNL     1      -8.400  10.768  68.617  1.00  0.00    -0.141 C  
HETATM   12  C   UNL     1      -7.392  10.051  67.731  1.00  0.00    -0.089 C  
HETATM   13  H   UNL     1      -8.449   8.325  69.762  1.00  0.00     0.000 HD 
HETATM   14  O   UNL     1     -10.059   3.957  63.916  1.00  0.00    -0.178 OA 
HETATM   15  C   UNL     1     -11.018   5.877  64.955  1.00  0.00     3.583 C  
HETATM   16  C   UNL     1      -7.850  12.227  68.626  1.00  0.00    -0.063 C  
HETATM   17  C   UNL     1      -7.823   8.669  67.453  1.00  0.00    -0.098 C  
HETATM   18  C   UNL     1      -9.871   4.998  64.526  1.00  0.00     0.480 C  
HETATM   19  C   UNL     1      -9.181   8.539  66.788  1.00  0.00    -0.215 C  
HETATM   20  O   UNL     1      -7.043   7.744  67.681  1.00  0.00    -0.078 OA 
HETATM   21  C   UNL     1      -8.481   5.407  64.929  1.00  0.00    -0.148 C  
HETATM   22  C   UNL     1      -9.476   7.056  66.477  1.00  0.00    -0.199 C  
HETATM   23  C   UNL     1      -8.462   6.668  65.378  1.00  0.00    -0.112 C  
HETATM   24  C   UNL     1      -9.398   6.127  67.724  1.00  0.00    -0.109 C  
ENDROOT
BRANCH   8  25
HETATM   25  C   UNL     1      -7.326   9.911  70.855  1.00  0.00     0.279 C  
HETATM   26  O   UNL     1      -7.085   8.736  71.184  1.00  0.00    -0.072 OA 
BRANCH  25  27
HETATM   27  C   UNL     1      -6.425  11.001  71.347  1.00  0.00     1.614 C  
HETATM   28  O   UNL     1      -5.254  10.397  71.900  1.00  0.00    -0.211 OA 
HETATM   29  H   UNL     1      -4.681  11.088  72.212  1.00  0.00     0.000 HD 
ENDBRANCH  25  27
ENDBRANCH   8  25
TORSDOF 2
ENDMDL
MODEL      144
REMARK 921   NORMALIZED FREE ENERGY PREDICTED BY IDOCK:   23.80 KCAL/MOL
REMARK 922        TOTAL FREE ENERGY PREDICTED BY IDOCK:   26.14 KCAL/MOL
REMARK 923 INTER-LIGAND FREE ENERGY PREDICTED BY IDOCK:   26.45 KCAL/MOL
REMARK 924 INTRA-LIGAND FREE ENERGY PREDICTED BY IDOCK:   -0.31 KCAL/MOL
REMARK 927      BINDING AFFINITY PREDICTED BY RF-SCORE:    0.00 PKD
ROOT
HETATM    1  C   UNL     1     -11.288  16.191  66.975  1.00  0.00     0.216 C  
HETATM    2  C   UNL     1     -10.948  17.310  67.979  1.00  0.00    -0.194 C  
HETATM    3  C   UNL     1     -10.790  16.731  69.420  1.00  0.00    -0.250 C  
HETATM    4  C   UNL     1      -9.429  16.015  69.619  1.00  0.00    -0.082 C  
HETATM    5  C   UNL     1      -9.238  15.261  71.001  1.00  0.00     2.321 C  
HETATM    6  C   UNL     1      -9.949  13.868  70.991  1.00  0.00     4.504 C  
HETATM    7  C   UNL     1      -8.834  12.777  70.927  1.00  0.00     9.945 C  
HETATM    8  C   UNL     1      -7.618  13.560  70.447  1.00  0.00     2.326 C  
HETATM    9  O   UNL     1      -7.900  13.784  69.042  1.00  0.00    -0.306 OA 
HETATM   10  C   UNL     1      -9.740  18.129  67.524  1.00  0.00    -0.304 C  
HETATM   11  C   UNL     1      -7.747  14.862  71.305  1.00  0.00     2.697 C  
HETATM   12  C   UNL     1      -6.752  15.976  71.015  1.00  0.00     1.827 C  
HETATM   13  H   UNL     1      -7.141  14.272  68.742  1.00  0.00     0.000 HD 
HETATM   14  O   UNL     1      -8.659  20.737  65.313  1.00  0.00     0.729 OA 
HETATM   15  C   UNL     1      -9.825  19.219  66.734  1.00  0.00    -0.430 C  
HETATM   16  C   UNL     1      -7.505  14.592  72.821  1.00  0.00     5.186 C  
HETATM   17  C   UNL     1      -6.933  16.503  69.649  1.00  0.00    -0.026 C  
HETATM   18  C   UNL     1      -8.599  19.938  66.234  1.00  0.00    -0.337 C  
HETATM   19  C   UNL     1      -8.317  17.044  69.345  1.00  0.00     0.289 C  
HETATM   20  O   UNL     1      -5.958  16.557  68.898  1.00  0.00    -0.135 OA 
HETATM   21  C   UNL     1      -7.275  19.594  66.863  1.00  0.00    -0.237 C  
HETATM   22  C   UNL     1      -8.350  17.637  67.920  1.00  0.00    -0.235 C  
HETATM   23  C   UNL     1      -7.446  18.887  67.987  1.00  0.00    -0.277 C  
HETATM   24  C   UNL     1      -7.911  16.633  66.814  1.00  0.00    -0.290 C  
ENDROOT
BRANCH   8  25
HETATM   25  C   UNL     1      -6.216  12.978  70.304  1.00  0.00     0.008 C  
HETATM   26  O   UNL     1      -5.583  12.685  71.334  1.00  0.00    -0.379 OA 
BRANCH  25  27
HETATM   27  C   UNL     1      -5.534  12.858  68.976  1.00  0.00    -0.069 C  
HETATM   28  O   UNL     1      -6.185  11.827  68.231  1.00  0.00    -0.049 OA 
HETATM   29  H   UNL     1      -5.753  11.750  67.388  1.00  0.00     0.000 HD 
ENDBRANCH  25  27
ENDBRANCH   8  25
TORSDOF 2
ENDMDL
MODEL      145
REMARK 921   NORMALIZED FREE ENERGY PREDICTED BY IDOCK:   24.45 KCAL/MOL
REMARK 922        TOTAL FREE ENERGY PREDICTED BY IDOCK:   26.86 KCAL/MOL
REMARK 923 INTER-LIGAND FREE ENERGY PREDICTED BY IDOCK:   21.95 KCAL/MOL
REMARK 924 INTRA-LIGAND FREE ENERGY PREDICTED BY IDOCK:    4.91 KCAL/MOL
REMARK 927      BINDING AFFINITY PREDICTED BY RF-SCORE:    0.00 PKD
ROOT
HETATM    1  C   UNL     1     -10.116  17.521  72.040  1.00  0.00     6.289 C  
HETATM    2  C   UNL     1     -10.182  16.183  71.280  1.00  0.00     1.777 C  
HETATM    3  C   UNL     1     -10.994  16.339  69.955  1.00  0.00    -0.356 C  
HETATM    4  C   UNL     1     -10.169  17.033  68.840  1.00  0.00    -0.322 C  
HETATM    5  C   UNL     1     -10.957  17.375  67.507  1.00  0.00    -0.089 C  
HETATM    6  C   UNL     1     -11.805  18.680  67.667  1.00  0.00     2.106 C  
HETATM    7  C   UNL     1     -11.106  19.796  66.830  1.00  0.00    -0.165 C  
HETATM    8  C   UNL     1      -9.702  19.239  66.625  1.00  0.00    -0.353 C  
HETATM    9  O   UNL     1      -9.083  19.407  67.926  1.00  0.00    -0.305 OA 
HETATM   10  C   UNL     1      -8.793  15.583  71.067  1.00  0.00     2.877 C  
HETATM   11  C   UNL     1     -10.022  17.743  66.296  1.00  0.00    -0.322 C  
HETATM   12  C   UNL     1      -8.834  16.805  66.142  1.00  0.00    -0.298 C  
HETATM   13  H   UNL     1      -8.208  19.060  67.799  1.00  0.00     0.000 HD 
HETATM   14  O   UNL     1      -6.138  13.759  72.643  1.00  0.00    -0.232 OA 
HETATM   15  C   UNL     1      -8.187  14.758  71.945  1.00  0.00     5.235 C  
HETATM   16  C   UNL     1     -10.745  17.586  64.924  1.00  0.00     0.691 C  
HETATM   17  C   UNL     1      -8.095  16.677  67.412  1.00  0.00    -0.167 C  
HETATM   18  C   UNL     1      -6.778  14.268  71.736  1.00  0.00     1.680 C  
HETATM   19  C   UNL     1      -8.915  16.178  68.587  1.00  0.00    -0.221 C  
HETATM   20  O   UNL     1      -6.881  16.883  67.417  1.00  0.00    -0.133 OA 
HETATM   21  C   UNL     1      -6.150  14.483  70.386  1.00  0.00    -0.176 C  
HETATM   22  C   UNL     1      -8.011  16.009  69.827  1.00  0.00     0.297 C  
HETATM   23  C   UNL     1      -7.070  14.836  69.479  1.00  0.00    -0.172 C  
HETATM   24  C   UNL     1      -7.240  17.304  70.221  1.00  0.00     1.774 C  
ENDROOT
BRANCH   8  25
HETATM   25  C   UNL     1      -8.623  19.904  65.777  1.00  0.00     0.006 C  
HETATM   26  O   UNL     1      -8.584  21.146  65.725  1.00  0.00     1.262 OA 
BRANCH  25  27
HETATM   27  C   UNL     1      -7.685  19.114  64.917  1.00  0.00     1.788 C  
HETATM   28  O   UNL     1      -7.183  18.022  65.690  1.00  0.00    -0.516 OA 
HETATM   29  H   UNL     1      -6.588  17.520  65.145  1.00  0.00     0.000 HD 
ENDBRANCH  25  27
ENDBRANCH   8  25
TORSDOF 2
ENDMDL
MODEL      146
REMARK 921   NORMALIZED FREE ENERGY PREDICTED BY IDOCK:   26.76 KCAL/MOL
REMARK 922        TOTAL FREE ENERGY PREDICTED BY IDOCK:   29.45 KCAL/MOL
REMARK 923 INTER-LIGAND FREE ENERGY PREDICTED BY IDOCK:   29.33 KCAL/MOL
REMARK 924 INTRA-LIGAND FREE ENERGY PREDICTED BY IDOCK:    0.12 KCAL/MOL
REMARK 927      BINDING AFFINITY PREDICTED BY RF-SCORE:    0.00 PKD
ROOT
HETATM    1  C   UNL     1     -11.242  11.439  69.734  1.00  0.00    -0.266 C  
HETATM    2  C   UNL     1     -11.565  10.182  70.563  1.00  0.00    -0.411 C  
HETATM    3  C   UNL     1     -12.050   9.020  69.641  1.00  0.00     1.016 C  
HETATM    4  C   UNL     1     -10.877   8.335  68.893  1.00  0.00     0.002 C  
HETATM    5  C   UNL     1     -11.284   7.244  67.816  1.00  0.00     0.125 C  
HETATM    6  C   UNL     1     -11.726   7.912  66.472  1.00  0.00     4.213 C  
HETATM    7  C   UNL     1     -10.595   7.652  65.428  1.00  0.00     3.963 C  
HETATM    8  C   UNL     1      -9.403   7.281  66.303  1.00  0.00    -0.108 C  
HETATM    9  O   UNL     1      -9.000   8.552  66.873  1.00  0.00    -0.135 OA 
HETATM   10  C   UNL     1     -10.397   9.785  71.467  1.00  0.00     0.370 C  
HETATM   11  C   UNL     1     -10.086   6.338  67.349  1.00  0.00    -0.191 C  
HETATM   12  C   UNL     1      -9.218   5.844  68.496  1.00  0.00    -0.119 C  
HETATM   13  H   UNL     1      -8.257   8.321  67.419  1.00  0.00     0.000 HD 
HETATM   14  O   UNL     1      -8.713  10.535  74.542  1.00  0.00     7.430 OA 
HETATM   15  C   UNL     1     -10.224  10.252  72.720  1.00  0.00     7.809 C  
HETATM   16  C   UNL     1     -10.572   5.003  66.706  1.00  0.00    -0.220 C  
HETATM   17  C   UNL     1      -8.783   6.965  69.350  1.00  0.00    -0.133 C  
HETATM   18  C   UNL     1      -9.006   9.906  73.537  1.00  0.00     7.066 C  
HETATM   19  C   UNL     1      -9.905   7.788  69.954  1.00  0.00    -0.177 C  
HETATM   20  O   UNL     1      -7.582   7.101  69.587  1.00  0.00    -0.098 OA 
HETATM   21  C   UNL     1      -8.117   8.798  73.043  1.00  0.00     0.213 C  
HETATM   22  C   UNL     1      -9.321   8.872  70.886  1.00  0.00    -0.295 C  
HETATM   23  C   UNL     1      -8.720   8.093  72.077  1.00  0.00    -0.221 C  
HETATM   24  C   UNL     1      -8.285   9.804  70.191  1.00  0.00    -0.202 C  
ENDROOT
BRANCH   8  25
HETATM   25  C   UNL     1      -8.046   6.834  65.771  1.00  0.00    -0.123 C  
HETATM   26  O   UNL     1      -7.847   5.619  65.587  1.00  0.00    -0.093 OA 
BRANCH  25  27
HETATM   27  C   UNL     1      -6.912   7.791  65.575  1.00  0.00    -0.053 C  
HETATM   28  O   UNL     1      -5.714   7.166  66.042  1.00  0.00    -0.030 OA 
HETATM   29  H   UNL     1      -4.994   7.774  65.917  1.00  0.00     0.000 HD 
ENDBRANCH  25  27
ENDBRANCH   8  25
TORSDOF 2
ENDMDL
MODEL      147
REMARK 921   NORMALIZED FREE ENERGY PREDICTED BY IDOCK:   36.44 KCAL/MOL
REMARK 922        TOTAL FREE ENERGY PREDICTED BY IDOCK:   40.26 KCAL/MOL
REMARK 923 INTER-LIGAND FREE ENERGY PREDICTED BY IDOCK:   40.49 KCAL/MOL
REMARK 924 INTRA-LIGAND FREE ENERGY PREDICTED BY IDOCK:   -0.24 KCAL/MOL
REMARK 927      BINDING AFFINITY PREDICTED BY RF-SCORE:    0.00 PKD
ROOT
HETATM    1  C   UNL     1     -12.469   7.224  63.405  1.00  0.00    21.283 C  
HETATM    2  C   UNL     1     -11.383   6.696  62.449  1.00  0.00     9.115 C  
HETATM    3  C   UNL     1     -10.196   7.705  62.350  1.00  0.00     5.737 C  
HETATM    4  C   UNL     1      -9.264   7.637  63.589  1.00  0.00     1.972 C  
HETATM    5  C   UNL     1      -8.117   8.730  63.653  1.00  0.00    -0.169 C  
HETATM    6  C   UNL     1      -8.667  10.102  64.164  1.00  0.00    -0.216 C  
HETATM    7  C   UNL     1      -8.123  10.313  65.611  1.00  0.00    -0.155 C  
HETATM    8  C   UNL     1      -7.700   8.908  66.024  1.00  0.00    -0.098 C  
HETATM    9  O   UNL     1      -8.963   8.239  66.272  1.00  0.00    -0.162 OA 
HETATM   10  C   UNL     1     -10.942   5.281  62.821  1.00  0.00     2.282 C  
HETATM   11  C   UNL     1      -6.999   8.414  64.715  1.00  0.00    -0.072 C  
HETATM   12  C   UNL     1      -6.535   6.965  64.690  1.00  0.00    -0.042 C  
HETATM   13  H   UNL     1      -8.699   7.362  66.529  1.00  0.00     0.000 HD 
HETATM   14  O   UNL     1     -11.823   1.811  62.621  1.00  0.00    -0.253 OA 
HETATM   15  C   UNL     1     -11.532   4.162  62.353  1.00  0.00     0.522 C  
HETATM   16  C   UNL     1      -5.677   9.188  64.428  1.00  0.00    -0.068 C  
HETATM   17  C   UNL     1      -7.682   6.042  64.779  1.00  0.00    -0.101 C  
HETATM   18  C   UNL     1     -11.122   2.790  62.823  1.00  0.00    -0.117 C  
HETATM   19  C   UNL     1      -8.723   6.200  63.687  1.00  0.00     0.448 C  
HETATM   20  O   UNL     1      -7.676   5.168  65.646  1.00  0.00    -0.085 OA 
HETATM   21  C   UNL     1      -9.847   2.667  63.612  1.00  0.00    -0.136 C  
HETATM   22  C   UNL     1      -9.821   5.126  63.845  1.00  0.00     0.859 C  
HETATM   23  C   UNL     1      -9.120   3.788  63.528  1.00  0.00    -0.109 C  
HETATM   24  C   UNL     1     -10.504   5.132  65.244  1.00  0.00     0.340 C  
ENDROOT
BRANCH   8  25
HETATM   25  C   UNL     1      -7.004   8.565  67.336  1.00  0.00    -0.078 C  
HETATM   26  O   UNL     1      -7.301   7.501  67.910  1.00  0.00    -0.093 OA 
BRANCH  25  27
HETATM   27  C   UNL     1      -6.064   9.515  68.013  1.00  0.00    -0.052 C  
HETATM   28  O   UNL     1      -6.819  10.312  68.929  1.00  0.00    -0.056 OA 
HETATM   29  H   UNL     1      -6.223  10.915  69.358  1.00  0.00     0.000 HD 
ENDBRANCH  25  27
ENDBRANCH   8  25
TORSDOF 2
ENDMDL
MODEL      148
REMARK 921   NORMALIZED FREE ENERGY PREDICTED BY IDOCK:   42.41 KCAL/MOL
REMARK 922        TOTAL FREE ENERGY PREDICTED BY IDOCK:   46.93 KCAL/MOL
REMARK 923 INTER-LIGAND FREE ENERGY PREDICTED BY IDOCK:   47.10 KCAL/MOL
REMARK 924 INTRA-LIGAND FREE ENERGY PREDICTED BY IDOCK:   -0.17 KCAL/MOL
REMARK 927      BINDING AFFINITY PREDICTED BY RF-SCORE:    0.00 PKD
ROOT
HETATM    1  C   UNL     1     -13.171  14.527  68.652  1.00  0.00     2.692 C  
HETATM    2  C   UNL     1     -12.326  13.463  69.377  1.00  0.00    -0.126 C  
HETATM    3  C   UNL     1     -11.537  12.590  68.352  1.00  0.00    -0.368 C  
HETATM    4  C   UNL     1     -10.291  13.325  67.791  1.00  0.00    -0.233 C  
HETATM    5  C   UNL     1      -9.512  12.579  66.629  1.00  0.00    -0.242 C  
HETATM    6  C   UNL     1     -10.225  12.775  65.251  1.00  0.00    -0.296 C  
HETATM    7  C   UNL     1      -9.344  13.746  64.404  1.00  0.00     2.207 C  
HETATM    8  C   UNL     1      -8.459  14.407  65.454  1.00  0.00     3.198 C  
HETATM    9  O   UNL     1      -9.362  15.325  66.121  1.00  0.00    -0.290 OA 
HETATM   10  C   UNL     1     -11.434  14.085  70.451  1.00  0.00    -0.107 C  
HETATM   11  C   UNL     1      -8.083  13.174  66.342  1.00  0.00     0.811 C  
HETATM   12  C   UNL     1      -7.281  13.456  67.603  1.00  0.00    -0.167 C  
HETATM   13  H   UNL     1      -8.810  15.736  66.777  1.00  0.00     0.000 HD 
HETATM   14  O   UNL     1     -11.380  15.401  73.786  1.00  0.00     0.209 OA 
HETATM   15  C   UNL     1     -11.818  14.278  71.729  1.00  0.00     0.047 C  
HETATM   16  C   UNL     1      -7.165  12.165  65.587  1.00  0.00     2.289 C  
HETATM   17  C   UNL     1      -8.058  14.277  68.551  1.00  0.00    -0.147 C  
HETATM   18  C   UNL     1     -10.937  14.983  72.728  1.00  0.00     1.053 C  
HETATM   19  C   UNL     1      -9.384  13.680  68.983  1.00  0.00     0.275 C  
HETATM   20  O   UNL     1      -7.558  15.313  68.989  1.00  0.00    -0.142 OA 
HETATM   21  C   UNL     1      -9.498  15.217  72.356  1.00  0.00     5.963 C  
HETATM   22  C   UNL     1     -10.056  14.592  70.032  1.00  0.00     0.334 C  
HETATM   23  C   UNL     1      -9.155  14.495  71.282  1.00  0.00     4.280 C  
HETATM   24  C   UNL     1     -10.259  16.058  69.548  1.00  0.00    -0.274 C  
ENDROOT
BRANCH   8  25
HETATM   25  C   UNL     1      -7.333  15.387  65.144  1.00  0.00     8.722 C  
HETATM   26  O   UNL     1      -6.417  15.023  64.384  1.00  0.00    16.487 OA 
BRANCH  25  27
HETATM   27  C   UNL     1      -7.232  16.723  65.812  1.00  0.00     0.850 C  
HETATM   28  O   UNL     1      -5.949  17.277  65.513  1.00  0.00     0.072 OA 
HETATM   29  H   UNL     1      -5.885  18.125  65.936  1.00  0.00     0.000 HD 
ENDBRANCH  25  27
ENDBRANCH   8  25
TORSDOF 2
ENDMDL
MODEL      149
REMARK 921   NORMALIZED FREE ENERGY PREDICTED BY IDOCK:   62.88 KCAL/MOL
REMARK 922        TOTAL FREE ENERGY PREDICTED BY IDOCK:   69.79 KCAL/MOL
REMARK 923 INTER-LIGAND FREE ENERGY PREDICTED BY IDOCK:   69.39 KCAL/MOL
REMARK 924 INTRA-LIGAND FREE ENERGY PREDICTED BY IDOCK:    0.40 KCAL/MOL
REMARK 927      BINDING AFFINITY PREDICTED BY RF-SCORE:    0.00 PKD
ROOT
HETATM    1  C   UNL     1      -6.631  16.079  66.225  1.00  0.00     1.442 C  
HETATM    2  C   UNL     1      -5.865  15.076  67.108  1.00  0.00     0.636 C  
HETATM    3  C   UNL     1      -5.448  15.736  68.460  1.00  0.00    -0.102 C  
HETATM    4  C   UNL     1      -6.634  15.841  69.453  1.00  0.00    -0.174 C  
HETATM    5  C   UNL     1      -6.347  16.636  70.795  1.00  0.00     1.119 C  
HETATM    6  C   UNL     1      -6.425  18.181  70.567  1.00  0.00     0.855 C  
HETATM    7  C   UNL     1      -7.732  18.689  71.252  1.00  0.00     5.441 C  
HETATM    8  C   UNL     1      -8.546  17.411  71.421  1.00  0.00     9.586 C  
HETATM    9  O   UNL     1      -9.003  17.127  70.075  1.00  0.00     1.184 OA 
HETATM   10  C   UNL     1      -6.643  13.773  67.290  1.00  0.00     0.242 C  
HETATM   11  C   UNL     1      -7.439  16.417  71.907  1.00  0.00     8.061 C  
HETATM   12  C   UNL     1      -7.848  14.962  72.073  1.00  0.00     4.865 C  
HETATM   13  H   UNL     1      -9.510  16.330  70.180  1.00  0.00     0.000 HD 
HETATM   14  O   UNL     1      -7.519  10.666  65.729  1.00  0.00    -0.149 OA 
HETATM   15  C   UNL     1      -6.546  12.717  66.456  1.00  0.00     1.512 C  
HETATM   16  C   UNL     1      -6.911  16.775  73.329  1.00  0.00     9.591 C  
HETATM   17  C   UNL     1      -8.230  14.369  70.778  1.00  0.00     2.816 C  
HETATM   18  C   UNL     1      -7.405  11.490  66.622  1.00  0.00    -0.069 C  
HETATM   19  C   UNL     1      -7.157  14.415  69.706  1.00  0.00    -0.007 C  
HETATM   20  O   UNL     1      -9.322  13.808  70.679  1.00  0.00     3.566 OA 
HETATM   21  C   UNL     1      -8.175  11.338  67.906  1.00  0.00    -0.123 C  
HETATM   22  C   UNL     1      -7.650  13.693  68.434  1.00  0.00    -0.132 C  
HETATM   23  C   UNL     1      -7.744  12.204  68.831  1.00  0.00     0.036 C  
HETATM   24  C   UNL     1      -8.991  14.254  67.876  1.00  0.00    -0.186 C  
ENDROOT
BRANCH   8  25
HETATM   25  C   UNL     1      -9.890  17.329  72.136  1.00  0.00     8.245 C  
HETATM   26  O   UNL     1      -9.983  16.621  73.155  1.00  0.00     7.348 OA 
BRANCH  25  27
HETATM   27  C   UNL     1     -11.125  17.977  71.589  1.00  0.00     2.942 C  
HETATM   28  O   UNL     1     -10.735  19.159  70.886  1.00  0.00     0.841 OA 
HETATM   29  H   UNL     1     -11.518  19.570  70.539  1.00  0.00     0.000 HD 
ENDBRANCH  25  27
ENDBRANCH   8  25
TORSDOF 2
ENDMDL
MODEL      150
REMARK 921   NORMALIZED FREE ENERGY PREDICTED BY IDOCK:   65.82 KCAL/MOL
REMARK 922        TOTAL FREE ENERGY PREDICTED BY IDOCK:   73.07 KCAL/MOL
REMARK 923 INTER-LIGAND FREE ENERGY PREDICTED BY IDOCK:   72.50 KCAL/MOL
REMARK 924 INTRA-LIGAND FREE ENERGY PREDICTED BY IDOCK:    0.57 KCAL/MOL
REMARK 927      BINDING AFFINITY PREDICTED BY RF-SCORE:    0.00 PKD
ROOT
HETATM    1  C   UNL     1      -9.819  11.504  66.766  1.00  0.00    -0.227 C  
HETATM    2  C   UNL     1     -10.475  12.878  66.998  1.00  0.00    -0.244 C  
HETATM    3  C   UNL     1     -11.800  12.729  67.808  1.00  0.00    -0.387 C  
HETATM    4  C   UNL     1     -11.541  12.498  69.320  1.00  0.00    -0.378 C  
HETATM    5  C   UNL     1     -12.821  12.182  70.202  1.00  0.00     0.348 C  
HETATM    6  C   UNL     1     -13.248  10.683  70.065  1.00  0.00     0.362 C  
HETATM    7  C   UNL     1     -12.888   9.971  71.406  1.00  0.00    -0.519 C  
HETATM    8  C   UNL     1     -11.887  10.929  72.042  1.00  0.00     1.577 C  
HETATM    9  O   UNL     1     -10.684  10.722  71.259  1.00  0.00     0.598 OA 
HETATM   10  C   UNL     1      -9.497  13.874  67.622  1.00  0.00    -0.212 C  
HETATM   11  C   UNL     1     -12.570  12.307  71.750  1.00  0.00    -0.132 C  
HETATM   12  C   UNL     1     -11.790  13.554  72.137  1.00  0.00     1.480 C  
HETATM   13  H   UNL     1     -10.060  11.320  71.655  1.00  0.00     0.000 HD 
HETATM   14  O   UNL     1      -6.752  16.076  66.935  1.00  0.00    -0.251 OA 
HETATM   15  C   UNL     1      -8.680  14.674  66.907  1.00  0.00    -0.251 C  
HETATM   16  C   UNL     1     -13.896  12.486  72.550  1.00  0.00    -0.022 C  
HETATM   17  C   UNL     1     -10.548  13.667  71.349  1.00  0.00     4.678 C  
HETATM   18  C   UNL     1      -7.665  15.570  67.568  1.00  0.00    -0.171 C  
HETATM   19  C   UNL     1     -10.741  13.704  69.844  1.00  0.00     0.486 C  
HETATM   20  O   UNL     1      -9.479  13.814  71.941  1.00  0.00     7.813 OA 
HETATM   21  C   UNL     1      -7.769  15.777  69.055  1.00  0.00    -0.202 C  
HETATM   22  C   UNL     1      -9.381  13.906  69.143  1.00  0.00     0.309 C  
HETATM   23  C   UNL     1      -8.947  15.339  69.519  1.00  0.00    -0.183 C  
HETATM   24  C   UNL     1      -8.316  12.835  69.522  1.00  0.00     1.417 C  
ENDROOT
BRANCH   8  25
HETATM   25  C   UNL     1     -11.283  10.753  73.431  1.00  0.00    12.101 C  
HETATM   26  O   UNL     1     -11.334   9.631  73.967  1.00  0.00     7.349 OA 
BRANCH  25  27
HETATM   27  C   UNL     1     -10.738  11.906  74.216  1.00  0.00    22.101 C  
HETATM   28  O   UNL     1      -9.337  11.695  74.405  1.00  0.00    15.055 OA 
HETATM   29  H   UNL     1      -8.991  12.427  74.903  1.00  0.00     0.000 HD 
ENDBRANCH  25  27
ENDBRANCH   8  25
TORSDOF 2
ENDMDL
