MODEL        1
REMARK 921   NORMALIZED FREE ENERGY PREDICTED BY IDOCK:   -6.30 KCAL/MOL
REMARK 922        TOTAL FREE ENERGY PREDICTED BY IDOCK:   -7.49 KCAL/MOL
REMARK 923 INTER-LIGAND FREE ENERGY PREDICTED BY IDOCK:   -7.41 KCAL/MOL
REMARK 924 INTRA-LIGAND FREE ENERGY PREDICTED BY IDOCK:   -0.08 KCAL/MOL
REMARK 927      BINDING AFFINITY PREDICTED BY RF-SCORE:    0.00 PKD
ROOT
HETATM    1  C   UNL     1     -12.079  10.495  70.975  1.00  0.00    -0.492 C  
HETATM    2  C   UNL     1     -11.207  10.412  69.735  1.00  0.00    -0.353 C  
ENDROOT
BRANCH   2   3
HETATM    3  C   UNL     1     -11.538  11.542  68.774  1.00  0.00    -0.379 C  
HETATM    4  C   UNL     1     -11.823  12.512  67.950  1.00  0.00    -0.383 C  
HETATM    5  C   UNL     1     -12.154  13.642  66.989  1.00  0.00    -0.423 C  
HETATM    6  C   UNL     1     -12.034  14.964  67.755  1.00  0.00    -0.192 C  
HETATM    7  C   UNL     1     -11.353  13.454  65.649  1.00  0.00    -0.316 C  
HETATM    8  O   UNL     1      -9.209  12.443  66.170  1.00  0.00    -0.198 OA 
HETATM    9  C   UNL     1     -11.703  14.591  64.714  1.00  0.00    -0.422 C  
HETATM   10  C   UNL     1      -8.277  14.831  67.207  1.00  0.00    -0.213 C  
HETATM   11  O   UNL     1     -12.721  14.620  64.022  1.00  0.00    -0.772 OA 
HETATM   12  N   UNL     1     -10.872  15.676  64.754  1.00  0.00    -0.605 N  
HETATM   13  H   UNL     1     -11.066  16.429  64.093  1.00  0.00     0.000 HD 
HETATM   14  C   UNL     1      -9.807  15.851  65.592  1.00  0.00    -0.302 C  
HETATM   15  C   UNL     1      -9.875  13.464  66.002  1.00  0.00    -0.263 C  
HETATM   16  N   UNL     1      -9.372  14.731  66.263  1.00  0.00    -0.292 N  
HETATM   17  O   UNL     1      -9.318  16.971  65.717  1.00  0.00    -0.524 OA 
BRANCH   7  18
HETATM   18  C   UNL     1     -11.792  12.105  64.994  1.00  0.00    -0.357 C  
BRANCH  18  19
HETATM   19  C   UNL     1     -11.283  11.826  63.600  1.00  0.00    -0.519 C  
HETATM   20  C   UNL     1     -10.277  10.980  63.342  1.00  0.00    -0.404 C  
ENDBRANCH  18  19
ENDBRANCH   7  18
ENDBRANCH   2   3
TORSDOF 3
ENDMDL
MODEL        2
REMARK 921   NORMALIZED FREE ENERGY PREDICTED BY IDOCK:   -5.68 KCAL/MOL
REMARK 922        TOTAL FREE ENERGY PREDICTED BY IDOCK:   -6.76 KCAL/MOL
REMARK 923 INTER-LIGAND FREE ENERGY PREDICTED BY IDOCK:   -6.73 KCAL/MOL
REMARK 924 INTRA-LIGAND FREE ENERGY PREDICTED BY IDOCK:   -0.03 KCAL/MOL
REMARK 927      BINDING AFFINITY PREDICTED BY RF-SCORE:    0.00 PKD
ROOT
HETATM    1  C   UNL     1     -12.003  10.980  70.304  1.00  0.00    -0.452 C  
HETATM    2  C   UNL     1     -11.554  10.945  68.854  1.00  0.00    -0.378 C  
ENDROOT
BRANCH   2   3
HETATM    3  C   UNL     1     -11.559  12.344  68.261  1.00  0.00    -0.384 C  
HETATM    4  C   UNL     1     -11.564  13.546  67.753  1.00  0.00    -0.374 C  
HETATM    5  C   UNL     1     -11.569  14.944  67.159  1.00  0.00    -0.327 C  
HETATM    6  C   UNL     1     -11.748  15.944  68.308  1.00  0.00    -0.191 C  
HETATM    7  C   UNL     1     -10.353  15.111  66.177  1.00  0.00    -0.313 C  
HETATM    8  O   UNL     1      -8.498  13.794  67.020  1.00  0.00    -0.201 OA 
HETATM    9  C   UNL     1     -10.385  16.511  65.603  1.00  0.00    -0.322 C  
HETATM   10  C   UNL     1      -8.029  15.641  69.025  1.00  0.00    -0.208 C  
HETATM   11  O   UNL     1     -11.104  16.849  64.662  1.00  0.00    -0.934 OA 
HETATM   12  N   UNL     1      -9.642  17.448  66.267  1.00  0.00    -0.264 N  
HETATM   13  H   UNL     1      -9.613  18.384  65.862  1.00  0.00     0.000 HD 
HETATM   14  C   UNL     1      -8.934  17.252  67.419  1.00  0.00    -0.222 C  
HETATM   15  C   UNL     1      -9.086  14.874  66.983  1.00  0.00    -0.237 C  
HETATM   16  N   UNL     1      -8.731  15.943  67.793  1.00  0.00    -0.169 N  
HETATM   17  O   UNL     1      -8.541  18.226  68.056  1.00  0.00    -0.257 OA 
BRANCH   7  18
HETATM   18  C   UNL     1     -10.511  14.082  65.013  1.00  0.00    -0.440 C  
BRANCH  18  19
HETATM   19  C   UNL     1     -11.916  13.793  64.542  1.00  0.00    -0.458 C  
HETATM   20  C   UNL     1     -12.212  12.826  63.664  1.00  0.00    -0.597 C  
ENDBRANCH  18  19
ENDBRANCH   7  18
ENDBRANCH   2   3
TORSDOF 3
ENDMDL
MODEL        3
REMARK 921   NORMALIZED FREE ENERGY PREDICTED BY IDOCK:   -5.62 KCAL/MOL
REMARK 922        TOTAL FREE ENERGY PREDICTED BY IDOCK:   -6.68 KCAL/MOL
REMARK 923 INTER-LIGAND FREE ENERGY PREDICTED BY IDOCK:   -6.60 KCAL/MOL
REMARK 924 INTRA-LIGAND FREE ENERGY PREDICTED BY IDOCK:   -0.08 KCAL/MOL
REMARK 927      BINDING AFFINITY PREDICTED BY RF-SCORE:    0.00 PKD
ROOT
HETATM    1  C   UNL     1     -10.952   9.803  70.612  1.00  0.00    -0.398 C  
HETATM    2  C   UNL     1     -11.814  11.041  70.438  1.00  0.00    -0.460 C  
ENDROOT
BRANCH   2   3
HETATM    3  C   UNL     1     -11.761  11.529  69.000  1.00  0.00    -0.400 C  
HETATM    4  C   UNL     1     -11.717  11.949  67.766  1.00  0.00    -0.362 C  
HETATM    5  C   UNL     1     -11.664  12.437  66.328  1.00  0.00    -0.457 C  
HETATM    6  C   UNL     1     -12.783  13.468  66.137  1.00  0.00    -0.232 C  
HETATM    7  C   UNL     1     -10.187  12.827  65.951  1.00  0.00    -0.300 C  
HETATM    8  O   UNL     1      -9.098  13.715  67.929  1.00  0.00    -0.181 OA 
HETATM    9  C   UNL     1     -10.167  13.307  64.517  1.00  0.00    -0.310 C  
HETATM   10  C   UNL     1     -10.516  16.079  67.712  1.00  0.00    -0.298 C  
HETATM   11  O   UNL     1     -10.145  12.555  63.542  1.00  0.00    -0.393 OA 
HETATM   12  N   UNL     1     -10.292  14.657  64.336  1.00  0.00    -0.321 N  
HETATM   13  H   UNL     1     -10.229  15.001  63.377  1.00  0.00     0.000 HD 
HETATM   14  C   UNL     1     -10.494  15.591  65.314  1.00  0.00    -0.411 C  
HETATM   15  C   UNL     1      -9.752  13.924  66.908  1.00  0.00    -0.268 C  
HETATM   16  N   UNL     1     -10.283  15.170  66.607  1.00  0.00    -0.260 N  
HETATM   17  O   UNL     1     -10.861  16.719  65.000  1.00  0.00    -0.653 OA 
BRANCH   7  18
HETATM   18  C   UNL     1      -9.292  11.552  66.071  1.00  0.00    -0.239 C  
BRANCH  18  19
HETATM   19  C   UNL     1      -9.954  10.224  65.793  1.00  0.00    -0.337 C  
HETATM   20  C   UNL     1      -9.445   9.052  66.194  1.00  0.00    -0.318 C  
ENDBRANCH  18  19
ENDBRANCH   7  18
ENDBRANCH   2   3
TORSDOF 3
ENDMDL
MODEL        4
REMARK 921   NORMALIZED FREE ENERGY PREDICTED BY IDOCK:   -5.60 KCAL/MOL
REMARK 922        TOTAL FREE ENERGY PREDICTED BY IDOCK:   -6.66 KCAL/MOL
REMARK 923 INTER-LIGAND FREE ENERGY PREDICTED BY IDOCK:   -6.52 KCAL/MOL
REMARK 924 INTRA-LIGAND FREE ENERGY PREDICTED BY IDOCK:   -0.14 KCAL/MOL
REMARK 927      BINDING AFFINITY PREDICTED BY RF-SCORE:    0.00 PKD
ROOT
HETATM    1  C   UNL     1     -13.684  15.256  72.485  1.00  0.00    -0.627 C  
HETATM    2  C   UNL     1     -12.897  14.270  71.641  1.00  0.00    -0.424 C  
ENDROOT
BRANCH   2   3
HETATM    3  C   UNL     1     -12.325  14.958  70.413  1.00  0.00    -0.401 C  
HETATM    4  C   UNL     1     -11.834  15.549  69.359  1.00  0.00    -0.392 C  
HETATM    5  C   UNL     1     -11.261  16.237  68.131  1.00  0.00    -0.298 C  
HETATM    6  C   UNL     1     -10.380  17.397  68.607  1.00  0.00    -0.364 C  
HETATM    7  C   UNL     1     -10.658  15.164  67.151  1.00  0.00    -0.295 C  
HETATM    8  O   UNL     1      -9.747  13.344  68.473  1.00  0.00    -0.218 OA 
HETATM    9  C   UNL     1     -10.098  15.878  65.941  1.00  0.00    -0.352 C  
HETATM   10  C   UNL     1      -7.584  14.899  69.217  1.00  0.00    -0.170 C  
HETATM   11  O   UNL     1     -10.784  16.259  64.992  1.00  0.00    -0.600 OA 
HETATM   12  N   UNL     1      -8.769  16.195  65.995  1.00  0.00    -0.315 N  
HETATM   13  H   UNL     1      -8.365  16.631  65.165  1.00  0.00     0.000 HD 
HETATM   14  C   UNL     1      -7.928  15.986  67.052  1.00  0.00    -0.227 C  
HETATM   15  C   UNL     1      -9.569  14.424  67.909  1.00  0.00    -0.219 C  
HETATM   16  N   UNL     1      -8.389  15.143  68.037  1.00  0.00    -0.143 N  
HETATM   17  O   UNL     1      -6.842  16.559  67.078  1.00  0.00    -0.177 OA 
BRANCH   7  18
HETATM   18  C   UNL     1     -11.807  14.211  66.692  1.00  0.00    -0.447 C  
BRANCH  18  19
HETATM   19  C   UNL     1     -11.443  13.129  65.703  1.00  0.00    -0.351 C  
HETATM   20  C   UNL     1     -12.176  12.850  64.618  1.00  0.00    -0.494 C  
ENDBRANCH  18  19
ENDBRANCH   7  18
ENDBRANCH   2   3
TORSDOF 3
ENDMDL
MODEL        5
REMARK 921   NORMALIZED FREE ENERGY PREDICTED BY IDOCK:   -5.39 KCAL/MOL
REMARK 922        TOTAL FREE ENERGY PREDICTED BY IDOCK:   -6.42 KCAL/MOL
REMARK 923 INTER-LIGAND FREE ENERGY PREDICTED BY IDOCK:   -6.41 KCAL/MOL
REMARK 924 INTRA-LIGAND FREE ENERGY PREDICTED BY IDOCK:   -0.01 KCAL/MOL
REMARK 927      BINDING AFFINITY PREDICTED BY RF-SCORE:    0.00 PKD
ROOT
HETATM    1  C   UNL     1     -10.337  18.289  66.214  1.00  0.00    -0.422 C  
HETATM    2  C   UNL     1      -8.953  17.672  66.307  1.00  0.00    -0.211 C  
ENDROOT
BRANCH   2   3
HETATM    3  C   UNL     1      -9.051  16.161  66.436  1.00  0.00    -0.339 C  
HETATM    4  C   UNL     1      -9.134  14.864  66.547  1.00  0.00    -0.309 C  
HETATM    5  C   UNL     1      -9.232  13.353  66.676  1.00  0.00    -0.223 C  
HETATM    6  C   UNL     1      -8.795  12.971  68.095  1.00  0.00    -0.194 C  
HETATM    7  C   UNL     1     -10.628  12.862  66.143  1.00  0.00    -0.287 C  
HETATM    8  O   UNL     1     -12.282  14.568  66.633  1.00  0.00    -0.379 OA 
HETATM    9  C   UNL     1     -10.695  11.357  66.283  1.00  0.00    -0.270 C  
HETATM   10  C   UNL     1     -12.279  13.875  69.311  1.00  0.00    -0.277 C  
HETATM   11  O   UNL     1     -10.189  10.571  65.482  1.00  0.00    -0.272 OA 
HETATM   12  N   UNL     1     -11.264  10.888  67.435  1.00  0.00    -0.313 N  
HETATM   13  H   UNL     1     -11.362   9.876  67.521  1.00  0.00     0.000 HD 
HETATM   14  C   UNL     1     -11.712  11.642  68.483  1.00  0.00    -0.315 C  
HETATM   15  C   UNL     1     -11.697  13.543  66.981  1.00  0.00    -0.383 C  
HETATM   16  N   UNL     1     -11.852  12.991  68.244  1.00  0.00    -0.349 N  
HETATM   17  O   UNL     1     -11.943  11.099  69.560  1.00  0.00    -0.311 OA 
BRANCH   7  18
HETATM   18  C   UNL     1     -10.740  13.235  64.630  1.00  0.00    -0.415 C  
BRANCH  18  19
HETATM   19  C   UNL     1     -12.109  13.138  64.002  1.00  0.00    -0.511 C  
HETATM   20  C   UNL     1     -12.536  12.057  63.336  1.00  0.00    -0.625 C  
ENDBRANCH  18  19
ENDBRANCH   7  18
ENDBRANCH   2   3
TORSDOF 3
ENDMDL
MODEL        6
REMARK 921   NORMALIZED FREE ENERGY PREDICTED BY IDOCK:   -5.31 KCAL/MOL
REMARK 922        TOTAL FREE ENERGY PREDICTED BY IDOCK:   -6.32 KCAL/MOL
REMARK 923 INTER-LIGAND FREE ENERGY PREDICTED BY IDOCK:   -6.30 KCAL/MOL
REMARK 924 INTRA-LIGAND FREE ENERGY PREDICTED BY IDOCK:   -0.03 KCAL/MOL
REMARK 927      BINDING AFFINITY PREDICTED BY RF-SCORE:    0.00 PKD
ROOT
HETATM    1  C   UNL     1     -12.215  10.784  71.086  1.00  0.00    -0.457 C  
HETATM    2  C   UNL     1     -11.612  10.572  69.709  1.00  0.00    -0.368 C  
ENDROOT
BRANCH   2   3
HETATM    3  C   UNL     1     -11.683  11.851  68.893  1.00  0.00    -0.381 C  
HETATM    4  C   UNL     1     -11.744  12.950  68.193  1.00  0.00    -0.395 C  
HETATM    5  C   UNL     1     -11.815  14.230  67.376  1.00  0.00    -0.441 C  
HETATM    6  C   UNL     1     -12.026  15.398  68.347  1.00  0.00    -0.156 C  
HETATM    7  C   UNL     1     -10.616  14.281  66.360  1.00  0.00    -0.286 C  
HETATM    8  O   UNL     1      -8.698  13.199  67.379  1.00  0.00    -0.185 OA 
HETATM    9  C   UNL     1     -10.714  15.563  65.563  1.00  0.00    -0.381 C  
HETATM   10  C   UNL     1      -8.290  15.370  69.043  1.00  0.00    -0.223 C  
HETATM   11  O   UNL     1     -11.455  15.711  64.591  1.00  0.00    -0.403 OA 
HETATM   12  N   UNL     1     -10.005  16.627  66.051  1.00  0.00    -0.328 N  
HETATM   13  H   UNL     1     -10.021  17.483  65.497  1.00  0.00     0.000 HD 
HETATM   14  C   UNL     1      -9.278  16.654  67.208  1.00  0.00    -0.221 C  
HETATM   15  C   UNL     1      -9.333  14.233  67.173  1.00  0.00    -0.228 C  
HETATM   16  N   UNL     1      -9.016  15.435  67.789  1.00  0.00    -0.172 N  
HETATM   17  O   UNL     1      -8.922  17.735  67.668  1.00  0.00    -0.245 OA 
BRANCH   7  18
HETATM   18  C   UNL     1     -10.741  13.067  65.385  1.00  0.00    -0.309 C  
BRANCH  18  19
HETATM   19  C   UNL     1     -12.136  12.654  64.984  1.00  0.00    -0.497 C  
HETATM   20  C   UNL     1     -12.439  12.170  63.772  1.00  0.00    -0.620 C  
ENDBRANCH  18  19
ENDBRANCH   7  18
ENDBRANCH   2   3
TORSDOF 3
ENDMDL
MODEL        7
REMARK 921   NORMALIZED FREE ENERGY PREDICTED BY IDOCK:   -5.27 KCAL/MOL
REMARK 922        TOTAL FREE ENERGY PREDICTED BY IDOCK:   -6.28 KCAL/MOL
REMARK 923 INTER-LIGAND FREE ENERGY PREDICTED BY IDOCK:   -6.18 KCAL/MOL
REMARK 924 INTRA-LIGAND FREE ENERGY PREDICTED BY IDOCK:   -0.10 KCAL/MOL
REMARK 927      BINDING AFFINITY PREDICTED BY RF-SCORE:    0.00 PKD
ROOT
HETATM    1  C   UNL     1     -10.278  19.917  66.266  1.00  0.00    -0.614 C  
HETATM    2  C   UNL     1     -10.496  19.592  67.733  1.00  0.00    -0.574 C  
ENDROOT
BRANCH   2   3
HETATM    3  C   UNL     1     -10.508  18.088  67.949  1.00  0.00    -0.408 C  
HETATM    4  C   UNL     1     -10.520  16.797  68.134  1.00  0.00    -0.332 C  
HETATM    5  C   UNL     1     -10.533  15.293  68.350  1.00  0.00    -0.236 C  
HETATM    6  C   UNL     1     -11.994  14.844  68.463  1.00  0.00    -0.275 C  
HETATM    7  C   UNL     1      -9.593  14.595  67.299  1.00  0.00    -0.221 C  
HETATM    8  O   UNL     1      -9.677  15.865  65.232  1.00  0.00    -0.385 OA 
HETATM    9  C   UNL     1      -9.625  13.102  67.539  1.00  0.00    -0.208 C  
HETATM   10  C   UNL     1     -12.199  14.879  64.669  1.00  0.00    -0.341 C  
HETATM   11  O   UNL     1      -8.963  12.533  68.407  1.00  0.00    -0.189 OA 
HETATM   12  N   UNL     1     -10.537  12.397  66.802  1.00  0.00    -0.224 N  
HETATM   13  H   UNL     1     -10.536  11.383  66.916  1.00  0.00     0.000 HD 
HETATM   14  C   UNL     1     -11.450  12.919  65.929  1.00  0.00    -0.346 C  
HETATM   15  C   UNL     1     -10.123  14.945  65.918  1.00  0.00    -0.325 C  
HETATM   16  N   UNL     1     -11.255  14.229  65.557  1.00  0.00    -0.311 N  
HETATM   17  O   UNL     1     -12.383  12.218  65.545  1.00  0.00    -0.602 OA 
BRANCH   7  18
HETATM   18  C   UNL     1      -8.135  15.112  67.518  1.00  0.00    -0.196 C  
BRANCH  18  19
HETATM   19  C   UNL     1      -7.729  15.432  68.936  1.00  0.00    -0.165 C  
HETATM   20  C   UNL     1      -6.944  16.468  69.260  1.00  0.00    -0.227 C  
ENDBRANCH  18  19
ENDBRANCH   7  18
ENDBRANCH   2   3
TORSDOF 3
ENDMDL
MODEL        8
REMARK 921   NORMALIZED FREE ENERGY PREDICTED BY IDOCK:   -5.26 KCAL/MOL
REMARK 922        TOTAL FREE ENERGY PREDICTED BY IDOCK:   -6.26 KCAL/MOL
REMARK 923 INTER-LIGAND FREE ENERGY PREDICTED BY IDOCK:   -6.11 KCAL/MOL
REMARK 924 INTRA-LIGAND FREE ENERGY PREDICTED BY IDOCK:   -0.15 KCAL/MOL
REMARK 927      BINDING AFFINITY PREDICTED BY RF-SCORE:    0.00 PKD
ROOT
HETATM    1  C   UNL     1     -12.382  16.004  72.196  1.00  0.00    -0.557 C  
HETATM    2  C   UNL     1     -13.204  15.353  71.099  1.00  0.00    -0.583 C  
ENDROOT
BRANCH   2   3
HETATM    3  C   UNL     1     -12.329  14.460  70.236  1.00  0.00    -0.410 C  
HETATM    4  C   UNL     1     -11.578  13.692  69.495  1.00  0.00    -0.361 C  
HETATM    5  C   UNL     1     -10.702  12.799  68.633  1.00  0.00    -0.273 C  
HETATM    6  C   UNL     1     -11.583  11.678  68.067  1.00  0.00    -0.383 C  
HETATM    7  C   UNL     1      -9.851  13.680  67.646  1.00  0.00    -0.228 C  
HETATM    8  O   UNL     1     -11.160  15.627  67.029  1.00  0.00    -0.297 OA 
HETATM    9  C   UNL     1      -8.991  12.764  66.803  1.00  0.00    -0.188 C  
HETATM   10  C   UNL     1     -12.763  14.090  65.379  1.00  0.00    -0.471 C  
HETATM   11  O   UNL     1      -7.924  12.282  67.185  1.00  0.00    -0.169 OA 
HETATM   12  N   UNL     1      -9.518  12.389  65.598  1.00  0.00    -0.435 N  
HETATM   13  H   UNL     1      -8.929  11.813  64.997  1.00  0.00     0.000 HD 
HETATM   14  C   UNL     1     -10.758  12.710  65.121  1.00  0.00    -0.292 C  
HETATM   15  C   UNL     1     -10.826  14.467  66.788  1.00  0.00    -0.301 C  
HETATM   16  N   UNL     1     -11.424  13.714  65.787  1.00  0.00    -0.310 N  
HETATM   17  O   UNL     1     -11.212  12.092  64.162  1.00  0.00    -0.325 OA 
BRANCH   7  18
HETATM   18  C   UNL     1      -8.923  14.612  68.489  1.00  0.00    -0.184 C  
BRANCH  18  19
HETATM   19  C   UNL     1      -8.030  15.559  67.725  1.00  0.00    -0.157 C  
HETATM   20  C   UNL     1      -8.022  16.883  67.925  1.00  0.00    -0.187 C  
ENDBRANCH  18  19
ENDBRANCH   7  18
ENDBRANCH   2   3
TORSDOF 3
ENDMDL
MODEL        9
REMARK 921   NORMALIZED FREE ENERGY PREDICTED BY IDOCK:   -5.13 KCAL/MOL
REMARK 922        TOTAL FREE ENERGY PREDICTED BY IDOCK:   -6.11 KCAL/MOL
REMARK 923 INTER-LIGAND FREE ENERGY PREDICTED BY IDOCK:   -5.96 KCAL/MOL
REMARK 924 INTRA-LIGAND FREE ENERGY PREDICTED BY IDOCK:   -0.15 KCAL/MOL
REMARK 927      BINDING AFFINITY PREDICTED BY RF-SCORE:    0.00 PKD
ROOT
HETATM    1  C   UNL     1      -8.719   9.510  70.248  1.00  0.00    -0.270 C  
HETATM    2  C   UNL     1     -10.005   9.098  69.553  1.00  0.00    -0.193 C  
ENDROOT
BRANCH   2   3
HETATM    3  C   UNL     1     -10.666  10.299  68.899  1.00  0.00    -0.256 C  
HETATM    4  C   UNL     1     -11.234  11.331  68.338  1.00  0.00    -0.324 C  
HETATM    5  C   UNL     1     -11.894  12.533  67.684  1.00  0.00    -0.381 C  
HETATM    6  C   UNL     1     -12.021  13.636  68.741  1.00  0.00    -0.394 C  
HETATM    7  C   UNL     1     -11.184  12.854  66.318  1.00  0.00    -0.337 C  
HETATM    8  O   UNL     1      -8.829  12.306  66.530  1.00  0.00    -0.197 OA 
HETATM    9  C   UNL     1     -11.862  14.052  65.691  1.00  0.00    -0.377 C  
HETATM   10  C   UNL     1      -8.392  14.551  68.084  1.00  0.00    -0.147 C  
HETATM   11  O   UNL     1     -12.913  13.988  65.051  1.00  0.00    -0.728 OA 
HETATM   12  N   UNL     1     -11.304  15.270  65.969  1.00  0.00    -0.232 N  
HETATM   13  H   UNL     1     -11.721  16.082  65.512  1.00  0.00     0.000 HD 
HETATM   14  C   UNL     1     -10.244  15.505  66.798  1.00  0.00    -0.280 C  
HETATM   15  C   UNL     1      -9.724  13.145  66.626  1.00  0.00    -0.261 C  
HETATM   16  N   UNL     1      -9.508  14.403  67.170  1.00  0.00    -0.214 N  
HETATM   17  O   UNL     1     -10.018  16.652  67.175  1.00  0.00    -0.255 OA 
BRANCH   7  18
HETATM   18  C   UNL     1     -11.351  11.624  65.370  1.00  0.00    -0.218 C  
BRANCH  18  19
HETATM   19  C   UNL     1     -10.873  11.787  63.948  1.00  0.00    -0.468 C  
HETATM   20  C   UNL     1      -9.946  10.998  63.389  1.00  0.00    -0.428 C  
ENDBRANCH  18  19
ENDBRANCH   7  18
ENDBRANCH   2   3
TORSDOF 3
ENDMDL
MODEL       10
REMARK 921   NORMALIZED FREE ENERGY PREDICTED BY IDOCK:   -5.12 KCAL/MOL
REMARK 922        TOTAL FREE ENERGY PREDICTED BY IDOCK:   -6.10 KCAL/MOL
REMARK 923 INTER-LIGAND FREE ENERGY PREDICTED BY IDOCK:   -5.96 KCAL/MOL
REMARK 924 INTRA-LIGAND FREE ENERGY PREDICTED BY IDOCK:   -0.14 KCAL/MOL
REMARK 927      BINDING AFFINITY PREDICTED BY RF-SCORE:    0.00 PKD
ROOT
HETATM    1  C   UNL     1      -9.696  20.338  67.288  1.00  0.00    -0.590 C  
HETATM    2  C   UNL     1     -10.196  19.729  65.990  1.00  0.00    -0.600 C  
ENDROOT
BRANCH   2   3
HETATM    3  C   UNL     1     -10.443  18.240  66.161  1.00  0.00    -0.403 C  
HETATM    4  C   UNL     1     -10.655  16.961  66.306  1.00  0.00    -0.191 C  
HETATM    5  C   UNL     1     -10.902  15.471  66.477  1.00  0.00    -0.284 C  
HETATM    6  C   UNL     1     -10.116  14.734  65.387  1.00  0.00    -0.406 C  
HETATM    7  C   UNL     1     -10.694  15.065  67.983  1.00  0.00    -0.262 C  
HETATM    8  O   UNL     1      -8.946  16.463  68.920  1.00  0.00    -0.240 OA 
HETATM    9  C   UNL     1     -10.947  13.580  68.121  1.00  0.00    -0.254 C  
HETATM   10  C   UNL     1      -7.006  15.049  67.546  1.00  0.00    -0.186 C  
HETATM   11  O   UNL     1     -12.069  13.082  68.213  1.00  0.00    -0.308 OA 
HETATM   12  N   UNL     1      -9.846  12.774  68.023  1.00  0.00    -0.220 N  
HETATM   13  H   UNL     1      -9.994  11.774  68.165  1.00  0.00     0.000 HD 
HETATM   14  C   UNL     1      -8.568  13.176  67.753  1.00  0.00    -0.188 C  
HETATM   15  C   UNL     1      -9.262  15.419  68.351  1.00  0.00    -0.192 C  
HETATM   16  N   UNL     1      -8.322  14.526  67.858  1.00  0.00    -0.149 N  
HETATM   17  O   UNL     1      -7.732  12.340  67.422  1.00  0.00    -0.146 OA 
BRANCH   7  18
HETATM   18  C   UNL     1     -11.734  15.840  68.853  1.00  0.00    -0.404 C  
BRANCH  18  19
HETATM   19  C   UNL     1     -11.795  15.487  70.319  1.00  0.00    -0.381 C  
HETATM   20  C   UNL     1     -12.936  15.459  71.021  1.00  0.00    -0.556 C  
ENDBRANCH  18  19
ENDBRANCH   7  18
ENDBRANCH   2   3
TORSDOF 3
ENDMDL
MODEL       11
REMARK 921   NORMALIZED FREE ENERGY PREDICTED BY IDOCK:   -5.12 KCAL/MOL
REMARK 922        TOTAL FREE ENERGY PREDICTED BY IDOCK:   -6.10 KCAL/MOL
REMARK 923 INTER-LIGAND FREE ENERGY PREDICTED BY IDOCK:   -5.95 KCAL/MOL
REMARK 924 INTRA-LIGAND FREE ENERGY PREDICTED BY IDOCK:   -0.15 KCAL/MOL
REMARK 927      BINDING AFFINITY PREDICTED BY RF-SCORE:    0.00 PKD
ROOT
HETATM    1  C   UNL     1      -7.069   8.941  66.791  1.00  0.00    -0.081 C  
HETATM    2  C   UNL     1      -6.484  10.333  66.632  1.00  0.00    -0.076 C  
ENDROOT
BRANCH   2   3
HETATM    3  C   UNL     1      -7.543  11.390  66.898  1.00  0.00    -0.151 C  
HETATM    4  C   UNL     1      -8.452  12.298  67.125  1.00  0.00    -0.184 C  
HETATM    5  C   UNL     1      -9.511  13.354  67.391  1.00  0.00    -0.222 C  
HETATM    6  C   UNL     1      -9.413  14.410  66.283  1.00  0.00    -0.297 C  
HETATM    7  C   UNL     1     -10.895  12.662  67.674  1.00  0.00    -0.248 C  
HETATM    8  O   UNL     1     -11.027  10.637  66.344  1.00  0.00    -0.128 OA 
HETATM    9  C   UNL     1     -11.927  13.737  67.934  1.00  0.00    -0.356 C  
HETATM   10  C   UNL     1     -11.447  12.112  64.043  1.00  0.00    -0.411 C  
HETATM   11  O   UNL     1     -12.066  14.305  69.018  1.00  0.00    -0.326 OA 
HETATM   12  N   UNL     1     -12.650  14.149  66.849  1.00  0.00    -0.492 N  
HETATM   13  H   UNL     1     -13.384  14.837  67.019  1.00  0.00     0.000 HD 
HETATM   14  C   UNL     1     -12.485  13.729  65.558  1.00  0.00    -0.512 C  
HETATM   15  C   UNL     1     -11.249  11.843  66.444  1.00  0.00    -0.331 C  
HETATM   16  N   UNL     1     -11.713  12.604  65.380  1.00  0.00    -0.366 N  
HETATM   17  O   UNL     1     -13.002  14.370  64.647  1.00  0.00    -0.592 OA 
BRANCH   7  18
HETATM   18  C   UNL     1     -10.753  11.775  68.951  1.00  0.00    -0.241 C  
BRANCH  18  19
HETATM   19  C   UNL     1     -12.011  11.125  69.474  1.00  0.00    -0.425 C  
HETATM   20  C   UNL     1     -12.407  11.213  70.751  1.00  0.00    -0.504 C  
ENDBRANCH  18  19
ENDBRANCH   7  18
ENDBRANCH   2   3
TORSDOF 3
ENDMDL
MODEL       12
REMARK 921   NORMALIZED FREE ENERGY PREDICTED BY IDOCK:   -5.09 KCAL/MOL
REMARK 922        TOTAL FREE ENERGY PREDICTED BY IDOCK:   -6.06 KCAL/MOL
REMARK 923 INTER-LIGAND FREE ENERGY PREDICTED BY IDOCK:   -6.05 KCAL/MOL
REMARK 924 INTRA-LIGAND FREE ENERGY PREDICTED BY IDOCK:   -0.01 KCAL/MOL
REMARK 927      BINDING AFFINITY PREDICTED BY RF-SCORE:    0.00 PKD
ROOT
HETATM    1  C   UNL     1     -13.317  15.067  71.907  1.00  0.00    -0.475 C  
HETATM    2  C   UNL     1     -11.875  15.390  72.259  1.00  0.00    -0.551 C  
ENDROOT
BRANCH   2   3
HETATM    3  C   UNL     1     -11.009  15.388  71.010  1.00  0.00    -0.309 C  
HETATM    4  C   UNL     1     -10.265  15.385  69.939  1.00  0.00    -0.279 C  
HETATM    5  C   UNL     1      -9.399  15.383  68.691  1.00  0.00    -0.202 C  
HETATM    6  C   UNL     1      -8.571  14.093  68.692  1.00  0.00    -0.126 C  
HETATM    7  C   UNL     1     -10.276  15.733  67.433  1.00  0.00    -0.270 C  
HETATM    8  O   UNL     1     -12.503  14.832  67.774  1.00  0.00     0.033 OA 
HETATM    9  C   UNL     1      -9.388  15.724  66.208  1.00  0.00    -0.325 C  
HETATM   10  C   UNL     1     -11.594  12.264  67.294  1.00  0.00    -0.357 C  
HETATM   11  O   UNL     1      -8.663  16.664  65.880  1.00  0.00    -0.483 OA 
HETATM   12  N   UNL     1      -9.333  14.545  65.517  1.00  0.00    -0.447 N  
HETATM   13  H   UNL     1      -8.778  14.538  64.661  1.00  0.00     0.000 HD 
HETATM   14  C   UNL     1      -9.948  13.374  65.862  1.00  0.00    -0.277 C  
HETATM   15  C   UNL     1     -11.364  14.677  67.334  1.00  0.00    -0.356 C  
HETATM   16  N   UNL     1     -10.919  13.462  66.833  1.00  0.00    -0.281 N  
HETATM   17  O   UNL     1      -9.601  12.330  65.317  1.00  0.00    -0.160 OA 
BRANCH   7  18
HETATM   18  C   UNL     1     -10.864  17.168  67.622  1.00  0.00    -0.241 C  
BRANCH  18  19
HETATM   19  C   UNL     1     -10.058  18.131  68.459  1.00  0.00    -0.413 C  
HETATM   20  C   UNL     1     -10.130  19.462  68.321  1.00  0.00    -0.531 C  
ENDBRANCH  18  19
ENDBRANCH   7  18
ENDBRANCH   2   3
TORSDOF 3
ENDMDL
MODEL       13
REMARK 921   NORMALIZED FREE ENERGY PREDICTED BY IDOCK:   -5.01 KCAL/MOL
REMARK 922        TOTAL FREE ENERGY PREDICTED BY IDOCK:   -5.97 KCAL/MOL
REMARK 923 INTER-LIGAND FREE ENERGY PREDICTED BY IDOCK:   -6.06 KCAL/MOL
REMARK 924 INTRA-LIGAND FREE ENERGY PREDICTED BY IDOCK:    0.09 KCAL/MOL
REMARK 927      BINDING AFFINITY PREDICTED BY RF-SCORE:    0.00 PKD
ROOT
HETATM    1  C   UNL     1     -10.154   9.726  65.758  1.00  0.00    -0.308 C  
HETATM    2  C   UNL     1     -10.508   9.851  67.229  1.00  0.00    -0.319 C  
ENDROOT
BRANCH   2   3
HETATM    3  C   UNL     1     -10.319  11.282  67.703  1.00  0.00    -0.212 C  
HETATM    4  C   UNL     1     -10.155  12.510  68.110  1.00  0.00    -0.225 C  
HETATM    5  C   UNL     1      -9.965  13.941  68.584  1.00  0.00    -0.189 C  
HETATM    6  C   UNL     1      -8.693  14.491  67.930  1.00  0.00    -0.165 C  
HETATM    7  C   UNL     1     -11.314  14.737  68.431  1.00  0.00    -0.317 C  
HETATM    8  O   UNL     1     -12.486  13.894  66.480  1.00  0.00    -0.424 OA 
HETATM    9  C   UNL     1     -11.094  16.154  68.911  1.00  0.00    -0.347 C  
HETATM   10  C   UNL     1     -10.719  15.192  64.794  1.00  0.00    -0.319 C  
HETATM   11  O   UNL     1     -11.112  16.487  70.096  1.00  0.00    -0.348 OA 
HETATM   12  N   UNL     1     -10.751  17.065  67.950  1.00  0.00    -0.362 N  
HETATM   13  H   UNL     1     -10.650  18.035  68.250  1.00  0.00     0.000 HD 
HETATM   14  C   UNL     1     -10.530  16.803  66.627  1.00  0.00    -0.258 C  
HETATM   15  C   UNL     1     -11.692  14.704  66.960  1.00  0.00    -0.362 C  
HETATM   16  N   UNL     1     -10.952  15.574  66.173  1.00  0.00    -0.290 N  
HETATM   17  O   UNL     1      -9.966  17.645  65.933  1.00  0.00    -0.517 OA 
BRANCH   7  18
HETATM   18  C   UNL     1     -12.395  14.058  69.332  1.00  0.00    -0.247 C  
BRANCH  18  19
HETATM   19  C   UNL     1     -12.039  13.847  70.784  1.00  0.00    -0.404 C  
HETATM   20  C   UNL     1     -12.935  13.916  71.777  1.00  0.00    -0.442 C  
ENDBRANCH  18  19
ENDBRANCH   7  18
ENDBRANCH   2   3
TORSDOF 3
ENDMDL
MODEL       14
REMARK 921   NORMALIZED FREE ENERGY PREDICTED BY IDOCK:   -4.98 KCAL/MOL
REMARK 922        TOTAL FREE ENERGY PREDICTED BY IDOCK:   -5.93 KCAL/MOL
REMARK 923 INTER-LIGAND FREE ENERGY PREDICTED BY IDOCK:   -5.90 KCAL/MOL
REMARK 924 INTRA-LIGAND FREE ENERGY PREDICTED BY IDOCK:   -0.03 KCAL/MOL
REMARK 927      BINDING AFFINITY PREDICTED BY RF-SCORE:    0.00 PKD
ROOT
HETATM    1  C   UNL     1     -10.371  16.813  69.059  1.00  0.00    -0.326 C  
HETATM    2  C   UNL     1     -10.637  15.405  69.559  1.00  0.00    -0.270 C  
ENDROOT
BRANCH   2   3
HETATM    3  C   UNL     1     -10.257  14.383  68.500  1.00  0.00    -0.243 C  
HETATM    4  C   UNL     1      -9.929  13.506  67.592  1.00  0.00    -0.229 C  
HETATM    5  C   UNL     1      -9.548  12.484  66.534  1.00  0.00    -0.242 C  
HETATM    6  C   UNL     1      -8.254  11.797  66.985  1.00  0.00    -0.172 C  
HETATM    7  C   UNL     1     -10.799  11.604  66.168  1.00  0.00    -0.343 C  
HETATM    8  O   UNL     1     -12.160  11.338  68.159  1.00  0.00    -0.635 OA 
HETATM    9  C   UNL     1     -10.390  10.600  65.114  1.00  0.00    -0.261 C  
HETATM   10  C   UNL     1     -10.341   9.548  69.226  1.00  0.00    -0.208 C  
HETATM   11  O   UNL     1     -10.308  10.861  63.913  1.00  0.00    -0.346 OA 
HETATM   12  N   UNL     1      -9.991   9.376  65.576  1.00  0.00    -0.421 N  
HETATM   13  H   UNL     1      -9.761   8.671  64.875  1.00  0.00     0.000 HD 
HETATM   14  C   UNL     1      -9.871   9.004  66.886  1.00  0.00    -0.224 C  
HETATM   15  C   UNL     1     -11.253  10.914  67.443  1.00  0.00    -0.273 C  
HETATM   16  N   UNL     1     -10.457   9.839  67.810  1.00  0.00    -0.229 N  
HETATM   17  O   UNL     1      -9.247   7.984  67.166  1.00  0.00    -0.134 OA 
BRANCH   7  18
HETATM   18  C   UNL     1     -11.905  12.536  65.577  1.00  0.00    -0.491 C  
BRANCH  18  19
HETATM   19  C   UNL     1     -11.446  13.647  64.663  1.00  0.00    -0.383 C  
HETATM   20  C   UNL     1     -12.218  14.690  64.331  1.00  0.00    -0.473 C  
ENDBRANCH  18  19
ENDBRANCH   7  18
ENDBRANCH   2   3
TORSDOF 3
ENDMDL
MODEL       15
REMARK 921   NORMALIZED FREE ENERGY PREDICTED BY IDOCK:   -4.97 KCAL/MOL
REMARK 922        TOTAL FREE ENERGY PREDICTED BY IDOCK:   -5.92 KCAL/MOL
REMARK 923 INTER-LIGAND FREE ENERGY PREDICTED BY IDOCK:   -5.86 KCAL/MOL
REMARK 924 INTRA-LIGAND FREE ENERGY PREDICTED BY IDOCK:   -0.06 KCAL/MOL
REMARK 927      BINDING AFFINITY PREDICTED BY RF-SCORE:    0.00 PKD
ROOT
HETATM    1  C   UNL     1     -10.627   7.435  66.863  1.00  0.00    -0.375 C  
HETATM    2  C   UNL     1      -9.537   8.367  66.364  1.00  0.00    -0.307 C  
ENDROOT
BRANCH   2   3
HETATM    3  C   UNL     1      -9.606   9.703  67.084  1.00  0.00    -0.210 C  
HETATM    4  C   UNL     1      -9.665  10.850  67.702  1.00  0.00    -0.188 C  
HETATM    5  C   UNL     1      -9.735  12.186  68.422  1.00  0.00    -0.193 C  
HETATM    6  C   UNL     1      -8.589  13.062  67.905  1.00  0.00    -0.189 C  
HETATM    7  C   UNL     1     -11.207  12.740  68.378  1.00  0.00    -0.313 C  
HETATM    8  O   UNL     1     -12.222  12.055  66.283  1.00  0.00    -0.548 OA 
HETATM    9  C   UNL     1     -11.244  14.067  69.101  1.00  0.00    -0.269 C  
HETATM   10  C   UNL     1     -10.734  13.925  64.890  1.00  0.00    -0.410 C  
HETATM   11  O   UNL     1     -11.312  14.179  70.326  1.00  0.00    -0.170 OA 
HETATM   12  N   UNL     1     -11.080  15.179  68.322  1.00  0.00    -0.278 N  
HETATM   13  H   UNL     1     -11.154  16.084  68.789  1.00  0.00     0.000 HD 
HETATM   14  C   UNL     1     -10.827  15.197  66.979  1.00  0.00    -0.314 C  
HETATM   15  C   UNL     1     -11.585  12.897  66.914  1.00  0.00    -0.368 C  
HETATM   16  N   UNL     1     -11.022  14.011  66.308  1.00  0.00    -0.298 N  
HETATM   17  O   UNL     1     -10.431  16.235  66.456  1.00  0.00    -0.301 OA 
BRANCH   7  18
HETATM   18  C   UNL     1     -12.139  11.730  69.121  1.00  0.00    -0.290 C  
BRANCH  18  19
HETATM   19  C   UNL     1     -11.581  11.070  70.358  1.00  0.00    -0.389 C  
HETATM   20  C   UNL     1     -12.117   9.973  70.910  1.00  0.00    -0.448 C  
ENDBRANCH  18  19
ENDBRANCH   7  18
ENDBRANCH   2   3
TORSDOF 3
ENDMDL
MODEL       16
REMARK 921   NORMALIZED FREE ENERGY PREDICTED BY IDOCK:   -4.95 KCAL/MOL
REMARK 922        TOTAL FREE ENERGY PREDICTED BY IDOCK:   -5.90 KCAL/MOL
REMARK 923 INTER-LIGAND FREE ENERGY PREDICTED BY IDOCK:   -5.93 KCAL/MOL
REMARK 924 INTRA-LIGAND FREE ENERGY PREDICTED BY IDOCK:    0.03 KCAL/MOL
REMARK 927      BINDING AFFINITY PREDICTED BY RF-SCORE:    0.00 PKD
ROOT
HETATM    1  C   UNL     1     -10.387  19.802  66.240  1.00  0.00    -0.626 C  
HETATM    2  C   UNL     1     -10.360  19.384  67.699  1.00  0.00    -0.550 C  
ENDROOT
BRANCH   2   3
HETATM    3  C   UNL     1     -10.763  17.927  67.844  1.00  0.00    -0.328 C  
HETATM    4  C   UNL     1     -11.110  16.676  67.967  1.00  0.00    -0.255 C  
HETATM    5  C   UNL     1     -11.514  15.218  68.112  1.00  0.00    -0.357 C  
HETATM    6  C   UNL     1     -11.362  14.547  66.742  1.00  0.00    -0.358 C  
HETATM    7  C   UNL     1     -10.796  14.587  69.362  1.00  0.00    -0.249 C  
HETATM    8  O   UNL     1      -8.613  15.620  69.595  1.00  0.00    -0.230 OA 
HETATM    9  C   UNL     1     -11.218  13.139  69.480  1.00  0.00    -0.084 C  
HETATM   10  C   UNL     1      -7.645  14.182  67.439  1.00  0.00    -0.158 C  
HETATM   11  O   UNL     1     -12.277  12.773  69.990  1.00  0.00    -0.284 OA 
HETATM   12  N   UNL     1     -10.398  12.226  68.875  1.00  0.00    -0.409 N  
HETATM   13  H   UNL     1     -10.642  11.242  68.990  1.00  0.00     0.000 HD 
HETATM   14  C   UNL     1      -9.285  12.503  68.132  1.00  0.00    -0.209 C  
HETATM   15  C   UNL     1      -9.299  14.710  69.131  1.00  0.00    -0.048 C  
HETATM   16  N   UNL     1      -8.796  13.786  68.226  1.00  0.00    -0.183 N  
HETATM   17  O   UNL     1      -8.802  11.624  67.423  1.00  0.00    -0.152 OA 
BRANCH   7  18
HETATM   18  C   UNL     1     -11.259  15.356  70.640  1.00  0.00    -0.370 C  
BRANCH  18  19
HETATM   19  C   UNL     1     -12.743  15.584  70.800  1.00  0.00    -0.511 C  
HETATM   20  C   UNL     1     -13.372  15.517  71.981  1.00  0.00    -0.566 C  
ENDBRANCH  18  19
ENDBRANCH   7  18
ENDBRANCH   2   3
TORSDOF 3
ENDMDL
MODEL       17
REMARK 921   NORMALIZED FREE ENERGY PREDICTED BY IDOCK:   -4.91 KCAL/MOL
REMARK 922        TOTAL FREE ENERGY PREDICTED BY IDOCK:   -5.85 KCAL/MOL
REMARK 923 INTER-LIGAND FREE ENERGY PREDICTED BY IDOCK:   -5.83 KCAL/MOL
REMARK 924 INTRA-LIGAND FREE ENERGY PREDICTED BY IDOCK:   -0.02 KCAL/MOL
REMARK 927      BINDING AFFINITY PREDICTED BY RF-SCORE:    0.00 PKD
ROOT
HETATM    1  C   UNL     1      -7.821  17.044  66.331  1.00  0.00    -0.343 C  
HETATM    2  C   UNL     1      -9.178  16.461  65.977  1.00  0.00    -0.328 C  
ENDROOT
BRANCH   2   3
HETATM    3  C   UNL     1      -9.239  14.990  66.352  1.00  0.00    -0.328 C  
HETATM    4  C   UNL     1      -9.292  13.727  66.675  1.00  0.00    -0.277 C  
HETATM    5  C   UNL     1      -9.353  12.256  67.050  1.00  0.00    -0.205 C  
HETATM    6  C   UNL     1      -8.687  12.090  68.420  1.00  0.00    -0.147 C  
HETATM    7  C   UNL     1     -10.813  11.711  66.834  1.00  0.00    -0.322 C  
HETATM    8  O   UNL     1     -12.380  13.500  67.317  1.00  0.00    -0.297 OA 
HETATM    9  C   UNL     1     -10.843  10.248  67.214  1.00  0.00    -0.250 C  
HETATM   10  C   UNL     1     -11.933  13.228  70.033  1.00  0.00    -0.329 C  
HETATM   11  O   UNL     1     -10.467   9.339  66.473  1.00  0.00    -0.227 OA 
HETATM   12  N   UNL     1     -11.211   9.971  68.502  1.00  0.00    -0.474 N  
HETATM   13  H   UNL     1     -11.285   8.986  68.759  1.00  0.00     0.000 HD 
HETATM   14  C   UNL     1     -11.489  10.885  69.480  1.00  0.00    -0.301 C  
HETATM   15  C   UNL     1     -11.736  12.531  67.719  1.00  0.00    -0.359 C  
HETATM   16  N   UNL     1     -11.678  12.183  69.061  1.00  0.00    -0.306 N  
HETATM   17  O   UNL     1     -11.536  10.518  70.650  1.00  0.00    -0.322 OA 
BRANCH   7  18
HETATM   18  C   UNL     1     -11.174  11.849  65.320  1.00  0.00    -0.351 C  
BRANCH  18  19
HETATM   19  C   UNL     1     -10.038  11.730  64.333  1.00  0.00    -0.319 C  
HETATM   20  C   UNL     1     -10.173  11.176  63.121  1.00  0.00    -0.347 C  
ENDBRANCH  18  19
ENDBRANCH   7  18
ENDBRANCH   2   3
TORSDOF 3
ENDMDL
MODEL       18
REMARK 921   NORMALIZED FREE ENERGY PREDICTED BY IDOCK:   -4.91 KCAL/MOL
REMARK 922        TOTAL FREE ENERGY PREDICTED BY IDOCK:   -5.85 KCAL/MOL
REMARK 923 INTER-LIGAND FREE ENERGY PREDICTED BY IDOCK:   -5.76 KCAL/MOL
REMARK 924 INTRA-LIGAND FREE ENERGY PREDICTED BY IDOCK:   -0.08 KCAL/MOL
REMARK 927      BINDING AFFINITY PREDICTED BY RF-SCORE:    0.00 PKD
ROOT
HETATM    1  C   UNL     1     -10.714  11.111  64.096  1.00  0.00    -0.415 C  
HETATM    2  C   UNL     1      -9.948  10.583  65.295  1.00  0.00    -0.364 C  
ENDROOT
BRANCH   2   3
HETATM    3  C   UNL     1      -9.857  11.644  66.379  1.00  0.00    -0.233 C  
HETATM    4  C   UNL     1      -9.777  12.555  67.309  1.00  0.00    -0.202 C  
HETATM    5  C   UNL     1      -9.686  13.616  68.392  1.00  0.00    -0.217 C  
HETATM    6  C   UNL     1      -8.435  14.461  68.122  1.00  0.00    -0.160 C  
HETATM    7  C   UNL     1     -11.077  14.332  68.557  1.00  0.00    -0.276 C  
HETATM    8  O   UNL     1     -12.154  14.425  66.384  1.00  0.00    -0.414 OA 
HETATM    9  C   UNL     1     -10.954  15.380  69.640  1.00  0.00    -0.284 C  
HETATM   10  C   UNL     1     -10.435  16.430  65.561  1.00  0.00    -0.330 C  
HETATM   11  O   UNL     1     -11.017  15.131  70.845  1.00  0.00    -0.283 OA 
HETATM   12  N   UNL     1     -10.648  16.645  69.219  1.00  0.00    -0.328 N  
HETATM   13  H   UNL     1     -10.612  17.372  69.933  1.00  0.00     0.000 HD 
HETATM   14  C   UNL     1     -10.384  17.028  67.934  1.00  0.00    -0.338 C  
HETATM   15  C   UNL     1     -11.422  14.960  67.217  1.00  0.00    -0.340 C  
HETATM   16  N   UNL     1     -10.720  16.127  66.950  1.00  0.00    -0.290 N  
HETATM   17  O   UNL     1      -9.858  18.119  67.728  1.00  0.00    -0.289 OA 
BRANCH   7  18
HETATM   18  C   UNL     1     -12.132  13.268  68.997  1.00  0.00    -0.268 C  
BRANCH  18  19
HETATM   19  C   UNL     1     -11.625  12.094  69.799  1.00  0.00    -0.334 C  
HETATM   20  C   UNL     1     -12.132  10.859  69.693  1.00  0.00    -0.400 C  
ENDBRANCH  18  19
ENDBRANCH   7  18
ENDBRANCH   2   3
TORSDOF 3
ENDMDL
MODEL       19
REMARK 921   NORMALIZED FREE ENERGY PREDICTED BY IDOCK:   -4.86 KCAL/MOL
REMARK 922        TOTAL FREE ENERGY PREDICTED BY IDOCK:   -5.79 KCAL/MOL
REMARK 923 INTER-LIGAND FREE ENERGY PREDICTED BY IDOCK:   -5.81 KCAL/MOL
REMARK 924 INTRA-LIGAND FREE ENERGY PREDICTED BY IDOCK:    0.01 KCAL/MOL
REMARK 927      BINDING AFFINITY PREDICTED BY RF-SCORE:    0.00 PKD
ROOT
HETATM    1  C   UNL     1      -6.192   9.468  67.017  1.00  0.00    -0.065 C  
HETATM    2  C   UNL     1      -6.367  10.889  66.513  1.00  0.00    -0.125 C  
ENDROOT
BRANCH   2   3
HETATM    3  C   UNL     1      -7.826  11.306  66.591  1.00  0.00    -0.152 C  
HETATM    4  C   UNL     1      -9.079  11.664  66.658  1.00  0.00    -0.196 C  
HETATM    5  C   UNL     1     -10.537  12.081  66.736  1.00  0.00    -0.260 C  
HETATM    6  C   UNL     1     -11.023  11.835  68.169  1.00  0.00    -0.275 C  
HETATM    7  C   UNL     1     -10.719  13.506  66.097  1.00  0.00    -0.289 C  
HETATM    8  O   UNL     1      -8.713  14.802  66.525  1.00  0.00    -0.232 OA 
HETATM    9  C   UNL     1     -12.179  13.893  66.189  1.00  0.00    -0.464 C  
HETATM   10  C   UNL     1      -9.431  15.134  69.176  1.00  0.00    -0.221 C  
HETATM   11  O   UNL     1     -13.042  13.505  65.400  1.00  0.00    -0.663 OA 
HETATM   12  N   UNL     1     -12.536  14.627  67.286  1.00  0.00    -0.431 N  
HETATM   13  H   UNL     1     -13.506  14.938  67.336  1.00  0.00     0.000 HD 
HETATM   14  C   UNL     1     -11.720  14.983  68.323  1.00  0.00    -0.314 C  
HETATM   15  C   UNL     1      -9.842  14.468  66.882  1.00  0.00    -0.262 C  
HETATM   16  N   UNL     1     -10.369  14.824  68.115  1.00  0.00    -0.236 N  
HETATM   17  O   UNL     1     -12.219  15.398  69.366  1.00  0.00    -0.300 OA 
BRANCH   7  18
HETATM   18  C   UNL     1     -10.308  13.431  64.592  1.00  0.00    -0.400 C  
BRANCH  18  19
HETATM   19  C   UNL     1     -10.795  12.234  63.810  1.00  0.00    -0.495 C  
HETATM   20  C   UNL     1      -9.972  11.324  63.273  1.00  0.00    -0.428 C  
ENDBRANCH  18  19
ENDBRANCH   7  18
ENDBRANCH   2   3
TORSDOF 3
ENDMDL
MODEL       20
REMARK 921   NORMALIZED FREE ENERGY PREDICTED BY IDOCK:   -4.85 KCAL/MOL
REMARK 922        TOTAL FREE ENERGY PREDICTED BY IDOCK:   -5.78 KCAL/MOL
REMARK 923 INTER-LIGAND FREE ENERGY PREDICTED BY IDOCK:   -5.70 KCAL/MOL
REMARK 924 INTRA-LIGAND FREE ENERGY PREDICTED BY IDOCK:   -0.09 KCAL/MOL
REMARK 927      BINDING AFFINITY PREDICTED BY RF-SCORE:    0.00 PKD
ROOT
HETATM    1  C   UNL     1      -6.404  16.271  69.904  1.00  0.00    -0.131 C  
HETATM    2  C   UNL     1      -7.307  15.057  69.779  1.00  0.00    -0.132 C  
ENDROOT
BRANCH   2   3
HETATM    3  C   UNL     1      -8.055  15.084  68.456  1.00  0.00    -0.148 C  
HETATM    4  C   UNL     1      -8.696  15.106  67.321  1.00  0.00    -0.221 C  
HETATM    5  C   UNL     1      -9.444  15.133  65.998  1.00  0.00    -0.358 C  
HETATM    6  C   UNL     1      -9.297  13.755  65.344  1.00  0.00     0.441 C  
HETATM    7  C   UNL     1     -10.883  15.733  66.212  1.00  0.00    -0.232 C  
HETATM    8  O   UNL     1     -11.662  15.095  68.419  1.00  0.00    -0.330 OA 
HETATM    9  C   UNL     1     -11.601  15.748  64.880  1.00  0.00    -0.104 C  
HETATM   10  C   UNL     1     -12.112  12.502  67.568  1.00  0.00    -0.055 C  
HETATM   11  O   UNL     1     -11.439  16.617  64.024  1.00  0.00    -1.192 OA 
HETATM   12  N   UNL     1     -12.380  14.657  64.609  1.00  0.00    -0.518 N  
HETATM   13  H   UNL     1     -12.911  14.676  63.738  1.00  0.00     0.000 HD 
HETATM   14  C   UNL     1     -12.518  13.545  65.391  1.00  0.00    -0.497 C  
HETATM   15  C   UNL     1     -11.598  14.845  67.216  1.00  0.00    -0.324 C  
HETATM   16  N   UNL     1     -12.048  13.647  66.681  1.00  0.00    -0.415 N  
HETATM   17  O   UNL     1     -13.022  12.532  64.912  1.00  0.00    -0.821 OA 
BRANCH   7  18
HETATM   18  C   UNL     1     -10.736  17.201  66.725  1.00  0.00    -0.097 C  
BRANCH  18  19
HETATM   19  C   UNL     1      -9.467  17.931  66.354  1.00  0.00    -0.278 C  
HETATM   20  C   UNL     1      -8.859  18.805  67.167  1.00  0.00    -0.288 C  
ENDBRANCH  18  19
ENDBRANCH   7  18
ENDBRANCH   2   3
TORSDOF 3
ENDMDL
MODEL       21
REMARK 921   NORMALIZED FREE ENERGY PREDICTED BY IDOCK:   -4.81 KCAL/MOL
REMARK 922        TOTAL FREE ENERGY PREDICTED BY IDOCK:   -5.73 KCAL/MOL
REMARK 923 INTER-LIGAND FREE ENERGY PREDICTED BY IDOCK:   -5.67 KCAL/MOL
REMARK 924 INTRA-LIGAND FREE ENERGY PREDICTED BY IDOCK:   -0.06 KCAL/MOL
REMARK 927      BINDING AFFINITY PREDICTED BY RF-SCORE:    0.00 PKD
ROOT
HETATM    1  C   UNL     1      -9.864   9.350  70.707  1.00  0.00    -0.348 C  
HETATM    2  C   UNL     1     -11.281   9.857  70.510  1.00  0.00    -0.399 C  
ENDROOT
BRANCH   2   3
HETATM    3  C   UNL     1     -11.284  11.118  69.664  1.00  0.00    -0.333 C  
HETATM    4  C   UNL     1     -11.286  12.202  68.938  1.00  0.00    -0.320 C  
HETATM    5  C   UNL     1     -11.288  13.464  68.091  1.00  0.00    -0.321 C  
HETATM    6  C   UNL     1     -10.734  14.608  68.947  1.00  0.00    -0.251 C  
HETATM    7  C   UNL     1     -10.637  13.167  66.690  1.00  0.00    -0.284 C  
HETATM    8  O   UNL     1      -8.894  11.505  66.989  1.00  0.00    -0.162 OA 
HETATM    9  C   UNL     1     -10.655  14.439  65.871  1.00  0.00    -0.307 C  
HETATM   10  C   UNL     1      -7.227  13.386  68.143  1.00  0.00    -0.113 C  
HETATM   11  O   UNL     1     -11.640  14.842  65.252  1.00  0.00    -0.349 OA 
HETATM   12  N   UNL     1      -9.527  15.210  65.940  1.00  0.00    -0.394 N  
HETATM   13  H   UNL     1      -9.504  16.044  65.353  1.00  0.00     0.000 HD 
HETATM   14  C   UNL     1      -8.428  14.972  66.717  1.00  0.00    -0.204 C  
HETATM   15  C   UNL     1      -9.216  12.692  66.944  1.00  0.00    -0.216 C  
HETATM   16  N   UNL     1      -8.336  13.714  67.268  1.00  0.00    -0.184 N  
HETATM   17  O   UNL     1      -7.611  15.871  66.894  1.00  0.00    -0.220 OA 
BRANCH   7  18
HETATM   18  C   UNL     1     -11.498  12.084  65.963  1.00  0.00    -0.399 C  
BRANCH  18  19
HETATM   19  C   UNL     1     -10.943  11.520  64.678  1.00  0.00    -0.353 C  
HETATM   20  C   UNL     1     -11.370  11.897  63.466  1.00  0.00    -0.516 C  
ENDBRANCH  18  19
ENDBRANCH   7  18
ENDBRANCH   2   3
TORSDOF 3
ENDMDL
MODEL       22
REMARK 921   NORMALIZED FREE ENERGY PREDICTED BY IDOCK:   -4.76 KCAL/MOL
REMARK 922        TOTAL FREE ENERGY PREDICTED BY IDOCK:   -5.68 KCAL/MOL
REMARK 923 INTER-LIGAND FREE ENERGY PREDICTED BY IDOCK:   -5.65 KCAL/MOL
REMARK 924 INTRA-LIGAND FREE ENERGY PREDICTED BY IDOCK:   -0.03 KCAL/MOL
REMARK 927      BINDING AFFINITY PREDICTED BY RF-SCORE:    0.00 PKD
ROOT
HETATM    1  C   UNL     1      -9.248  10.177  64.064  1.00  0.00    -0.315 C  
HETATM    2  C   UNL     1      -9.569  11.387  63.205  1.00  0.00    -0.373 C  
ENDROOT
BRANCH   2   3
HETATM    3  C   UNL     1     -10.168  12.497  64.052  1.00  0.00    -0.390 C  
HETATM    4  C   UNL     1     -10.683  13.450  64.779  1.00  0.00    -0.403 C  
HETATM    5  C   UNL     1     -11.282  14.561  65.626  1.00  0.00    -0.335 C  
HETATM    6  C   UNL     1     -12.704  14.142  66.016  1.00  0.00    -0.325 C  
HETATM    7  C   UNL     1     -10.266  14.979  66.752  1.00  0.00    -0.260 C  
HETATM    8  O   UNL     1      -9.022  13.011  67.434  1.00  0.00    -0.185 OA 
HETATM    9  C   UNL     1     -10.889  16.084  67.576  1.00  0.00    -0.292 C  
HETATM   10  C   UNL     1     -11.216  12.035  68.806  1.00  0.00    -0.263 C  
HETATM   11  O   UNL     1     -10.898  17.269  67.239  1.00  0.00    -0.258 OA 
HETATM   12  N   UNL     1     -11.565  15.687  68.696  1.00  0.00    -0.373 N  
HETATM   13  H   UNL     1     -11.947  16.424  69.289  1.00  0.00     0.000 HD 
HETATM   14  C   UNL     1     -11.780  14.399  69.099  1.00  0.00    -0.317 C  
HETATM   15  C   UNL     1      -9.996  13.745  67.596  1.00  0.00    -0.238 C  
HETATM   16  N   UNL     1     -11.023  13.433  68.475  1.00  0.00    -0.258 N  
HETATM   17  O   UNL     1     -12.626  14.171  69.960  1.00  0.00    -0.332 OA 
BRANCH   7  18
HETATM   18  C   UNL     1      -8.969  15.523  66.072  1.00  0.00    -0.250 C  
BRANCH  18  19
HETATM   19  C   UNL     1      -8.015  16.301  66.946  1.00  0.00    -0.278 C  
HETATM   20  C   UNL     1      -6.869  16.828  66.494  1.00  0.00    -0.200 C  
ENDBRANCH  18  19
ENDBRANCH   7  18
ENDBRANCH   2   3
TORSDOF 3
ENDMDL
MODEL       23
REMARK 921   NORMALIZED FREE ENERGY PREDICTED BY IDOCK:   -4.76 KCAL/MOL
REMARK 922        TOTAL FREE ENERGY PREDICTED BY IDOCK:   -5.67 KCAL/MOL
REMARK 923 INTER-LIGAND FREE ENERGY PREDICTED BY IDOCK:   -5.59 KCAL/MOL
REMARK 924 INTRA-LIGAND FREE ENERGY PREDICTED BY IDOCK:   -0.09 KCAL/MOL
REMARK 927      BINDING AFFINITY PREDICTED BY RF-SCORE:    0.00 PKD
ROOT
HETATM    1  C   UNL     1     -11.970  12.977  63.885  1.00  0.00    -0.551 C  
HETATM    2  C   UNL     1     -12.127  14.409  64.364  1.00  0.00    -0.491 C  
ENDROOT
BRANCH   2   3
HETATM    3  C   UNL     1     -10.917  14.833  65.181  1.00  0.00    -0.403 C  
HETATM    4  C   UNL     1      -9.879  15.198  65.881  1.00  0.00    -0.372 C  
HETATM    5  C   UNL     1      -8.670  15.622  66.697  1.00  0.00    -0.333 C  
HETATM    6  C   UNL     1      -7.995  16.791  65.970  1.00  0.00    -0.110 C  
HETATM    7  C   UNL     1      -9.078  15.788  68.207  1.00  0.00    -0.187 C  
HETATM    8  O   UNL     1     -11.367  16.587  68.301  1.00  0.00    -0.331 OA 
HETATM    9  C   UNL     1      -7.856  16.209  68.993  1.00  0.00    -0.227 C  
HETATM   10  C   UNL     1     -10.572  19.116  67.515  1.00  0.00    -0.471 C  
HETATM   11  O   UNL     1      -6.989  15.426  69.384  1.00  0.00    -0.153 OA 
HETATM   12  N   UNL     1      -7.687  17.556  69.161  1.00  0.00    -0.121 N  
HETATM   13  H   UNL     1      -6.895  17.853  69.732  1.00  0.00     0.000 HD 
HETATM   14  C   UNL     1      -8.475  18.543  68.639  1.00  0.00    -0.299 C  
HETATM   15  C   UNL     1     -10.165  16.848  68.267  1.00  0.00    -0.318 C  
HETATM   16  N   UNL     1      -9.690  18.144  68.130  1.00  0.00    -0.309 N  
HETATM   17  O   UNL     1      -8.064  19.700  68.633  1.00  0.00    -0.342 OA 
BRANCH   7  18
HETATM   18  C   UNL     1      -9.573  14.406  68.742  1.00  0.00    -0.177 C  
BRANCH  18  19
HETATM   19  C   UNL     1      -8.976  13.174  68.106  1.00  0.00    -0.195 C  
HETATM   20  C   UNL     1      -9.702  12.104  67.755  1.00  0.00    -0.197 C  
ENDBRANCH  18  19
ENDBRANCH   7  18
ENDBRANCH   2   3
TORSDOF 3
ENDMDL
MODEL       24
REMARK 921   NORMALIZED FREE ENERGY PREDICTED BY IDOCK:   -4.72 KCAL/MOL
REMARK 922        TOTAL FREE ENERGY PREDICTED BY IDOCK:   -5.62 KCAL/MOL
REMARK 923 INTER-LIGAND FREE ENERGY PREDICTED BY IDOCK:   -5.50 KCAL/MOL
REMARK 924 INTRA-LIGAND FREE ENERGY PREDICTED BY IDOCK:   -0.12 KCAL/MOL
REMARK 927      BINDING AFFINITY PREDICTED BY RF-SCORE:    0.00 PKD
ROOT
HETATM    1  C   UNL     1     -12.529  15.449  71.755  1.00  0.00    -0.451 C  
HETATM    2  C   UNL     1     -12.401  13.960  71.488  1.00  0.00    -0.327 C  
ENDROOT
BRANCH   2   3
HETATM    3  C   UNL     1     -12.175  13.702  70.008  1.00  0.00    -0.395 C  
HETATM    4  C   UNL     1     -11.981  13.481  68.737  1.00  0.00    -0.374 C  
HETATM    5  C   UNL     1     -11.754  13.223  67.257  1.00  0.00    -0.424 C  
HETATM    6  C   UNL     1     -12.869  13.931  66.478  1.00  0.00     0.162 C  
HETATM    7  C   UNL     1     -10.253  13.516  66.888  1.00  0.00    -0.256 C  
HETATM    8  O   UNL     1      -9.461  15.337  68.282  1.00  0.00    -0.199 OA 
HETATM    9  C   UNL     1     -10.059  13.250  65.412  1.00  0.00    -0.253 C  
HETATM   10  C   UNL     1     -10.908  17.170  66.801  1.00  0.00     0.022 C  
HETATM   11  O   UNL     1      -9.886  12.128  64.934  1.00  0.00    -0.237 OA 
HETATM   12  N   UNL     1     -10.200  14.331  64.585  1.00  0.00    -0.622 N  
HETATM   13  H   UNL     1     -10.021  14.178  63.593  1.00  0.00     0.000 HD 
HETATM   14  C   UNL     1     -10.556  15.596  64.960  1.00  0.00    -0.396 C  
HETATM   15  C   UNL     1      -9.981  14.971  67.228  1.00  0.00    -0.233 C  
HETATM   16  N   UNL     1     -10.504  15.868  66.308  1.00  0.00    -0.309 N  
HETATM   17  O   UNL     1     -10.913  16.398  64.101  1.00  0.00    -0.717 OA 
BRANCH   7  18
HETATM   18  C   UNL     1      -9.344  12.541  67.703  1.00  0.00    -0.189 C  
BRANCH  18  19
HETATM   19  C   UNL     1      -7.852  12.723  67.566  1.00  0.00    -0.171 C  
HETATM   20  C   UNL     1      -7.049  11.808  67.007  1.00  0.00    -0.132 C  
ENDBRANCH  18  19
ENDBRANCH   7  18
ENDBRANCH   2   3
TORSDOF 3
ENDMDL
MODEL       25
REMARK 921   NORMALIZED FREE ENERGY PREDICTED BY IDOCK:   -4.71 KCAL/MOL
REMARK 922        TOTAL FREE ENERGY PREDICTED BY IDOCK:   -5.61 KCAL/MOL
REMARK 923 INTER-LIGAND FREE ENERGY PREDICTED BY IDOCK:   -5.51 KCAL/MOL
REMARK 924 INTRA-LIGAND FREE ENERGY PREDICTED BY IDOCK:   -0.10 KCAL/MOL
REMARK 927      BINDING AFFINITY PREDICTED BY RF-SCORE:    0.00 PKD
ROOT
HETATM    1  C   UNL     1      -8.336  16.787  66.274  1.00  0.00    -0.353 C  
HETATM    2  C   UNL     1      -9.841  16.984  66.303  1.00  0.00    -0.310 C  
ENDROOT
BRANCH   2   3
HETATM    3  C   UNL     1     -10.544  15.674  66.617  1.00  0.00    -0.307 C  
HETATM    4  C   UNL     1     -11.147  14.549  66.886  1.00  0.00    -0.325 C  
HETATM    5  C   UNL     1     -11.850  13.239  67.201  1.00  0.00    -0.424 C  
HETATM    6  C   UNL     1     -12.138  12.527  65.874  1.00  0.00    -0.420 C  
HETATM    7  C   UNL     1     -11.069  12.473  68.331  1.00  0.00    -0.293 C  
HETATM    8  O   UNL     1      -8.701  12.939  68.079  1.00  0.00    -0.174 OA 
HETATM    9  C   UNL     1     -11.791  11.176  68.622  1.00  0.00    -0.287 C  
HETATM   10  C   UNL     1      -8.553  11.269  65.879  1.00  0.00    -0.096 C  
HETATM   11  O   UNL     1     -12.784  11.092  69.346  1.00  0.00    -0.279 OA 
HETATM   12  N   UNL     1     -11.350  10.078  67.935  1.00  0.00    -0.490 N  
HETATM   13  H   UNL     1     -11.794   9.187  68.158  1.00  0.00     0.000 HD 
HETATM   14  C   UNL     1     -10.374  10.059  66.979  1.00  0.00    -0.243 C  
HETATM   15  C   UNL     1      -9.663  12.218  67.814  1.00  0.00    -0.199 C  
HETATM   16  N   UNL     1      -9.584  11.183  66.894  1.00  0.00    -0.184 N  
HETATM   17  O   UNL     1     -10.266   9.076  66.251  1.00  0.00    -0.284 OA 
BRANCH   7  18
HETATM   18  C   UNL     1     -11.071  13.355  69.620  1.00  0.00    -0.020 C  
BRANCH  18  19
HETATM   19  C   UNL     1     -12.341  14.111  69.929  1.00  0.00    -0.382 C  
HETATM   20  C   UNL     1     -12.354  15.380  70.356  1.00  0.00    -0.443 C  
ENDBRANCH  18  19
ENDBRANCH   7  18
ENDBRANCH   2   3
TORSDOF 3
ENDMDL
MODEL       26
REMARK 921   NORMALIZED FREE ENERGY PREDICTED BY IDOCK:   -4.69 KCAL/MOL
REMARK 922        TOTAL FREE ENERGY PREDICTED BY IDOCK:   -5.59 KCAL/MOL
REMARK 923 INTER-LIGAND FREE ENERGY PREDICTED BY IDOCK:   -5.47 KCAL/MOL
REMARK 924 INTRA-LIGAND FREE ENERGY PREDICTED BY IDOCK:   -0.12 KCAL/MOL
REMARK 927      BINDING AFFINITY PREDICTED BY RF-SCORE:    0.00 PKD
ROOT
HETATM    1  C   UNL     1     -13.263  14.353  71.744  1.00  0.00    -0.435 C  
HETATM    2  C   UNL     1     -12.445  15.084  70.694  1.00  0.00    -0.422 C  
ENDROOT
BRANCH   2   3
HETATM    3  C   UNL     1     -11.783  14.095  69.750  1.00  0.00    -0.370 C  
HETATM    4  C   UNL     1     -11.216  13.245  68.939  1.00  0.00    -0.322 C  
HETATM    5  C   UNL     1     -10.554  12.256  67.994  1.00  0.00    -0.235 C  
HETATM    6  C   UNL     1     -11.660  11.523  67.227  1.00  0.00    -0.280 C  
HETATM    7  C   UNL     1      -9.406  12.972  67.192  1.00  0.00    -0.230 C  
HETATM    8  O   UNL     1     -10.057  15.279  66.812  1.00  0.00    -0.249 OA 
HETATM    9  C   UNL     1      -8.767  11.964  66.263  1.00  0.00    -0.070 C  
HETATM   10  C   UNL     1     -11.875  14.501  64.877  1.00  0.00    -0.416 C  
HETATM   11  O   UNL     1      -7.916  11.147  66.618  1.00  0.00    -0.149 OA 
HETATM   12  N   UNL     1      -9.270  11.918  64.992  1.00  0.00    -0.417 N  
HETATM   13  H   UNL     1      -8.815  11.279  64.339  1.00  0.00     0.000 HD 
HETATM   14  C   UNL     1     -10.323  12.644  64.510  1.00  0.00    -0.344 C  
HETATM   15  C   UNL     1     -10.042  14.113  66.416  1.00  0.00    -0.293 C  
HETATM   16  N   UNL     1     -10.736  13.703  65.287  1.00  0.00    -0.320 N  
HETATM   17  O   UNL     1     -10.846  12.314  63.449  1.00  0.00    -0.449 OA 
BRANCH   7  18
HETATM   18  C   UNL     1      -8.332  13.478  68.207  1.00  0.00    -0.165 C  
BRANCH  18  19
HETATM   19  C   UNL     1      -7.144  14.213  67.636  1.00  0.00    -0.199 C  
HETATM   20  C   UNL     1      -6.392  15.060  68.350  1.00  0.00    -0.107 C  
ENDBRANCH  18  19
ENDBRANCH   7  18
ENDBRANCH   2   3
TORSDOF 3
ENDMDL
MODEL       27
REMARK 921   NORMALIZED FREE ENERGY PREDICTED BY IDOCK:   -4.67 KCAL/MOL
REMARK 922        TOTAL FREE ENERGY PREDICTED BY IDOCK:   -5.57 KCAL/MOL
REMARK 923 INTER-LIGAND FREE ENERGY PREDICTED BY IDOCK:   -5.42 KCAL/MOL
REMARK 924 INTRA-LIGAND FREE ENERGY PREDICTED BY IDOCK:   -0.15 KCAL/MOL
REMARK 927      BINDING AFFINITY PREDICTED BY RF-SCORE:    0.00 PKD
ROOT
HETATM    1  C   UNL     1      -9.122  17.552  68.507  1.00  0.00    -0.277 C  
HETATM    2  C   UNL     1     -10.312  16.667  68.180  1.00  0.00    -0.303 C  
ENDROOT
BRANCH   2   3
HETATM    3  C   UNL     1      -9.847  15.293  67.730  1.00  0.00    -0.220 C  
HETATM    4  C   UNL     1      -9.447  14.112  67.345  1.00  0.00    -0.220 C  
HETATM    5  C   UNL     1      -8.981  12.738  66.895  1.00  0.00    -0.213 C  
HETATM    6  C   UNL     1      -8.450  11.993  68.125  1.00  0.00    -0.171 C  
HETATM    7  C   UNL     1     -10.091  12.063  66.008  1.00  0.00    -0.257 C  
HETATM    8  O   UNL     1     -12.263  12.772  66.824  1.00  0.00    -0.470 OA 
HETATM    9  C   UNL     1      -9.600  10.699  65.576  1.00  0.00    -0.221 C  
HETATM   10  C   UNL     1     -12.035  11.116  69.027  1.00  0.00    -0.320 C  
HETATM   11  O   UNL     1      -8.830  10.515  64.632  1.00  0.00    -0.185 OA 
HETATM   12  N   UNL     1      -9.967   9.650  66.373  1.00  0.00    -0.241 N  
HETATM   13  H   UNL     1      -9.686   8.718  66.066  1.00  0.00     0.000 HD 
HETATM   14  C   UNL     1     -10.674   9.728  67.540  1.00  0.00    -0.264 C  
HETATM   15  C   UNL     1     -11.345  11.954  66.860  1.00  0.00    -0.330 C  
HETATM   16  N   UNL     1     -11.300  10.928  67.792  1.00  0.00    -0.310 N  
HETATM   17  O   UNL     1     -10.700   8.758  68.293  1.00  0.00    -0.173 OA 
BRANCH   7  18
HETATM   18  C   UNL     1     -10.317  12.946  64.739  1.00  0.00    -0.345 C  
BRANCH  18  19
HETATM   19  C   UNL     1     -11.326  12.450  63.732  1.00  0.00    -0.536 C  
HETATM   20  C   UNL     1     -12.308  13.215  63.240  1.00  0.00    -0.366 C  
ENDBRANCH  18  19
ENDBRANCH   7  18
ENDBRANCH   2   3
TORSDOF 3
ENDMDL
MODEL       28
REMARK 921   NORMALIZED FREE ENERGY PREDICTED BY IDOCK:   -4.66 KCAL/MOL
REMARK 922        TOTAL FREE ENERGY PREDICTED BY IDOCK:   -5.55 KCAL/MOL
REMARK 923 INTER-LIGAND FREE ENERGY PREDICTED BY IDOCK:   -5.74 KCAL/MOL
REMARK 924 INTRA-LIGAND FREE ENERGY PREDICTED BY IDOCK:    0.18 KCAL/MOL
REMARK 927      BINDING AFFINITY PREDICTED BY RF-SCORE:    0.00 PKD
ROOT
HETATM    1  C   UNL     1     -14.349  14.986  71.500  1.00  0.00    -0.651 C  
HETATM    2  C   UNL     1     -13.391  13.807  71.505  1.00  0.00    -0.391 C  
ENDROOT
BRANCH   2   3
HETATM    3  C   UNL     1     -12.339  13.971  70.422  1.00  0.00    -0.429 C  
HETATM    4  C   UNL     1     -11.435  14.112  69.492  1.00  0.00    -0.334 C  
HETATM    5  C   UNL     1     -10.383  14.276  68.408  1.00  0.00    -0.247 C  
HETATM    6  C   UNL     1      -9.014  13.982  69.031  1.00  0.00     0.167 C  
HETATM    7  C   UNL     1     -10.824  13.496  67.115  1.00  0.00    -0.291 C  
HETATM    8  O   UNL     1     -12.053  11.517  67.794  1.00  0.00    -0.626 OA 
HETATM    9  C   UNL     1      -9.759  13.678  66.056  1.00  0.00    -0.222 C  
HETATM   10  C   UNL     1      -9.714  10.274  68.591  1.00  0.00    -0.167 C  
HETATM   11  O   UNL     1      -9.667  14.676  65.340  1.00  0.00    -0.295 OA 
HETATM   12  N   UNL     1      -8.798  12.706  66.000  1.00  0.00    -0.390 N  
HETATM   13  H   UNL     1      -8.103  12.788  65.258  1.00  0.00     0.000 HD 
HETATM   14  C   UNL     1      -8.679  11.634  66.840  1.00  0.00    -0.185 C  
HETATM   15  C   UNL     1     -10.975  12.034  67.500  1.00  0.00    -0.253 C  
HETATM   16  N   UNL     1      -9.768  11.364  67.637  1.00  0.00    -0.171 N  
HETATM   17  O   UNL     1      -7.630  10.997  66.855  1.00  0.00    -0.119 OA 
BRANCH   7  18
HETATM   18  C   UNL     1     -12.163  14.110  66.598  1.00  0.00    -0.450 C  
BRANCH  18  19
HETATM   19  C   UNL     1     -12.873  13.368  65.491  1.00  0.00    -0.361 C  
HETATM   20  C   UNL     1     -12.477  13.403  64.212  1.00  0.00    -0.321 C  
ENDBRANCH  18  19
ENDBRANCH   7  18
ENDBRANCH   2   3
TORSDOF 3
ENDMDL
MODEL       29
REMARK 921   NORMALIZED FREE ENERGY PREDICTED BY IDOCK:   -4.66 KCAL/MOL
REMARK 922        TOTAL FREE ENERGY PREDICTED BY IDOCK:   -5.55 KCAL/MOL
REMARK 923 INTER-LIGAND FREE ENERGY PREDICTED BY IDOCK:   -5.50 KCAL/MOL
REMARK 924 INTRA-LIGAND FREE ENERGY PREDICTED BY IDOCK:   -0.05 KCAL/MOL
REMARK 927      BINDING AFFINITY PREDICTED BY RF-SCORE:    0.00 PKD
ROOT
HETATM    1  C   UNL     1     -11.972  12.980  63.679  1.00  0.00    -0.608 C  
HETATM    2  C   UNL     1     -12.911  12.966  64.872  1.00  0.00    -0.370 C  
ENDROOT
BRANCH   2   3
HETATM    3  C   UNL     1     -12.332  13.784  66.014  1.00  0.00    -0.499 C  
HETATM    4  C   UNL     1     -11.836  14.485  66.996  1.00  0.00    -0.408 C  
HETATM    5  C   UNL     1     -11.257  15.303  68.138  1.00  0.00    -0.328 C  
HETATM    6  C   UNL     1     -10.954  14.346  69.298  1.00  0.00    -0.281 C  
HETATM    7  C   UNL     1     -10.117  16.242  67.598  1.00  0.00    -0.260 C  
HETATM    8  O   UNL     1      -8.984  15.105  65.778  1.00  0.00    -0.102 OA 
HETATM    9  C   UNL     1      -9.562  17.042  68.756  1.00  0.00    -0.269 C  
HETATM   10  C   UNL     1      -7.707  13.417  67.558  1.00  0.00    -0.176 C  
HETATM   11  O   UNL     1     -10.094  18.058  69.204  1.00  0.00    -0.337 OA 
HETATM   12  N   UNL     1      -8.469  16.509  69.382  1.00  0.00    -0.043 N  
HETATM   13  H   UNL     1      -8.053  17.063  70.131  1.00  0.00     0.000 HD 
HETATM   14  C   UNL     1      -7.879  15.309  69.101  1.00  0.00    -0.204 C  
HETATM   15  C   UNL     1      -9.052  15.350  66.982  1.00  0.00    -0.227 C  
HETATM   16  N   UNL     1      -8.248  14.714  67.916  1.00  0.00    -0.140 N  
HETATM   17  O   UNL     1      -7.087  14.826  69.906  1.00  0.00    -0.168 OA 
BRANCH   7  18
HETATM   18  C   UNL     1     -10.738  17.224  66.554  1.00  0.00    -0.078 C  
BRANCH  18  19
HETATM   19  C   UNL     1      -9.930  18.452  66.207  1.00  0.00    -0.378 C  
HETATM   20  C   UNL     1     -10.472  19.667  66.055  1.00  0.00    -0.622 C  
ENDBRANCH  18  19
ENDBRANCH   7  18
ENDBRANCH   2   3
TORSDOF 3
ENDMDL
MODEL       30
REMARK 921   NORMALIZED FREE ENERGY PREDICTED BY IDOCK:   -4.64 KCAL/MOL
REMARK 922        TOTAL FREE ENERGY PREDICTED BY IDOCK:   -5.53 KCAL/MOL
REMARK 923 INTER-LIGAND FREE ENERGY PREDICTED BY IDOCK:   -5.37 KCAL/MOL
REMARK 924 INTRA-LIGAND FREE ENERGY PREDICTED BY IDOCK:   -0.16 KCAL/MOL
REMARK 927      BINDING AFFINITY PREDICTED BY RF-SCORE:    0.00 PKD
ROOT
HETATM    1  C   UNL     1     -11.198  15.803  64.674  1.00  0.00    -0.373 C  
HETATM    2  C   UNL     1     -12.144  14.647  64.405  1.00  0.00    -0.481 C  
ENDROOT
BRANCH   2   3
HETATM    3  C   UNL     1     -11.928  13.535  65.418  1.00  0.00    -0.406 C  
HETATM    4  C   UNL     1     -11.742  12.580  66.287  1.00  0.00    -0.462 C  
HETATM    5  C   UNL     1     -11.526  11.468  67.300  1.00  0.00    -0.338 C  
HETATM    6  C   UNL     1     -10.687  10.375  66.629  1.00  0.00    -0.198 C  
HETATM    7  C   UNL     1     -11.043  12.079  68.667  1.00  0.00    -0.298 C  
HETATM    8  O   UNL     1      -9.683  14.033  68.197  1.00  0.00    -0.208 OA 
HETATM    9  C   UNL     1     -10.838  10.950  69.653  1.00  0.00    -0.216 C  
HETATM   10  C   UNL     1      -7.582  12.435  67.370  1.00  0.00    -0.160 C  
HETATM   11  O   UNL     1     -11.750  10.422  70.290  1.00  0.00    -0.273 OA 
HETATM   12  N   UNL     1      -9.569  10.446  69.729  1.00  0.00    -0.413 N  
HETATM   13  H   UNL     1      -9.403   9.719  70.426  1.00  0.00     0.000 HD 
HETATM   14  C   UNL     1      -8.501  10.819  68.963  1.00  0.00    -0.133 C  
HETATM   15  C   UNL     1      -9.744  12.819  68.396  1.00  0.00    -0.186 C  
HETATM   16  N   UNL     1      -8.646  11.985  68.245  1.00  0.00    -0.174 N  
HETATM   17  O   UNL     1      -7.500  10.108  68.938  1.00  0.00    -0.077 OA 
BRANCH   7  18
HETATM   18  C   UNL     1     -12.160  13.028  69.208  1.00  0.00    -0.251 C  
BRANCH  18  19
HETATM   19  C   UNL     1     -11.939  13.634  70.573  1.00  0.00    -0.353 C  
HETATM   20  C   UNL     1     -12.018  14.949  70.814  1.00  0.00    -0.372 C  
ENDBRANCH  18  19
ENDBRANCH   7  18
ENDBRANCH   2   3
TORSDOF 3
ENDMDL
MODEL       31
REMARK 921   NORMALIZED FREE ENERGY PREDICTED BY IDOCK:   -4.59 KCAL/MOL
REMARK 922        TOTAL FREE ENERGY PREDICTED BY IDOCK:   -5.47 KCAL/MOL
REMARK 923 INTER-LIGAND FREE ENERGY PREDICTED BY IDOCK:   -5.45 KCAL/MOL
REMARK 924 INTRA-LIGAND FREE ENERGY PREDICTED BY IDOCK:   -0.02 KCAL/MOL
REMARK 927      BINDING AFFINITY PREDICTED BY RF-SCORE:    0.00 PKD
ROOT
HETATM    1  C   UNL     1     -10.681   6.135  67.841  1.00  0.00    -0.374 C  
HETATM    2  C   UNL     1      -9.882   7.122  67.008  1.00  0.00    -0.257 C  
ENDROOT
BRANCH   2   3
HETATM    3  C   UNL     1     -10.414   8.532  67.198  1.00  0.00    -0.370 C  
HETATM    4  C   UNL     1     -10.871   9.743  67.362  1.00  0.00    -0.265 C  
HETATM    5  C   UNL     1     -11.403  11.154  67.552  1.00  0.00    -0.351 C  
HETATM    6  C   UNL     1     -11.316  11.494  69.044  1.00  0.00    -0.339 C  
HETATM    7  C   UNL     1     -10.739  12.120  66.503  1.00  0.00    -0.290 C  
HETATM    8  O   UNL     1      -8.471  11.362  66.090  1.00  0.00    -0.172 OA 
HETATM    9  C   UNL     1     -11.287  13.513  66.717  1.00  0.00    -0.328 C  
HETATM   10  C   UNL     1      -7.644  12.331  68.545  1.00  0.00    -0.118 C  
HETATM   11  O   UNL     1     -12.373  13.896  66.280  1.00  0.00    -0.453 OA 
HETATM   12  N   UNL     1     -10.555  14.325  67.538  1.00  0.00    -0.260 N  
HETATM   13  H   UNL     1     -10.885  15.284  67.651  1.00  0.00     0.000 HD 
HETATM   14  C   UNL     1      -9.425  13.978  68.223  1.00  0.00    -0.216 C  
HETATM   15  C   UNL     1      -9.238  12.075  66.736  1.00  0.00    -0.201 C  
HETATM   16  N   UNL     1      -8.822  12.801  67.844  1.00  0.00    -0.177 N  
HETATM   17  O   UNL     1      -9.025  14.704  69.130  1.00  0.00    -0.133 OA 
BRANCH   7  18
HETATM   18  C   UNL     1     -11.126  11.636  65.070  1.00  0.00    -0.312 C  
BRANCH  18  19
HETATM   19  C   UNL     1     -10.376  12.254  63.914  1.00  0.00    -0.455 C  
HETATM   20  C   UNL     1      -9.730  11.533  62.988  1.00  0.00    -0.382 C  
ENDBRANCH  18  19
ENDBRANCH   7  18
ENDBRANCH   2   3
TORSDOF 3
ENDMDL
MODEL       32
REMARK 921   NORMALIZED FREE ENERGY PREDICTED BY IDOCK:   -4.58 KCAL/MOL
REMARK 922        TOTAL FREE ENERGY PREDICTED BY IDOCK:   -5.46 KCAL/MOL
REMARK 923 INTER-LIGAND FREE ENERGY PREDICTED BY IDOCK:   -5.30 KCAL/MOL
REMARK 924 INTRA-LIGAND FREE ENERGY PREDICTED BY IDOCK:   -0.16 KCAL/MOL
REMARK 927      BINDING AFFINITY PREDICTED BY RF-SCORE:    0.00 PKD
ROOT
HETATM    1  C   UNL     1      -9.873   5.477  74.517  1.00  0.00    -0.238 C  
HETATM    2  C   UNL     1      -8.633   6.301  74.221  1.00  0.00    -0.129 C  
ENDROOT
BRANCH   2   3
HETATM    3  C   UNL     1      -8.920   7.325  73.136  1.00  0.00    -0.182 C  
HETATM    4  C   UNL     1      -9.166   8.204  72.204  1.00  0.00    -0.258 C  
HETATM    5  C   UNL     1      -9.453   9.228  71.119  1.00  0.00    -0.287 C  
HETATM    6  C   UNL     1      -8.335   9.135  70.074  1.00  0.00    -0.156 C  
HETATM    7  C   UNL     1     -10.951   9.108  70.655  1.00  0.00    -0.319 C  
HETATM    8  O   UNL     1     -11.616   6.779  70.802  1.00  0.00    -0.323 OA 
HETATM    9  C   UNL     1     -11.206  10.138  69.577  1.00  0.00    -0.238 C  
HETATM   10  C   UNL     1     -10.140   6.161  68.546  1.00  0.00    -0.162 C  
HETATM   11  O   UNL     1     -11.444  11.324  69.806  1.00  0.00    -0.274 OA 
HETATM   12  N   UNL     1     -11.046   9.708  68.289  1.00  0.00    -0.496 N  
HETATM   13  H   UNL     1     -11.264  10.377  67.550  1.00  0.00     0.000 HD 
HETATM   14  C   UNL     1     -10.622   8.470  67.894  1.00  0.00    -0.156 C  
HETATM   15  C   UNL     1     -11.148   7.696  70.128  1.00  0.00    -0.218 C  
HETATM   16  N   UNL     1     -10.617   7.493  68.863  1.00  0.00    -0.199 N  
HETATM   17  O   UNL     1     -10.259   8.301  66.733  1.00  0.00    -0.279 OA 
BRANCH   7  18
HETATM   18  C   UNL     1     -11.874   9.414  71.878  1.00  0.00    -0.402 C  
BRANCH  18  19
HETATM   19  C   UNL     1     -13.359   9.475  71.614  1.00  0.00    -0.485 C  
HETATM   20  C   UNL     1     -14.247   8.682  72.228  1.00  0.00    -0.497 C  
ENDBRANCH  18  19
ENDBRANCH   7  18
ENDBRANCH   2   3
TORSDOF 3
ENDMDL
MODEL       33
REMARK 921   NORMALIZED FREE ENERGY PREDICTED BY IDOCK:   -4.58 KCAL/MOL
REMARK 922        TOTAL FREE ENERGY PREDICTED BY IDOCK:   -5.46 KCAL/MOL
REMARK 923 INTER-LIGAND FREE ENERGY PREDICTED BY IDOCK:   -5.40 KCAL/MOL
REMARK 924 INTRA-LIGAND FREE ENERGY PREDICTED BY IDOCK:   -0.06 KCAL/MOL
REMARK 927      BINDING AFFINITY PREDICTED BY RF-SCORE:    0.00 PKD
ROOT
HETATM    1  C   UNL     1      -7.452  10.643  68.700  1.00  0.00    -0.098 C  
HETATM    2  C   UNL     1      -7.319   9.138  68.548  1.00  0.00    -0.077 C  
ENDROOT
BRANCH   2   3
HETATM    3  C   UNL     1      -8.592   8.443  68.999  1.00  0.00    -0.131 C  
HETATM    4  C   UNL     1      -9.685   7.845  69.387  1.00  0.00    -0.170 C  
HETATM    5  C   UNL     1     -10.958   7.150  69.838  1.00  0.00    -0.278 C  
HETATM    6  C   UNL     1     -10.711   5.637  69.798  1.00  0.00    -0.401 C  
HETATM    7  C   UNL     1     -11.483   7.808  71.167  1.00  0.00    -0.295 C  
HETATM    8  O   UNL     1      -9.570   8.536  72.470  1.00  0.00    -0.282 OA 
HETATM    9  C   UNL     1     -12.749   7.096  71.591  1.00  0.00    -0.379 C  
HETATM   10  C   UNL     1      -8.988   5.925  73.172  1.00  0.00    -0.131 C  
HETATM   11  O   UNL     1     -13.860   7.333  71.115  1.00  0.00    -0.319 OA 
HETATM   12  N   UNL     1     -12.588   6.064  72.473  1.00  0.00    -0.485 N  
HETATM   13  H   UNL     1     -13.438   5.607  72.807  1.00  0.00     0.000 HD 
HETATM   14  C   UNL     1     -11.402   5.583  72.951  1.00  0.00    -0.291 C  
HETATM   15  C   UNL     1     -10.388   7.654  72.209  1.00  0.00    -0.224 C  
HETATM   16  N   UNL     1     -10.296   6.375  72.740  1.00  0.00    -0.193 N  
HETATM   17  O   UNL     1     -11.378   4.491  73.513  1.00  0.00    -0.314 OA 
BRANCH   7  18
HETATM   18  C   UNL     1     -11.815   9.307  70.880  1.00  0.00    -0.346 C  
BRANCH  18  19
HETATM   19  C   UNL     1     -12.621  10.040  71.925  1.00  0.00    -0.454 C  
HETATM   20  C   UNL     1     -13.110  11.274  71.743  1.00  0.00    -0.527 C  
ENDBRANCH  18  19
ENDBRANCH   7  18
ENDBRANCH   2   3
TORSDOF 3
ENDMDL
MODEL       34
REMARK 921   NORMALIZED FREE ENERGY PREDICTED BY IDOCK:   -4.56 KCAL/MOL
REMARK 922        TOTAL FREE ENERGY PREDICTED BY IDOCK:   -5.44 KCAL/MOL
REMARK 923 INTER-LIGAND FREE ENERGY PREDICTED BY IDOCK:   -5.31 KCAL/MOL
REMARK 924 INTRA-LIGAND FREE ENERGY PREDICTED BY IDOCK:   -0.13 KCAL/MOL
REMARK 927      BINDING AFFINITY PREDICTED BY RF-SCORE:    0.00 PKD
ROOT
HETATM    1  C   UNL     1     -12.196  14.494  64.514  1.00  0.00    -0.483 C  
HETATM    2  C   UNL     1     -12.411  13.024  64.202  1.00  0.00    -0.429 C  
ENDROOT
BRANCH   2   3
HETATM    3  C   UNL     1     -11.669  12.153  65.202  1.00  0.00    -0.366 C  
HETATM    4  C   UNL     1     -11.032  11.405  66.060  1.00  0.00    -0.286 C  
HETATM    5  C   UNL     1     -10.291  10.534  67.060  1.00  0.00    -0.289 C  
HETATM    6  C   UNL     1      -8.953  10.127  66.432  1.00  0.00    -0.163 C  
HETATM    7  C   UNL     1     -10.298  11.222  68.475  1.00  0.00    -0.217 C  
HETATM    8  O   UNL     1     -10.223  13.627  68.160  1.00  0.00    -0.233 OA 
HETATM    9  C   UNL     1      -9.555  10.333  69.447  1.00  0.00    -0.218 C  
HETATM   10  C   UNL     1      -7.549  13.504  67.463  1.00  0.00    -0.167 C  
HETATM   11  O   UNL     1     -10.054   9.351  69.997  1.00  0.00    -0.196 OA 
HETATM   12  N   UNL     1      -8.225  10.606  69.611  1.00  0.00    -0.382 N  
HETATM   13  H   UNL     1      -7.722  10.047  70.301  1.00  0.00     0.000 HD 
HETATM   14  C   UNL     1      -7.503  11.553  68.940  1.00  0.00    -0.106 C  
HETATM   15  C   UNL     1      -9.613  12.570  68.324  1.00  0.00    -0.209 C  
HETATM   16  N   UNL     1      -8.231  12.489  68.241  1.00  0.00    -0.168 N  
HETATM   17  O   UNL     1      -6.276  11.512  68.977  1.00  0.00    -0.051 OA 
BRANCH   7  18
HETATM   18  C   UNL     1     -11.780  11.364  68.949  1.00  0.00    -0.409 C  
BRANCH  18  19
HETATM   19  C   UNL     1     -12.001  11.815  70.372  1.00  0.00    -0.422 C  
HETATM   20  C   UNL     1     -12.788  11.159  71.236  1.00  0.00    -0.515 C  
ENDBRANCH  18  19
ENDBRANCH   7  18
ENDBRANCH   2   3
TORSDOF 3
ENDMDL
MODEL       35
REMARK 921   NORMALIZED FREE ENERGY PREDICTED BY IDOCK:   -4.50 KCAL/MOL
REMARK 922        TOTAL FREE ENERGY PREDICTED BY IDOCK:   -5.37 KCAL/MOL
REMARK 923 INTER-LIGAND FREE ENERGY PREDICTED BY IDOCK:   -5.34 KCAL/MOL
REMARK 924 INTRA-LIGAND FREE ENERGY PREDICTED BY IDOCK:   -0.03 KCAL/MOL
REMARK 927      BINDING AFFINITY PREDICTED BY RF-SCORE:    0.00 PKD
ROOT
HETATM    1  C   UNL     1      -7.921   7.071  65.867  1.00  0.00    -0.113 C  
HETATM    2  C   UNL     1      -7.965   8.174  66.909  1.00  0.00    -0.104 C  
ENDROOT
BRANCH   2   3
HETATM    3  C   UNL     1      -9.046   7.892  67.939  1.00  0.00    -0.133 C  
HETATM    4  C   UNL     1      -9.975   7.648  68.822  1.00  0.00    -0.178 C  
HETATM    5  C   UNL     1     -11.056   7.366  69.851  1.00  0.00    -0.208 C  
HETATM    6  C   UNL     1     -10.808   5.966  70.426  1.00  0.00    -0.378 C  
HETATM    7  C   UNL     1     -11.190   8.588  70.833  1.00  0.00    -0.304 C  
HETATM    8  O   UNL     1      -8.996   9.582  71.125  1.00  0.00    -0.249 OA 
HETATM    9  C   UNL     1     -12.272   8.277  71.843  1.00  0.00    -0.337 C  
HETATM   10  C   UNL     1      -8.200   7.481  72.737  1.00  0.00    -0.117 C  
HETATM   11  O   UNL     1     -13.476   8.412  71.621  1.00  0.00    -0.337 OA 
HETATM   12  N   UNL     1     -11.852   7.715  73.017  1.00  0.00    -0.598 N  
HETATM   13  H   UNL     1     -12.565   7.547  73.728  1.00  0.00     0.000 HD 
HETATM   14  C   UNL     1     -10.572   7.355  73.330  1.00  0.00    -0.377 C  
HETATM   15  C   UNL     1      -9.841   8.774  71.507  1.00  0.00    -0.301 C  
HETATM   16  N   UNL     1      -9.584   7.847  72.508  1.00  0.00    -0.193 N  
HETATM   17  O   UNL     1     -10.373   6.617  74.292  1.00  0.00    -0.361 OA 
BRANCH   7  18
HETATM   18  C   UNL     1     -11.613   9.844  70.006  1.00  0.00    -0.235 C  
BRANCH  18  19
HETATM   19  C   UNL     1     -12.137  11.027  70.782  1.00  0.00    -0.467 C  
HETATM   20  C   UNL     1     -12.022  12.293  70.358  1.00  0.00    -0.349 C  
ENDBRANCH  18  19
ENDBRANCH   7  18
ENDBRANCH   2   3
TORSDOF 3
ENDMDL
MODEL       36
REMARK 921   NORMALIZED FREE ENERGY PREDICTED BY IDOCK:   -4.47 KCAL/MOL
REMARK 922        TOTAL FREE ENERGY PREDICTED BY IDOCK:   -5.33 KCAL/MOL
REMARK 923 INTER-LIGAND FREE ENERGY PREDICTED BY IDOCK:   -5.20 KCAL/MOL
REMARK 924 INTRA-LIGAND FREE ENERGY PREDICTED BY IDOCK:   -0.14 KCAL/MOL
REMARK 927      BINDING AFFINITY PREDICTED BY RF-SCORE:    0.00 PKD
ROOT
HETATM    1  C   UNL     1     -12.561   9.359  71.749  1.00  0.00    -0.470 C  
HETATM    2  C   UNL     1     -13.080  10.440  70.818  1.00  0.00    -0.362 C  
ENDROOT
BRANCH   2   3
HETATM    3  C   UNL     1     -11.961  10.962  69.932  1.00  0.00    -0.430 C  
HETATM    4  C   UNL     1     -11.000  11.409  69.171  1.00  0.00    -0.289 C  
HETATM    5  C   UNL     1      -9.881  11.930  68.285  1.00  0.00    -0.199 C  
HETATM    6  C   UNL     1      -9.704  10.949  67.121  1.00  0.00    -0.199 C  
HETATM    7  C   UNL     1     -10.112  13.456  67.977  1.00  0.00    -0.241 C  
HETATM    8  O   UNL     1     -12.501  13.862  67.855  1.00  0.00    -0.113 OA 
HETATM    9  C   UNL     1      -8.984  13.945  67.096  1.00  0.00    -0.235 C  
HETATM   10  C   UNL     1     -12.638  12.627  65.384  1.00  0.00    -0.218 C  
HETATM   11  O   UNL     1      -7.874  14.269  67.520  1.00  0.00    -0.167 OA 
HETATM   12  N   UNL     1      -9.217  13.906  65.749  1.00  0.00    -0.437 N  
HETATM   13  H   UNL     1      -8.485  14.280  65.144  1.00  0.00     0.000 HD 
HETATM   14  C   UNL     1     -10.334  13.414  65.133  1.00  0.00    -0.336 C  
HETATM   15  C   UNL     1     -11.454  13.576  67.275  1.00  0.00    -0.339 C  
HETATM   16  N   UNL     1     -11.424  13.190  65.942  1.00  0.00    -0.322 N  
HETATM   17  O   UNL     1     -10.303  13.185  63.927  1.00  0.00    -0.354 OA 
BRANCH   7  18
HETATM   18  C   UNL     1     -10.081  14.244  69.325  1.00  0.00     0.014 C  
BRANCH  18  19
HETATM   19  C   UNL     1     -10.107  15.750  69.237  1.00  0.00    -0.255 C  
HETATM   20  C   UNL     1     -10.936  16.514  69.960  1.00  0.00    -0.245 C  
ENDBRANCH  18  19
ENDBRANCH   7  18
ENDBRANCH   2   3
TORSDOF 3
ENDMDL
MODEL       37
REMARK 921   NORMALIZED FREE ENERGY PREDICTED BY IDOCK:   -4.46 KCAL/MOL
REMARK 922        TOTAL FREE ENERGY PREDICTED BY IDOCK:   -5.33 KCAL/MOL
REMARK 923 INTER-LIGAND FREE ENERGY PREDICTED BY IDOCK:   -5.18 KCAL/MOL
REMARK 924 INTRA-LIGAND FREE ENERGY PREDICTED BY IDOCK:   -0.15 KCAL/MOL
REMARK 927      BINDING AFFINITY PREDICTED BY RF-SCORE:    0.00 PKD
ROOT
HETATM    1  C   UNL     1     -13.184  10.236  71.790  1.00  0.00    -0.534 C  
HETATM    2  C   UNL     1     -12.538  11.467  71.179  1.00  0.00    -0.490 C  
ENDROOT
BRANCH   2   3
HETATM    3  C   UNL     1     -11.615  11.073  70.038  1.00  0.00    -0.427 C  
HETATM    4  C   UNL     1     -10.824  10.734  69.058  1.00  0.00    -0.278 C  
HETATM    5  C   UNL     1      -9.902  10.340  67.917  1.00  0.00    -0.181 C  
HETATM    6  C   UNL     1     -10.682   9.413  66.977  1.00  0.00    -0.207 C  
HETATM    7  C   UNL     1      -9.204  11.621  67.329  1.00  0.00    -0.170 C  
HETATM    8  O   UNL     1     -10.750  13.484  67.498  1.00  0.00    -0.255 OA 
HETATM    9  C   UNL     1      -8.294  11.198  66.197  1.00  0.00    -0.144 C  
HETATM   10  C   UNL     1     -12.257  12.491  65.402  1.00  0.00    -0.412 C  
HETATM   11  O   UNL     1      -7.162  10.741  66.362  1.00  0.00    -0.126 OA 
HETATM   12  N   UNL     1      -8.838  11.238  64.943  1.00  0.00    -0.388 N  
HETATM   13  H   UNL     1      -8.221  11.004  64.165  1.00  0.00     0.000 HD 
HETATM   14  C   UNL     1     -10.129  11.561  64.630  1.00  0.00    -0.271 C  
HETATM   15  C   UNL     1     -10.303  12.547  66.836  1.00  0.00    -0.229 C  
HETATM   16  N   UNL     1     -10.865  12.155  65.630  1.00  0.00    -0.274 N  
HETATM   17  O   UNL     1     -10.561  11.295  63.512  1.00  0.00    -0.371 OA 
BRANCH   7  18
HETATM   18  C   UNL     1      -8.342  12.277  68.454  1.00  0.00    -0.144 C  
BRANCH  18  19
HETATM   19  C   UNL     1      -7.595  13.538  68.095  1.00  0.00    -0.138 C  
HETATM   20  C   UNL     1      -7.576  14.628  68.873  1.00  0.00    -0.139 C  
ENDBRANCH  18  19
ENDBRANCH   7  18
ENDBRANCH   2   3
TORSDOF 3
ENDMDL
MODEL       38
REMARK 921   NORMALIZED FREE ENERGY PREDICTED BY IDOCK:   -4.43 KCAL/MOL
REMARK 922        TOTAL FREE ENERGY PREDICTED BY IDOCK:   -5.29 KCAL/MOL
REMARK 923 INTER-LIGAND FREE ENERGY PREDICTED BY IDOCK:   -5.28 KCAL/MOL
REMARK 924 INTRA-LIGAND FREE ENERGY PREDICTED BY IDOCK:   -0.01 KCAL/MOL
REMARK 927      BINDING AFFINITY PREDICTED BY RF-SCORE:    0.00 PKD
ROOT
HETATM    1  C   UNL     1      -6.958   8.418  68.554  1.00  0.00    -0.069 C  
HETATM    2  C   UNL     1      -8.061   8.710  67.553  1.00  0.00    -0.106 C  
ENDROOT
BRANCH   2   3
HETATM    3  C   UNL     1      -8.703  10.056  67.845  1.00  0.00    -0.125 C  
HETATM    4  C   UNL     1      -9.253  11.212  68.095  1.00  0.00    -0.166 C  
HETATM    5  C   UNL     1      -9.895  12.558  68.387  1.00  0.00    -0.202 C  
HETATM    6  C   UNL     1      -8.967  13.651  67.846  1.00  0.00    -0.195 C  
HETATM    7  C   UNL     1     -11.403  12.537  67.940  1.00  0.00    -0.343 C  
HETATM    8  O   UNL     1     -11.604  11.117  65.982  1.00  0.00    -0.082 OA 
HETATM    9  C   UNL     1     -12.014  13.888  68.243  1.00  0.00    -0.357 C  
HETATM   10  C   UNL     1     -10.435  13.055  64.392  1.00  0.00    -0.404 C  
HETATM   11  O   UNL     1     -12.420  14.222  69.357  1.00  0.00    -0.263 OA 
HETATM   12  N   UNL     1     -11.994  14.797  67.221  1.00  0.00    -0.464 N  
HETATM   13  H   UNL     1     -12.448  15.694  67.395  1.00  0.00     0.000 HD 
HETATM   14  C   UNL     1     -11.425  14.621  65.991  1.00  0.00    -0.332 C  
HETATM   15  C   UNL     1     -11.427  12.242  66.449  1.00  0.00    -0.378 C  
HETATM   16  N   UNL     1     -11.084  13.330  65.659  1.00  0.00    -0.281 N  
HETATM   17  O   UNL     1     -11.235  15.598  65.272  1.00  0.00    -0.311 OA 
BRANCH   7  18
HETATM   18  C   UNL     1     -12.151  11.445  68.768  1.00  0.00    -0.256 C  
BRANCH  18  19
HETATM   19  C   UNL     1     -11.830  11.365  70.241  1.00  0.00    -0.438 C  
HETATM   20  C   UNL     1     -12.750  11.109  71.180  1.00  0.00    -0.510 C  
ENDBRANCH  18  19
ENDBRANCH   7  18
ENDBRANCH   2   3
TORSDOF 3
ENDMDL
MODEL       39
REMARK 921   NORMALIZED FREE ENERGY PREDICTED BY IDOCK:   -4.43 KCAL/MOL
REMARK 922        TOTAL FREE ENERGY PREDICTED BY IDOCK:   -5.29 KCAL/MOL
REMARK 923 INTER-LIGAND FREE ENERGY PREDICTED BY IDOCK:   -5.14 KCAL/MOL
REMARK 924 INTRA-LIGAND FREE ENERGY PREDICTED BY IDOCK:   -0.15 KCAL/MOL
REMARK 927      BINDING AFFINITY PREDICTED BY RF-SCORE:    0.00 PKD
ROOT
HETATM    1  C   UNL     1     -13.437  12.729  72.165  1.00  0.00    -0.591 C  
HETATM    2  C   UNL     1     -12.584  12.087  71.085  1.00  0.00    -0.372 C  
ENDROOT
BRANCH   2   3
HETATM    3  C   UNL     1     -12.352  10.617  71.392  1.00  0.00    -0.455 C  
HETATM    4  C   UNL     1     -12.155   9.355  71.655  1.00  0.00    -0.462 C  
HETATM    5  C   UNL     1     -11.924   7.885  71.962  1.00  0.00    -0.364 C  
HETATM    6  C   UNL     1     -12.896   7.065  71.107  1.00  0.00    -0.328 C  
HETATM    7  C   UNL     1     -10.385   7.563  71.901  1.00  0.00    -0.226 C  
HETATM    8  O   UNL     1      -9.375   8.967  70.199  1.00  0.00    -0.162 OA 
HETATM    9  C   UNL     1     -10.187   6.095  72.211  1.00  0.00    -0.185 C  
HETATM   10  C   UNL     1     -10.488   7.425  68.191  1.00  0.00    -0.193 C  
HETATM   11  O   UNL     1     -10.169   5.632  73.352  1.00  0.00    -0.182 OA 
HETATM   12  N   UNL     1     -10.141   5.256  71.131  1.00  0.00    -0.207 N  
HETATM   13  H   UNL     1      -9.957   4.271  71.322  1.00  0.00     0.000 HD 
HETATM   14  C   UNL     1     -10.317   5.609  69.823  1.00  0.00    -0.282 C  
HETATM   15  C   UNL     1      -9.910   7.900  70.497  1.00  0.00    -0.186 C  
HETATM   16  N   UNL     1     -10.267   6.956  69.545  1.00  0.00    -0.180 N  
HETATM   17  O   UNL     1     -10.524   4.733  68.987  1.00  0.00    -0.046 OA 
BRANCH   7  18
HETATM   18  C   UNL     1      -9.657   8.414  72.989  1.00  0.00    -0.215 C  
BRANCH  18  19
HETATM   19  C   UNL     1      -8.174   8.185  73.155  1.00  0.00    -0.253 C  
HETATM   20  C   UNL     1      -7.581   8.052  74.349  1.00  0.00    -0.251 C  
ENDBRANCH  18  19
ENDBRANCH   7  18
ENDBRANCH   2   3
TORSDOF 3
ENDMDL
MODEL       40
REMARK 921   NORMALIZED FREE ENERGY PREDICTED BY IDOCK:   -4.42 KCAL/MOL
REMARK 922        TOTAL FREE ENERGY PREDICTED BY IDOCK:   -5.28 KCAL/MOL
REMARK 923 INTER-LIGAND FREE ENERGY PREDICTED BY IDOCK:   -5.14 KCAL/MOL
REMARK 924 INTRA-LIGAND FREE ENERGY PREDICTED BY IDOCK:   -0.14 KCAL/MOL
REMARK 927      BINDING AFFINITY PREDICTED BY RF-SCORE:    0.00 PKD
ROOT
HETATM    1  C   UNL     1     -11.026  16.387  68.093  1.00  0.00    -0.339 C  
HETATM    2  C   UNL     1     -10.091  15.656  69.040  1.00  0.00    -0.227 C  
ENDROOT
BRANCH   2   3
HETATM    3  C   UNL     1      -9.762  14.274  68.503  1.00  0.00    -0.225 C  
HETATM    4  C   UNL     1      -9.479  13.087  68.041  1.00  0.00    -0.217 C  
HETATM    5  C   UNL     1      -9.150  11.704  67.503  1.00  0.00    -0.172 C  
HETATM    6  C   UNL     1      -8.225  11.013  68.512  1.00  0.00    -0.146 C  
HETATM    7  C   UNL     1     -10.470  10.981  67.050  1.00  0.00    -0.284 C  
HETATM    8  O   UNL     1     -12.274  11.684  68.513  1.00  0.00    -0.485 OA 
HETATM    9  C   UNL     1     -10.111   9.610  66.520  1.00  0.00    -0.244 C  
HETATM   10  C   UNL     1     -11.291  10.112  70.566  1.00  0.00    -0.338 C  
HETATM   11  O   UNL     1      -9.688   9.405  65.381  1.00  0.00    -0.280 OA 
HETATM   12  N   UNL     1     -10.169   8.585  67.423  1.00  0.00    -0.239 N  
HETATM   13  H   UNL     1      -9.979   7.647  67.068  1.00  0.00     0.000 HD 
HETATM   14  C   UNL     1     -10.456   8.693  68.755  1.00  0.00    -0.185 C  
HETATM   15  C   UNL     1     -11.372  10.882  68.268  1.00  0.00    -0.308 C  
HETATM   16  N   UNL     1     -10.997   9.891  69.163  1.00  0.00    -0.220 N  
HETATM   17  O   UNL     1     -10.208   7.751  69.502  1.00  0.00    -0.197 OA 
BRANCH   7  18
HETATM   18  C   UNL     1     -11.122  11.814  65.901  1.00  0.00    -0.355 C  
BRANCH  18  19
HETATM   19  C   UNL     1     -10.186  12.564  64.985  1.00  0.00    -0.301 C  
HETATM   20  C   UNL     1     -10.416  13.815  64.564  1.00  0.00    -0.378 C  
ENDBRANCH  18  19
ENDBRANCH   7  18
ENDBRANCH   2   3
TORSDOF 3
ENDMDL
MODEL       41
REMARK 921   NORMALIZED FREE ENERGY PREDICTED BY IDOCK:   -4.42 KCAL/MOL
REMARK 922        TOTAL FREE ENERGY PREDICTED BY IDOCK:   -5.27 KCAL/MOL
REMARK 923 INTER-LIGAND FREE ENERGY PREDICTED BY IDOCK:   -5.20 KCAL/MOL
REMARK 924 INTRA-LIGAND FREE ENERGY PREDICTED BY IDOCK:   -0.07 KCAL/MOL
REMARK 927      BINDING AFFINITY PREDICTED BY RF-SCORE:    0.00 PKD
ROOT
HETATM    1  C   UNL     1     -10.434   5.616  66.763  1.00  0.00    -0.353 C  
HETATM    2  C   UNL     1     -11.258   6.833  67.144  1.00  0.00    -0.276 C  
ENDROOT
BRANCH   2   3
HETATM    3  C   UNL     1     -10.474   8.109  66.886  1.00  0.00    -0.379 C  
HETATM    4  C   UNL     1      -9.801   9.204  66.664  1.00  0.00    -0.307 C  
HETATM    5  C   UNL     1      -9.017  10.480  66.406  1.00  0.00    -0.174 C  
HETATM    6  C   UNL     1      -8.892  10.659  64.888  1.00  0.00    -0.204 C  
HETATM    7  C   UNL     1      -9.607  11.653  67.273  1.00  0.00    -0.182 C  
HETATM    8  O   UNL     1     -12.002  11.322  67.484  1.00  0.00    -0.612 OA 
HETATM    9  C   UNL     1      -8.807  12.906  66.995  1.00  0.00    -0.208 C  
HETATM   10  C   UNL     1     -12.397  12.127  64.867  1.00  0.00    -0.179 C  
HETATM   11  O   UNL     1      -7.721  13.157  67.519  1.00  0.00    -0.148 OA 
HETATM   12  N   UNL     1      -9.301  13.728  66.019  1.00  0.00    -0.503 N  
HETATM   13  H   UNL     1      -8.801  14.602  65.857  1.00  0.00     0.000 HD 
HETATM   14  C   UNL     1     -10.400  13.492  65.241  1.00  0.00    -0.331 C  
HETATM   15  C   UNL     1     -11.062  11.824  66.868  1.00  0.00    -0.307 C  
HETATM   16  N   UNL     1     -11.232  12.477  65.656  1.00  0.00    -0.305 N  
HETATM   17  O   UNL     1     -10.575  14.165  64.229  1.00  0.00    -0.234 OA 
BRANCH   7  18
HETATM   18  C   UNL     1      -9.456  11.278  68.781  1.00  0.00    -0.147 C  
BRANCH  18  19
HETATM   19  C   UNL     1      -8.263  10.433  69.159  1.00  0.00    -0.157 C  
HETATM   20  C   UNL     1      -8.277   9.556  70.171  1.00  0.00    -0.192 C  
ENDBRANCH  18  19
ENDBRANCH   7  18
ENDBRANCH   2   3
TORSDOF 3
ENDMDL
MODEL       42
REMARK 921   NORMALIZED FREE ENERGY PREDICTED BY IDOCK:   -4.37 KCAL/MOL
REMARK 922        TOTAL FREE ENERGY PREDICTED BY IDOCK:   -5.22 KCAL/MOL
REMARK 923 INTER-LIGAND FREE ENERGY PREDICTED BY IDOCK:   -5.08 KCAL/MOL
REMARK 924 INTRA-LIGAND FREE ENERGY PREDICTED BY IDOCK:   -0.14 KCAL/MOL
REMARK 927      BINDING AFFINITY PREDICTED BY RF-SCORE:    0.00 PKD
ROOT
HETATM    1  C   UNL     1      -5.833  10.847  67.593  1.00  0.00    -0.043 C  
HETATM    2  C   UNL     1      -6.851  11.450  66.642  1.00  0.00    -0.108 C  
ENDROOT
BRANCH   2   3
HETATM    3  C   UNL     1      -7.719  12.466  67.365  1.00  0.00    -0.170 C  
HETATM    4  C   UNL     1      -8.462  13.339  67.987  1.00  0.00    -0.170 C  
HETATM    5  C   UNL     1      -9.330  14.356  68.710  1.00  0.00    -0.150 C  
HETATM    6  C   UNL     1      -8.402  15.355  69.411  1.00  0.00    -0.250 C  
HETATM    7  C   UNL     1     -10.445  14.892  67.739  1.00  0.00    -0.255 C  
HETATM    8  O   UNL     1      -9.540  14.951  65.488  1.00  0.00    -0.296 OA 
HETATM    9  C   UNL     1     -11.290  15.900  68.486  1.00  0.00    -0.374 C  
HETATM   10  C   UNL     1      -8.021  17.180  66.101  1.00  0.00    -0.262 C  
HETATM   11  O   UNL     1     -12.203  15.593  69.254  1.00  0.00    -0.303 OA 
HETATM   12  N   UNL     1     -10.915  17.209  68.358  1.00  0.00    -0.296 N  
HETATM   13  H   UNL     1     -11.506  17.904  68.814  1.00  0.00     0.000 HD 
HETATM   14  C   UNL     1      -9.826  17.677  67.678  1.00  0.00    -0.294 C  
HETATM   15  C   UNL     1      -9.741  15.533  66.554  1.00  0.00    -0.270 C  
HETATM   16  N   UNL     1      -9.211  16.785  66.829  1.00  0.00    -0.232 N  
HETATM   17  O   UNL     1      -9.449  18.830  67.867  1.00  0.00    -0.291 OA 
BRANCH   7  18
HETATM   18  C   UNL     1     -11.347  13.692  67.309  1.00  0.00    -0.346 C  
BRANCH  18  19
HETATM   19  C   UNL     1     -12.446  13.985  66.316  1.00  0.00    -0.439 C  
HETATM   20  C   UNL     1     -12.648  13.258  65.209  1.00  0.00    -0.528 C  
ENDBRANCH  18  19
ENDBRANCH   7  18
ENDBRANCH   2   3
TORSDOF 3
ENDMDL
MODEL       43
REMARK 921   NORMALIZED FREE ENERGY PREDICTED BY IDOCK:   -4.35 KCAL/MOL
REMARK 922        TOTAL FREE ENERGY PREDICTED BY IDOCK:   -5.20 KCAL/MOL
REMARK 923 INTER-LIGAND FREE ENERGY PREDICTED BY IDOCK:   -5.13 KCAL/MOL
REMARK 924 INTRA-LIGAND FREE ENERGY PREDICTED BY IDOCK:   -0.07 KCAL/MOL
REMARK 927      BINDING AFFINITY PREDICTED BY RF-SCORE:    0.00 PKD
ROOT
HETATM    1  C   UNL     1     -13.219  12.277  71.857  1.00  0.00    -0.481 C  
HETATM    2  C   UNL     1     -13.431  10.779  71.728  1.00  0.00    -0.303 C  
ENDROOT
BRANCH   2   3
HETATM    3  C   UNL     1     -12.103  10.069  71.527  1.00  0.00    -0.475 C  
HETATM    4  C   UNL     1     -10.963   9.459  71.355  1.00  0.00    -0.443 C  
HETATM    5  C   UNL     1      -9.635   8.748  71.154  1.00  0.00    -0.309 C  
HETATM    6  C   UNL     1      -9.046   8.448  72.537  1.00  0.00    -0.326 C  
HETATM    7  C   UNL     1      -9.809   7.575  70.121  1.00  0.00    -0.180 C  
HETATM    8  O   UNL     1     -12.038   6.650  70.378  1.00  0.00    -0.374 OA 
HETATM    9  C   UNL     1      -8.473   6.889  69.941  1.00  0.00    -0.140 C  
HETATM   10  C   UNL     1     -11.302   5.398  72.732  1.00  0.00    -0.296 C  
HETATM   11  O   UNL     1      -7.579   7.311  69.207  1.00  0.00    -0.097 OA 
HETATM   12  N   UNL     1      -8.246   5.802  70.741  1.00  0.00    -0.121 N  
HETATM   13  H   UNL     1      -7.371   5.299  70.595  1.00  0.00     0.000 HD 
HETATM   14  C   UNL     1      -9.077   5.326  71.716  1.00  0.00    -0.138 C  
HETATM   15  C   UNL     1     -10.848   6.623  70.691  1.00  0.00    -0.253 C  
HETATM   16  N   UNL     1     -10.364   5.813  71.708  1.00  0.00    -0.214 N  
HETATM   17  O   UNL     1      -8.641   4.525  72.538  1.00  0.00    -0.112 OA 
BRANCH   7  18
HETATM   18  C   UNL     1     -10.256   8.182  68.752  1.00  0.00    -0.221 C  
BRANCH  18  19
HETATM   19  C   UNL     1     -10.119   7.298  67.536  1.00  0.00    -0.250 C  
HETATM   20  C   UNL     1     -11.144   6.622  67.001  1.00  0.00    -0.395 C  
ENDBRANCH  18  19
ENDBRANCH   7  18
ENDBRANCH   2   3
TORSDOF 3
ENDMDL
MODEL       44
REMARK 921   NORMALIZED FREE ENERGY PREDICTED BY IDOCK:   -4.31 KCAL/MOL
REMARK 922        TOTAL FREE ENERGY PREDICTED BY IDOCK:   -5.15 KCAL/MOL
REMARK 923 INTER-LIGAND FREE ENERGY PREDICTED BY IDOCK:   -5.15 KCAL/MOL
REMARK 924 INTRA-LIGAND FREE ENERGY PREDICTED BY IDOCK:    0.00 KCAL/MOL
REMARK 927      BINDING AFFINITY PREDICTED BY RF-SCORE:    0.00 PKD
ROOT
HETATM    1  C   UNL     1     -13.039  11.774  71.754  1.00  0.00    -0.480 C  
HETATM    2  C   UNL     1     -13.404  10.330  71.459  1.00  0.00    -0.413 C  
ENDROOT
BRANCH   2   3
HETATM    3  C   UNL     1     -12.154   9.510  71.187  1.00  0.00    -0.429 C  
HETATM    4  C   UNL     1     -11.080   8.807  70.953  1.00  0.00    -0.320 C  
HETATM    5  C   UNL     1      -9.830   7.988  70.681  1.00  0.00    -0.192 C  
HETATM    6  C   UNL     1      -8.732   8.469  71.636  1.00  0.00    -0.262 C  
HETATM    7  C   UNL     1     -10.195   6.458  70.636  1.00  0.00    -0.229 C  
HETATM    8  O   UNL     1     -12.001   6.053  72.205  1.00  0.00    -0.318 OA 
HETATM    9  C   UNL     1      -8.933   5.670  70.363  1.00  0.00    -0.140 C  
HETATM   10  C   UNL     1     -10.265   6.290  74.346  1.00  0.00    -0.321 C  
HETATM   11  O   UNL     1      -8.449   5.517  69.241  1.00  0.00    -0.100 OA 
HETATM   12  N   UNL     1      -8.263   5.211  71.465  1.00  0.00    -0.114 N  
HETATM   13  H   UNL     1      -7.439   4.635  71.295  1.00  0.00     0.000 HD 
HETATM   14  C   UNL     1      -8.591   5.449  72.770  1.00  0.00    -0.119 C  
HETATM   15  C   UNL     1     -10.790   6.097  71.987  1.00  0.00    -0.247 C  
HETATM   16  N   UNL     1      -9.847   5.964  72.996  1.00  0.00    -0.166 N  
HETATM   17  O   UNL     1      -7.766   5.217  73.649  1.00  0.00    -0.100 OA 
BRANCH   7  18
HETATM   18  C   UNL     1     -11.203   6.223  69.467  1.00  0.00    -0.500 C  
BRANCH  18  19
HETATM   19  C   UNL     1     -10.901   6.909  68.157  1.00  0.00    -0.258 C  
HETATM   20  C   UNL     1     -10.999   6.299  66.968  1.00  0.00    -0.442 C  
ENDBRANCH  18  19
ENDBRANCH   7  18
ENDBRANCH   2   3
TORSDOF 3
ENDMDL
MODEL       45
REMARK 921   NORMALIZED FREE ENERGY PREDICTED BY IDOCK:   -4.29 KCAL/MOL
REMARK 922        TOTAL FREE ENERGY PREDICTED BY IDOCK:   -5.12 KCAL/MOL
REMARK 923 INTER-LIGAND FREE ENERGY PREDICTED BY IDOCK:   -5.16 KCAL/MOL
REMARK 924 INTRA-LIGAND FREE ENERGY PREDICTED BY IDOCK:    0.04 KCAL/MOL
REMARK 927      BINDING AFFINITY PREDICTED BY RF-SCORE:    0.00 PKD
ROOT
HETATM    1  C   UNL     1     -11.655   2.224  73.552  1.00  0.00    -0.256 C  
HETATM    2  C   UNL     1     -10.362   2.773  72.976  1.00  0.00    -0.239 C  
ENDROOT
BRANCH   2   3
HETATM    3  C   UNL     1     -10.421   4.289  72.886  1.00  0.00    -0.246 C  
HETATM    4  C   UNL     1     -10.470   5.590  72.809  1.00  0.00    -0.251 C  
HETATM    5  C   UNL     1     -10.529   7.105  72.719  1.00  0.00    -0.278 C  
HETATM    6  C   UNL     1      -9.345   7.672  73.511  1.00  0.00    -0.339 C  
HETATM    7  C   UNL     1     -10.732   7.543  71.222  1.00  0.00    -0.242 C  
HETATM    8  O   UNL     1      -9.588   5.950  69.794  1.00  0.00    -0.147 OA 
HETATM    9  C   UNL     1     -10.787   9.054  71.165  1.00  0.00    -0.294 C  
HETATM   10  C   UNL     1      -7.130   7.005  70.497  1.00  0.00    -0.064 C  
HETATM   11  O   UNL     1     -11.794   9.713  71.423  1.00  0.00    -0.350 OA 
HETATM   12  N   UNL     1      -9.600   9.687  70.916  1.00  0.00    -0.295 N  
HETATM   13  H   UNL     1      -9.631  10.702  70.824  1.00  0.00     0.000 HD 
HETATM   14  C   UNL     1      -8.378   9.092  70.778  1.00  0.00    -0.192 C  
HETATM   15  C   UNL     1      -9.553   7.003  70.430  1.00  0.00    -0.169 C  
HETATM   16  N   UNL     1      -8.383   7.726  70.606  1.00  0.00    -0.122 N  
HETATM   17  O   UNL     1      -7.364   9.782  70.832  1.00  0.00    -0.321 OA 
BRANCH   7  18
HETATM   18  C   UNL     1     -12.094   6.967  70.718  1.00  0.00    -0.400 C  
BRANCH  18  19
HETATM   19  C   UNL     1     -13.246   6.987  71.693  1.00  0.00    -0.368 C  
HETATM   20  C   UNL     1     -14.390   7.645  71.463  1.00  0.00    -0.589 C  
ENDBRANCH  18  19
ENDBRANCH   7  18
ENDBRANCH   2   3
TORSDOF 3
ENDMDL
MODEL       46
REMARK 921   NORMALIZED FREE ENERGY PREDICTED BY IDOCK:   -4.28 KCAL/MOL
REMARK 922        TOTAL FREE ENERGY PREDICTED BY IDOCK:   -5.11 KCAL/MOL
REMARK 923 INTER-LIGAND FREE ENERGY PREDICTED BY IDOCK:   -5.34 KCAL/MOL
REMARK 924 INTRA-LIGAND FREE ENERGY PREDICTED BY IDOCK:    0.23 KCAL/MOL
REMARK 927      BINDING AFFINITY PREDICTED BY RF-SCORE:    0.00 PKD
ROOT
HETATM    1  C   UNL     1      -7.077  18.142  68.586  1.00  0.00    -0.274 C  
HETATM    2  C   UNL     1      -7.416  16.712  68.967  1.00  0.00    -0.232 C  
ENDROOT
BRANCH   2   3
HETATM    3  C   UNL     1      -8.484  16.153  68.043  1.00  0.00    -0.168 C  
HETATM    4  C   UNL     1      -9.401  15.674  67.249  1.00  0.00    -0.223 C  
HETATM    5  C   UNL     1     -10.470  15.115  66.324  1.00  0.00    -0.312 C  
HETATM    6  C   UNL     1      -9.823  14.848  64.961  1.00  0.00    -0.069 C  
HETATM    7  C   UNL     1     -11.247  13.954  67.048  1.00  0.00    -0.327 C  
HETATM    8  O   UNL     1      -9.699  12.789  68.509  1.00  0.00    -0.206 OA 
HETATM    9  C   UNL     1     -12.302  13.420  66.104  1.00  0.00    -0.380 C  
HETATM   10  C   UNL     1      -8.490  11.569  66.341  1.00  0.00    -0.138 C  
HETATM   11  O   UNL     1     -13.399  13.953  65.930  1.00  0.00    -0.396 OA 
HETATM   12  N   UNL     1     -11.934  12.346  65.341  1.00  0.00    -0.420 N  
HETATM   13  H   UNL     1     -12.652  11.944  64.738  1.00  0.00     0.000 HD 
HETATM   14  C   UNL     1     -10.700  11.761  65.307  1.00  0.00    -0.287 C  
HETATM   15  C   UNL     1     -10.229  12.883  67.402  1.00  0.00    -0.230 C  
HETATM   16  N   UNL     1      -9.836  12.107  66.321  1.00  0.00    -0.229 N  
HETATM   17  O   UNL     1     -10.425  10.992  64.390  1.00  0.00    -0.336 OA 
BRANCH   7  18
HETATM   18  C   UNL     1     -11.948  14.541  68.314  1.00  0.00    -0.303 C  
BRANCH  18  19
HETATM   19  C   UNL     1     -12.149  13.603  69.479  1.00  0.00    -0.368 C  
HETATM   20  C   UNL     1     -12.224  14.018  70.751  1.00  0.00    -0.438 C  
ENDBRANCH  18  19
ENDBRANCH   7  18
ENDBRANCH   2   3
TORSDOF 3
ENDMDL
MODEL       47
REMARK 921   NORMALIZED FREE ENERGY PREDICTED BY IDOCK:   -4.23 KCAL/MOL
REMARK 922        TOTAL FREE ENERGY PREDICTED BY IDOCK:   -5.05 KCAL/MOL
REMARK 923 INTER-LIGAND FREE ENERGY PREDICTED BY IDOCK:   -5.08 KCAL/MOL
REMARK 924 INTRA-LIGAND FREE ENERGY PREDICTED BY IDOCK:    0.03 KCAL/MOL
REMARK 927      BINDING AFFINITY PREDICTED BY RF-SCORE:    0.00 PKD
ROOT
HETATM    1  C   UNL     1      -9.985   8.963  71.245  1.00  0.00    -0.358 C  
HETATM    2  C   UNL     1      -8.728   9.260  70.446  1.00  0.00    -0.263 C  
ENDROOT
BRANCH   2   3
HETATM    3  C   UNL     1      -8.933  10.480  69.565  1.00  0.00    -0.054 C  
HETATM    4  C   UNL     1      -9.108  11.528  68.808  1.00  0.00    -0.063 C  
HETATM    5  C   UNL     1      -9.313  12.749  67.927  1.00  0.00    -0.208 C  
HETATM    6  C   UNL     1      -8.150  12.812  66.929  1.00  0.00     0.006 C  
HETATM    7  C   UNL     1     -10.790  12.776  67.388  1.00  0.00    -0.265 C  
HETATM    8  O   UNL     1     -11.531  10.488  67.063  1.00  0.00    -0.250 OA 
HETATM    9  C   UNL     1     -10.964  14.000  66.517  1.00  0.00    -0.306 C  
HETATM   10  C   UNL     1      -9.970  10.251  64.792  1.00  0.00    -0.321 C  
HETATM   11  O   UNL     1     -11.176  15.130  66.957  1.00  0.00    -0.335 OA 
HETATM   12  N   UNL     1     -10.756  13.815  65.177  1.00  0.00    -0.336 N  
HETATM   13  H   UNL     1     -10.919  14.619  64.571  1.00  0.00     0.000 HD 
HETATM   14  C   UNL     1     -10.351  12.659  64.572  1.00  0.00    -0.344 C  
HETATM   15  C   UNL     1     -11.005  11.497  66.595  1.00  0.00    -0.296 C  
HETATM   16  N   UNL     1     -10.421  11.516  65.337  1.00  0.00    -0.272 N  
HETATM   17  O   UNL     1      -9.940  12.698  63.416  1.00  0.00    -0.329 OA 
BRANCH   7  18
HETATM   18  C   UNL     1     -11.760  12.881  68.608  1.00  0.00    -0.359 C  
BRANCH  18  19
HETATM   19  C   UNL     1     -11.441  13.928  69.647  1.00  0.00    -0.310 C  
HETATM   20  C   UNL     1     -12.158  14.096  70.765  1.00  0.00    -0.419 C  
ENDBRANCH  18  19
ENDBRANCH   7  18
ENDBRANCH   2   3
TORSDOF 3
ENDMDL
MODEL       48
REMARK 921   NORMALIZED FREE ENERGY PREDICTED BY IDOCK:   -4.21 KCAL/MOL
REMARK 922        TOTAL FREE ENERGY PREDICTED BY IDOCK:   -5.03 KCAL/MOL
REMARK 923 INTER-LIGAND FREE ENERGY PREDICTED BY IDOCK:   -5.01 KCAL/MOL
REMARK 924 INTRA-LIGAND FREE ENERGY PREDICTED BY IDOCK:   -0.02 KCAL/MOL
REMARK 927      BINDING AFFINITY PREDICTED BY RF-SCORE:    0.00 PKD
ROOT
HETATM    1  C   UNL     1     -10.636  19.710  65.664  1.00  0.00    -0.462 C  
HETATM    2  C   UNL     1     -10.653  19.843  67.176  1.00  0.00    -0.527 C  
ENDROOT
BRANCH   2   3
HETATM    3  C   UNL     1     -10.166  18.561  67.829  1.00  0.00    -0.412 C  
HETATM    4  C   UNL     1      -9.749  17.460  68.391  1.00  0.00    -0.304 C  
HETATM    5  C   UNL     1      -9.263  16.177  69.045  1.00  0.00    -0.252 C  
HETATM    6  C   UNL     1     -10.486  15.427  69.583  1.00  0.00    -0.286 C  
HETATM    7  C   UNL     1      -8.266  15.433  68.081  1.00  0.00    -0.144 C  
HETATM    8  O   UNL     1      -8.965  15.837  65.793  1.00  0.00    -0.282 OA 
HETATM    9  C   UNL     1      -7.800  14.163  68.758  1.00  0.00    -0.114 C  
HETATM   10  C   UNL     1     -11.091  14.090  66.078  1.00  0.00    -0.303 C  
HETATM   11  O   UNL     1      -6.904  14.126  69.602  1.00  0.00    -0.121 OA 
HETATM   12  N   UNL     1      -8.514  13.033  68.469  1.00  0.00    -0.320 N  
HETATM   13  H   UNL     1      -8.180  12.160  68.878  1.00  0.00     0.000 HD 
HETATM   14  C   UNL     1      -9.631  12.959  67.686  1.00  0.00    -0.196 C  
HETATM   15  C   UNL     1      -9.022  15.129  66.798  1.00  0.00    -0.264 C  
HETATM   16  N   UNL     1      -9.901  14.061  66.907  1.00  0.00    -0.259 N  
HETATM   17  O   UNL     1     -10.329  11.950  67.728  1.00  0.00    -0.192 OA 
BRANCH   7  18
HETATM   18  C   UNL     1      -7.033  16.358  67.832  1.00  0.00    -0.154 C  
BRANCH  18  19
HETATM   19  C   UNL     1      -6.713  17.372  68.904  1.00  0.00    -0.226 C  
HETATM   20  C   UNL     1      -5.514  17.462  69.494  1.00  0.00    -0.193 C  
ENDBRANCH  18  19
ENDBRANCH   7  18
ENDBRANCH   2   3
TORSDOF 3
ENDMDL
MODEL       49
REMARK 921   NORMALIZED FREE ENERGY PREDICTED BY IDOCK:   -4.18 KCAL/MOL
REMARK 922        TOTAL FREE ENERGY PREDICTED BY IDOCK:   -5.00 KCAL/MOL
REMARK 923 INTER-LIGAND FREE ENERGY PREDICTED BY IDOCK:   -4.90 KCAL/MOL
REMARK 924 INTRA-LIGAND FREE ENERGY PREDICTED BY IDOCK:   -0.10 KCAL/MOL
REMARK 927      BINDING AFFINITY PREDICTED BY RF-SCORE:    0.00 PKD
ROOT
HETATM    1  C   UNL     1      -5.687  20.207  65.942  1.00  0.00    -0.192 C  
HETATM    2  C   UNL     1      -5.875  18.931  65.140  1.00  0.00    -0.289 C  
ENDROOT
BRANCH   2   3
HETATM    3  C   UNL     1      -6.614  17.889  65.962  1.00  0.00    -0.317 C  
HETATM    4  C   UNL     1      -7.249  16.994  66.668  1.00  0.00    -0.293 C  
HETATM    5  C   UNL     1      -7.988  15.952  67.490  1.00  0.00    -0.166 C  
HETATM    6  C   UNL     1      -7.644  16.183  68.966  1.00  0.00    -0.213 C  
HETATM    7  C   UNL     1      -9.498  15.900  67.051  1.00  0.00    -0.234 C  
HETATM    8  O   UNL     1     -10.186  18.134  66.402  1.00  0.00    -0.363 OA 
HETATM    9  C   UNL     1     -10.206  14.855  67.885  1.00  0.00    -0.228 C  
HETATM   10  C   UNL     1     -10.260  18.937  69.047  1.00  0.00    -0.136 C  
HETATM   11  O   UNL     1     -10.167  13.647  67.648  1.00  0.00    -0.234 OA 
HETATM   12  N   UNL     1     -10.822  15.310  69.018  1.00  0.00    -0.233 N  
HETATM   13  H   UNL     1     -11.347  14.626  69.563  1.00  0.00     0.000 HD 
HETATM   14  C   UNL     1     -10.803  16.592  69.492  1.00  0.00    -0.315 C  
HETATM   15  C   UNL     1     -10.083  17.283  67.284  1.00  0.00    -0.300 C  
HETATM   16  N   UNL     1     -10.357  17.556  68.617  1.00  0.00    -0.368 N  
HETATM   17  O   UNL     1     -11.157  16.811  70.647  1.00  0.00    -0.130 OA 
BRANCH   7  18
HETATM   18  C   UNL     1      -9.563  15.479  65.548  1.00  0.00    -0.257 C  
BRANCH  18  19
HETATM   19  C   UNL     1     -10.908  15.046  65.018  1.00  0.00    -0.439 C  
HETATM   20  C   UNL     1     -11.657  15.804  64.207  1.00  0.00    -0.192 C  
ENDBRANCH  18  19
ENDBRANCH   7  18
ENDBRANCH   2   3
TORSDOF 3
ENDMDL
MODEL       50
REMARK 921   NORMALIZED FREE ENERGY PREDICTED BY IDOCK:   -4.17 KCAL/MOL
REMARK 922        TOTAL FREE ENERGY PREDICTED BY IDOCK:   -4.98 KCAL/MOL
REMARK 923 INTER-LIGAND FREE ENERGY PREDICTED BY IDOCK:   -4.85 KCAL/MOL
REMARK 924 INTRA-LIGAND FREE ENERGY PREDICTED BY IDOCK:   -0.13 KCAL/MOL
REMARK 927      BINDING AFFINITY PREDICTED BY RF-SCORE:    0.00 PKD
ROOT
HETATM    1  C   UNL     1     -10.682  11.035  68.552  1.00  0.00    -0.236 C  
HETATM    2  C   UNL     1     -10.267  11.067  67.092  1.00  0.00    -0.243 C  
ENDROOT
BRANCH   2   3
HETATM    3  C   UNL     1      -9.978  12.492  66.651  1.00  0.00    -0.243 C  
HETATM    4  C   UNL     1      -9.731  13.716  66.273  1.00  0.00    -0.295 C  
HETATM    5  C   UNL     1      -9.442  15.141  65.833  1.00  0.00    -0.334 C  
HETATM    6  C   UNL     1     -10.753  15.754  65.326  1.00  0.00    -0.446 C  
HETATM    7  C   UNL     1      -8.625  15.889  66.949  1.00  0.00    -0.274 C  
HETATM    8  O   UNL     1      -9.335  15.050  69.113  1.00  0.00    -0.205 OA 
HETATM    9  C   UNL     1      -8.353  17.302  66.483  1.00  0.00    -0.277 C  
HETATM   10  C   UNL     1     -11.711  16.454  68.936  1.00  0.00    -0.059 C  
HETATM   11  O   UNL     1      -7.443  17.605  65.710  1.00  0.00    -0.512 OA 
HETATM   12  N   UNL     1      -9.258  18.248  66.878  1.00  0.00    -0.275 N  
HETATM   13  H   UNL     1      -9.060  19.213  66.614  1.00  0.00     0.000 HD 
HETATM   14  C   UNL     1     -10.402  18.026  67.593  1.00  0.00    -0.388 C  
HETATM   15  C   UNL     1      -9.471  15.877  68.212  1.00  0.00    -0.201 C  
HETATM   16  N   UNL     1     -10.512  16.794  68.195  1.00  0.00    -0.315 N  
HETATM   17  O   UNL     1     -11.258  18.905  67.645  1.00  0.00    -0.207 OA 
BRANCH   7  18
HETATM   18  C   UNL     1      -7.263  15.149  67.146  1.00  0.00    -0.098 C  
BRANCH  18  19
HETATM   19  C   UNL     1      -6.220  15.849  67.982  1.00  0.00    -0.143 C  
HETATM   20  C   UNL     1      -5.875  15.449  69.213  1.00  0.00    -0.104 C  
ENDBRANCH  18  19
ENDBRANCH   7  18
ENDBRANCH   2   3
TORSDOF 3
ENDMDL
MODEL       51
REMARK 921   NORMALIZED FREE ENERGY PREDICTED BY IDOCK:   -4.11 KCAL/MOL
REMARK 922        TOTAL FREE ENERGY PREDICTED BY IDOCK:   -4.91 KCAL/MOL
REMARK 923 INTER-LIGAND FREE ENERGY PREDICTED BY IDOCK:   -4.88 KCAL/MOL
REMARK 924 INTRA-LIGAND FREE ENERGY PREDICTED BY IDOCK:   -0.04 KCAL/MOL
REMARK 927      BINDING AFFINITY PREDICTED BY RF-SCORE:    0.00 PKD
ROOT
HETATM    1  C   UNL     1     -12.423  12.175  71.012  1.00  0.00    -0.369 C  
HETATM    2  C   UNL     1     -13.095  11.011  71.719  1.00  0.00    -0.554 C  
ENDROOT
BRANCH   2   3
HETATM    3  C   UNL     1     -12.304   9.731  71.509  1.00  0.00    -0.495 C  
HETATM    4  C   UNL     1     -11.626   8.631  71.328  1.00  0.00    -0.340 C  
HETATM    5  C   UNL     1     -10.836   7.351  71.117  1.00  0.00    -0.258 C  
HETATM    6  C   UNL     1     -11.676   6.415  70.241  1.00  0.00    -0.389 C  
HETATM    7  C   UNL     1      -9.365   7.699  70.680  1.00  0.00    -0.163 C  
HETATM    8  O   UNL     1      -9.419   9.723  69.344  1.00  0.00    -0.176 OA 
HETATM    9  C   UNL     1      -8.604   6.407  70.479  1.00  0.00    -0.143 C  
HETATM   10  C   UNL     1     -10.472   8.339  67.194  1.00  0.00    -0.316 C  
HETATM   11  O   UNL     1      -8.105   5.755  71.398  1.00  0.00    -0.111 OA 
HETATM   12  N   UNL     1      -8.588   5.913  69.204  1.00  0.00    -0.115 N  
HETATM   13  H   UNL     1      -8.037   5.070  69.043  1.00  0.00     0.000 HD 
HETATM   14  C   UNL     1      -9.240   6.439  68.123  1.00  0.00    -0.111 C  
HETATM   15  C   UNL     1      -9.454   8.494  69.389  1.00  0.00    -0.161 C  
HETATM   16  N   UNL     1      -9.728   7.717  68.272  1.00  0.00    -0.155 N  
HETATM   17  O   UNL     1      -9.369   5.758  67.110  1.00  0.00    -0.114 OA 
BRANCH   7  18
HETATM   18  C   UNL     1      -8.687   8.513  71.827  1.00  0.00    -0.266 C  
BRANCH  18  19
HETATM   19  C   UNL     1      -9.030   8.117  73.243  1.00  0.00    -0.332 C  
HETATM   20  C   UNL     1      -8.135   8.101  74.239  1.00  0.00    -0.309 C  
ENDBRANCH  18  19
ENDBRANCH   7  18
ENDBRANCH   2   3
TORSDOF 3
ENDMDL
MODEL       52
REMARK 921   NORMALIZED FREE ENERGY PREDICTED BY IDOCK:   -4.09 KCAL/MOL
REMARK 922        TOTAL FREE ENERGY PREDICTED BY IDOCK:   -4.89 KCAL/MOL
REMARK 923 INTER-LIGAND FREE ENERGY PREDICTED BY IDOCK:   -4.75 KCAL/MOL
REMARK 924 INTRA-LIGAND FREE ENERGY PREDICTED BY IDOCK:   -0.14 KCAL/MOL
REMARK 927      BINDING AFFINITY PREDICTED BY RF-SCORE:    0.00 PKD
ROOT
HETATM    1  C   UNL     1     -11.012   2.615  73.230  1.00  0.00    -0.263 C  
HETATM    2  C   UNL     1     -10.137   2.592  71.990  1.00  0.00    -0.195 C  
ENDROOT
BRANCH   2   3
HETATM    3  C   UNL     1      -9.886   4.004  71.488  1.00  0.00    -0.251 C  
HETATM    4  C   UNL     1      -9.671   5.216  71.056  1.00  0.00    -0.245 C  
HETATM    5  C   UNL     1      -9.421   6.628  70.554  1.00  0.00    -0.171 C  
HETATM    6  C   UNL     1     -10.345   6.874  69.355  1.00  0.00    -0.220 C  
HETATM    7  C   UNL     1      -9.443   7.635  71.762  1.00  0.00    -0.178 C  
HETATM    8  O   UNL     1     -11.045   6.835  73.399  1.00  0.00    -0.219 OA 
HETATM    9  C   UNL     1      -9.191   9.029  71.231  1.00  0.00    -0.244 C  
HETATM   10  C   UNL     1     -13.157   7.626  71.798  1.00  0.00    -0.323 C  
HETATM   11  O   UNL     1      -8.071   9.471  70.972  1.00  0.00    -0.312 OA 
HETATM   12  N   UNL     1     -10.303   9.767  70.934  1.00  0.00    -0.332 N  
HETATM   13  H   UNL     1     -10.150  10.727  70.624  1.00  0.00     0.000 HD 
HETATM   14  C   UNL     1     -11.601   9.344  71.012  1.00  0.00    -0.330 C  
HETATM   15  C   UNL     1     -10.813   7.530  72.411  1.00  0.00    -0.276 C  
HETATM   16  N   UNL     1     -11.818   8.174  71.703  1.00  0.00    -0.278 N  
HETATM   17  O   UNL     1     -12.480  10.000  70.461  1.00  0.00    -0.256 OA 
BRANCH   7  18
HETATM   18  C   UNL     1      -8.294   7.252  72.748  1.00  0.00    -0.127 C  
BRANCH  18  19
HETATM   19  C   UNL     1      -8.144   8.102  73.986  1.00  0.00    -0.312 C  
HETATM   20  C   UNL     1      -6.958   8.408  74.528  1.00  0.00    -0.218 C  
ENDBRANCH  18  19
ENDBRANCH   7  18
ENDBRANCH   2   3
TORSDOF 3
ENDMDL
MODEL       53
REMARK 921   NORMALIZED FREE ENERGY PREDICTED BY IDOCK:   -4.06 KCAL/MOL
REMARK 922        TOTAL FREE ENERGY PREDICTED BY IDOCK:   -4.85 KCAL/MOL
REMARK 923 INTER-LIGAND FREE ENERGY PREDICTED BY IDOCK:   -4.72 KCAL/MOL
REMARK 924 INTRA-LIGAND FREE ENERGY PREDICTED BY IDOCK:   -0.13 KCAL/MOL
REMARK 927      BINDING AFFINITY PREDICTED BY RF-SCORE:    0.00 PKD
ROOT
HETATM    1  C   UNL     1     -12.173  11.707  70.528  1.00  0.00    -0.451 C  
HETATM    2  C   UNL     1     -12.982  10.852  71.488  1.00  0.00    -0.556 C  
ENDROOT
BRANCH   2   3
HETATM    3  C   UNL     1     -12.224   9.583  71.839  1.00  0.00    -0.432 C  
HETATM    4  C   UNL     1     -11.574   8.493  72.141  1.00  0.00    -0.447 C  
HETATM    5  C   UNL     1     -10.816   7.224  72.493  1.00  0.00    -0.312 C  
HETATM    6  C   UNL     1     -11.760   6.036  72.281  1.00  0.00    -0.338 C  
HETATM    7  C   UNL     1      -9.412   7.228  71.782  1.00  0.00    -0.162 C  
HETATM    8  O   UNL     1      -9.635   8.357  69.647  1.00  0.00    -0.162 OA 
HETATM    9  C   UNL     1      -8.683   5.955  72.151  1.00  0.00    -0.136 C  
HETATM   10  C   UNL     1     -10.951   6.176  68.571  1.00  0.00    -0.320 C  
HETATM   11  O   UNL     1      -8.071   5.797  73.208  1.00  0.00    -0.113 OA 
HETATM   12  N   UNL     1      -8.828   4.908  71.283  1.00  0.00    -0.130 N  
HETATM   13  H   UNL     1      -8.301   4.060  71.492  1.00  0.00     0.000 HD 
HETATM   14  C   UNL     1      -9.611   4.887  70.163  1.00  0.00    -0.193 C  
HETATM   15  C   UNL     1      -9.664   7.306  70.286  1.00  0.00    -0.175 C  
HETATM   16  N   UNL     1     -10.077   6.106  69.725  1.00  0.00    -0.172 N  
HETATM   17  O   UNL     1      -9.868   3.812  69.629  1.00  0.00    -0.168 OA 
BRANCH   7  18
HETATM   18  C   UNL     1      -8.595   8.451  72.306  1.00  0.00    -0.263 C  
BRANCH  18  19
HETATM   19  C   UNL     1      -7.127   8.494  71.954  1.00  0.00    -0.106 C  
HETATM   20  C   UNL     1      -6.609   9.361  71.074  1.00  0.00    -0.081 C  
ENDBRANCH  18  19
ENDBRANCH   7  18
ENDBRANCH   2   3
TORSDOF 3
ENDMDL
MODEL       54
REMARK 921   NORMALIZED FREE ENERGY PREDICTED BY IDOCK:   -4.05 KCAL/MOL
REMARK 922        TOTAL FREE ENERGY PREDICTED BY IDOCK:   -4.84 KCAL/MOL
REMARK 923 INTER-LIGAND FREE ENERGY PREDICTED BY IDOCK:   -5.08 KCAL/MOL
REMARK 924 INTRA-LIGAND FREE ENERGY PREDICTED BY IDOCK:    0.23 KCAL/MOL
REMARK 927      BINDING AFFINITY PREDICTED BY RF-SCORE:    0.00 PKD
ROOT
HETATM    1  C   UNL     1     -10.089  19.768  67.430  1.00  0.00    -0.555 C  
HETATM    2  C   UNL     1      -8.895  19.301  66.617  1.00  0.00    -0.359 C  
ENDROOT
BRANCH   2   3
HETATM    3  C   UNL     1      -8.832  17.783  66.587  1.00  0.00    -0.282 C  
HETATM    4  C   UNL     1      -8.777  16.480  66.561  1.00  0.00    -0.317 C  
HETATM    5  C   UNL     1      -8.714  14.962  66.531  1.00  0.00    -0.204 C  
HETATM    6  C   UNL     1      -7.922  14.498  67.759  1.00  0.00    -0.168 C  
HETATM    7  C   UNL     1     -10.150  14.374  66.274  1.00  0.00    -0.308 C  
HETATM    8  O   UNL     1     -11.778  15.836  67.323  1.00  0.00     0.026 OA 
HETATM    9  C   UNL     1     -10.055  12.865  66.248  1.00  0.00    -0.276 C  
HETATM   10  C   UNL     1     -11.082  14.897  69.830  1.00  0.00    -0.259 C  
HETATM   11  O   UNL     1      -9.689  12.217  65.267  1.00  0.00    -0.218 OA 
HETATM   12  N   UNL     1     -10.292  12.230  67.437  1.00  0.00    -0.206 N  
HETATM   13  H   UNL     1     -10.282  11.210  67.423  1.00  0.00     0.000 HD 
HETATM   14  C   UNL     1     -10.541  12.828  68.640  1.00  0.00    -0.233 C  
HETATM   15  C   UNL     1     -11.043  14.853  67.407  1.00  0.00    -0.325 C  
HETATM   16  N   UNL     1     -10.847  14.170  68.599  1.00  0.00    -0.248 N  
HETATM   17  O   UNL     1     -10.464  12.164  69.669  1.00  0.00     0.298 OA 
BRANCH   7  18
HETATM   18  C   UNL     1     -10.649  14.874  64.881  1.00  0.00    -0.417 C  
BRANCH  18  19
HETATM   19  C   UNL     1     -11.960  14.316  64.384  1.00  0.00    -0.476 C  
HETATM   20  C   UNL     1     -12.045  13.272  63.550  1.00  0.00    -0.550 C  
ENDBRANCH  18  19
ENDBRANCH   7  18
ENDBRANCH   2   3
TORSDOF 3
ENDMDL
MODEL       55
REMARK 921   NORMALIZED FREE ENERGY PREDICTED BY IDOCK:   -3.98 KCAL/MOL
REMARK 922        TOTAL FREE ENERGY PREDICTED BY IDOCK:   -4.76 KCAL/MOL
REMARK 923 INTER-LIGAND FREE ENERGY PREDICTED BY IDOCK:   -4.92 KCAL/MOL
REMARK 924 INTRA-LIGAND FREE ENERGY PREDICTED BY IDOCK:    0.16 KCAL/MOL
REMARK 927      BINDING AFFINITY PREDICTED BY RF-SCORE:    0.00 PKD
ROOT
HETATM    1  C   UNL     1     -10.777   4.653  73.788  1.00  0.00    -0.356 C  
HETATM    2  C   UNL     1     -10.303   5.951  74.417  1.00  0.00    -0.267 C  
ENDROOT
BRANCH   2   3
HETATM    3  C   UNL     1     -10.217   7.049  73.371  1.00  0.00    -0.342 C  
HETATM    4  C   UNL     1     -10.143   7.993  72.473  1.00  0.00    -0.346 C  
HETATM    5  C   UNL     1     -10.058   9.092  71.427  1.00  0.00    -0.399 C  
HETATM    6  C   UNL     1      -8.598   9.199  70.973  1.00  0.00    -0.236 C  
HETATM    7  C   UNL     1     -11.186   8.891  70.350  1.00  0.00    -0.259 C  
HETATM    8  O   UNL     1     -11.564   6.511  70.068  1.00  0.00    -0.407 OA 
HETATM    9  C   UNL     1     -11.076   9.998  69.325  1.00  0.00    -0.206 C  
HETATM   10  C   UNL     1      -9.201   6.249  68.655  1.00  0.00    -0.124 C  
HETATM   11  O   UNL     1     -11.529  11.131  69.489  1.00  0.00    -0.249 OA 
HETATM   12  N   UNL     1     -10.328   9.714  68.215  1.00  0.00    -0.195 N  
HETATM   13  H   UNL     1     -10.287  10.433  67.492  1.00  0.00     0.000 HD 
HETATM   14  C   UNL     1      -9.630   8.563  67.981  1.00  0.00    -0.149 C  
HETATM   15  C   UNL     1     -10.967   7.527  69.716  1.00  0.00    -0.184 C  
HETATM   16  N   UNL     1      -9.924   7.497  68.802  1.00  0.00    -0.167 N  
HETATM   17  O   UNL     1      -8.788   8.542  67.088  1.00  0.00    -0.127 OA 
BRANCH   7  18
HETATM   18  C   UNL     1     -12.573   8.994  71.060  1.00  0.00    -0.173 C  
BRANCH  18  19
HETATM   19  C   UNL     1     -12.705  10.024  72.155  1.00  0.00    -0.354 C  
HETATM   20  C   UNL     1     -13.367  11.179  72.001  1.00  0.00    -0.384 C  
ENDBRANCH  18  19
ENDBRANCH   7  18
ENDBRANCH   2   3
TORSDOF 3
ENDMDL
MODEL       56
REMARK 921   NORMALIZED FREE ENERGY PREDICTED BY IDOCK:   -3.97 KCAL/MOL
REMARK 922        TOTAL FREE ENERGY PREDICTED BY IDOCK:   -4.74 KCAL/MOL
REMARK 923 INTER-LIGAND FREE ENERGY PREDICTED BY IDOCK:   -4.63 KCAL/MOL
REMARK 924 INTRA-LIGAND FREE ENERGY PREDICTED BY IDOCK:   -0.12 KCAL/MOL
REMARK 927      BINDING AFFINITY PREDICTED BY RF-SCORE:    0.00 PKD
ROOT
HETATM    1  C   UNL     1      -7.631  10.026  65.079  1.00  0.00    -0.139 C  
HETATM    2  C   UNL     1      -8.910   9.246  64.833  1.00  0.00    -0.233 C  
ENDROOT
BRANCH   2   3
HETATM    3  C   UNL     1      -9.664   9.033  66.135  1.00  0.00    -0.354 C  
HETATM    4  C   UNL     1     -10.311   8.850  67.252  1.00  0.00    -0.350 C  
HETATM    5  C   UNL     1     -11.064   8.637  68.555  1.00  0.00     0.273 C  
HETATM    6  C   UNL     1     -10.630   7.287  69.136  1.00  0.00    -0.219 C  
HETATM    7  C   UNL     1     -10.961   9.928  69.447  1.00  0.00    -0.263 C  
HETATM    8  O   UNL     1      -8.799  10.959  69.059  1.00  0.00    -0.158 OA 
HETATM    9  C   UNL     1     -11.720   9.687  70.733  1.00  0.00    -0.314 C  
HETATM   10  C   UNL     1      -7.537   8.991  70.538  1.00  0.00    -0.110 C  
HETATM   11  O   UNL     1     -12.942   9.795  70.839  1.00  0.00    -0.308 OA 
HETATM   12  N   UNL     1     -10.982   9.218  71.785  1.00  0.00    -0.364 N  
HETATM   13  H   UNL     1     -11.470   9.099  72.673  1.00  0.00     0.000 HD 
HETATM   14  C   UNL     1      -9.655   8.892  71.762  1.00  0.00    -0.282 C  
HETATM   15  C   UNL     1      -9.486  10.175  69.714  1.00  0.00    -0.167 C  
HETATM   16  N   UNL     1      -8.941   9.329  70.669  1.00  0.00    -0.236 N  
HETATM   17  O   UNL     1      -9.182   8.231  72.682  1.00  0.00    -0.232 OA 
BRANCH   7  18
HETATM   18  C   UNL     1     -11.627  11.115  68.681  1.00  0.00    -0.383 C  
BRANCH  18  19
HETATM   19  C   UNL     1     -11.785  12.413  69.435  1.00  0.00    -0.384 C  
HETATM   20  C   UNL     1     -11.804  13.612  68.838  1.00  0.00    -0.402 C  
ENDBRANCH  18  19
ENDBRANCH   7  18
ENDBRANCH   2   3
TORSDOF 3
ENDMDL
MODEL       57
REMARK 921   NORMALIZED FREE ENERGY PREDICTED BY IDOCK:   -3.96 KCAL/MOL
REMARK 922        TOTAL FREE ENERGY PREDICTED BY IDOCK:   -4.73 KCAL/MOL
REMARK 923 INTER-LIGAND FREE ENERGY PREDICTED BY IDOCK:   -4.70 KCAL/MOL
REMARK 924 INTRA-LIGAND FREE ENERGY PREDICTED BY IDOCK:   -0.04 KCAL/MOL
REMARK 927      BINDING AFFINITY PREDICTED BY RF-SCORE:    0.00 PKD
ROOT
HETATM    1  C   UNL     1      -6.629   8.372  67.902  1.00  0.00    -0.061 C  
HETATM    2  C   UNL     1      -6.085   7.788  69.194  1.00  0.00    -0.035 C  
ENDROOT
BRANCH   2   3
HETATM    3  C   UNL     1      -7.216   7.506  70.169  1.00  0.00    -0.068 C  
HETATM    4  C   UNL     1      -8.186   7.265  71.007  1.00  0.00    -0.107 C  
HETATM    5  C   UNL     1      -9.317   6.983  71.982  1.00  0.00    -0.149 C  
HETATM    6  C   UNL     1      -9.416   8.170  72.946  1.00  0.00    -0.345 C  
HETATM    7  C   UNL     1     -10.598   6.523  71.194  1.00  0.00    -0.271 C  
HETATM    8  O   UNL     1     -10.644   7.680  69.061  1.00  0.00    -0.216 OA 
HETATM    9  C   UNL     1     -11.704   6.250  72.189  1.00  0.00    -0.319 C  
HETATM   10  C   UNL     1     -11.398  10.037  70.296  1.00  0.00    -0.308 C  
HETATM   11  O   UNL     1     -11.806   5.203  72.830  1.00  0.00    -0.256 OA 
HETATM   12  N   UNL     1     -12.552   7.292  72.442  1.00  0.00    -0.505 N  
HETATM   13  H   UNL     1     -13.333   7.108  73.073  1.00  0.00     0.000 HD 
HETATM   14  C   UNL     1     -12.457   8.557  71.934  1.00  0.00    -0.352 C  
HETATM   15  C   UNL     1     -10.973   7.651  70.247  1.00  0.00    -0.252 C  
HETATM   16  N   UNL     1     -11.597   8.721  70.871  1.00  0.00    -0.282 N  
HETATM   17  O   UNL     1     -13.109   9.462  72.447  1.00  0.00    -0.416 OA 
BRANCH   7  18
HETATM   18  C   UNL     1     -10.264   5.201  70.432  1.00  0.00    -0.334 C  
BRANCH  18  19
HETATM   19  C   UNL     1      -9.278   4.265  71.088  1.00  0.00    -0.203 C  
HETATM   20  C   UNL     1      -9.398   2.931  71.053  1.00  0.00    -0.218 C  
ENDBRANCH  18  19
ENDBRANCH   7  18
ENDBRANCH   2   3
TORSDOF 3
ENDMDL
MODEL       58
REMARK 921   NORMALIZED FREE ENERGY PREDICTED BY IDOCK:   -3.95 KCAL/MOL
REMARK 922        TOTAL FREE ENERGY PREDICTED BY IDOCK:   -4.72 KCAL/MOL
REMARK 923 INTER-LIGAND FREE ENERGY PREDICTED BY IDOCK:   -4.61 KCAL/MOL
REMARK 924 INTRA-LIGAND FREE ENERGY PREDICTED BY IDOCK:   -0.11 KCAL/MOL
REMARK 927      BINDING AFFINITY PREDICTED BY RF-SCORE:    0.00 PKD
ROOT
HETATM    1  C   UNL     1      -7.860   4.095  70.678  1.00  0.00    -0.052 C  
HETATM    2  C   UNL     1      -6.954   5.311  70.612  1.00  0.00    -0.052 C  
ENDROOT
BRANCH   2   3
HETATM    3  C   UNL     1      -7.775   6.589  70.614  1.00  0.00    -0.105 C  
HETATM    4  C   UNL     1      -8.480   7.687  70.616  1.00  0.00    -0.127 C  
HETATM    5  C   UNL     1      -9.302   8.965  70.619  1.00  0.00    -0.256 C  
HETATM    6  C   UNL     1      -8.528  10.025  69.827  1.00  0.00    -0.189 C  
HETATM    7  C   UNL     1     -10.790   8.643  70.224  1.00  0.00    -0.250 C  
HETATM    8  O   UNL     1     -10.783   6.809  68.634  1.00  0.00    -0.214 OA 
HETATM    9  C   UNL     1     -11.581   9.932  70.235  1.00  0.00    -0.250 C  
HETATM   10  C   UNL     1      -9.878   8.484  66.627  1.00  0.00    -0.272 C  
HETATM   11  O   UNL     1     -12.036  10.447  71.257  1.00  0.00    -0.360 OA 
HETATM   12  N   UNL     1     -11.679  10.585  69.038  1.00  0.00    -0.487 N  
HETATM   13  H   UNL     1     -12.253  11.429  69.019  1.00  0.00     0.000 HD 
HETATM   14  C   UNL     1     -11.084  10.219  67.864  1.00  0.00    -0.276 C  
HETATM   15  C   UNL     1     -10.764   8.023  68.836  1.00  0.00    -0.065 C  
HETATM   16  N   UNL     1     -10.568   8.944  67.817  1.00  0.00    -0.231 N  
HETATM   17  O   UNL     1     -11.025  11.028  66.942  1.00  0.00    -0.276 OA 
BRANCH   7  18
HETATM   18  C   UNL     1     -11.387   7.671  71.291  1.00  0.00    -0.286 C  
BRANCH  18  19
HETATM   19  C   UNL     1     -11.029   7.937  72.733  1.00  0.00    -0.456 C  
HETATM   20  C   UNL     1     -10.624   6.979  73.577  1.00  0.00    -0.405 C  
ENDBRANCH  18  19
ENDBRANCH   7  18
ENDBRANCH   2   3
TORSDOF 3
ENDMDL
MODEL       59
REMARK 921   NORMALIZED FREE ENERGY PREDICTED BY IDOCK:   -3.94 KCAL/MOL
REMARK 922        TOTAL FREE ENERGY PREDICTED BY IDOCK:   -4.71 KCAL/MOL
REMARK 923 INTER-LIGAND FREE ENERGY PREDICTED BY IDOCK:   -4.57 KCAL/MOL
REMARK 924 INTRA-LIGAND FREE ENERGY PREDICTED BY IDOCK:   -0.13 KCAL/MOL
REMARK 927      BINDING AFFINITY PREDICTED BY RF-SCORE:    0.00 PKD
ROOT
HETATM    1  C   UNL     1     -10.050   9.168  68.574  1.00  0.00    -0.212 C  
HETATM    2  C   UNL     1      -9.265  10.358  69.098  1.00  0.00    -0.202 C  
ENDROOT
BRANCH   2   3
HETATM    3  C   UNL     1      -9.314  11.507  68.105  1.00  0.00    -0.185 C  
HETATM    4  C   UNL     1      -9.355  12.493  67.252  1.00  0.00    -0.190 C  
HETATM    5  C   UNL     1      -9.404  13.642  66.259  1.00  0.00    -0.153 C  
HETATM    6  C   UNL     1      -9.310  13.051  64.847  1.00  0.00     0.650 C  
HETATM    7  C   UNL     1     -10.599  14.602  66.612  1.00  0.00    -0.289 C  
HETATM    8  O   UNL     1     -12.408  13.270  67.530  1.00  0.00    -0.225 OA 
HETATM    9  C   UNL     1     -10.621  15.734  65.609  1.00  0.00    -0.377 C  
HETATM   10  C   UNL     1     -13.028  12.287  65.021  1.00  0.00     0.549 C  
HETATM   11  O   UNL     1      -9.894  16.725  65.678  1.00  0.00    -0.544 OA 
HETATM   12  N   UNL     1     -11.430  15.553  64.521  1.00  0.00    -0.647 N  
HETATM   13  H   UNL     1     -11.495  16.329  63.861  1.00  0.00     0.000 HD 
HETATM   14  C   UNL     1     -12.161  14.435  64.230  1.00  0.00    -0.436 C  
HETATM   15  C   UNL     1     -11.874  13.778  66.545  1.00  0.00    -0.407 C  
HETATM   16  N   UNL     1     -12.307  13.524  65.251  1.00  0.00    -0.439 N  
HETATM   17  O   UNL     1     -12.621  14.295  63.101  1.00  0.00    -0.615 OA 
BRANCH   7  18
HETATM   18  C   UNL     1     -10.355  15.193  68.038  1.00  0.00    -0.240 C  
BRANCH  18  19
HETATM   19  C   UNL     1     -11.428  16.096  68.596  1.00  0.00    -0.340 C  
HETATM   20  C   UNL     1     -12.028  15.883  69.774  1.00  0.00    -0.276 C  
ENDBRANCH  18  19
ENDBRANCH   7  18
ENDBRANCH   2   3
TORSDOF 3
ENDMDL
MODEL       60
REMARK 921   NORMALIZED FREE ENERGY PREDICTED BY IDOCK:   -3.94 KCAL/MOL
REMARK 922        TOTAL FREE ENERGY PREDICTED BY IDOCK:   -4.71 KCAL/MOL
REMARK 923 INTER-LIGAND FREE ENERGY PREDICTED BY IDOCK:   -4.70 KCAL/MOL
REMARK 924 INTRA-LIGAND FREE ENERGY PREDICTED BY IDOCK:   -0.00 KCAL/MOL
REMARK 927      BINDING AFFINITY PREDICTED BY RF-SCORE:    0.00 PKD
ROOT
HETATM    1  C   UNL     1     -11.267   8.441  72.266  1.00  0.00    -0.446 C  
HETATM    2  C   UNL     1      -9.784   8.554  71.963  1.00  0.00    -0.377 C  
ENDROOT
BRANCH   2   3
HETATM    3  C   UNL     1      -9.559   9.359  70.694  1.00  0.00    -0.331 C  
HETATM    4  C   UNL     1      -9.365  10.050  69.605  1.00  0.00    -0.242 C  
HETATM    5  C   UNL     1      -9.141  10.855  68.336  1.00  0.00    -0.164 C  
HETATM    6  C   UNL     1      -7.685  10.654  67.900  1.00  0.00    -0.100 C  
HETATM    7  C   UNL     1     -10.298  10.567  67.310  1.00  0.00    -0.275 C  
HETATM    8  O   UNL     1     -11.004   8.261  67.576  1.00  0.00    -0.104 OA 
HETATM    9  C   UNL     1     -10.047  11.382  66.060  1.00  0.00    -0.234 C  
HETATM   10  C   UNL     1      -8.715   7.359  66.312  1.00  0.00    -0.149 C  
HETATM   11  O   UNL     1     -10.337  12.573  65.949  1.00  0.00    -0.252 OA 
HETATM   12  N   UNL     1      -9.358  10.750  65.062  1.00  0.00    -0.211 N  
HETATM   13  H   UNL     1      -9.226  11.269  64.194  1.00  0.00     0.000 HD 
HETATM   14  C   UNL     1      -8.829   9.491  65.114  1.00  0.00    -0.186 C  
HETATM   15  C   UNL     1     -10.276   9.077  67.012  1.00  0.00    -0.266 C  
HETATM   16  N   UNL     1      -9.257   8.695  66.152  1.00  0.00    -0.199 N  
HETATM   17  O   UNL     1      -8.007   9.149  64.268  1.00  0.00    -0.124 OA 
BRANCH   7  18
HETATM   18  C   UNL     1     -11.650  11.020  67.948  1.00  0.00    -0.306 C  
BRANCH  18  19
HETATM   19  C   UNL     1     -11.711  12.427  68.491  1.00  0.00    -0.373 C  
HETATM   20  C   UNL     1     -11.917  12.707  69.785  1.00  0.00    -0.365 C  
ENDBRANCH  18  19
ENDBRANCH   7  18
ENDBRANCH   2   3
TORSDOF 3
ENDMDL
MODEL       61
REMARK 921   NORMALIZED FREE ENERGY PREDICTED BY IDOCK:   -3.92 KCAL/MOL
REMARK 922        TOTAL FREE ENERGY PREDICTED BY IDOCK:   -4.69 KCAL/MOL
REMARK 923 INTER-LIGAND FREE ENERGY PREDICTED BY IDOCK:   -4.62 KCAL/MOL
REMARK 924 INTRA-LIGAND FREE ENERGY PREDICTED BY IDOCK:   -0.08 KCAL/MOL
REMARK 927      BINDING AFFINITY PREDICTED BY RF-SCORE:    0.00 PKD
ROOT
HETATM    1  C   UNL     1     -13.307  12.363  72.012  1.00  0.00    -0.511 C  
HETATM    2  C   UNL     1     -12.349  12.500  70.841  1.00  0.00    -0.349 C  
ENDROOT
BRANCH   2   3
HETATM    3  C   UNL     1     -11.928  11.131  70.334  1.00  0.00    -0.469 C  
HETATM    4  C   UNL     1     -11.567   9.956  69.898  1.00  0.00    -0.184 C  
HETATM    5  C   UNL     1     -11.146   8.587  69.390  1.00  0.00     0.086 C  
HETATM    6  C   UNL     1     -10.363   8.786  68.088  1.00  0.00    -0.266 C  
HETATM    7  C   UNL     1     -10.495   7.762  70.561  1.00  0.00    -0.217 C  
HETATM    8  O   UNL     1      -9.320   9.300  72.024  1.00  0.00    -0.256 OA 
HETATM    9  C   UNL     1     -10.088   6.406  70.026  1.00  0.00    -0.172 C  
HETATM   10  C   UNL     1      -7.289   9.594  70.170  1.00  0.00    -0.139 C  
HETATM   11  O   UNL     1     -10.867   5.463  69.885  1.00  0.00    -0.298 OA 
HETATM   12  N   UNL     1      -8.798   6.300  69.584  1.00  0.00    -0.135 N  
HETATM   13  H   UNL     1      -8.494   5.379  69.268  1.00  0.00     0.000 HD 
HETATM   14  C   UNL     1      -7.877   7.308  69.523  1.00  0.00    -0.118 C  
HETATM   15  C   UNL     1      -9.290   8.547  71.051  1.00  0.00    -0.185 C  
HETATM   16  N   UNL     1      -8.187   8.456  70.215  1.00  0.00    -0.117 N  
HETATM   17  O   UNL     1      -6.857   7.150  68.857  1.00  0.00    -0.064 OA 
BRANCH   7  18
HETATM   18  C   UNL     1     -11.565   7.564  71.682  1.00  0.00    -0.299 C  
BRANCH  18  19
HETATM   19  C   UNL     1     -12.933   7.098  71.247  1.00  0.00    -0.378 C  
HETATM   20  C   UNL     1     -14.067   7.710  71.611  1.00  0.00    -0.547 C  
ENDBRANCH  18  19
ENDBRANCH   7  18
ENDBRANCH   2   3
TORSDOF 3
ENDMDL
MODEL       62
REMARK 921   NORMALIZED FREE ENERGY PREDICTED BY IDOCK:   -3.91 KCAL/MOL
REMARK 922        TOTAL FREE ENERGY PREDICTED BY IDOCK:   -4.67 KCAL/MOL
REMARK 923 INTER-LIGAND FREE ENERGY PREDICTED BY IDOCK:   -4.52 KCAL/MOL
REMARK 924 INTRA-LIGAND FREE ENERGY PREDICTED BY IDOCK:   -0.15 KCAL/MOL
REMARK 927      BINDING AFFINITY PREDICTED BY RF-SCORE:    0.00 PKD
ROOT
HETATM    1  C   UNL     1     -10.830   3.284  73.418  1.00  0.00    -0.307 C  
HETATM    2  C   UNL     1      -9.990   2.984  72.189  1.00  0.00    -0.233 C  
ENDROOT
BRANCH   2   3
HETATM    3  C   UNL     1      -9.488   4.272  71.559  1.00  0.00    -0.220 C  
HETATM    4  C   UNL     1      -9.056   5.378  71.018  1.00  0.00    -0.167 C  
HETATM    5  C   UNL     1      -8.553   6.666  70.388  1.00  0.00    -0.143 C  
HETATM    6  C   UNL     1      -7.746   6.297  69.139  1.00  0.00    -0.100 C  
HETATM    7  C   UNL     1      -9.736   7.695  70.264  1.00  0.00    -0.179 C  
HETATM    8  O   UNL     1     -11.785   6.464  69.847  1.00  0.00    -0.426 OA 
HETATM    9  C   UNL     1      -9.206   8.965  69.635  1.00  0.00    -0.152 C  
HETATM   10  C   UNL     1     -11.018   5.969  67.236  1.00  0.00    -0.261 C  
HETATM   11  O   UNL     1      -8.603   9.838  70.259  1.00  0.00    -0.202 OA 
HETATM   12  N   UNL     1      -9.329   9.057  68.276  1.00  0.00    -0.139 N  
HETATM   13  H   UNL     1      -9.022   9.929  67.844  1.00  0.00     0.000 HD 
HETATM   14  C   UNL     1      -9.821   8.094  67.440  1.00  0.00    -0.184 C  
HETATM   15  C   UNL     1     -10.804   7.052  69.394  1.00  0.00    -0.227 C  
HETATM   16  N   UNL     1     -10.499   7.058  68.040  1.00  0.00    -0.195 N  
HETATM   17  O   UNL     1      -9.624   8.189  66.232  1.00  0.00    -0.217 OA 
BRANCH   7  18
HETATM   18  C   UNL     1     -10.263   8.021  71.697  1.00  0.00    -0.256 C  
BRANCH  18  19
HETATM   19  C   UNL     1     -11.381   9.030  71.801  1.00  0.00    -0.447 C  
HETATM   20  C   UNL     1     -12.582   8.745  72.323  1.00  0.00    -0.460 C  
ENDBRANCH  18  19
ENDBRANCH   7  18
ENDBRANCH   2   3
TORSDOF 3
ENDMDL
MODEL       63
REMARK 921   NORMALIZED FREE ENERGY PREDICTED BY IDOCK:   -3.90 KCAL/MOL
REMARK 922        TOTAL FREE ENERGY PREDICTED BY IDOCK:   -4.67 KCAL/MOL
REMARK 923 INTER-LIGAND FREE ENERGY PREDICTED BY IDOCK:   -4.57 KCAL/MOL
REMARK 924 INTRA-LIGAND FREE ENERGY PREDICTED BY IDOCK:   -0.10 KCAL/MOL
REMARK 927      BINDING AFFINITY PREDICTED BY RF-SCORE:    0.00 PKD
ROOT
HETATM    1  C   UNL     1      -9.980   1.813  74.333  1.00  0.00    -0.129 C  
HETATM    2  C   UNL     1     -11.067   2.255  73.370  1.00  0.00    -0.297 C  
ENDROOT
BRANCH   2   3
HETATM    3  C   UNL     1     -10.999   3.756  73.142  1.00  0.00    -0.236 C  
HETATM    4  C   UNL     1     -10.941   5.044  72.947  1.00  0.00    -0.342 C  
HETATM    5  C   UNL     1     -10.872   6.545  72.719  1.00  0.00    -0.280 C  
HETATM    6  C   UNL     1     -10.191   7.177  73.939  1.00  0.00    -0.358 C  
HETATM    7  C   UNL     1     -10.306   6.841  71.282  1.00  0.00    -0.225 C  
HETATM    8  O   UNL     1      -8.696   5.114  70.721  1.00  0.00    -0.124 OA 
HETATM    9  C   UNL     1     -10.250   8.339  71.085  1.00  0.00    -0.198 C  
HETATM   10  C   UNL     1      -6.833   6.219  72.442  1.00  0.00    -0.070 C  
HETATM   11  O   UNL     1     -11.223   9.026  70.769  1.00  0.00    -0.253 OA 
HETATM   12  N   UNL     1      -9.061   8.940  71.394  1.00  0.00    -0.247 N  
HETATM   13  H   UNL     1      -8.992   9.943  71.217  1.00  0.00     0.000 HD 
HETATM   14  C   UNL     1      -7.955   8.329  71.915  1.00  0.00    -0.127 C  
HETATM   15  C   UNL     1      -8.920   6.222  71.208  1.00  0.00    -0.139 C  
HETATM   16  N   UNL     1      -7.945   6.953  71.872  1.00  0.00    -0.099 N  
HETATM   17  O   UNL     1      -7.060   9.017  72.399  1.00  0.00    -0.326 OA 
BRANCH   7  18
HETATM   18  C   UNL     1     -11.282   6.226  70.229  1.00  0.00    -0.455 C  
BRANCH  18  19
HETATM   19  C   UNL     1     -11.032   6.576  68.781  1.00  0.00    -0.371 C  
HETATM   20  C   UNL     1     -10.502   5.717  67.900  1.00  0.00    -0.290 C  
ENDBRANCH  18  19
ENDBRANCH   7  18
ENDBRANCH   2   3
TORSDOF 3
ENDMDL
MODEL       64
REMARK 921   NORMALIZED FREE ENERGY PREDICTED BY IDOCK:   -3.89 KCAL/MOL
REMARK 922        TOTAL FREE ENERGY PREDICTED BY IDOCK:   -4.65 KCAL/MOL
REMARK 923 INTER-LIGAND FREE ENERGY PREDICTED BY IDOCK:   -4.56 KCAL/MOL
REMARK 924 INTRA-LIGAND FREE ENERGY PREDICTED BY IDOCK:   -0.09 KCAL/MOL
REMARK 927      BINDING AFFINITY PREDICTED BY RF-SCORE:    0.00 PKD
ROOT
HETATM    1  C   UNL     1     -11.174  16.290  69.871  1.00  0.00    -0.319 C  
HETATM    2  C   UNL     1      -9.901  15.469  69.758  1.00  0.00    -0.268 C  
ENDROOT
BRANCH   2   3
HETATM    3  C   UNL     1     -10.118  14.272  68.848  1.00  0.00    -0.179 C  
HETATM    4  C   UNL     1     -10.305  13.244  68.067  1.00  0.00    -0.243 C  
HETATM    5  C   UNL     1     -10.522  12.047  67.157  1.00  0.00    -0.244 C  
HETATM    6  C   UNL     1     -12.024  11.741  67.128  1.00  0.00     0.026 C  
HETATM    7  C   UNL     1      -9.755  12.263  65.801  1.00  0.00    -0.228 C  
HETATM    8  O   UNL     1      -9.775  14.632  65.275  1.00  0.00    -0.265 OA 
HETATM    9  C   UNL     1      -9.989  11.057  64.918  1.00  0.00    -0.288 C  
HETATM   10  C   UNL     1     -12.441  14.502  64.551  1.00  0.00    -0.324 C  
HETATM   11  O   UNL     1      -9.366  10.000  65.023  1.00  0.00    -0.214 OA 
HETATM   12  N   UNL     1     -11.034  11.151  64.040  1.00  0.00    -0.460 N  
HETATM   13  H   UNL     1     -11.172  10.366  63.403  1.00  0.00     0.000 HD 
HETATM   14  C   UNL     1     -11.911  12.194  63.934  1.00  0.00    -0.466 C  
HETATM   15  C   UNL     1     -10.308  13.528  65.166  1.00  0.00    -0.353 C  
HETATM   16  N   UNL     1     -11.550  13.358  64.573  1.00  0.00    -0.355 N  
HETATM   17  O   UNL     1     -12.955  12.038  63.307  1.00  0.00    -0.736 OA 
BRANCH   7  18
HETATM   18  C   UNL     1      -8.227  12.378  66.108  1.00  0.00     0.581 C  
BRANCH  18  19
HETATM   19  C   UNL     1      -7.694  11.537  67.242  1.00  0.00    -0.150 C  
HETATM   20  C   UNL     1      -6.823  11.997  68.150  1.00  0.00    -0.069 C  
ENDBRANCH  18  19
ENDBRANCH   7  18
ENDBRANCH   2   3
TORSDOF 3
ENDMDL
MODEL       65
REMARK 921   NORMALIZED FREE ENERGY PREDICTED BY IDOCK:   -3.88 KCAL/MOL
REMARK 922        TOTAL FREE ENERGY PREDICTED BY IDOCK:   -4.65 KCAL/MOL
REMARK 923 INTER-LIGAND FREE ENERGY PREDICTED BY IDOCK:   -4.49 KCAL/MOL
REMARK 924 INTRA-LIGAND FREE ENERGY PREDICTED BY IDOCK:   -0.16 KCAL/MOL
REMARK 927      BINDING AFFINITY PREDICTED BY RF-SCORE:    0.00 PKD
ROOT
HETATM    1  C   UNL     1     -10.372  10.931  66.283  1.00  0.00    -0.306 C  
HETATM    2  C   UNL     1     -11.331  11.425  67.352  1.00  0.00    -0.359 C  
ENDROOT
BRANCH   2   3
HETATM    3  C   UNL     1     -10.998  10.801  68.696  1.00  0.00    -0.285 C  
HETATM    4  C   UNL     1     -10.713  10.265  69.851  1.00  0.00    -0.344 C  
HETATM    5  C   UNL     1     -10.379   9.640  71.196  1.00  0.00    -0.236 C  
HETATM    6  C   UNL     1     -11.675   9.074  71.788  1.00  0.00    -0.440 C  
HETATM    7  C   UNL     1      -9.125   8.702  71.052  1.00  0.00    -0.248 C  
HETATM    8  O   UNL     1      -9.169   7.695  68.845  1.00  0.00    -0.140 OA 
HETATM    9  C   UNL     1      -8.818   8.097  72.404  1.00  0.00    -0.197 C  
HETATM   10  C   UNL     1     -11.220   6.000  69.602  1.00  0.00    -0.357 C  
HETATM   11  O   UNL     1      -8.194   8.681  73.290  1.00  0.00    -0.411 OA 
HETATM   12  N   UNL     1      -9.378   6.875  72.654  1.00  0.00    -0.138 N  
HETATM   13  H   UNL     1      -9.139   6.431  73.541  1.00  0.00     0.000 HD 
HETATM   14  C   UNL     1     -10.228   6.189  71.831  1.00  0.00    -0.200 C  
HETATM   15  C   UNL     1      -9.478   7.630  70.034  1.00  0.00    -0.161 C  
HETATM   16  N   UNL     1     -10.311   6.639  70.533  1.00  0.00    -0.196 N  
HETATM   17  O   UNL     1     -10.870   5.245  72.283  1.00  0.00    -0.224 OA 
BRANCH   7  18
HETATM   18  C   UNL     1      -7.908   9.568  70.596  1.00  0.00    -0.149 C  
BRANCH  18  19
HETATM   19  C   UNL     1      -6.571   8.873  70.505  1.00  0.00    -0.049 C  
HETATM   20  C   UNL     1      -5.438   9.394  70.995  1.00  0.00    -0.051 C  
ENDBRANCH  18  19
ENDBRANCH   7  18
ENDBRANCH   2   3
TORSDOF 3
ENDMDL
MODEL       66
REMARK 921   NORMALIZED FREE ENERGY PREDICTED BY IDOCK:   -3.88 KCAL/MOL
REMARK 922        TOTAL FREE ENERGY PREDICTED BY IDOCK:   -4.65 KCAL/MOL
REMARK 923 INTER-LIGAND FREE ENERGY PREDICTED BY IDOCK:   -4.55 KCAL/MOL
REMARK 924 INTRA-LIGAND FREE ENERGY PREDICTED BY IDOCK:   -0.10 KCAL/MOL
REMARK 927      BINDING AFFINITY PREDICTED BY RF-SCORE:    0.00 PKD
ROOT
HETATM    1  C   UNL     1     -14.217   9.211  72.361  1.00  0.00    -0.347 C  
HETATM    2  C   UNL     1     -14.408   7.819  71.787  1.00  0.00    -0.594 C  
ENDROOT
BRANCH   2   3
HETATM    3  C   UNL     1     -13.085   7.260  71.292  1.00  0.00    -0.363 C  
HETATM    4  C   UNL     1     -11.949   6.779  70.866  1.00  0.00    -0.437 C  
HETATM    5  C   UNL     1     -10.626   6.220  70.371  1.00  0.00    -0.309 C  
HETATM    6  C   UNL     1     -10.630   6.282  68.840  1.00  0.00    -0.321 C  
HETATM    7  C   UNL     1      -9.438   6.880  71.165  1.00  0.00    -0.166 C  
HETATM    8  O   UNL     1     -10.050   9.165  71.703  1.00  0.00    -0.327 OA 
HETATM    9  C   UNL     1      -8.137   6.304  70.651  1.00  0.00    -0.113 C  
HETATM   10  C   UNL     1      -9.649   9.945  69.080  1.00  0.00    -0.186 C  
HETATM   11  O   UNL     1      -7.681   5.216  71.007  1.00  0.00    -0.090 OA 
HETATM   12  N   UNL     1      -7.521   7.011  69.656  1.00  0.00    -0.096 N  
HETATM   13  H   UNL     1      -6.617   6.662  69.335  1.00  0.00     0.000 HD 
HETATM   14  C   UNL     1      -7.997   8.139  69.049  1.00  0.00    -0.113 C  
HETATM   15  C   UNL     1      -9.513   8.378  70.924  1.00  0.00    -0.169 C  
HETATM   16  N   UNL     1      -9.050   8.767  69.675  1.00  0.00    -0.147 N  
HETATM   17  O   UNL     1      -7.489   8.515  67.996  1.00  0.00    -0.094 OA 
BRANCH   7  18
HETATM   18  C   UNL     1      -9.591   6.518  72.677  1.00  0.00    -0.156 C  
BRANCH  18  19
HETATM   19  C   UNL     1     -10.043   5.115  73.001  1.00  0.00    -0.198 C  
HETATM   20  C   UNL     1     -10.972   4.838  73.926  1.00  0.00    -0.325 C  
ENDBRANCH  18  19
ENDBRANCH   7  18
ENDBRANCH   2   3
TORSDOF 3
ENDMDL
MODEL       67
REMARK 921   NORMALIZED FREE ENERGY PREDICTED BY IDOCK:   -3.88 KCAL/MOL
REMARK 922        TOTAL FREE ENERGY PREDICTED BY IDOCK:   -4.64 KCAL/MOL
REMARK 923 INTER-LIGAND FREE ENERGY PREDICTED BY IDOCK:   -4.51 KCAL/MOL
REMARK 924 INTRA-LIGAND FREE ENERGY PREDICTED BY IDOCK:   -0.13 KCAL/MOL
REMARK 927      BINDING AFFINITY PREDICTED BY RF-SCORE:    0.00 PKD
ROOT
HETATM    1  C   UNL     1     -10.377   4.621  66.028  1.00  0.00    -0.318 C  
HETATM    2  C   UNL     1     -10.854   5.996  66.461  1.00  0.00    -0.193 C  
ENDROOT
BRANCH   2   3
HETATM    3  C   UNL     1     -10.867   6.103  67.976  1.00  0.00    -0.398 C  
HETATM    4  C   UNL     1     -10.878   6.194  69.278  1.00  0.00    -0.418 C  
HETATM    5  C   UNL     1     -10.891   6.301  70.793  1.00  0.00    -0.339 C  
HETATM    6  C   UNL     1      -9.987   5.197  71.353  1.00  0.00    -0.252 C  
HETATM    7  C   UNL     1     -10.640   7.793  71.224  1.00  0.00    -0.241 C  
HETATM    8  O   UNL     1      -9.143   8.817  69.612  1.00  0.00    -0.145 OA 
HETATM    9  C   UNL     1     -10.659   7.868  72.735  1.00  0.00    -0.353 C  
HETATM   10  C   UNL     1      -6.990   7.423  70.648  1.00  0.00    -0.052 C  
HETATM   11  O   UNL     1     -11.691   7.920  73.406  1.00  0.00    -0.067 OA 
HETATM   12  N   UNL     1      -9.445   7.758  73.355  1.00  0.00    -0.274 N  
HETATM   13  H   UNL     1      -9.436   7.858  74.371  1.00  0.00     0.000 HD 
HETATM   14  C   UNL     1      -8.242   7.528  72.748  1.00  0.00    -0.117 C  
HETATM   15  C   UNL     1      -9.286   8.201  70.668  1.00  0.00    -0.154 C  
HETATM   16  N   UNL     1      -8.211   7.690  71.382  1.00  0.00    -0.098 N  
HETATM   17  O   UNL     1      -7.282   7.179  73.429  1.00  0.00    -0.073 OA 
BRANCH   7  18
HETATM   18  C   UNL     1     -11.798   8.675  70.658  1.00  0.00    -0.122 C  
BRANCH  18  19
HETATM   19  C   UNL     1     -11.691  10.165  70.874  1.00  0.00    -0.468 C  
HETATM   20  C   UNL     1     -11.988  11.067  69.930  1.00  0.00    -0.427 C  
ENDBRANCH  18  19
ENDBRANCH   7  18
ENDBRANCH   2   3
TORSDOF 3
ENDMDL
MODEL       68
REMARK 921   NORMALIZED FREE ENERGY PREDICTED BY IDOCK:   -3.87 KCAL/MOL
REMARK 922        TOTAL FREE ENERGY PREDICTED BY IDOCK:   -4.63 KCAL/MOL
REMARK 923 INTER-LIGAND FREE ENERGY PREDICTED BY IDOCK:   -4.60 KCAL/MOL
REMARK 924 INTRA-LIGAND FREE ENERGY PREDICTED BY IDOCK:   -0.03 KCAL/MOL
REMARK 927      BINDING AFFINITY PREDICTED BY RF-SCORE:    0.00 PKD
ROOT
HETATM    1  C   UNL     1     -10.532   2.840  72.951  1.00  0.00    -0.239 C  
HETATM    2  C   UNL     1      -9.707   3.495  71.858  1.00  0.00    -0.234 C  
ENDROOT
BRANCH   2   3
HETATM    3  C   UNL     1      -9.903   5.002  71.873  1.00  0.00    -0.236 C  
HETATM    4  C   UNL     1     -10.070   6.295  71.888  1.00  0.00    -0.205 C  
HETATM    5  C   UNL     1     -10.265   7.802  71.903  1.00  0.00    -0.250 C  
HETATM    6  C   UNL     1      -8.936   8.447  72.312  1.00  0.00    -0.303 C  
HETATM    7  C   UNL     1     -10.966   8.263  70.573  1.00  0.00    -0.253 C  
HETATM    8  O   UNL     1     -10.222   6.816  68.772  1.00  0.00    -0.160 OA 
HETATM    9  C   UNL     1     -11.147   9.764  70.618  1.00  0.00    -0.332 C  
HETATM   10  C   UNL     1      -7.752   8.061  68.722  1.00  0.00    -0.108 C  
HETATM   11  O   UNL     1     -12.066  10.326  71.216  1.00  0.00    -0.355 OA 
HETATM   12  N   UNL     1     -10.152  10.505  70.043  1.00  0.00    -0.416 N  
HETATM   13  H   UNL     1     -10.285  11.516  70.021  1.00  0.00     0.000 HD 
HETATM   14  C   UNL     1      -8.996  10.023  69.495  1.00  0.00    -0.205 C  
HETATM   15  C   UNL     1     -10.064   7.850  69.422  1.00  0.00    -0.196 C  
HETATM   16  N   UNL     1      -8.955   8.667  69.259  1.00  0.00    -0.144 N  
HETATM   17  O   UNL     1      -8.071  10.797  69.265  1.00  0.00    -0.150 OA 
BRANCH   7  18
HETATM   18  C   UNL     1     -12.371   7.585  70.492  1.00  0.00     0.093 C  
BRANCH  18  19
HETATM   19  C   UNL     1     -13.125   7.419  71.789  1.00  0.00    -0.363 C  
HETATM   20  C   UNL     1     -14.403   7.788  71.948  1.00  0.00    -0.545 C  
ENDBRANCH  18  19
ENDBRANCH   7  18
ENDBRANCH   2   3
TORSDOF 3
ENDMDL
MODEL       69
REMARK 921   NORMALIZED FREE ENERGY PREDICTED BY IDOCK:   -3.85 KCAL/MOL
REMARK 922        TOTAL FREE ENERGY PREDICTED BY IDOCK:   -4.61 KCAL/MOL
REMARK 923 INTER-LIGAND FREE ENERGY PREDICTED BY IDOCK:   -4.49 KCAL/MOL
REMARK 924 INTRA-LIGAND FREE ENERGY PREDICTED BY IDOCK:   -0.12 KCAL/MOL
REMARK 927      BINDING AFFINITY PREDICTED BY RF-SCORE:    0.00 PKD
ROOT
HETATM    1  C   UNL     1      -5.967  17.007  67.408  1.00  0.00    -0.171 C  
HETATM    2  C   UNL     1      -6.960  17.558  66.401  1.00  0.00    -0.315 C  
ENDROOT
BRANCH   2   3
HETATM    3  C   UNL     1      -8.122  16.596  66.218  1.00  0.00    -0.361 C  
HETATM    4  C   UNL     1      -9.120  15.771  66.060  1.00  0.00    -0.361 C  
HETATM    5  C   UNL     1     -10.282  14.809  65.878  1.00  0.00    -0.331 C  
HETATM    6  C   UNL     1      -9.939  13.869  64.717  1.00  0.00    -0.105 C  
HETATM    7  C   UNL     1     -10.691  14.197  67.268  1.00  0.00    -0.279 C  
HETATM    8  O   UNL     1      -8.693  13.972  68.626  1.00  0.00    -0.170 OA 
HETATM    9  C   UNL     1     -11.848  13.246  67.054  1.00  0.00    -0.390 C  
HETATM   10  C   UNL     1      -7.858  11.799  67.130  1.00  0.00    -0.166 C  
HETATM   11  O   UNL     1     -13.020  13.607  66.945  1.00  0.00     0.291 OA 
HETATM   12  N   UNL     1     -11.517  11.932  66.867  1.00  0.00    -0.336 N  
HETATM   13  H   UNL     1     -12.288  11.272  66.773  1.00  0.00     0.000 HD 
HETATM   14  C   UNL     1     -10.253  11.418  66.795  1.00  0.00    -0.223 C  
HETATM   15  C   UNL     1      -9.474  13.471  67.817  1.00  0.00    -0.216 C  
HETATM   16  N   UNL     1      -9.235  12.245  67.214  1.00  0.00    -0.179 N  
HETATM   17  O   UNL     1     -10.090  10.283  66.354  1.00  0.00    -0.217 OA 
BRANCH   7  18
HETATM   18  C   UNL     1     -11.155  15.358  68.203  1.00  0.00    -0.309 C  
BRANCH  18  19
HETATM   19  C   UNL     1     -11.654  14.973  69.575  1.00  0.00    -0.337 C  
HETATM   20  C   UNL     1     -11.002  15.275  70.705  1.00  0.00    -0.312 C  
ENDBRANCH  18  19
ENDBRANCH   7  18
ENDBRANCH   2   3
TORSDOF 3
ENDMDL
MODEL       70
REMARK 921   NORMALIZED FREE ENERGY PREDICTED BY IDOCK:   -3.85 KCAL/MOL
REMARK 922        TOTAL FREE ENERGY PREDICTED BY IDOCK:   -4.61 KCAL/MOL
REMARK 923 INTER-LIGAND FREE ENERGY PREDICTED BY IDOCK:   -4.49 KCAL/MOL
REMARK 924 INTRA-LIGAND FREE ENERGY PREDICTED BY IDOCK:   -0.12 KCAL/MOL
REMARK 927      BINDING AFFINITY PREDICTED BY RF-SCORE:    0.00 PKD
ROOT
HETATM    1  C   UNL     1      -9.335  10.567  65.326  1.00  0.00    -0.258 C  
HETATM    2  C   UNL     1      -8.978   9.092  65.274  1.00  0.00    -0.246 C  
ENDROOT
BRANCH   2   3
HETATM    3  C   UNL     1      -9.642   8.343  66.417  1.00  0.00    -0.307 C  
HETATM    4  C   UNL     1     -10.212   7.698  67.398  1.00  0.00    -0.320 C  
HETATM    5  C   UNL     1     -10.875   6.949  68.541  1.00  0.00    -0.234 C  
HETATM    6  C   UNL     1     -10.449   5.479  68.453  1.00  0.00    -0.227 C  
HETATM    7  C   UNL     1     -10.661   7.733  69.888  1.00  0.00    -0.245 C  
HETATM    8  O   UNL     1      -8.498   8.828  69.803  1.00  0.00    -0.121 OA 
HETATM    9  C   UNL     1     -11.332   6.964  71.004  1.00  0.00    -0.299 C  
HETATM   10  C   UNL     1      -7.203   6.415  70.191  1.00  0.00    -0.084 C  
HETATM   11  O   UNL     1     -12.539   7.017  71.244  1.00  0.00    -0.372 OA 
HETATM   12  N   UNL     1     -10.537   6.088  71.691  1.00  0.00    -0.228 N  
HETATM   13  H   UNL     1     -10.962   5.600  72.479  1.00  0.00     0.000 HD 
HETATM   14  C   UNL     1      -9.227   5.803  71.423  1.00  0.00    -0.143 C  
HETATM   15  C   UNL     1      -9.162   7.840  70.114  1.00  0.00    -0.153 C  
HETATM   16  N   UNL     1      -8.580   6.665  70.567  1.00  0.00    -0.141 N  
HETATM   17  O   UNL     1      -8.713   4.810  71.931  1.00  0.00    -0.120 OA 
BRANCH   7  18
HETATM   18  C   UNL     1     -11.338   9.134  69.759  1.00  0.00     0.011 C  
BRANCH  18  19
HETATM   19  C   UNL     1     -11.474   9.946  71.024  1.00  0.00    -0.466 C  
HETATM   20  C   UNL     1     -12.548  10.697  71.302  1.00  0.00    -0.533 C  
ENDBRANCH  18  19
ENDBRANCH   7  18
ENDBRANCH   2   3
TORSDOF 3
ENDMDL
MODEL       71
REMARK 921   NORMALIZED FREE ENERGY PREDICTED BY IDOCK:   -3.85 KCAL/MOL
REMARK 922        TOTAL FREE ENERGY PREDICTED BY IDOCK:   -4.60 KCAL/MOL
REMARK 923 INTER-LIGAND FREE ENERGY PREDICTED BY IDOCK:   -4.58 KCAL/MOL
REMARK 924 INTRA-LIGAND FREE ENERGY PREDICTED BY IDOCK:   -0.02 KCAL/MOL
REMARK 927      BINDING AFFINITY PREDICTED BY RF-SCORE:    0.00 PKD
ROOT
HETATM    1  C   UNL     1     -13.528   9.938  72.159  1.00  0.00    -0.454 C  
HETATM    2  C   UNL     1     -12.760  10.888  71.258  1.00  0.00    -0.542 C  
ENDROOT
BRANCH   2   3
HETATM    3  C   UNL     1     -11.487  10.230  70.752  1.00  0.00    -0.438 C  
HETATM    4  C   UNL     1     -10.394   9.666  70.318  1.00  0.00    -0.336 C  
HETATM    5  C   UNL     1      -9.121   9.008  69.812  1.00  0.00    -0.163 C  
HETATM    6  C   UNL     1      -8.114   8.977  70.968  1.00  0.00    -0.199 C  
HETATM    7  C   UNL     1      -9.473   7.671  69.063  1.00  0.00    -0.150 C  
HETATM    8  O   UNL     1     -11.410   6.677  70.136  1.00  0.00    -0.327 OA 
HETATM    9  C   UNL     1      -8.189   7.041  68.572  1.00  0.00    -0.124 C  
HETATM   10  C   UNL     1      -9.871   5.880  72.292  1.00  0.00    -0.160 C  
HETATM   11  O   UNL     1      -7.607   7.384  67.542  1.00  0.00    -0.101 OA 
HETATM   12  N   UNL     1      -7.618   6.118  69.405  1.00  0.00    -0.095 N  
HETATM   13  H   UNL     1      -6.779   5.648  69.064  1.00  0.00     0.000 HD 
HETATM   14  C   UNL     1      -8.061   5.765  70.648  1.00  0.00    -0.117 C  
HETATM   15  C   UNL     1     -10.185   6.770  70.059  1.00  0.00    -0.191 C  
HETATM   16  N   UNL     1      -9.334   6.170  70.977  1.00  0.00    -0.163 N  
HETATM   17  O   UNL     1      -7.315   5.138  71.396  1.00  0.00    -0.079 OA 
BRANCH   7  18
HETATM   18  C   UNL     1     -10.373   8.014  67.833  1.00  0.00    -0.282 C  
BRANCH  18  19
HETATM   19  C   UNL     1     -10.220   9.393  67.238  1.00  0.00    -0.308 C  
HETATM   20  C   UNL     1      -9.993   9.610  65.936  1.00  0.00    -0.351 C  
ENDBRANCH  18  19
ENDBRANCH   7  18
ENDBRANCH   2   3
TORSDOF 3
ENDMDL
MODEL       72
REMARK 921   NORMALIZED FREE ENERGY PREDICTED BY IDOCK:   -3.84 KCAL/MOL
REMARK 922        TOTAL FREE ENERGY PREDICTED BY IDOCK:   -4.59 KCAL/MOL
REMARK 923 INTER-LIGAND FREE ENERGY PREDICTED BY IDOCK:   -4.49 KCAL/MOL
REMARK 924 INTRA-LIGAND FREE ENERGY PREDICTED BY IDOCK:   -0.11 KCAL/MOL
REMARK 927      BINDING AFFINITY PREDICTED BY RF-SCORE:    0.00 PKD
ROOT
HETATM    1  C   UNL     1     -12.119  13.047  65.734  1.00  0.00    -0.510 C  
HETATM    2  C   UNL     1     -10.701  12.629  66.081  1.00  0.00    -0.293 C  
ENDROOT
BRANCH   2   3
HETATM    3  C   UNL     1     -10.685  11.220  66.650  1.00  0.00    -0.321 C  
HETATM    4  C   UNL     1     -10.671  10.010  67.137  1.00  0.00    -0.279 C  
HETATM    5  C   UNL     1     -10.655   8.601  67.705  1.00  0.00    -0.249 C  
HETATM    6  C   UNL     1      -9.848   7.716  66.750  1.00  0.00    -0.307 C  
HETATM    7  C   UNL     1     -10.264   8.645  69.229  1.00  0.00    -0.215 C  
HETATM    8  O   UNL     1      -8.702  10.470  69.568  1.00  0.00    -0.129 OA 
HETATM    9  C   UNL     1     -10.258   7.231  69.765  1.00  0.00    -0.210 C  
HETATM   10  C   UNL     1      -6.671   9.023  68.372  1.00  0.00    -0.060 C  
HETATM   11  O   UNL     1     -11.272   6.625  70.113  1.00  0.00    -0.302 OA 
HETATM   12  N   UNL     1      -9.051   6.588  69.743  1.00  0.00    -0.142 N  
HETATM   13  H   UNL     1      -9.020   5.652  70.148  1.00  0.00     0.000 HD 
HETATM   14  C   UNL     1      -7.882   7.076  69.229  1.00  0.00    -0.114 C  
HETATM   15  C   UNL     1      -8.886   9.279  69.322  1.00  0.00    -0.146 C  
HETATM   16  N   UNL     1      -7.854   8.426  68.960  1.00  0.00    -0.100 N  
HETATM   17  O   UNL     1      -6.949   6.306  69.022  1.00  0.00    -0.063 OA 
BRANCH   7  18
HETATM   18  C   UNL     1     -11.346   9.473  69.994  1.00  0.00    -0.204 C  
BRANCH  18  19
HETATM   19  C   UNL     1     -11.297   9.430  71.502  1.00  0.00    -0.464 C  
HETATM   20  C   UNL     1     -12.370   9.176  72.264  1.00  0.00    -0.379 C  
ENDBRANCH  18  19
ENDBRANCH   7  18
ENDBRANCH   2   3
TORSDOF 3
ENDMDL
MODEL       73
REMARK 921   NORMALIZED FREE ENERGY PREDICTED BY IDOCK:   -3.83 KCAL/MOL
REMARK 922        TOTAL FREE ENERGY PREDICTED BY IDOCK:   -4.58 KCAL/MOL
REMARK 923 INTER-LIGAND FREE ENERGY PREDICTED BY IDOCK:   -4.45 KCAL/MOL
REMARK 924 INTRA-LIGAND FREE ENERGY PREDICTED BY IDOCK:   -0.13 KCAL/MOL
REMARK 927      BINDING AFFINITY PREDICTED BY RF-SCORE:    0.00 PKD
ROOT
HETATM    1  C   UNL     1     -10.628   5.524  66.543  1.00  0.00    -0.343 C  
HETATM    2  C   UNL     1     -11.158   6.770  67.229  1.00  0.00    -0.394 C  
ENDROOT
BRANCH   2   3
HETATM    3  C   UNL     1     -10.315   7.980  66.862  1.00  0.00    -0.408 C  
HETATM    4  C   UNL     1      -9.592   9.018  66.546  1.00  0.00    -0.286 C  
HETATM    5  C   UNL     1      -8.749  10.228  66.179  1.00  0.00    -0.163 C  
HETATM    6  C   UNL     1      -9.461  10.973  65.044  1.00  0.00    -0.269 C  
HETATM    7  C   UNL     1      -8.347  11.013  67.481  1.00  0.00    -0.118 C  
HETATM    8  O   UNL     1     -10.157  10.816  69.085  1.00  0.00    -0.213 OA 
HETATM    9  C   UNL     1      -7.510  12.209  67.084  1.00  0.00    -0.129 C  
HETATM   10  C   UNL     1     -11.699  12.604  67.645  1.00  0.00    -0.361 C  
HETATM   11  O   UNL     1      -6.306  12.149  66.831  1.00  0.00    -0.135 OA 
HETATM   12  N   UNL     1      -8.190  13.381  66.901  1.00  0.00    -0.406 N  
HETATM   13  H   UNL     1      -7.632  14.207  66.683  1.00  0.00     0.000 HD 
HETATM   14  C   UNL     1      -9.543  13.555  66.980  1.00  0.00    -0.248 C  
HETATM   15  C   UNL     1      -9.635  11.443  68.164  1.00  0.00    -0.190 C  
HETATM   16  N   UNL     1     -10.253  12.527  67.558  1.00  0.00    -0.215 N  
HETATM   17  O   UNL     1     -10.045  14.580  66.529  1.00  0.00    -0.259 OA 
BRANCH   7  18
HETATM   18  C   UNL     1      -7.489  10.070  68.384  1.00  0.00    -0.082 C  
BRANCH  18  19
HETATM   19  C   UNL     1      -7.082  10.603  69.736  1.00  0.00    -0.140 C  
HETATM   20  C   UNL     1      -5.810  10.649  70.154  1.00  0.00    -0.087 C  
ENDBRANCH  18  19
ENDBRANCH   7  18
ENDBRANCH   2   3
TORSDOF 3
ENDMDL
MODEL       74
REMARK 921   NORMALIZED FREE ENERGY PREDICTED BY IDOCK:   -3.83 KCAL/MOL
REMARK 922        TOTAL FREE ENERGY PREDICTED BY IDOCK:   -4.58 KCAL/MOL
REMARK 923 INTER-LIGAND FREE ENERGY PREDICTED BY IDOCK:   -4.45 KCAL/MOL
REMARK 924 INTRA-LIGAND FREE ENERGY PREDICTED BY IDOCK:   -0.13 KCAL/MOL
REMARK 927      BINDING AFFINITY PREDICTED BY RF-SCORE:    0.00 PKD
ROOT
HETATM    1  C   UNL     1      -9.626   5.549  66.651  1.00  0.00    -0.163 C  
HETATM    2  C   UNL     1     -10.826   6.334  67.153  1.00  0.00    -0.460 C  
ENDROOT
BRANCH   2   3
HETATM    3  C   UNL     1     -10.536   7.825  67.126  1.00  0.00    -0.413 C  
HETATM    4  C   UNL     1     -10.287   9.105  67.102  1.00  0.00    -0.337 C  
HETATM    5  C   UNL     1      -9.997  10.596  67.076  1.00  0.00    -0.243 C  
HETATM    6  C   UNL     1     -11.265  11.316  66.600  1.00  0.00    -0.247 C  
HETATM    7  C   UNL     1      -9.328  11.034  68.430  1.00  0.00    -0.179 C  
HETATM    8  O   UNL     1     -10.239   9.665  70.214  1.00  0.00    -0.243 OA 
HETATM    9  C   UNL     1      -9.051  12.520  68.373  1.00  0.00    -0.135 C  
HETATM   10  C   UNL     1     -12.625  11.061  70.138  1.00  0.00    -0.211 C  
HETATM   11  O   UNL     1      -8.074  13.014  67.810  1.00  0.00    -0.140 OA 
HETATM   12  N   UNL     1     -10.022  13.330  68.894  1.00  0.00    -0.431 N  
HETATM   13  H   UNL     1      -9.827  14.331  68.909  1.00  0.00     0.000 HD 
HETATM   14  C   UNL     1     -11.229  12.929  69.396  1.00  0.00    -0.132 C  
HETATM   15  C   UNL     1     -10.303  10.696  69.545  1.00  0.00    -0.182 C  
HETATM   16  N   UNL     1     -11.365  11.583  69.647  1.00  0.00    -0.269 N  
HETATM   17  O   UNL     1     -12.112  13.763  69.574  1.00  0.00    -0.324 OA 
BRANCH   7  18
HETATM   18  C   UNL     1      -7.973  10.271  68.582  1.00  0.00    -0.111 C  
BRANCH  18  19
HETATM   19  C   UNL     1      -7.153  10.574  69.813  1.00  0.00    -0.150 C  
HETATM   20  C   UNL     1      -6.335   9.682  70.388  1.00  0.00    -0.081 C  
ENDBRANCH  18  19
ENDBRANCH   7  18
ENDBRANCH   2   3
TORSDOF 3
ENDMDL
MODEL       75
REMARK 921   NORMALIZED FREE ENERGY PREDICTED BY IDOCK:   -3.81 KCAL/MOL
REMARK 922        TOTAL FREE ENERGY PREDICTED BY IDOCK:   -4.56 KCAL/MOL
REMARK 923 INTER-LIGAND FREE ENERGY PREDICTED BY IDOCK:   -4.63 KCAL/MOL
REMARK 924 INTRA-LIGAND FREE ENERGY PREDICTED BY IDOCK:    0.06 KCAL/MOL
REMARK 927      BINDING AFFINITY PREDICTED BY RF-SCORE:    0.00 PKD
ROOT
HETATM    1  C   UNL     1      -8.114   8.322  74.394  1.00  0.00    -0.259 C  
HETATM    2  C   UNL     1      -8.246   7.491  73.130  1.00  0.00    -0.158 C  
ENDROOT
BRANCH   2   3
HETATM    3  C   UNL     1      -8.662   8.366  71.959  1.00  0.00    -0.267 C  
HETATM    4  C   UNL     1      -9.019   9.117  70.954  1.00  0.00    -0.298 C  
HETATM    5  C   UNL     1      -9.435   9.992  69.783  1.00  0.00    -0.239 C  
HETATM    6  C   UNL     1      -8.182  10.304  68.958  1.00  0.00    -0.139 C  
HETATM    7  C   UNL     1     -10.690   9.366  69.070  1.00  0.00    -0.209 C  
HETATM    8  O   UNL     1     -10.532   6.949  69.219  1.00  0.00    -0.197 OA 
HETATM    9  C   UNL     1     -11.080  10.257  67.912  1.00  0.00    -0.276 C  
HETATM   10  C   UNL     1      -8.547   6.908  67.293  1.00  0.00    -0.120 C  
HETATM   11  O   UNL     1     -11.747  11.285  68.033  1.00  0.00    -0.501 OA 
HETATM   12  N   UNL     1     -10.549   9.926  66.696  1.00  0.00    -0.159 N  
HETATM   13  H   UNL     1     -10.844  10.487  65.896  1.00  0.00     0.000 HD 
HETATM   14  C   UNL     1      -9.662   8.916  66.447  1.00  0.00    -0.262 C  
HETATM   15  C   UNL     1     -10.291   7.980  68.591  1.00  0.00    -0.200 C  
HETATM   16  N   UNL     1      -9.500   7.989  67.451  1.00  0.00    -0.146 N  
HETATM   17  O   UNL     1      -9.057   8.897  65.378  1.00  0.00    -0.206 OA 
BRANCH   7  18
HETATM   18  C   UNL     1     -11.869   9.318  70.093  1.00  0.00     0.076 C  
BRANCH  18  19
HETATM   19  C   UNL     1     -12.185  10.596  70.832  1.00  0.00    -0.497 C  
HETATM   20  C   UNL     1     -13.084  10.669  71.822  1.00  0.00    -0.571 C  
ENDBRANCH  18  19
ENDBRANCH   7  18
ENDBRANCH   2   3
TORSDOF 3
ENDMDL
MODEL       76
REMARK 921   NORMALIZED FREE ENERGY PREDICTED BY IDOCK:   -3.79 KCAL/MOL
REMARK 922        TOTAL FREE ENERGY PREDICTED BY IDOCK:   -4.54 KCAL/MOL
REMARK 923 INTER-LIGAND FREE ENERGY PREDICTED BY IDOCK:   -4.51 KCAL/MOL
REMARK 924 INTRA-LIGAND FREE ENERGY PREDICTED BY IDOCK:   -0.03 KCAL/MOL
REMARK 927      BINDING AFFINITY PREDICTED BY RF-SCORE:    0.00 PKD
ROOT
HETATM    1  C   UNL     1     -10.821   7.032  66.969  1.00  0.00    -0.413 C  
HETATM    2  C   UNL     1      -9.708   7.731  66.208  1.00  0.00    -0.149 C  
ENDROOT
BRANCH   2   3
HETATM    3  C   UNL     1      -9.946   9.232  66.176  1.00  0.00    -0.348 C  
HETATM    4  C   UNL     1     -10.151  10.520  66.149  1.00  0.00    -0.306 C  
HETATM    5  C   UNL     1     -10.389  12.020  66.117  1.00  0.00    -0.257 C  
HETATM    6  C   UNL     1     -11.903  12.258  66.120  1.00  0.00    -0.398 C  
HETATM    7  C   UNL     1      -9.496  12.724  67.204  1.00  0.00    -0.223 C  
HETATM    8  O   UNL     1      -9.279  11.230  69.104  1.00  0.00    -0.053 OA 
HETATM    9  C   UNL     1      -9.754  14.214  67.148  1.00  0.00    -0.248 C  
HETATM   10  C   UNL     1     -11.878  11.763  69.887  1.00  0.00    -0.348 C  
HETATM   11  O   UNL     1      -9.231  14.969  66.328  1.00  0.00    -0.289 OA 
HETATM   12  N   UNL     1     -10.712  14.688  68.002  1.00  0.00    -0.243 N  
HETATM   13  H   UNL     1     -10.860  15.698  68.011  1.00  0.00     0.000 HD 
HETATM   14  C   UNL     1     -11.489  13.943  68.843  1.00  0.00    -0.301 C  
HETATM   15  C   UNL     1      -9.890  12.146  68.553  1.00  0.00    -0.162 C  
HETATM   16  N   UNL     1     -11.089  12.642  69.046  1.00  0.00    -0.254 N  
HETATM   17  O   UNL     1     -12.487  14.450  69.347  1.00  0.00    -0.248 OA 
BRANCH   7  18
HETATM   18  C   UNL     1      -7.996  12.456  66.864  1.00  0.00    -0.041 C  
BRANCH  18  19
HETATM   19  C   UNL     1      -6.982  12.805  67.926  1.00  0.00    -0.116 C  
HETATM   20  C   UNL     1      -5.676  12.525  67.816  1.00  0.00    -0.116 C  
ENDBRANCH  18  19
ENDBRANCH   7  18
ENDBRANCH   2   3
TORSDOF 3
ENDMDL
MODEL       77
REMARK 921   NORMALIZED FREE ENERGY PREDICTED BY IDOCK:   -3.77 KCAL/MOL
REMARK 922        TOTAL FREE ENERGY PREDICTED BY IDOCK:   -4.52 KCAL/MOL
REMARK 923 INTER-LIGAND FREE ENERGY PREDICTED BY IDOCK:   -4.37 KCAL/MOL
REMARK 924 INTRA-LIGAND FREE ENERGY PREDICTED BY IDOCK:   -0.14 KCAL/MOL
REMARK 927      BINDING AFFINITY PREDICTED BY RF-SCORE:    0.00 PKD
ROOT
HETATM    1  C   UNL     1      -9.427   1.644  68.274  1.00  0.00    -0.236 C  
HETATM    2  C   UNL     1      -8.943   3.029  67.884  1.00  0.00    -0.191 C  
ENDROOT
BRANCH   2   3
HETATM    3  C   UNL     1      -9.547   4.082  68.797  1.00  0.00    -0.201 C  
HETATM    4  C   UNL     1     -10.066   4.986  69.582  1.00  0.00    -0.321 C  
HETATM    5  C   UNL     1     -10.671   6.039  70.496  1.00  0.00    -0.349 C  
HETATM    6  C   UNL     1     -10.444   5.593  71.945  1.00  0.00    -0.279 C  
HETATM    7  C   UNL     1     -10.196   7.469  70.047  1.00  0.00    -0.215 C  
HETATM    8  O   UNL     1      -7.940   7.290  69.170  1.00  0.00    -0.115 OA 
HETATM    9  C   UNL     1     -10.813   8.494  70.973  1.00  0.00    -0.241 C  
HETATM   10  C   UNL     1      -6.916   6.987  71.722  1.00  0.00    -0.068 C  
HETATM   11  O   UNL     1     -11.965   8.915  70.859  1.00  0.00    -0.282 OA 
HETATM   12  N   UNL     1     -10.053   8.865  72.048  1.00  0.00    -0.329 N  
HETATM   13  H   UNL     1     -10.435   9.592  72.653  1.00  0.00     0.000 HD 
HETATM   14  C   UNL     1      -8.832   8.355  72.392  1.00  0.00    -0.224 C  
HETATM   15  C   UNL     1      -8.679   7.489  70.134  1.00  0.00    -0.142 C  
HETATM   16  N   UNL     1      -8.195   7.605  71.430  1.00  0.00    -0.098 N  
HETATM   17  O   UNL     1      -8.386   8.570  73.515  1.00  0.00    -0.381 OA 
BRANCH   7  18
HETATM   18  C   UNL     1     -10.705   7.728  68.593  1.00  0.00    -0.084 C  
BRANCH  18  19
HETATM   19  C   UNL     1     -10.331   9.047  67.963  1.00  0.00    -0.275 C  
HETATM   20  C   UNL     1      -9.952   9.169  66.683  1.00  0.00    -0.343 C  
ENDBRANCH  18  19
ENDBRANCH   7  18
ENDBRANCH   2   3
TORSDOF 3
ENDMDL
MODEL       78
REMARK 921   NORMALIZED FREE ENERGY PREDICTED BY IDOCK:   -3.76 KCAL/MOL
REMARK 922        TOTAL FREE ENERGY PREDICTED BY IDOCK:   -4.50 KCAL/MOL
REMARK 923 INTER-LIGAND FREE ENERGY PREDICTED BY IDOCK:   -4.35 KCAL/MOL
REMARK 924 INTRA-LIGAND FREE ENERGY PREDICTED BY IDOCK:   -0.15 KCAL/MOL
REMARK 927      BINDING AFFINITY PREDICTED BY RF-SCORE:    0.00 PKD
ROOT
HETATM    1  C   UNL     1     -10.199   5.352  66.499  1.00  0.00    -0.287 C  
HETATM    2  C   UNL     1     -11.157   6.186  67.331  1.00  0.00    -0.326 C  
ENDROOT
BRANCH   2   3
HETATM    3  C   UNL     1     -10.551   7.544  67.641  1.00  0.00    -0.303 C  
HETATM    4  C   UNL     1     -10.030   8.709  67.909  1.00  0.00    -0.232 C  
HETATM    5  C   UNL     1      -9.423  10.067  68.220  1.00  0.00    -0.147 C  
HETATM    6  C   UNL     1      -8.035   9.837  68.829  1.00  0.00    -0.087 C  
HETATM    7  C   UNL     1      -9.568  11.014  66.972  1.00  0.00    -0.199 C  
HETATM    8  O   UNL     1      -9.400   9.666  64.961  1.00  0.00    -0.242 OA 
HETATM    9  C   UNL     1      -8.957  12.355  67.311  1.00  0.00    -0.190 C  
HETATM   10  C   UNL     1      -6.669   9.392  65.311  1.00  0.00    -0.079 C  
HETATM   11  O   UNL     1      -9.538  13.229  67.956  1.00  0.00    -0.207 OA 
HETATM   12  N   UNL     1      -7.646  12.523  66.958  1.00  0.00    -0.363 N  
HETATM   13  H   UNL     1      -7.236  13.440  67.135  1.00  0.00     0.000 HD 
HETATM   14  C   UNL     1      -6.833  11.581  66.393  1.00  0.00     0.061 C  
HETATM   15  C   UNL     1      -8.838  10.351  65.816  1.00  0.00    -0.170 C  
HETATM   16  N   UNL     1      -7.457  10.463  65.889  1.00  0.00    -0.135 N  
HETATM   17  O   UNL     1      -5.619  11.766  66.380  1.00  0.00    -0.274 OA 
BRANCH   7  18
HETATM   18  C   UNL     1     -11.088  11.210  66.673  1.00  0.00    -0.255 C  
BRANCH  18  19
HETATM   19  C   UNL     1     -11.446  12.115  65.519  1.00  0.00    -0.394 C  
HETATM   20  C   UNL     1     -12.325  13.121  65.619  1.00  0.00    -0.519 C  
ENDBRANCH  18  19
ENDBRANCH   7  18
ENDBRANCH   2   3
TORSDOF 3
ENDMDL
MODEL       79
REMARK 921   NORMALIZED FREE ENERGY PREDICTED BY IDOCK:   -3.75 KCAL/MOL
REMARK 922        TOTAL FREE ENERGY PREDICTED BY IDOCK:   -4.48 KCAL/MOL
REMARK 923 INTER-LIGAND FREE ENERGY PREDICTED BY IDOCK:   -4.33 KCAL/MOL
REMARK 924 INTRA-LIGAND FREE ENERGY PREDICTED BY IDOCK:   -0.16 KCAL/MOL
REMARK 927      BINDING AFFINITY PREDICTED BY RF-SCORE:    0.00 PKD
ROOT
HETATM    1  C   UNL     1     -11.403  12.628  63.559  1.00  0.00    -0.527 C  
HETATM    2  C   UNL     1     -12.327  12.600  64.763  1.00  0.00    -0.556 C  
ENDROOT
BRANCH   2   3
HETATM    3  C   UNL     1     -11.580  12.122  65.997  1.00  0.00    -0.420 C  
HETATM    4  C   UNL     1     -10.939  11.713  67.057  1.00  0.00    -0.338 C  
HETATM    5  C   UNL     1     -10.192  11.235  68.291  1.00  0.00    -0.198 C  
HETATM    6  C   UNL     1     -11.210  10.590  69.239  1.00  0.00    -0.320 C  
HETATM    7  C   UNL     1      -8.918  10.420  67.860  1.00  0.00    -0.128 C  
HETATM    8  O   UNL     1      -9.421   9.239  65.801  1.00  0.00    -0.231 OA 
HETATM    9  C   UNL     1      -8.196   9.959  69.107  1.00  0.00    -0.128 C  
HETATM   10  C   UNL     1     -10.984   7.412  67.169  1.00  0.00    -0.155 C  
HETATM   11  O   UNL     1      -7.435  10.673  69.762  1.00  0.00    -0.150 OA 
HETATM   12  N   UNL     1      -8.522   8.710  69.561  1.00  0.00    -0.127 N  
HETATM   13  H   UNL     1      -8.006   8.366  70.371  1.00  0.00     0.000 HD 
HETATM   14  C   UNL     1      -9.470   7.879  69.034  1.00  0.00    -0.151 C  
HETATM   15  C   UNL     1      -9.397   9.239  67.031  1.00  0.00    -0.144 C  
HETATM   16  N   UNL     1      -9.944   8.212  67.786  1.00  0.00    -0.170 N  
HETATM   17  O   UNL     1      -9.853   6.914  69.690  1.00  0.00    -0.165 OA 
BRANCH   7  18
HETATM   18  C   UNL     1      -7.976  11.365  67.049  1.00  0.00    -0.158 C  
BRANCH  18  19
HETATM   19  C   UNL     1      -6.669  10.780  66.571  1.00  0.00    -0.126 C  
HETATM   20  C   UNL     1      -5.500  11.431  66.650  1.00  0.00    -0.135 C  
ENDBRANCH  18  19
ENDBRANCH   7  18
ENDBRANCH   2   3
TORSDOF 3
ENDMDL
MODEL       80
REMARK 921   NORMALIZED FREE ENERGY PREDICTED BY IDOCK:   -3.75 KCAL/MOL
REMARK 922        TOTAL FREE ENERGY PREDICTED BY IDOCK:   -4.48 KCAL/MOL
REMARK 923 INTER-LIGAND FREE ENERGY PREDICTED BY IDOCK:   -4.36 KCAL/MOL
REMARK 924 INTRA-LIGAND FREE ENERGY PREDICTED BY IDOCK:   -0.12 KCAL/MOL
REMARK 927      BINDING AFFINITY PREDICTED BY RF-SCORE:    0.00 PKD
ROOT
HETATM    1  C   UNL     1      -5.515  17.694  66.186  1.00  0.00    -0.237 C  
HETATM    2  C   UNL     1      -7.001  17.541  65.913  1.00  0.00    -0.216 C  
ENDROOT
BRANCH   2   3
HETATM    3  C   UNL     1      -7.544  16.300  66.603  1.00  0.00    -0.268 C  
HETATM    4  C   UNL     1      -8.009  15.235  67.195  1.00  0.00    -0.251 C  
HETATM    5  C   UNL     1      -8.552  13.995  67.885  1.00  0.00    -0.181 C  
HETATM    6  C   UNL     1      -8.316  14.150  69.391  1.00  0.00     0.416 C  
HETATM    7  C   UNL     1     -10.003  13.686  67.361  1.00  0.00    -0.234 C  
HETATM    8  O   UNL     1     -11.105  15.790  66.866  1.00  0.00    -0.260 OA 
HETATM    9  C   UNL     1     -10.515  12.448  68.064  1.00  0.00    -0.217 C  
HETATM   10  C   UNL     1     -11.436  16.311  69.563  1.00  0.00    -0.231 C  
HETATM   11  O   UNL     1     -10.223  11.300  67.729  1.00  0.00    -0.175 OA 
HETATM   12  N   UNL     1     -11.251  12.664  69.196  1.00  0.00    -0.350 N  
HETATM   13  H   UNL     1     -11.646  11.841  69.652  1.00  0.00     0.000 HD 
HETATM   14  C   UNL     1     -11.509  13.874  69.777  1.00  0.00    -0.215 C  
HETATM   15  C   UNL     1     -10.864  14.897  67.678  1.00  0.00    -0.286 C  
HETATM   16  N   UNL     1     -11.236  14.985  69.012  1.00  0.00    -0.253 N  
HETATM   17  O   UNL     1     -11.942  13.909  70.926  1.00  0.00    -0.318 OA 
BRANCH   7  18
HETATM   18  C   UNL     1      -9.927  13.404  65.827  1.00  0.00    -0.264 C  
BRANCH  18  19
HETATM   19  C   UNL     1     -11.162  12.831  65.176  1.00  0.00    -0.327 C  
HETATM   20  C   UNL     1     -11.831  13.453  64.195  1.00  0.00    -0.492 C  
ENDBRANCH  18  19
ENDBRANCH   7  18
ENDBRANCH   2   3
TORSDOF 3
ENDMDL
MODEL       81
REMARK 921   NORMALIZED FREE ENERGY PREDICTED BY IDOCK:   -3.74 KCAL/MOL
REMARK 922        TOTAL FREE ENERGY PREDICTED BY IDOCK:   -4.48 KCAL/MOL
REMARK 923 INTER-LIGAND FREE ENERGY PREDICTED BY IDOCK:   -4.48 KCAL/MOL
REMARK 924 INTRA-LIGAND FREE ENERGY PREDICTED BY IDOCK:   -0.00 KCAL/MOL
REMARK 927      BINDING AFFINITY PREDICTED BY RF-SCORE:    0.00 PKD
ROOT
HETATM    1  C   UNL     1     -13.096  11.481  71.633  1.00  0.00    -0.478 C  
HETATM    2  C   UNL     1     -13.196   9.973  71.496  1.00  0.00    -0.497 C  
ENDROOT
BRANCH   2   3
HETATM    3  C   UNL     1     -11.836   9.328  71.701  1.00  0.00    -0.453 C  
HETATM    4  C   UNL     1     -10.668   8.775  71.878  1.00  0.00    -0.429 C  
HETATM    5  C   UNL     1      -9.307   8.130  72.083  1.00  0.00    -0.270 C  
HETATM    6  C   UNL     1      -9.107   7.917  73.588  1.00  0.00    -0.337 C  
HETATM    7  C   UNL     1      -9.143   6.909  71.105  1.00  0.00    -0.150 C  
HETATM    8  O   UNL     1     -11.317   5.875  70.796  1.00  0.00    -0.267 OA 
HETATM    9  C   UNL     1      -7.782   6.289  71.332  1.00  0.00    -0.100 C  
HETATM   10  C   UNL     1     -11.203   4.759  73.325  1.00  0.00    -0.340 C  
HETATM   11  O   UNL     1      -6.739   6.730  70.847  1.00  0.00    -0.052 OA 
HETATM   12  N   UNL     1      -7.738   5.250  72.220  1.00  0.00    -0.099 N  
HETATM   13  H   UNL     1      -6.836   4.789  72.345  1.00  0.00     0.000 HD 
HETATM   14  C   UNL     1      -8.783   4.768  72.956  1.00  0.00    -0.113 C  
HETATM   15  C   UNL     1     -10.257   5.925  71.421  1.00  0.00    -0.211 C  
HETATM   16  N   UNL     1     -10.038   5.184  72.573  1.00  0.00    -0.175 N  
HETATM   17  O   UNL     1      -8.556   4.025  73.907  1.00  0.00    -0.093 OA 
BRANCH   7  18
HETATM   18  C   UNL     1      -9.222   7.435  69.637  1.00  0.00    -0.146 C  
BRANCH  18  19
HETATM   19  C   UNL     1      -8.786   8.860  69.398  1.00  0.00    -0.142 C  
HETATM   20  C   UNL     1      -8.927   9.484  68.220  1.00  0.00    -0.124 C  
ENDBRANCH  18  19
ENDBRANCH   7  18
ENDBRANCH   2   3
TORSDOF 3
ENDMDL
MODEL       82
REMARK 921   NORMALIZED FREE ENERGY PREDICTED BY IDOCK:   -3.74 KCAL/MOL
REMARK 922        TOTAL FREE ENERGY PREDICTED BY IDOCK:   -4.48 KCAL/MOL
REMARK 923 INTER-LIGAND FREE ENERGY PREDICTED BY IDOCK:   -4.47 KCAL/MOL
REMARK 924 INTRA-LIGAND FREE ENERGY PREDICTED BY IDOCK:   -0.00 KCAL/MOL
REMARK 927      BINDING AFFINITY PREDICTED BY RF-SCORE:    0.00 PKD
ROOT
HETATM    1  C   UNL     1     -12.142   8.864  71.977  1.00  0.00    -0.442 C  
HETATM    2  C   UNL     1     -10.762   8.254  71.811  1.00  0.00    -0.332 C  
ENDROOT
BRANCH   2   3
HETATM    3  C   UNL     1      -9.918   9.093  70.868  1.00  0.00    -0.357 C  
HETATM    4  C   UNL     1      -9.192   9.814  70.059  1.00  0.00    -0.266 C  
HETATM    5  C   UNL     1      -8.347  10.654  69.115  1.00  0.00    -0.140 C  
HETATM    6  C   UNL     1      -7.033   9.905  68.864  1.00  0.00    -0.062 C  
HETATM    7  C   UNL     1      -9.217  11.115  67.888  1.00  0.00    -0.154 C  
HETATM    8  O   UNL     1     -10.825   9.368  67.388  1.00  0.00    -0.263 OA 
HETATM    9  C   UNL     1      -8.351  11.948  66.969  1.00  0.00    -0.178 C  
HETATM   10  C   UNL     1      -8.843   7.789  66.279  1.00  0.00    -0.160 C  
HETATM   11  O   UNL     1      -8.103  13.140  67.155  1.00  0.00    -0.168 OA 
HETATM   12  N   UNL     1      -7.738  11.273  65.949  1.00  0.00    -0.372 N  
HETATM   13  H   UNL     1      -7.192  11.830  65.291  1.00  0.00     0.000 HD 
HETATM   14  C   UNL     1      -7.787   9.926  65.725  1.00  0.00    -0.121 C  
HETATM   15  C   UNL     1      -9.714   9.859  67.191  1.00  0.00    -0.178 C  
HETATM   16  N   UNL     1      -8.748   9.228  66.420  1.00  0.00    -0.129 N  
HETATM   17  O   UNL     1      -6.981   9.416  64.950  1.00  0.00    -0.091 OA 
BRANCH   7  18
HETATM   18  C   UNL     1     -10.391  11.998  68.417  1.00  0.00    -0.220 C  
BRANCH  18  19
HETATM   19  C   UNL     1     -11.559  12.211  67.485  1.00  0.00    -0.413 C  
HETATM   20  C   UNL     1     -11.943  13.419  67.052  1.00  0.00    -0.429 C  
ENDBRANCH  18  19
ENDBRANCH   7  18
ENDBRANCH   2   3
TORSDOF 3
ENDMDL
MODEL       83
REMARK 921   NORMALIZED FREE ENERGY PREDICTED BY IDOCK:   -3.69 KCAL/MOL
REMARK 922        TOTAL FREE ENERGY PREDICTED BY IDOCK:   -4.41 KCAL/MOL
REMARK 923 INTER-LIGAND FREE ENERGY PREDICTED BY IDOCK:   -4.27 KCAL/MOL
REMARK 924 INTRA-LIGAND FREE ENERGY PREDICTED BY IDOCK:   -0.14 KCAL/MOL
REMARK 927      BINDING AFFINITY PREDICTED BY RF-SCORE:    0.00 PKD
ROOT
HETATM    1  C   UNL     1     -12.445  13.670  65.519  1.00  0.00    -0.544 C  
HETATM    2  C   UNL     1     -12.033  13.312  66.936  1.00  0.00    -0.430 C  
ENDROOT
BRANCH   2   3
HETATM    3  C   UNL     1     -11.361  11.950  66.967  1.00  0.00    -0.392 C  
HETATM    4  C   UNL     1     -10.785  10.780  66.993  1.00  0.00    -0.320 C  
HETATM    5  C   UNL     1     -10.114   9.417  67.025  1.00  0.00    -0.304 C  
HETATM    6  C   UNL     1      -9.506   9.158  65.641  1.00  0.00    -0.309 C  
HETATM    7  C   UNL     1      -9.201   9.302  68.300  1.00  0.00    -0.134 C  
HETATM    8  O   UNL     1      -8.280  11.493  68.786  1.00  0.00    -0.145 OA 
HETATM    9  C   UNL     1      -8.548   7.937  68.304  1.00  0.00    -0.124 C  
HETATM   10  C   UNL     1      -6.527  11.286  66.656  1.00  0.00    -0.128 C  
HETATM   11  O   UNL     1      -9.106   6.911  68.695  1.00  0.00    -0.133 OA 
HETATM   12  N   UNL     1      -7.308   7.865  67.730  1.00  0.00    -0.094 N  
HETATM   13  H   UNL     1      -6.834   6.962  67.770  1.00  0.00     0.000 HD 
HETATM   14  C   UNL     1      -6.643   8.883  67.107  1.00  0.00    -0.062 C  
HETATM   15  C   UNL     1      -8.164  10.410  68.214  1.00  0.00    -0.114 C  
HETATM   16  N   UNL     1      -7.142  10.149  67.313  1.00  0.00    -0.087 N  
HETATM   17  O   UNL     1      -5.672   8.624  66.401  1.00  0.00    -0.045 OA 
BRANCH   7  18
HETATM   18  C   UNL     1     -10.102   9.436  69.569  1.00  0.00    -0.214 C  
BRANCH  18  19
HETATM   19  C   UNL     1      -9.429   9.251  70.907  1.00  0.00    -0.330 C  
HETATM   20  C   UNL     1      -9.925   8.472  71.877  1.00  0.00    -0.365 C  
ENDBRANCH  18  19
ENDBRANCH   7  18
ENDBRANCH   2   3
TORSDOF 3
ENDMDL
MODEL       84
REMARK 921   NORMALIZED FREE ENERGY PREDICTED BY IDOCK:   -3.68 KCAL/MOL
REMARK 922        TOTAL FREE ENERGY PREDICTED BY IDOCK:   -4.40 KCAL/MOL
REMARK 923 INTER-LIGAND FREE ENERGY PREDICTED BY IDOCK:   -4.31 KCAL/MOL
REMARK 924 INTRA-LIGAND FREE ENERGY PREDICTED BY IDOCK:   -0.09 KCAL/MOL
REMARK 927      BINDING AFFINITY PREDICTED BY RF-SCORE:    0.00 PKD
ROOT
HETATM    1  C   UNL     1      -9.153   4.942  66.099  1.00  0.00    -0.135 C  
HETATM    2  C   UNL     1     -10.637   5.137  66.354  1.00  0.00    -0.336 C  
ENDROOT
BRANCH   2   3
HETATM    3  C   UNL     1     -10.863   5.802  67.701  1.00  0.00    -0.264 C  
HETATM    4  C   UNL     1     -11.058   6.372  68.858  1.00  0.00    -0.420 C  
HETATM    5  C   UNL     1     -11.284   7.038  70.205  1.00  0.00    -0.339 C  
HETATM    6  C   UNL     1     -11.216   5.952  71.285  1.00  0.00    -0.280 C  
HETATM    7  C   UNL     1     -10.366   8.308  70.333  1.00  0.00    -0.214 C  
HETATM    8  O   UNL     1      -8.294   7.882  69.145  1.00  0.00    -0.129 OA 
HETATM    9  C   UNL     1     -10.614   8.948  71.681  1.00  0.00    -0.352 C  
HETATM   10  C   UNL     1      -7.427   6.194  71.158  1.00  0.00    -0.085 C  
HETATM   11  O   UNL     1     -11.564   9.694  71.922  1.00  0.00    -0.339 OA 
HETATM   12  N   UNL     1      -9.775   8.562  72.691  1.00  0.00    -0.258 N  
HETATM   13  H   UNL     1      -9.898   9.023  73.593  1.00  0.00     0.000 HD 
HETATM   14  C   UNL     1      -8.789   7.619  72.609  1.00  0.00    -0.149 C  
HETATM   15  C   UNL     1      -8.927   7.840  70.200  1.00  0.00    -0.146 C  
HETATM   16  N   UNL     1      -8.432   7.223  71.340  1.00  0.00    -0.114 N  
HETATM   17  O   UNL     1      -8.298   7.173  73.641  1.00  0.00    -0.123 OA 
BRANCH   7  18
HETATM   18  C   UNL     1     -10.762   9.321  69.211  1.00  0.00    -0.211 C  
BRANCH  18  19
HETATM   19  C   UNL     1      -9.875  10.530  69.039  1.00  0.00    -0.224 C  
HETATM   20  C   UNL     1     -10.346  11.749  68.745  1.00  0.00    -0.198 C  
ENDBRANCH  18  19
ENDBRANCH   7  18
ENDBRANCH   2   3
TORSDOF 3
ENDMDL
MODEL       85
REMARK 921   NORMALIZED FREE ENERGY PREDICTED BY IDOCK:   -3.67 KCAL/MOL
REMARK 922        TOTAL FREE ENERGY PREDICTED BY IDOCK:   -4.39 KCAL/MOL
REMARK 923 INTER-LIGAND FREE ENERGY PREDICTED BY IDOCK:   -4.32 KCAL/MOL
REMARK 924 INTRA-LIGAND FREE ENERGY PREDICTED BY IDOCK:   -0.07 KCAL/MOL
REMARK 927      BINDING AFFINITY PREDICTED BY RF-SCORE:    0.00 PKD
ROOT
HETATM    1  C   UNL     1      -9.371   2.919  67.553  1.00  0.00    -0.218 C  
HETATM    2  C   UNL     1      -9.217   2.514  69.008  1.00  0.00    -0.207 C  
ENDROOT
BRANCH   2   3
HETATM    3  C   UNL     1      -9.170   3.742  69.901  1.00  0.00    -0.219 C  
HETATM    4  C   UNL     1      -9.129   4.797  70.668  1.00  0.00    -0.177 C  
HETATM    5  C   UNL     1      -9.082   6.025  71.561  1.00  0.00    -0.148 C  
HETATM    6  C   UNL     1      -7.939   6.921  71.072  1.00  0.00    -0.102 C  
HETATM    7  C   UNL     1     -10.526   6.632  71.709  1.00  0.00    -0.233 C  
HETATM    8  O   UNL     1     -11.727   6.273  69.632  1.00  0.00    -0.382 OA 
HETATM    9  C   UNL     1     -10.447   7.850  72.602  1.00  0.00    -0.320 C  
HETATM   10  C   UNL     1     -10.264   8.260  68.382  1.00  0.00    -0.209 C  
HETATM   11  O   UNL     1     -10.417   7.798  73.832  1.00  0.00    -0.058 OA 
HETATM   12  N   UNL     1     -10.291   9.051  71.965  1.00  0.00    -0.308 N  
HETATM   13  H   UNL     1     -10.287   9.886  72.552  1.00  0.00     0.000 HD 
HETATM   14  C   UNL     1     -10.139   9.241  70.621  1.00  0.00    -0.276 C  
HETATM   15  C   UNL     1     -11.006   6.999  70.315  1.00  0.00    -0.271 C  
HETATM   16  N   UNL     1     -10.439   8.164  69.818  1.00  0.00    -0.224 N  
HETATM   17  O   UNL     1      -9.736  10.325  70.209  1.00  0.00    -0.045 OA 
BRANCH   7  18
HETATM   18  C   UNL     1     -11.445   5.566  72.386  1.00  0.00    -0.266 C  
BRANCH  18  19
HETATM   19  C   UNL     1     -10.854   4.786  73.536  1.00  0.00    -0.369 C  
HETATM   20  C   UNL     1     -11.088   3.483  73.736  1.00  0.00    -0.286 C  
ENDBRANCH  18  19
ENDBRANCH   7  18
ENDBRANCH   2   3
TORSDOF 3
ENDMDL
MODEL       86
REMARK 921   NORMALIZED FREE ENERGY PREDICTED BY IDOCK:   -3.65 KCAL/MOL
REMARK 922        TOTAL FREE ENERGY PREDICTED BY IDOCK:   -4.37 KCAL/MOL
REMARK 923 INTER-LIGAND FREE ENERGY PREDICTED BY IDOCK:   -4.28 KCAL/MOL
REMARK 924 INTRA-LIGAND FREE ENERGY PREDICTED BY IDOCK:   -0.09 KCAL/MOL
REMARK 927      BINDING AFFINITY PREDICTED BY RF-SCORE:    0.00 PKD
ROOT
HETATM    1  C   UNL     1     -11.318   4.403  73.171  1.00  0.00    -0.282 C  
HETATM    2  C   UNL     1     -10.162   4.144  72.221  1.00  0.00    -0.234 C  
ENDROOT
BRANCH   2   3
HETATM    3  C   UNL     1      -9.913   5.357  71.342  1.00  0.00    -0.241 C  
HETATM    4  C   UNL     1      -9.699   6.399  70.587  1.00  0.00    -0.197 C  
HETATM    5  C   UNL     1      -9.449   7.613  69.708  1.00  0.00    -0.156 C  
HETATM    6  C   UNL     1     -10.542   7.651  68.633  1.00  0.00    -0.161 C  
HETATM    7  C   UNL     1      -9.209   8.882  70.606  1.00  0.00    -0.256 C  
HETATM    8  O   UNL     1     -10.563   8.672  72.609  1.00  0.00    -0.246 OA 
HETATM    9  C   UNL     1      -8.963  10.071  69.704  1.00  0.00    -0.202 C  
HETATM   10  C   UNL     1     -12.859   9.257  71.181  1.00  0.00    -0.222 C  
HETATM   11  O   UNL     1      -7.877  10.321  69.180  1.00  0.00    -0.104 OA 
HETATM   12  N   UNL     1     -10.063  10.823  69.392  1.00  0.00    -0.385 N  
HETATM   13  H   UNL     1      -9.904  11.657  68.826  1.00  0.00     0.000 HD 
HETATM   14  C   UNL     1     -11.352  10.565  69.763  1.00  0.00    -0.300 C  
HETATM   15  C   UNL     1     -10.456   9.078  71.452  1.00  0.00    -0.324 C  
HETATM   16  N   UNL     1     -11.523   9.627  70.755  1.00  0.00    -0.302 N  
HETATM   17  O   UNL     1     -12.269  11.152  69.195  1.00  0.00    -0.410 OA 
BRANCH   7  18
HETATM   18  C   UNL     1      -7.938   8.637  71.480  1.00  0.00    -0.178 C  
BRANCH  18  19
HETATM   19  C   UNL     1      -6.812   7.858  70.845  1.00  0.00    -0.041 C  
HETATM   20  C   UNL     1      -6.176   6.852  71.460  1.00  0.00    -0.038 C  
ENDBRANCH  18  19
ENDBRANCH   7  18
ENDBRANCH   2   3
TORSDOF 3
ENDMDL
MODEL       87
REMARK 921   NORMALIZED FREE ENERGY PREDICTED BY IDOCK:   -3.64 KCAL/MOL
REMARK 922        TOTAL FREE ENERGY PREDICTED BY IDOCK:   -4.35 KCAL/MOL
REMARK 923 INTER-LIGAND FREE ENERGY PREDICTED BY IDOCK:   -5.61 KCAL/MOL
REMARK 924 INTRA-LIGAND FREE ENERGY PREDICTED BY IDOCK:    1.26 KCAL/MOL
REMARK 927      BINDING AFFINITY PREDICTED BY RF-SCORE:    0.00 PKD
ROOT
HETATM    1  C   UNL     1      -5.323  18.367  68.431  1.00  0.00    -0.169 C  
HETATM    2  C   UNL     1      -6.796  18.438  68.790  1.00  0.00    -0.283 C  
ENDROOT
BRANCH   2   3
HETATM    3  C   UNL     1      -7.586  17.405  68.005  1.00  0.00    -0.206 C  
HETATM    4  C   UNL     1      -8.263  16.516  67.331  1.00  0.00    -0.183 C  
HETATM    5  C   UNL     1      -9.053  15.483  66.546  1.00  0.00    -0.336 C  
HETATM    6  C   UNL     1      -8.715  14.099  67.114  1.00  0.00    -0.239 C  
HETATM    7  C   UNL     1     -10.559  15.926  66.445  1.00  0.00    -0.298 C  
HETATM    8  O   UNL     1     -11.149  17.108  68.481  1.00  0.00    -0.270 OA 
HETATM    9  C   UNL     1     -11.318  14.879  65.660  1.00  0.00    -0.325 C  
HETATM   10  C   UNL     1     -11.218  14.735  69.901  1.00  0.00    -0.257 C  
HETATM   11  O   UNL     1     -11.325  14.817  64.430  1.00  0.00    -0.313 OA 
HETATM   12  N   UNL     1     -11.927  13.902  66.398  1.00  0.00    -0.414 N  
HETATM   13  H   UNL     1     -12.484  13.218  65.885  1.00  0.00     0.000 HD 
HETATM   14  C   UNL     1     -11.860  13.750  67.754  1.00  0.00    -0.369 C  
HETATM   15  C   UNL     1     -11.090  16.044  67.864  1.00  0.00    -0.307 C  
HETATM   16  N   UNL     1     -11.367  14.823  68.461  1.00  0.00    -0.276 N  
HETATM   17  O   UNL     1     -12.217  12.689  68.259  1.00  0.00    -0.185 OA 
BRANCH   7  18
HETATM   18  C   UNL     1     -10.626  17.284  65.677  1.00  0.00    -0.173 C  
BRANCH  18  19
HETATM   19  C   UNL     1     -10.009  18.484  66.355  1.00  0.00    -0.399 C  
HETATM   20  C   UNL     1     -10.491  19.727  66.229  1.00  0.00    -0.614 C  
ENDBRANCH  18  19
ENDBRANCH   7  18
ENDBRANCH   2   3
TORSDOF 3
ENDMDL
MODEL       88
REMARK 921   NORMALIZED FREE ENERGY PREDICTED BY IDOCK:   -3.60 KCAL/MOL
REMARK 922        TOTAL FREE ENERGY PREDICTED BY IDOCK:   -4.31 KCAL/MOL
REMARK 923 INTER-LIGAND FREE ENERGY PREDICTED BY IDOCK:   -4.30 KCAL/MOL
REMARK 924 INTRA-LIGAND FREE ENERGY PREDICTED BY IDOCK:   -0.02 KCAL/MOL
REMARK 927      BINDING AFFINITY PREDICTED BY RF-SCORE:    0.00 PKD
ROOT
HETATM    1  C   UNL     1      -5.677  10.981  68.173  1.00  0.00    -0.046 C  
HETATM    2  C   UNL     1      -6.275  11.839  69.274  1.00  0.00    -0.092 C  
ENDROOT
BRANCH   2   3
HETATM    3  C   UNL     1      -7.277  12.825  68.696  1.00  0.00    -0.104 C  
HETATM    4  C   UNL     1      -8.136  13.672  68.199  1.00  0.00    -0.156 C  
HETATM    5  C   UNL     1      -9.137  14.657  67.621  1.00  0.00    -0.193 C  
HETATM    6  C   UNL     1      -9.166  14.465  66.101  1.00  0.00    -0.152 C  
HETATM    7  C   UNL     1     -10.484  14.586  68.431  1.00  0.00    -0.246 C  
HETATM    8  O   UNL     1     -10.813  12.300  69.174  1.00  0.00    -0.194 OA 
HETATM    9  C   UNL     1     -11.458  15.577  67.834  1.00  0.00    -0.272 C  
HETATM   10  C   UNL     1     -11.502  11.512  66.613  1.00  0.00    -0.129 C  
HETATM   11  O   UNL     1     -11.451  16.783  68.085  1.00  0.00    -0.157 OA 
HETATM   12  N   UNL     1     -12.308  15.082  66.883  1.00  0.00    -0.101 N  
HETATM   13  H   UNL     1     -13.005  15.727  66.508  1.00  0.00     0.000 HD 
HETATM   14  C   UNL     1     -12.315  13.809  66.385  1.00  0.00    -0.412 C  
HETATM   15  C   UNL     1     -11.004  13.163  68.317  1.00  0.00    -0.253 C  
HETATM   16  N   UNL     1     -11.588  12.878  67.092  1.00  0.00    -0.343 N  
HETATM   17  O   UNL     1     -12.935  13.571  65.353  1.00  0.00    -0.656 OA 
BRANCH   7  18
HETATM   18  C   UNL     1     -10.193  14.990  69.912  1.00  0.00    -0.101 C  
BRANCH  18  19
HETATM   19  C   UNL     1     -11.379  15.389  70.756  1.00  0.00    -0.376 C  
HETATM   20  C   UNL     1     -11.573  14.948  72.006  1.00  0.00    -0.314 C  
ENDBRANCH  18  19
ENDBRANCH   7  18
ENDBRANCH   2   3
TORSDOF 3
ENDMDL
MODEL       89
REMARK 921   NORMALIZED FREE ENERGY PREDICTED BY IDOCK:   -3.59 KCAL/MOL
REMARK 922        TOTAL FREE ENERGY PREDICTED BY IDOCK:   -4.30 KCAL/MOL
REMARK 923 INTER-LIGAND FREE ENERGY PREDICTED BY IDOCK:   -4.20 KCAL/MOL
REMARK 924 INTRA-LIGAND FREE ENERGY PREDICTED BY IDOCK:   -0.10 KCAL/MOL
REMARK 927      BINDING AFFINITY PREDICTED BY RF-SCORE:    0.00 PKD
ROOT
HETATM    1  C   UNL     1     -10.078  10.535  65.919  1.00  0.00    -0.323 C  
HETATM    2  C   UNL     1     -10.907  10.491  67.191  1.00  0.00    -0.319 C  
ENDROOT
BRANCH   2   3
HETATM    3  C   UNL     1     -10.239   9.610  68.233  1.00  0.00    -0.216 C  
HETATM    4  C   UNL     1      -9.665   8.855  69.128  1.00  0.00    -0.168 C  
HETATM    5  C   UNL     1      -8.996   7.974  70.170  1.00  0.00    -0.150 C  
HETATM    6  C   UNL     1      -9.281   8.577  71.551  1.00  0.00    -0.288 C  
HETATM    7  C   UNL     1      -9.352   6.466  69.901  1.00  0.00    -0.156 C  
HETATM    8  O   UNL     1     -11.600   6.357  68.993  1.00  0.00    -0.276 OA 
HETATM    9  C   UNL     1      -8.673   5.616  70.952  1.00  0.00    -0.133 C  
HETATM   10  C   UNL     1     -12.686   6.893  71.479  1.00  0.00    -0.349 C  
HETATM   11  O   UNL     1      -7.491   5.275  70.899  1.00  0.00    -0.077 OA 
HETATM   12  N   UNL     1      -9.420   5.323  72.060  1.00  0.00    -0.144 N  
HETATM   13  H   UNL     1      -8.994   4.709  72.753  1.00  0.00     0.000 HD 
HETATM   14  C   UNL     1     -10.682   5.774  72.328  1.00  0.00    -0.234 C  
HETATM   15  C   UNL     1     -10.864   6.339  69.979  1.00  0.00    -0.324 C  
HETATM   16  N   UNL     1     -11.359   6.347  71.276  1.00  0.00    -0.294 N  
HETATM   17  O   UNL     1     -11.129   5.666  73.467  1.00  0.00    -0.256 OA 
BRANCH   7  18
HETATM   18  C   UNL     1      -8.801   6.070  68.494  1.00  0.00    -0.112 C  
BRANCH  18  19
HETATM   19  C   UNL     1      -9.191   4.711  67.965  1.00  0.00    -0.158 C  
HETATM   20  C   UNL     1      -9.710   4.520  66.745  1.00  0.00    -0.224 C  
ENDBRANCH  18  19
ENDBRANCH   7  18
ENDBRANCH   2   3
TORSDOF 3
ENDMDL
MODEL       90
REMARK 921   NORMALIZED FREE ENERGY PREDICTED BY IDOCK:   -3.58 KCAL/MOL
REMARK 922        TOTAL FREE ENERGY PREDICTED BY IDOCK:   -4.28 KCAL/MOL
REMARK 923 INTER-LIGAND FREE ENERGY PREDICTED BY IDOCK:   -4.17 KCAL/MOL
REMARK 924 INTRA-LIGAND FREE ENERGY PREDICTED BY IDOCK:   -0.12 KCAL/MOL
REMARK 927      BINDING AFFINITY PREDICTED BY RF-SCORE:    0.00 PKD
ROOT
HETATM    1  C   UNL     1      -7.430   4.669  73.489  1.00  0.00    -0.083 C  
HETATM    2  C   UNL     1      -8.720   3.916  73.217  1.00  0.00    -0.091 C  
ENDROOT
BRANCH   2   3
HETATM    3  C   UNL     1      -9.472   4.548  72.058  1.00  0.00    -0.196 C  
HETATM    4  C   UNL     1     -10.117   5.091  71.063  1.00  0.00    -0.297 C  
HETATM    5  C   UNL     1     -10.869   5.723  69.903  1.00  0.00    -0.417 C  
HETATM    6  C   UNL     1     -11.892   6.705  70.482  1.00  0.00    -0.430 C  
HETATM    7  C   UNL     1      -9.847   6.227  68.818  1.00  0.00    -0.156 C  
HETATM    8  O   UNL     1      -7.832   6.970  69.946  1.00  0.00    -0.109 OA 
HETATM    9  C   UNL     1     -10.624   6.849  67.678  1.00  0.00    -0.261 C  
HETATM   10  C   UNL     1      -9.105   9.265  70.820  1.00  0.00    -0.244 C  
HETATM   11  O   UNL     1     -11.156   6.200  66.777  1.00  0.00    -0.322 OA 
HETATM   12  N   UNL     1     -10.814   8.202  67.751  1.00  0.00    -0.497 N  
HETATM   13  H   UNL     1     -11.291   8.643  66.964  1.00  0.00     0.000 HD 
HETATM   14  C   UNL     1     -10.427   9.020  68.775  1.00  0.00    -0.206 C  
HETATM   15  C   UNL     1      -8.941   7.245  69.490  1.00  0.00    -0.144 C  
HETATM   16  N   UNL     1      -9.536   8.485  69.677  1.00  0.00    -0.164 N  
HETATM   17  O   UNL     1     -10.894  10.153  68.848  1.00  0.00    -0.207 OA 
BRANCH   7  18
HETATM   18  C   UNL     1      -9.051   4.997  68.277  1.00  0.00    -0.135 C  
BRANCH  18  19
HETATM   19  C   UNL     1      -7.969   5.276  67.262  1.00  0.00    -0.101 C  
HETATM   20  C   UNL     1      -8.049   4.896  65.980  1.00  0.00    -0.108 C  
ENDBRANCH  18  19
ENDBRANCH   7  18
ENDBRANCH   2   3
TORSDOF 3
ENDMDL
MODEL       91
REMARK 921   NORMALIZED FREE ENERGY PREDICTED BY IDOCK:   -3.57 KCAL/MOL
REMARK 922        TOTAL FREE ENERGY PREDICTED BY IDOCK:   -4.28 KCAL/MOL
REMARK 923 INTER-LIGAND FREE ENERGY PREDICTED BY IDOCK:   -4.15 KCAL/MOL
REMARK 924 INTRA-LIGAND FREE ENERGY PREDICTED BY IDOCK:   -0.13 KCAL/MOL
REMARK 927      BINDING AFFINITY PREDICTED BY RF-SCORE:    0.00 PKD
ROOT
HETATM    1  C   UNL     1     -13.053  10.701  71.627  1.00  0.00    -0.555 C  
HETATM    2  C   UNL     1     -12.023   9.591  71.737  1.00  0.00    -0.443 C  
ENDROOT
BRANCH   2   3
HETATM    3  C   UNL     1     -10.919   9.784  70.711  1.00  0.00    -0.406 C  
HETATM    4  C   UNL     1      -9.971   9.950  69.830  1.00  0.00    -0.292 C  
HETATM    5  C   UNL     1      -8.868  10.143  68.804  1.00  0.00    -0.146 C  
HETATM    6  C   UNL     1      -7.577   9.549  69.380  1.00  0.00    -0.091 C  
HETATM    7  C   UNL     1      -9.367   9.671  67.389  1.00  0.00    -0.155 C  
HETATM    8  O   UNL     1     -10.889   7.806  67.695  1.00  0.00    -0.187 OA 
HETATM    9  C   UNL     1      -8.249   9.876  66.391  1.00  0.00    -0.117 C  
HETATM   10  C   UNL     1      -8.781   6.115  68.286  1.00  0.00    -0.114 C  
HETATM   11  O   UNL     1      -7.992  10.958  65.863  1.00  0.00    -0.157 OA 
HETATM   12  N   UNL     1      -7.435   8.798  66.174  1.00  0.00    -0.089 N  
HETATM   13  H   UNL     1      -6.708   8.905  65.466  1.00  0.00     0.000 HD 
HETATM   14  C   UNL     1      -7.500   7.592  66.814  1.00  0.00    -0.093 C  
HETATM   15  C   UNL     1      -9.738   8.202  67.509  1.00  0.00    -0.161 C  
HETATM   16  N   UNL     1      -8.644   7.350  67.538  1.00  0.00    -0.122 N  
HETATM   17  O   UNL     1      -6.553   6.815  66.728  1.00  0.00    -0.042 OA 
BRANCH   7  18
HETATM   18  C   UNL     1     -10.587  10.554  66.974  1.00  0.00    -0.310 C  
BRANCH  18  19
HETATM   19  C   UNL     1     -10.621  11.966  67.507  1.00  0.00    -0.250 C  
HETATM   20  C   UNL     1     -11.746  12.573  67.905  1.00  0.00    -0.416 C  
ENDBRANCH  18  19
ENDBRANCH   7  18
ENDBRANCH   2   3
TORSDOF 3
ENDMDL
MODEL       92
REMARK 921   NORMALIZED FREE ENERGY PREDICTED BY IDOCK:   -3.57 KCAL/MOL
REMARK 922        TOTAL FREE ENERGY PREDICTED BY IDOCK:   -4.27 KCAL/MOL
REMARK 923 INTER-LIGAND FREE ENERGY PREDICTED BY IDOCK:   -4.27 KCAL/MOL
REMARK 924 INTRA-LIGAND FREE ENERGY PREDICTED BY IDOCK:   -0.01 KCAL/MOL
REMARK 927      BINDING AFFINITY PREDICTED BY RF-SCORE:    0.00 PKD
ROOT
HETATM    1  C   UNL     1     -11.960  13.250  63.512  1.00  0.00    -0.537 C  
HETATM    2  C   UNL     1     -11.696  11.760  63.385  1.00  0.00    -0.423 C  
ENDROOT
BRANCH   2   3
HETATM    3  C   UNL     1     -10.684  11.307  64.424  1.00  0.00    -0.407 C  
HETATM    4  C   UNL     1      -9.814  10.919  65.315  1.00  0.00    -0.318 C  
HETATM    5  C   UNL     1      -8.801  10.466  66.353  1.00  0.00    -0.159 C  
HETATM    6  C   UNL     1      -7.473  11.170  66.056  1.00  0.00     0.036 C  
HETATM    7  C   UNL     1      -9.427  10.580  67.792  1.00  0.00    -0.162 C  
HETATM    8  O   UNL     1     -10.937  12.479  67.826  1.00  0.00    -0.219 OA 
HETATM    9  C   UNL     1      -8.398  10.123  68.802  1.00  0.00    -0.122 C  
HETATM   10  C   UNL     1      -8.804  14.240  67.855  1.00  0.00    -0.179 C  
HETATM   11  O   UNL     1      -8.175   8.941  69.067  1.00  0.00    -0.112 OA 
HETATM   12  N   UNL     1      -7.617  11.105  69.348  1.00  0.00    -0.342 N  
HETATM   13  H   UNL     1      -6.954  10.818  70.068  1.00  0.00     0.000 HD 
HETATM   14  C   UNL     1      -7.639  12.432  69.023  1.00  0.00     0.121 C  
HETATM   15  C   UNL     1      -9.803  12.036  68.007  1.00  0.00    -0.199 C  
HETATM   16  N   UNL     1      -8.720  12.858  68.284  1.00  0.00    -0.184 N  
HETATM   17  O   UNL     1      -6.712  13.153  69.380  1.00  0.00    -0.096 OA 
BRANCH   7  18
HETATM   18  C   UNL     1     -10.668   9.634  67.869  1.00  0.00    -0.302 C  
BRANCH  18  19
HETATM   19  C   UNL     1     -10.649   8.409  66.988  1.00  0.00    -0.316 C  
HETATM   20  C   UNL     1     -10.573   7.161  67.468  1.00  0.00    -0.348 C  
ENDBRANCH  18  19
ENDBRANCH   7  18
ENDBRANCH   2   3
TORSDOF 3
ENDMDL
MODEL       93
REMARK 921   NORMALIZED FREE ENERGY PREDICTED BY IDOCK:   -3.56 KCAL/MOL
REMARK 922        TOTAL FREE ENERGY PREDICTED BY IDOCK:   -4.27 KCAL/MOL
REMARK 923 INTER-LIGAND FREE ENERGY PREDICTED BY IDOCK:   -4.16 KCAL/MOL
REMARK 924 INTRA-LIGAND FREE ENERGY PREDICTED BY IDOCK:   -0.11 KCAL/MOL
REMARK 927      BINDING AFFINITY PREDICTED BY RF-SCORE:    0.00 PKD
ROOT
HETATM    1  C   UNL     1     -11.675  12.850  67.156  1.00  0.00    -0.437 C  
HETATM    2  C   UNL     1     -11.536  11.862  68.300  1.00  0.00    -0.390 C  
ENDROOT
BRANCH   2   3
HETATM    3  C   UNL     1     -11.084  10.507  67.783  1.00  0.00    -0.382 C  
HETATM    4  C   UNL     1     -10.696   9.344  67.337  1.00  0.00    -0.280 C  
HETATM    5  C   UNL     1     -10.244   7.989  66.820  1.00  0.00    -0.367 C  
HETATM    6  C   UNL     1      -9.175   8.226  65.747  1.00  0.00    -0.142 C  
HETATM    7  C   UNL     1      -9.922   7.037  68.030  1.00  0.00    -0.178 C  
HETATM    8  O   UNL     1      -9.032   8.376  69.846  1.00  0.00    -0.139 OA 
HETATM    9  C   UNL     1      -9.476   5.698  67.484  1.00  0.00    -0.114 C  
HETATM   10  C   UNL     1      -6.618   8.659  68.525  1.00  0.00    -0.059 C  
HETATM   11  O   UNL     1     -10.252   4.825  67.091  1.00  0.00    -0.188 OA 
HETATM   12  N   UNL     1      -8.127   5.533  67.333  1.00  0.00    -0.101 N  
HETATM   13  H   UNL     1      -7.809   4.617  67.014  1.00  0.00     0.000 HD 
HETATM   14  C   UNL     1      -7.164   6.473  67.567  1.00  0.00    -0.086 C  
HETATM   15  C   UNL     1      -8.821   7.696  68.843  1.00  0.00    -0.135 C  
HETATM   16  N   UNL     1      -7.562   7.588  68.269  1.00  0.00    -0.111 N  
HETATM   17  O   UNL     1      -6.029   6.292  67.134  1.00  0.00    -0.019 OA 
BRANCH   7  18
HETATM   18  C   UNL     1     -11.228   6.835  68.863  1.00  0.00    -0.196 C  
BRANCH  18  19
HETATM   19  C   UNL     1     -11.096   6.094  70.171  1.00  0.00    -0.448 C  
HETATM   20  C   UNL     1     -11.708   6.480  71.299  1.00  0.00    -0.386 C  
ENDBRANCH  18  19
ENDBRANCH   7  18
ENDBRANCH   2   3
TORSDOF 3
ENDMDL
MODEL       94
REMARK 921   NORMALIZED FREE ENERGY PREDICTED BY IDOCK:   -3.55 KCAL/MOL
REMARK 922        TOTAL FREE ENERGY PREDICTED BY IDOCK:   -4.25 KCAL/MOL
REMARK 923 INTER-LIGAND FREE ENERGY PREDICTED BY IDOCK:   -4.19 KCAL/MOL
REMARK 924 INTRA-LIGAND FREE ENERGY PREDICTED BY IDOCK:   -0.07 KCAL/MOL
REMARK 927      BINDING AFFINITY PREDICTED BY RF-SCORE:    0.00 PKD
ROOT
HETATM    1  C   UNL     1      -7.986   5.302  66.282  1.00  0.00    -0.104 C  
HETATM    2  C   UNL     1      -7.082   5.637  67.456  1.00  0.00    -0.074 C  
ENDROOT
BRANCH   2   3
HETATM    3  C   UNL     1      -7.713   6.713  68.323  1.00  0.00    -0.105 C  
HETATM    4  C   UNL     1      -8.254   7.637  69.068  1.00  0.00    -0.127 C  
HETATM    5  C   UNL     1      -8.885   8.713  69.936  1.00  0.00    -0.144 C  
HETATM    6  C   UNL     1      -8.023   9.976  69.824  1.00  0.00    -0.190 C  
HETATM    7  C   UNL     1     -10.426   8.805  69.636  1.00  0.00    -0.220 C  
HETATM    8  O   UNL     1     -10.782   8.301  67.289  1.00  0.00    -0.289 OA 
HETATM    9  C   UNL     1     -11.025   9.882  70.513  1.00  0.00    -0.326 C  
HETATM   10  C   UNL     1      -9.784  10.774  66.553  1.00  0.00    -0.196 C  
HETATM   11  O   UNL     1     -11.334   9.711  71.693  1.00  0.00    -0.374 OA 
HETATM   12  N   UNL     1     -11.108  11.129  69.958  1.00  0.00    -0.467 N  
HETATM   13  H   UNL     1     -11.556  11.854  70.519  1.00  0.00     0.000 HD 
HETATM   14  C   UNL     1     -10.649  11.499  68.725  1.00  0.00    -0.211 C  
HETATM   15  C   UNL     1     -10.579   9.144  68.162  1.00  0.00    -0.183 C  
HETATM   16  N   UNL     1     -10.322  10.475  67.866  1.00  0.00    -0.181 N  
HETATM   17  O   UNL     1     -10.536  12.693  68.459  1.00  0.00    -0.236 OA 
BRANCH   7  18
HETATM   18  C   UNL     1     -11.083   7.434  69.995  1.00  0.00    -0.238 C  
BRANCH  18  19
HETATM   19  C   UNL     1     -10.439   6.638  71.104  1.00  0.00    -0.247 C  
HETATM   20  C   UNL     1     -10.532   5.305  71.200  1.00  0.00    -0.275 C  
ENDBRANCH  18  19
ENDBRANCH   7  18
ENDBRANCH   2   3
TORSDOF 3
ENDMDL
MODEL       95
REMARK 921   NORMALIZED FREE ENERGY PREDICTED BY IDOCK:   -3.55 KCAL/MOL
REMARK 922        TOTAL FREE ENERGY PREDICTED BY IDOCK:   -4.25 KCAL/MOL
REMARK 923 INTER-LIGAND FREE ENERGY PREDICTED BY IDOCK:   -4.23 KCAL/MOL
REMARK 924 INTRA-LIGAND FREE ENERGY PREDICTED BY IDOCK:   -0.02 KCAL/MOL
REMARK 927      BINDING AFFINITY PREDICTED BY RF-SCORE:    0.00 PKD
ROOT
HETATM    1  C   UNL     1     -12.260  12.290  63.550  1.00  0.00    -0.669 C  
HETATM    2  C   UNL     1     -12.287  12.713  65.008  1.00  0.00    -0.561 C  
ENDROOT
BRANCH   2   3
HETATM    3  C   UNL     1     -11.032  12.241  65.723  1.00  0.00    -0.338 C  
HETATM    4  C   UNL     1      -9.954  11.837  66.336  1.00  0.00    -0.237 C  
HETATM    5  C   UNL     1      -8.699  11.365  67.051  1.00  0.00    -0.160 C  
HETATM    6  C   UNL     1      -8.548  12.189  68.335  1.00  0.00    -0.141 C  
HETATM    7  C   UNL     1      -8.695   9.794  67.140  1.00  0.00    -0.137 C  
HETATM    8  O   UNL     1     -10.987   9.032  67.370  1.00  0.00    -0.152 OA 
HETATM    9  C   UNL     1      -7.436   9.356  67.854  1.00  0.00    -0.084 C  
HETATM   10  C   UNL     1     -11.059   9.877  70.003  1.00  0.00    -0.285 C  
HETATM   11  O   UNL     1      -6.336   9.259  67.308  1.00  0.00    -0.058 OA 
HETATM   12  N   UNL     1      -7.547   9.172  69.205  1.00  0.00    -0.077 N  
HETATM   13  H   UNL     1      -6.719   8.827  69.692  1.00  0.00     0.000 HD 
HETATM   14  C   UNL     1      -8.658   9.405  69.966  1.00  0.00    -0.203 C  
HETATM   15  C   UNL     1      -9.939   9.384  67.910  1.00  0.00    -0.182 C  
HETATM   16  N   UNL     1      -9.838   9.579  69.280  1.00  0.00    -0.173 N  
HETATM   17  O   UNL     1      -8.547   9.465  71.188  1.00  0.00    -0.297 OA 
BRANCH   7  18
HETATM   18  C   UNL     1      -8.683   9.216  65.690  1.00  0.00    -0.203 C  
BRANCH  18  19
HETATM   19  C   UNL     1      -8.156  10.116  64.599  1.00  0.00    -0.153 C  
HETATM   20  C   UNL     1      -7.016   9.879  63.937  1.00  0.00    -0.124 C  
ENDBRANCH  18  19
ENDBRANCH   7  18
ENDBRANCH   2   3
TORSDOF 3
ENDMDL
MODEL       96
REMARK 921   NORMALIZED FREE ENERGY PREDICTED BY IDOCK:   -3.52 KCAL/MOL
REMARK 922        TOTAL FREE ENERGY PREDICTED BY IDOCK:   -4.22 KCAL/MOL
REMARK 923 INTER-LIGAND FREE ENERGY PREDICTED BY IDOCK:   -4.11 KCAL/MOL
REMARK 924 INTRA-LIGAND FREE ENERGY PREDICTED BY IDOCK:   -0.11 KCAL/MOL
REMARK 927      BINDING AFFINITY PREDICTED BY RF-SCORE:    0.00 PKD
ROOT
HETATM    1  C   UNL     1      -8.159   3.493  66.428  1.00  0.00    -0.096 C  
HETATM    2  C   UNL     1      -9.609   3.775  66.075  1.00  0.00    -0.168 C  
ENDROOT
BRANCH   2   3
HETATM    3  C   UNL     1     -10.124   4.972  66.857  1.00  0.00    -0.261 C  
HETATM    4  C   UNL     1     -10.567   5.998  67.529  1.00  0.00    -0.345 C  
HETATM    5  C   UNL     1     -11.082   7.195  68.310  1.00  0.00    -0.009 C  
HETATM    6  C   UNL     1     -11.301   6.753  69.761  1.00  0.00    -0.350 C  
HETATM    7  C   UNL     1     -10.182   8.451  68.016  1.00  0.00    -0.263 C  
HETATM    8  O   UNL     1      -7.903   7.697  67.662  1.00  0.00    -0.118 OA 
HETATM    9  C   UNL     1     -10.719   9.624  68.806  1.00  0.00    -0.206 C  
HETATM   10  C   UNL     1      -7.581   7.231  70.370  1.00  0.00    -0.088 C  
HETATM   11  O   UNL     1     -11.676  10.311  68.448  1.00  0.00    -0.232 OA 
HETATM   12  N   UNL     1     -10.151   9.830  70.034  1.00  0.00    -0.243 N  
HETATM   13  H   UNL     1     -10.468  10.647  70.556  1.00  0.00     0.000 HD 
HETATM   14  C   UNL     1      -9.202   9.047  70.629  1.00  0.00    -0.231 C  
HETATM   15  C   UNL     1      -8.766   8.101  68.442  1.00  0.00    -0.134 C  
HETATM   16  N   UNL     1      -8.570   8.134  69.815  1.00  0.00    -0.132 N  
HETATM   17  O   UNL     1      -8.979   9.181  71.829  1.00  0.00    -0.345 OA 
BRANCH   7  18
HETATM   18  C   UNL     1     -10.274   8.782  66.492  1.00  0.00    -0.314 C  
BRANCH  18  19
HETATM   19  C   UNL     1      -9.512   9.991  66.008  1.00  0.00    -0.251 C  
HETATM   20  C   UNL     1      -9.496  10.385  64.728  1.00  0.00    -0.329 C  
ENDBRANCH  18  19
ENDBRANCH   7  18
ENDBRANCH   2   3
TORSDOF 3
ENDMDL
MODEL       97
REMARK 921   NORMALIZED FREE ENERGY PREDICTED BY IDOCK:   -3.49 KCAL/MOL
REMARK 922        TOTAL FREE ENERGY PREDICTED BY IDOCK:   -4.18 KCAL/MOL
REMARK 923 INTER-LIGAND FREE ENERGY PREDICTED BY IDOCK:   -4.10 KCAL/MOL
REMARK 924 INTRA-LIGAND FREE ENERGY PREDICTED BY IDOCK:   -0.09 KCAL/MOL
REMARK 927      BINDING AFFINITY PREDICTED BY RF-SCORE:    0.00 PKD
ROOT
HETATM    1  C   UNL     1      -5.694  11.679  66.762  1.00  0.00    -0.139 C  
HETATM    2  C   UNL     1      -6.598  10.622  66.155  1.00  0.00    -0.130 C  
ENDROOT
BRANCH   2   3
HETATM    3  C   UNL     1      -7.397   9.917  67.238  1.00  0.00    -0.087 C  
HETATM    4  C   UNL     1      -8.081   9.312  68.170  1.00  0.00    -0.107 C  
HETATM    5  C   UNL     1      -8.879   8.607  69.253  1.00  0.00    -0.137 C  
HETATM    6  C   UNL     1      -8.633   9.342  70.575  1.00  0.00    -0.265 C  
HETATM    7  C   UNL     1     -10.356   8.378  68.764  1.00  0.00    -0.225 C  
HETATM    8  O   UNL     1     -10.988  10.234  67.335  1.00  0.00    -0.293 OA 
HETATM    9  C   UNL     1     -11.124   7.675  69.861  1.00  0.00    -0.150 C  
HETATM   10  C   UNL     1     -11.235  11.905  69.525  1.00  0.00    -0.166 C  
HETATM   11  O   UNL     1     -11.075   6.461  70.063  1.00  0.00    -0.308 OA 
HETATM   12  N   UNL     1     -11.812   8.484  70.724  1.00  0.00    -0.441 N  
HETATM   13  H   UNL     1     -12.375   8.022  71.438  1.00  0.00     0.000 HD 
HETATM   14  C   UNL     1     -11.818   9.850  70.722  1.00  0.00    -0.330 C  
HETATM   15  C   UNL     1     -10.949   9.744  68.463  1.00  0.00    -0.149 C  
HETATM   16  N   UNL     1     -11.310  10.458  69.597  1.00  0.00    -0.257 N  
HETATM   17  O   UNL     1     -12.247  10.451  71.704  1.00  0.00    -0.355 OA 
BRANCH   7  18
HETATM   18  C   UNL     1     -10.323   7.460  67.500  1.00  0.00    -0.320 C  
BRANCH  18  19
HETATM   19  C   UNL     1      -9.252   6.397  67.456  1.00  0.00    -0.112 C  
HETATM   20  C   UNL     1      -8.500   6.157  66.373  1.00  0.00    -0.123 C  
ENDBRANCH  18  19
ENDBRANCH   7  18
ENDBRANCH   2   3
TORSDOF 3
ENDMDL
MODEL       98
REMARK 921   NORMALIZED FREE ENERGY PREDICTED BY IDOCK:   -3.49 KCAL/MOL
REMARK 922        TOTAL FREE ENERGY PREDICTED BY IDOCK:   -4.18 KCAL/MOL
REMARK 923 INTER-LIGAND FREE ENERGY PREDICTED BY IDOCK:   -4.29 KCAL/MOL
REMARK 924 INTRA-LIGAND FREE ENERGY PREDICTED BY IDOCK:    0.11 KCAL/MOL
REMARK 927      BINDING AFFINITY PREDICTED BY RF-SCORE:    0.00 PKD
ROOT
HETATM    1  C   UNL     1      -7.856  11.461  66.683  1.00  0.00    -0.137 C  
HETATM    2  C   UNL     1      -8.494  10.473  65.724  1.00  0.00    -0.177 C  
ENDROOT
BRANCH   2   3
HETATM    3  C   UNL     1      -9.332   9.457  66.483  1.00  0.00    -0.222 C  
HETATM    4  C   UNL     1     -10.051   8.586  67.134  1.00  0.00    -0.331 C  
HETATM    5  C   UNL     1     -10.889   7.570  67.893  1.00  0.00    -0.128 C  
HETATM    6  C   UNL     1     -11.026   6.321  67.016  1.00  0.00    -0.442 C  
HETATM    7  C   UNL     1     -10.346   7.423  69.362  1.00  0.00    -0.211 C  
HETATM    8  O   UNL     1      -7.939   7.728  69.325  1.00  0.00    -0.120 OA 
HETATM    9  C   UNL     1     -11.198   6.409  70.091  1.00  0.00    -0.390 C  
HETATM   10  C   UNL     1      -7.587   5.225  68.202  1.00  0.00    -0.080 C  
HETATM   11  O   UNL     1     -12.292   6.668  70.595  1.00  0.00    -0.340 OA 
HETATM   12  N   UNL     1     -10.743   5.119  70.072  1.00  0.00    -0.156 N  
HETATM   13  H   UNL     1     -11.280   4.433  70.603  1.00  0.00     0.000 HD 
HETATM   14  C   UNL     1      -9.638   4.660  69.411  1.00  0.00    -0.187 C  
HETATM   15  C   UNL     1      -8.901   6.963  69.265  1.00  0.00    -0.138 C  
HETATM   16  N   UNL     1      -8.763   5.618  68.953  1.00  0.00    -0.107 N  
HETATM   17  O   UNL     1      -9.495   3.451  69.248  1.00  0.00    -0.167 OA 
BRANCH   7  18
HETATM   18  C   UNL     1     -10.476   8.805  70.079  1.00  0.00    -0.222 C  
BRANCH  18  19
HETATM   19  C   UNL     1      -9.718   8.977  71.373  1.00  0.00    -0.369 C  
HETATM   20  C   UNL     1     -10.128   8.459  72.539  1.00  0.00    -0.362 C  
ENDBRANCH  18  19
ENDBRANCH   7  18
ENDBRANCH   2   3
TORSDOF 3
ENDMDL
MODEL       99
REMARK 921   NORMALIZED FREE ENERGY PREDICTED BY IDOCK:   -3.48 KCAL/MOL
REMARK 922        TOTAL FREE ENERGY PREDICTED BY IDOCK:   -4.17 KCAL/MOL
REMARK 923 INTER-LIGAND FREE ENERGY PREDICTED BY IDOCK:   -4.10 KCAL/MOL
REMARK 924 INTRA-LIGAND FREE ENERGY PREDICTED BY IDOCK:   -0.07 KCAL/MOL
REMARK 927      BINDING AFFINITY PREDICTED BY RF-SCORE:    0.00 PKD
ROOT
HETATM    1  C   UNL     1     -12.314   8.413  72.346  1.00  0.00    -0.412 C  
HETATM    2  C   UNL     1     -12.478   7.004  71.805  1.00  0.00    -0.393 C  
ENDROOT
BRANCH   2   3
HETATM    3  C   UNL     1     -11.649   6.817  70.546  1.00  0.00    -0.426 C  
HETATM    4  C   UNL     1     -10.938   6.657  69.464  1.00  0.00    -0.367 C  
HETATM    5  C   UNL     1     -10.108   6.471  68.204  1.00  0.00    -0.170 C  
HETATM    6  C   UNL     1     -11.053   6.553  67.000  1.00  0.00    -0.411 C  
HETATM    7  C   UNL     1      -8.844   7.405  68.255  1.00  0.00    -0.128 C  
HETATM    8  O   UNL     1      -9.443   9.444  69.428  1.00  0.00    -0.159 OA 
HETATM    9  C   UNL     1      -8.040   7.197  66.991  1.00  0.00    -0.117 C  
HETATM   10  C   UNL     1     -10.881  10.341  67.242  1.00  0.00    -0.250 C  
HETATM   11  O   UNL     1      -7.257   6.262  66.823  1.00  0.00    -0.071 OA 
HETATM   12  N   UNL     1      -8.310   8.056  65.961  1.00  0.00    -0.119 N  
HETATM   13  H   UNL     1      -7.740   7.961  65.121  1.00  0.00     0.000 HD 
HETATM   14  C   UNL     1      -9.269   9.030  65.949  1.00  0.00    -0.230 C  
HETATM   15  C   UNL     1      -9.345   8.836  68.362  1.00  0.00    -0.137 C  
HETATM   16  N   UNL     1      -9.824   9.351  67.166  1.00  0.00    -0.175 N  
HETATM   17  O   UNL     1      -9.592   9.541  64.880  1.00  0.00    -0.246 OA 
BRANCH   7  18
HETATM   18  C   UNL     1      -7.972   6.994  69.484  1.00  0.00    -0.125 C  
BRANCH  18  19
HETATM   19  C   UNL     1      -7.739   5.517  69.692  1.00  0.00    -0.078 C  
HETATM   20  C   UNL     1      -7.882   4.911  70.878  1.00  0.00    -0.083 C  
ENDBRANCH  18  19
ENDBRANCH   7  18
ENDBRANCH   2   3
TORSDOF 3
ENDMDL
MODEL      100
REMARK 921   NORMALIZED FREE ENERGY PREDICTED BY IDOCK:   -3.47 KCAL/MOL
REMARK 922        TOTAL FREE ENERGY PREDICTED BY IDOCK:   -4.16 KCAL/MOL
REMARK 923 INTER-LIGAND FREE ENERGY PREDICTED BY IDOCK:   -4.11 KCAL/MOL
REMARK 924 INTRA-LIGAND FREE ENERGY PREDICTED BY IDOCK:   -0.05 KCAL/MOL
REMARK 927      BINDING AFFINITY PREDICTED BY RF-SCORE:    0.00 PKD
ROOT
HETATM    1  C   UNL     1     -13.131  12.067  71.945  1.00  0.00    -0.475 C  
HETATM    2  C   UNL     1     -13.240  10.613  71.521  1.00  0.00    -0.460 C  
ENDROOT
BRANCH   2   3
HETATM    3  C   UNL     1     -11.860  10.009  71.329  1.00  0.00    -0.471 C  
HETATM    4  C   UNL     1     -10.674   9.489  71.164  1.00  0.00    -0.408 C  
HETATM    5  C   UNL     1      -9.294   8.885  70.971  1.00  0.00    -0.313 C  
HETATM    6  C   UNL     1      -9.307   7.475  71.571  1.00  0.00    -0.154 C  
HETATM    7  C   UNL     1      -8.829   9.083  69.481  1.00  0.00    -0.146 C  
HETATM    8  O   UNL     1     -10.782   8.973  68.046  1.00  0.00    -0.208 OA 
HETATM    9  C   UNL     1      -7.454   8.474  69.321  1.00  0.00    -0.082 C  
HETATM   10  C   UNL     1     -10.928   6.229  68.369  1.00  0.00    -0.325 C  
HETATM   11  O   UNL     1      -6.410   9.039  69.650  1.00  0.00    -0.038 OA 
HETATM   12  N   UNL     1      -7.420   7.178  68.885  1.00  0.00    -0.096 N  
HETATM   13  H   UNL     1      -6.499   6.770  68.723  1.00  0.00     0.000 HD 
HETATM   14  C   UNL     1      -8.500   6.375  68.645  1.00  0.00    -0.123 C  
HETATM   15  C   UNL     1      -9.848   8.388  68.595  1.00  0.00    -0.170 C  
HETATM   16  N   UNL     1      -9.722   7.006  68.575  1.00  0.00    -0.140 N  
HETATM   17  O   UNL     1      -8.335   5.165  68.525  1.00  0.00    -0.089 OA 
BRANCH   7  18
HETATM   18  C   UNL     1      -8.741  10.615  69.188  1.00  0.00    -0.135 C  
BRANCH  18  19
HETATM   19  C   UNL     1      -7.970  11.033  67.960  1.00  0.00    -0.115 C  
HETATM   20  C   UNL     1      -8.549  11.274  66.776  1.00  0.00    -0.159 C  
ENDBRANCH  18  19
ENDBRANCH   7  18
ENDBRANCH   2   3
TORSDOF 3
ENDMDL
MODEL      101
REMARK 921   NORMALIZED FREE ENERGY PREDICTED BY IDOCK:   -3.46 KCAL/MOL
REMARK 922        TOTAL FREE ENERGY PREDICTED BY IDOCK:   -4.15 KCAL/MOL
REMARK 923 INTER-LIGAND FREE ENERGY PREDICTED BY IDOCK:   -4.11 KCAL/MOL
REMARK 924 INTRA-LIGAND FREE ENERGY PREDICTED BY IDOCK:   -0.04 KCAL/MOL
REMARK 927      BINDING AFFINITY PREDICTED BY RF-SCORE:    0.00 PKD
ROOT
HETATM    1  C   UNL     1      -8.808  15.944  66.294  1.00  0.00    -0.386 C  
HETATM    2  C   UNL     1      -9.920  15.384  65.425  1.00  0.00    -0.356 C  
ENDROOT
BRANCH   2   3
HETATM    3  C   UNL     1     -10.117  13.903  65.700  1.00  0.00    -0.332 C  
HETATM    4  C   UNL     1     -10.287  12.631  65.935  1.00  0.00    -0.295 C  
HETATM    5  C   UNL     1     -10.484  11.150  66.211  1.00  0.00    -0.312 C  
HETATM    6  C   UNL     1     -10.354  10.401  64.880  1.00  0.00    -0.238 C  
HETATM    7  C   UNL     1      -9.594  10.711  67.431  1.00  0.00    -0.180 C  
HETATM    8  O   UNL     1      -7.552  12.023  67.402  1.00  0.00    -0.133 OA 
HETATM    9  C   UNL     1      -9.812   9.235  67.681  1.00  0.00    -0.176 C  
HETATM   10  C   UNL     1      -6.578  10.556  65.269  1.00  0.00    -0.060 C  
HETATM   11  O   UNL     1     -10.771   8.780  68.305  1.00  0.00    -0.173 OA 
HETATM   12  N   UNL     1      -8.930   8.388  67.067  1.00  0.00    -0.138 N  
HETATM   13  H   UNL     1      -9.034   7.393  67.268  1.00  0.00     0.000 HD 
HETATM   14  C   UNL     1      -7.925   8.744  66.213  1.00  0.00    -0.106 C  
HETATM   15  C   UNL     1      -8.149  11.002  67.062  1.00  0.00    -0.136 C  
HETATM   16  N   UNL     1      -7.602  10.081  66.179  1.00  0.00    -0.104 N  
HETATM   17  O   UNL     1      -7.389   7.881  65.523  1.00  0.00    -0.072 OA 
BRANCH   7  18
HETATM   18  C   UNL     1     -10.051  11.512  68.692  1.00  0.00    -0.214 C  
BRANCH  18  19
HETATM   19  C   UNL     1     -11.504  11.915  68.755  1.00  0.00    -0.347 C  
HETATM   20  C   UNL     1     -11.982  12.805  69.635  1.00  0.00    -0.354 C  
ENDBRANCH  18  19
ENDBRANCH   7  18
ENDBRANCH   2   3
TORSDOF 3
ENDMDL
MODEL      102
REMARK 921   NORMALIZED FREE ENERGY PREDICTED BY IDOCK:   -3.45 KCAL/MOL
REMARK 922        TOTAL FREE ENERGY PREDICTED BY IDOCK:   -4.14 KCAL/MOL
REMARK 923 INTER-LIGAND FREE ENERGY PREDICTED BY IDOCK:   -4.17 KCAL/MOL
REMARK 924 INTRA-LIGAND FREE ENERGY PREDICTED BY IDOCK:    0.03 KCAL/MOL
REMARK 927      BINDING AFFINITY PREDICTED BY RF-SCORE:    0.00 PKD
ROOT
HETATM    1  C   UNL     1      -5.945   4.144  70.903  1.00  0.00    -0.014 C  
HETATM    2  C   UNL     1      -5.815   5.657  70.902  1.00  0.00    -0.024 C  
ENDROOT
BRANCH   2   3
HETATM    3  C   UNL     1      -7.107   6.303  70.428  1.00  0.00    -0.071 C  
HETATM    4  C   UNL     1      -8.216   6.856  70.021  1.00  0.00    -0.134 C  
HETATM    5  C   UNL     1      -9.507   7.501  69.547  1.00  0.00    -0.156 C  
HETATM    6  C   UNL     1     -10.623   6.456  69.652  1.00  0.00    -0.309 C  
HETATM    7  C   UNL     1      -9.692   8.898  70.246  1.00  0.00    -0.212 C  
HETATM    8  O   UNL     1      -8.754   8.770  72.480  1.00  0.00    -0.406 OA 
HETATM    9  C   UNL     1     -10.983   9.515  69.754  1.00  0.00    -0.223 C  
HETATM   10  C   UNL     1     -10.905   7.266  73.353  1.00  0.00    -0.324 C  
HETATM   11  O   UNL     1     -11.093  10.113  68.683  1.00  0.00    -0.235 OA 
HETATM   12  N   UNL     1     -12.091   9.277  70.521  1.00  0.00    -0.478 N  
HETATM   13  H   UNL     1     -12.958   9.728  70.230  1.00  0.00     0.000 HD 
HETATM   14  C   UNL     1     -12.149   8.493  71.639  1.00  0.00    -0.321 C  
HETATM   15  C   UNL     1      -9.734   8.650  71.744  1.00  0.00    -0.291 C  
HETATM   16  N   UNL     1     -10.941   8.133  72.192  1.00  0.00    -0.282 N  
HETATM   17  O   UNL     1     -13.244   8.142  72.071  1.00  0.00    -0.319 OA 
BRANCH   7  18
HETATM   18  C   UNL     1      -8.501   9.820  69.834  1.00  0.00    -0.217 C  
BRANCH  18  19
HETATM   19  C   UNL     1      -7.995   9.692  68.418  1.00  0.00    -0.096 C  
HETATM   20  C   UNL     1      -6.746   9.317  68.115  1.00  0.00    -0.060 C  
ENDBRANCH  18  19
ENDBRANCH   7  18
ENDBRANCH   2   3
TORSDOF 3
ENDMDL
MODEL      103
REMARK 921   NORMALIZED FREE ENERGY PREDICTED BY IDOCK:   -3.44 KCAL/MOL
REMARK 922        TOTAL FREE ENERGY PREDICTED BY IDOCK:   -4.13 KCAL/MOL
REMARK 923 INTER-LIGAND FREE ENERGY PREDICTED BY IDOCK:   -3.97 KCAL/MOL
REMARK 924 INTRA-LIGAND FREE ENERGY PREDICTED BY IDOCK:   -0.16 KCAL/MOL
REMARK 927      BINDING AFFINITY PREDICTED BY RF-SCORE:    0.00 PKD
ROOT
HETATM    1  C   UNL     1     -11.284   7.895  72.755  1.00  0.00    -0.466 C  
HETATM    2  C   UNL     1     -12.399   7.368  71.870  1.00  0.00    -0.343 C  
ENDROOT
BRANCH   2   3
HETATM    3  C   UNL     1     -11.832   6.787  70.586  1.00  0.00    -0.442 C  
HETATM    4  C   UNL     1     -11.345   6.289  69.483  1.00  0.00    -0.475 C  
HETATM    5  C   UNL     1     -10.777   5.708  68.199  1.00  0.00    -0.231 C  
HETATM    6  C   UNL     1     -10.904   6.771  67.103  1.00  0.00    -0.462 C  
HETATM    7  C   UNL     1      -9.373   5.059  68.483  1.00  0.00    -0.167 C  
HETATM    8  O   UNL     1      -8.270   6.343  70.222  1.00  0.00    -0.121 OA 
HETATM    9  C   UNL     1      -8.835   4.489  67.189  1.00  0.00    -0.109 C  
HETATM   10  C   UNL     1      -7.740   8.394  68.443  1.00  0.00    -0.105 C  
HETATM   11  O   UNL     1      -9.170   3.398  66.729  1.00  0.00    -0.158 OA 
HETATM   12  N   UNL     1      -8.017   5.314  66.467  1.00  0.00    -0.104 N  
HETATM   13  H   UNL     1      -7.605   4.926  65.617  1.00  0.00     0.000 HD 
HETATM   14  C   UNL     1      -7.697   6.607  66.771  1.00  0.00    -0.106 C  
HETATM   15  C   UNL     1      -8.470   6.156  69.022  1.00  0.00    -0.118 C  
HETATM   16  N   UNL     1      -8.003   7.025  68.046  1.00  0.00    -0.114 N  
HETATM   17  O   UNL     1      -7.184   7.318  65.911  1.00  0.00    -0.070 OA 
BRANCH   7  18
HETATM   18  C   UNL     1      -9.562   3.896  69.509  1.00  0.00    -0.248 C  
BRANCH  18  19
HETATM   19  C   UNL     1      -8.347   3.056  69.821  1.00  0.00    -0.083 C  
HETATM   20  C   UNL     1      -7.822   2.953  71.049  1.00  0.00    -0.046 C  
ENDBRANCH  18  19
ENDBRANCH   7  18
ENDBRANCH   2   3
TORSDOF 3
ENDMDL
MODEL      104
REMARK 921   NORMALIZED FREE ENERGY PREDICTED BY IDOCK:   -3.44 KCAL/MOL
REMARK 922        TOTAL FREE ENERGY PREDICTED BY IDOCK:   -4.13 KCAL/MOL
REMARK 923 INTER-LIGAND FREE ENERGY PREDICTED BY IDOCK:   -4.15 KCAL/MOL
REMARK 924 INTRA-LIGAND FREE ENERGY PREDICTED BY IDOCK:    0.02 KCAL/MOL
REMARK 927      BINDING AFFINITY PREDICTED BY RF-SCORE:    0.00 PKD
ROOT
HETATM    1  C   UNL     1     -14.395   8.540  72.133  1.00  0.00    -0.529 C  
HETATM    2  C   UNL     1     -13.511   9.741  71.847  1.00  0.00    -0.485 C  
ENDROOT
BRANCH   2   3
HETATM    3  C   UNL     1     -12.046   9.339  71.861  1.00  0.00    -0.440 C  
HETATM    4  C   UNL     1     -10.788   8.994  71.874  1.00  0.00    -0.413 C  
HETATM    5  C   UNL     1      -9.323   8.592  71.887  1.00  0.00    -0.357 C  
HETATM    6  C   UNL     1      -9.173   7.383  72.818  1.00  0.00    -0.192 C  
HETATM    7  C   UNL     1      -8.781   8.499  70.413  1.00  0.00    -0.153 C  
HETATM    8  O   UNL     1     -10.584   7.735  68.980  1.00  0.00    -0.216 OA 
HETATM    9  C   UNL     1      -7.323   8.099  70.459  1.00  0.00    -0.056 C  
HETATM   10  C   UNL     1     -10.348   5.162  69.968  1.00  0.00    -0.276 C  
HETATM   11  O   UNL     1      -6.403   8.888  70.675  1.00  0.00    -0.037 OA 
HETATM   12  N   UNL     1      -7.067   6.759  70.360  1.00  0.00    -0.066 N  
HETATM   13  H   UNL     1      -6.086   6.478  70.338  1.00  0.00     0.000 HD 
HETATM   14  C   UNL     1      -7.996   5.759  70.288  1.00  0.00    -0.104 C  
HETATM   15  C   UNL     1      -9.618   7.457  69.690  1.00  0.00    -0.156 C  
HETATM   16  N   UNL     1      -9.288   6.150  70.019  1.00  0.00    -0.153 N  
HETATM   17  O   UNL     1      -7.646   4.598  70.479  1.00  0.00    -0.052 OA 
BRANCH   7  18
HETATM   18  C   UNL     1      -8.899   9.910  69.752  1.00  0.00    -0.229 C  
BRANCH  18  19
HETATM   19  C   UNL     1      -8.126  10.133  68.475  1.00  0.00    -0.106 C  
HETATM   20  C   UNL     1      -8.593   9.796  67.266  1.00  0.00    -0.128 C  
ENDBRANCH  18  19
ENDBRANCH   7  18
ENDBRANCH   2   3
TORSDOF 3
ENDMDL
MODEL      105
REMARK 921   NORMALIZED FREE ENERGY PREDICTED BY IDOCK:   -3.42 KCAL/MOL
REMARK 922        TOTAL FREE ENERGY PREDICTED BY IDOCK:   -4.11 KCAL/MOL
REMARK 923 INTER-LIGAND FREE ENERGY PREDICTED BY IDOCK:   -4.00 KCAL/MOL
REMARK 924 INTRA-LIGAND FREE ENERGY PREDICTED BY IDOCK:   -0.10 KCAL/MOL
REMARK 927      BINDING AFFINITY PREDICTED BY RF-SCORE:    0.00 PKD
ROOT
HETATM    1  C   UNL     1     -12.747   9.770  71.861  1.00  0.00    -0.501 C  
HETATM    2  C   UNL     1     -12.887  10.863  70.817  1.00  0.00    -0.378 C  
ENDROOT
BRANCH   2   3
HETATM    3  C   UNL     1     -11.887  10.657  69.692  1.00  0.00    -0.358 C  
HETATM    4  C   UNL     1     -11.027  10.482  68.727  1.00  0.00    -0.296 C  
HETATM    5  C   UNL     1     -10.026  10.276  67.602  1.00  0.00    -0.212 C  
HETATM    6  C   UNL     1      -8.989  11.402  67.681  1.00  0.00    -0.140 C  
HETATM    7  C   UNL     1      -9.539   8.781  67.589  1.00  0.00    -0.179 C  
HETATM    8  O   UNL     1      -9.488   7.970  69.876  1.00  0.00    -0.160 OA 
HETATM    9  C   UNL     1      -8.546   8.607  66.461  1.00  0.00    -0.116 C  
HETATM   10  C   UNL     1      -7.204   9.440  70.401  1.00  0.00    -0.111 C  
HETATM   11  O   UNL     1      -8.868   8.441  65.284  1.00  0.00    -0.160 OA 
HETATM   12  N   UNL     1      -7.228   8.761  66.794  1.00  0.00    -0.081 N  
HETATM   13  H   UNL     1      -6.545   8.596  66.055  1.00  0.00     0.000 HD 
HETATM   14  C   UNL     1      -6.738   9.113  68.020  1.00  0.00    -0.068 C  
HETATM   15  C   UNL     1      -8.896   8.504  68.938  1.00  0.00    -0.139 C  
HETATM   16  N   UNL     1      -7.624   9.042  69.071  1.00  0.00    -0.077 N  
HETATM   17  O   UNL     1      -5.571   9.482  68.117  1.00  0.00    -0.037 OA 
BRANCH   7  18
HETATM   18  C   UNL     1     -10.772   7.859  67.326  1.00  0.00    -0.299 C  
BRANCH  18  19
HETATM   19  C   UNL     1     -10.564   6.374  67.495  1.00  0.00    -0.350 C  
HETATM   20  C   UNL     1     -10.614   5.505  66.477  1.00  0.00    -0.343 C  
ENDBRANCH  18  19
ENDBRANCH   7  18
ENDBRANCH   2   3
TORSDOF 3
ENDMDL
MODEL      106
REMARK 921   NORMALIZED FREE ENERGY PREDICTED BY IDOCK:   -3.39 KCAL/MOL
REMARK 922        TOTAL FREE ENERGY PREDICTED BY IDOCK:   -4.06 KCAL/MOL
REMARK 923 INTER-LIGAND FREE ENERGY PREDICTED BY IDOCK:   -4.02 KCAL/MOL
REMARK 924 INTRA-LIGAND FREE ENERGY PREDICTED BY IDOCK:   -0.04 KCAL/MOL
REMARK 927      BINDING AFFINITY PREDICTED BY RF-SCORE:    0.00 PKD
ROOT
HETATM    1  C   UNL     1     -12.200   9.053  72.021  1.00  0.00    -0.446 C  
HETATM    2  C   UNL     1     -11.030   8.088  71.950  1.00  0.00    -0.321 C  
ENDROOT
BRANCH   2   3
HETATM    3  C   UNL     1     -10.250   8.290  70.662  1.00  0.00    -0.214 C  
HETATM    4  C   UNL     1      -9.579   8.463  69.557  1.00  0.00    -0.170 C  
HETATM    5  C   UNL     1      -8.799   8.665  68.269  1.00  0.00    -0.142 C  
HETATM    6  C   UNL     1      -7.527   7.814  68.349  1.00  0.00    -0.104 C  
HETATM    7  C   UNL     1      -9.758   8.500  67.033  1.00  0.00    -0.266 C  
HETATM    8  O   UNL     1     -11.439   6.837  67.582  1.00  0.00    -0.101 OA 
HETATM    9  C   UNL     1      -8.955   8.706  65.768  1.00  0.00    -0.197 C  
HETATM   10  C   UNL     1      -9.589   4.800  67.302  1.00  0.00    -0.163 C  
HETATM   11  O   UNL     1      -8.668   9.814  65.311  1.00  0.00    -0.141 OA 
HETATM   12  N   UNL     1      -8.444   7.576  65.192  1.00  0.00    -0.310 N  
HETATM   13  H   UNL     1      -7.943   7.694  64.311  1.00  0.00     0.000 HD 
HETATM   14  C   UNL     1      -8.539   6.303  65.681  1.00  0.00    -0.139 C  
HETATM   15  C   UNL     1     -10.338   7.096  67.096  1.00  0.00    -0.289 C  
HETATM   16  N   UNL     1      -9.453   6.108  66.691  1.00  0.00    -0.148 N  
HETATM   17  O   UNL     1      -7.811   5.427  65.221  1.00  0.00    -0.089 OA 
BRANCH   7  18
HETATM   18  C   UNL     1     -10.866   9.598  67.115  1.00  0.00    -0.184 C  
BRANCH  18  19
HETATM   19  C   UNL     1     -10.471  10.922  67.724  1.00  0.00    -0.238 C  
HETATM   20  C   UNL     1     -11.308  11.963  67.822  1.00  0.00    -0.361 C  
ENDBRANCH  18  19
ENDBRANCH   7  18
ENDBRANCH   2   3
TORSDOF 3
ENDMDL
MODEL      107
REMARK 921   NORMALIZED FREE ENERGY PREDICTED BY IDOCK:   -3.36 KCAL/MOL
REMARK 922        TOTAL FREE ENERGY PREDICTED BY IDOCK:   -4.03 KCAL/MOL
REMARK 923 INTER-LIGAND FREE ENERGY PREDICTED BY IDOCK:   -4.03 KCAL/MOL
REMARK 924 INTRA-LIGAND FREE ENERGY PREDICTED BY IDOCK:   -0.00 KCAL/MOL
REMARK 927      BINDING AFFINITY PREDICTED BY RF-SCORE:    0.00 PKD
ROOT
HETATM    1  C   UNL     1     -13.517   9.490  72.261  1.00  0.00    -0.521 C  
HETATM    2  C   UNL     1     -13.531   9.617  70.748  1.00  0.00    -0.037 C  
ENDROOT
BRANCH   2   3
HETATM    3  C   UNL     1     -12.265  10.299  70.258  1.00  0.00    -0.298 C  
HETATM    4  C   UNL     1     -11.178  10.885  69.838  1.00  0.00    -0.355 C  
HETATM    5  C   UNL     1      -9.912  11.567  69.348  1.00  0.00     0.293 C  
HETATM    6  C   UNL     1      -8.813  10.504  69.241  1.00  0.00    -0.135 C  
HETATM    7  C   UNL     1     -10.239  12.464  68.098  1.00  0.00    -0.225 C  
HETATM    8  O   UNL     1     -12.013  11.398  66.831  1.00  0.00    -0.440 OA 
HETATM    9  C   UNL     1      -8.962  13.129  67.635  1.00  0.00    -0.192 C  
HETATM   10  C   UNL     1     -10.254   9.489  65.875  1.00  0.00    -0.115 C  
HETATM   11  O   UNL     1      -8.490  14.142  68.152  1.00  0.00    -0.156 OA 
HETATM   12  N   UNL     1      -8.267  12.474  66.656  1.00  0.00    -0.408 N  
HETATM   13  H   UNL     1      -7.430  12.936  66.297  1.00  0.00     0.000 HD 
HETATM   14  C   UNL     1      -8.582  11.261  66.111  1.00  0.00    -0.156 C  
HETATM   15  C   UNL     1     -10.807  11.551  67.025  1.00  0.00    -0.273 C  
HETATM   16  N   UNL     1      -9.848  10.788  66.374  1.00  0.00    -0.201 N  
HETATM   17  O   UNL     1      -7.740  10.662  65.449  1.00  0.00    -0.133 OA 
BRANCH   7  18
HETATM   18  C   UNL     1     -11.257  13.566  68.532  1.00  0.00    -0.310 C  
BRANCH  18  19
HETATM   19  C   UNL     1     -11.211  14.009  69.974  1.00  0.00    -0.074 C  
HETATM   20  C   UNL     1     -10.844  15.240  70.353  1.00  0.00    -0.293 C  
ENDBRANCH  18  19
ENDBRANCH   7  18
ENDBRANCH   2   3
TORSDOF 3
ENDMDL
MODEL      108
REMARK 921   NORMALIZED FREE ENERGY PREDICTED BY IDOCK:   -3.36 KCAL/MOL
REMARK 922        TOTAL FREE ENERGY PREDICTED BY IDOCK:   -4.03 KCAL/MOL
REMARK 923 INTER-LIGAND FREE ENERGY PREDICTED BY IDOCK:   -3.97 KCAL/MOL
REMARK 924 INTRA-LIGAND FREE ENERGY PREDICTED BY IDOCK:   -0.06 KCAL/MOL
REMARK 927      BINDING AFFINITY PREDICTED BY RF-SCORE:    0.00 PKD
ROOT
HETATM    1  C   UNL     1      -5.925   6.183  66.582  1.00  0.00    -0.025 C  
HETATM    2  C   UNL     1      -6.960   6.547  65.532  1.00  0.00    -0.053 C  
ENDROOT
BRANCH   2   3
HETATM    3  C   UNL     1      -8.165   7.209  66.179  1.00  0.00    -0.128 C  
HETATM    4  C   UNL     1      -9.199   7.777  66.734  1.00  0.00    -0.202 C  
HETATM    5  C   UNL     1     -10.404   8.440  67.381  1.00  0.00    -0.355 C  
HETATM    6  C   UNL     1     -11.027   7.436  68.358  1.00  0.00     0.020 C  
HETATM    7  C   UNL     1     -10.011   9.873  67.897  1.00  0.00    -0.190 C  
HETATM    8  O   UNL     1      -7.697   9.820  68.623  1.00  0.00    -0.079 OA 
HETATM    9  C   UNL     1     -11.229  10.506  68.533  1.00  0.00    -0.274 C  
HETATM   10  C   UNL     1      -8.392   8.427  70.909  1.00  0.00    -0.135 C  
HETATM   11  O   UNL     1     -12.127  11.056  67.896  1.00  0.00    -0.600 OA 
HETATM   12  N   UNL     1     -11.352  10.339  69.885  1.00  0.00    -0.271 N  
HETATM   13  H   UNL     1     -12.141  10.804  70.336  1.00  0.00     0.000 HD 
HETATM   14  C   UNL     1     -10.523   9.610  70.691  1.00  0.00    -0.312 C  
HETATM   15  C   UNL     1      -8.888   9.697  68.905  1.00  0.00    -0.136 C  
HETATM   16  N   UNL     1      -9.316   9.240  70.143  1.00  0.00    -0.209 N  
HETATM   17  O   UNL     1     -10.893   9.315  71.824  1.00  0.00    -0.368 OA 
BRANCH   7  18
HETATM   18  C   UNL     1      -9.572  10.737  66.672  1.00  0.00    -0.208 C  
BRANCH  18  19
HETATM   19  C   UNL     1      -8.955  12.082  66.971  1.00  0.00    -0.198 C  
HETATM   20  C   UNL     1      -9.624  13.238  66.858  1.00  0.00    -0.249 C  
ENDBRANCH  18  19
ENDBRANCH   7  18
ENDBRANCH   2   3
TORSDOF 3
ENDMDL
MODEL      109
REMARK 921   NORMALIZED FREE ENERGY PREDICTED BY IDOCK:   -3.36 KCAL/MOL
REMARK 922        TOTAL FREE ENERGY PREDICTED BY IDOCK:   -4.03 KCAL/MOL
REMARK 923 INTER-LIGAND FREE ENERGY PREDICTED BY IDOCK:   -3.88 KCAL/MOL
REMARK 924 INTRA-LIGAND FREE ENERGY PREDICTED BY IDOCK:   -0.15 KCAL/MOL
REMARK 927      BINDING AFFINITY PREDICTED BY RF-SCORE:    0.00 PKD
ROOT
HETATM    1  C   UNL     1     -12.761  13.824  65.831  1.00  0.00    -0.452 C  
HETATM    2  C   UNL     1     -12.130  12.670  65.072  1.00  0.00    -0.497 C  
ENDROOT
BRANCH   2   3
HETATM    3  C   UNL     1     -10.850  12.219  65.755  1.00  0.00    -0.313 C  
HETATM    4  C   UNL     1      -9.751  11.833  66.342  1.00  0.00    -0.234 C  
HETATM    5  C   UNL     1      -8.471  11.382  67.025  1.00  0.00    -0.159 C  
HETATM    6  C   UNL     1      -8.255  12.269  68.257  1.00  0.00    -0.167 C  
HETATM    7  C   UNL     1      -8.480   9.818  67.195  1.00  0.00    -0.125 C  
HETATM    8  O   UNL     1     -10.768   9.098  67.563  1.00  0.00    -0.273 OA 
HETATM    9  C   UNL     1      -7.195   9.400  67.876  1.00  0.00    -0.082 C  
HETATM   10  C   UNL     1     -10.715  10.077  70.149  1.00  0.00    -0.307 C  
HETATM   11  O   UNL     1      -6.122   9.262  67.289  1.00  0.00    -0.055 OA 
HETATM   12  N   UNL     1      -7.249   9.287  69.238  1.00  0.00    -0.064 N  
HETATM   13  H   UNL     1      -6.404   8.957  69.707  1.00  0.00     0.000 HD 
HETATM   14  C   UNL     1      -8.323   9.574  70.034  1.00  0.00    -0.179 C  
HETATM   15  C   UNL     1      -9.693   9.463  68.039  1.00  0.00    -0.145 C  
HETATM   16  N   UNL     1      -9.530   9.728  69.391  1.00  0.00    -0.188 N  
HETATM   17  O   UNL     1      -8.158   9.695  71.244  1.00  0.00    -0.211 OA 
BRANCH   7  18
HETATM   18  C   UNL     1      -8.538   9.166  65.777  1.00  0.00    -0.171 C  
BRANCH  18  19
HETATM   19  C   UNL     1      -8.569   7.657  65.720  1.00  0.00    -0.156 C  
HETATM   20  C   UNL     1      -7.657   6.929  65.063  1.00  0.00    -0.104 C  
ENDBRANCH  18  19
ENDBRANCH   7  18
ENDBRANCH   2   3
TORSDOF 3
ENDMDL
MODEL      110
REMARK 921   NORMALIZED FREE ENERGY PREDICTED BY IDOCK:   -3.36 KCAL/MOL
REMARK 922        TOTAL FREE ENERGY PREDICTED BY IDOCK:   -4.03 KCAL/MOL
REMARK 923 INTER-LIGAND FREE ENERGY PREDICTED BY IDOCK:   -3.91 KCAL/MOL
REMARK 924 INTRA-LIGAND FREE ENERGY PREDICTED BY IDOCK:   -0.11 KCAL/MOL
REMARK 927      BINDING AFFINITY PREDICTED BY RF-SCORE:    0.00 PKD
ROOT
HETATM    1  C   UNL     1     -10.646   4.917  74.314  1.00  0.00    -0.321 C  
HETATM    2  C   UNL     1     -10.248   6.379  74.223  1.00  0.00    -0.362 C  
ENDROOT
BRANCH   2   3
HETATM    3  C   UNL     1     -10.486   6.909  72.819  1.00  0.00    -0.252 C  
HETATM    4  C   UNL     1     -10.690   7.365  71.613  1.00  0.00    -0.239 C  
HETATM    5  C   UNL     1     -10.927   7.894  70.209  1.00  0.00    -0.249 C  
HETATM    6  C   UNL     1     -11.048   9.420  70.294  1.00  0.00    -0.299 C  
HETATM    7  C   UNL     1      -9.885   7.259  69.217  1.00  0.00    -0.166 C  
HETATM    8  O   UNL     1      -7.801   6.912  70.409  1.00  0.00    -0.104 OA 
HETATM    9  C   UNL     1     -10.147   7.804  67.830  1.00  0.00    -0.189 C  
HETATM   10  C   UNL     1      -7.254   9.623  70.348  1.00  0.00    -0.142 C  
HETATM   11  O   UNL     1     -11.023   7.374  67.078  1.00  0.00    -0.332 OA 
HETATM   12  N   UNL     1      -9.421   8.908  67.474  1.00  0.00    -0.139 N  
HETATM   13  H   UNL     1      -9.550   9.256  66.523  1.00  0.00     0.000 HD 
HETATM   14  C   UNL     1      -8.542   9.590  68.266  1.00  0.00    -0.120 C  
HETATM   15  C   UNL     1      -8.501   7.644  69.709  1.00  0.00    -0.134 C  
HETATM   16  N   UNL     1      -8.150   8.956  69.424  1.00  0.00    -0.102 N  
HETATM   17  O   UNL     1      -8.169  10.709  67.926  1.00  0.00    -0.110 OA 
BRANCH   7  18
HETATM   18  C   UNL     1     -10.095   5.712  69.201  1.00  0.00    -0.274 C  
BRANCH  18  19
HETATM   19  C   UNL     1      -9.223   4.913  68.263  1.00  0.00    -0.154 C  
HETATM   20  C   UNL     1      -9.485   3.646  67.916  1.00  0.00    -0.224 C  
ENDBRANCH  18  19
ENDBRANCH   7  18
ENDBRANCH   2   3
TORSDOF 3
ENDMDL
MODEL      111
REMARK 921   NORMALIZED FREE ENERGY PREDICTED BY IDOCK:   -3.35 KCAL/MOL
REMARK 922        TOTAL FREE ENERGY PREDICTED BY IDOCK:   -4.01 KCAL/MOL
REMARK 923 INTER-LIGAND FREE ENERGY PREDICTED BY IDOCK:   -4.01 KCAL/MOL
REMARK 924 INTRA-LIGAND FREE ENERGY PREDICTED BY IDOCK:   -0.00 KCAL/MOL
REMARK 927      BINDING AFFINITY PREDICTED BY RF-SCORE:    0.00 PKD
ROOT
HETATM    1  C   UNL     1     -11.929   9.685  71.506  1.00  0.00    -0.485 C  
HETATM    2  C   UNL     1     -10.517   9.138  71.390  1.00  0.00    -0.414 C  
ENDROOT
BRANCH   2   3
HETATM    3  C   UNL     1     -10.061   9.145  69.940  1.00  0.00    -0.219 C  
HETATM    4  C   UNL     1      -9.670   9.150  68.696  1.00  0.00    -0.164 C  
HETATM    5  C   UNL     1      -9.214   9.157  67.247  1.00  0.00    -0.157 C  
HETATM    6  C   UNL     1     -10.378   8.659  66.383  1.00  0.00    -0.127 C  
HETATM    7  C   UNL     1      -8.539  10.537  66.907  1.00  0.00    -0.125 C  
HETATM    8  O   UNL     1      -9.650  12.271  68.189  1.00  0.00    -0.203 OA 
HETATM    9  C   UNL     1      -8.096  10.513  65.461  1.00  0.00    -0.155 C  
HETATM   10  C   UNL     1     -11.861  12.153  66.532  1.00  0.00    -0.246 C  
HETATM   11  O   UNL     1      -7.054   9.985  65.072  1.00  0.00    -0.125 OA 
HETATM   12  N   UNL     1      -8.985  11.021  64.553  1.00  0.00    -0.350 N  
HETATM   13  H   UNL     1      -8.680  11.058  63.581  1.00  0.00     0.000 HD 
HETATM   14  C   UNL     1     -10.243  11.482  64.823  1.00  0.00    -0.281 C  
HETATM   15  C   UNL     1      -9.579  11.618  67.148  1.00  0.00    -0.175 C  
HETATM   16  N   UNL     1     -10.537  11.706  66.148  1.00  0.00    -0.253 N  
HETATM   17  O   UNL     1     -11.032  11.651  63.897  1.00  0.00    -0.353 OA 
BRANCH   7  18
HETATM   18  C   UNL     1      -7.284  10.713  67.819  1.00  0.00    -0.088 C  
BRANCH  18  19
HETATM   19  C   UNL     1      -6.345   9.535  67.924  1.00  0.00    -0.054 C  
HETATM   20  C   UNL     1      -5.529   9.338  68.967  1.00  0.00    -0.036 C  
ENDBRANCH  18  19
ENDBRANCH   7  18
ENDBRANCH   2   3
TORSDOF 3
ENDMDL
MODEL      112
REMARK 921   NORMALIZED FREE ENERGY PREDICTED BY IDOCK:   -3.32 KCAL/MOL
REMARK 922        TOTAL FREE ENERGY PREDICTED BY IDOCK:   -3.99 KCAL/MOL
REMARK 923 INTER-LIGAND FREE ENERGY PREDICTED BY IDOCK:   -3.89 KCAL/MOL
REMARK 924 INTRA-LIGAND FREE ENERGY PREDICTED BY IDOCK:   -0.10 KCAL/MOL
REMARK 927      BINDING AFFINITY PREDICTED BY RF-SCORE:    0.00 PKD
ROOT
HETATM    1  C   UNL     1      -6.309   9.485  67.022  1.00  0.00    -0.066 C  
HETATM    2  C   UNL     1      -6.716  10.622  66.102  1.00  0.00    -0.132 C  
ENDROOT
BRANCH   2   3
HETATM    3  C   UNL     1      -7.343  11.754  66.898  1.00  0.00    -0.104 C  
HETATM    4  C   UNL     1      -7.881  12.726  67.582  1.00  0.00    -0.165 C  
HETATM    5  C   UNL     1      -8.507  13.858  68.378  1.00  0.00    -0.159 C  
HETATM    6  C   UNL     1      -7.884  15.174  67.900  1.00  0.00    -0.144 C  
HETATM    7  C   UNL     1     -10.073  13.704  68.382  1.00  0.00    -0.241 C  
HETATM    8  O   UNL     1     -10.754  12.739  66.262  1.00  0.00    -0.265 OA 
HETATM    9  C   UNL     1     -10.667  14.843  69.181  1.00  0.00    -0.252 C  
HETATM   10  C   UNL     1     -10.295  15.138  64.963  1.00  0.00    -0.344 C  
HETATM   11  O   UNL     1     -10.734  14.855  70.411  1.00  0.00    -0.151 OA 
HETATM   12  N   UNL     1     -11.038  15.948  68.465  1.00  0.00    -0.321 N  
HETATM   13  H   UNL     1     -11.487  16.703  68.984  1.00  0.00     0.000 HD 
HETATM   14  C   UNL     1     -10.866  16.139  67.123  1.00  0.00    -0.216 C  
HETATM   15  C   UNL     1     -10.533  13.747  66.934  1.00  0.00    -0.272 C  
HETATM   16  N   UNL     1     -10.541  15.022  66.387  1.00  0.00    -0.302 N  
HETATM   17  O   UNL     1     -10.987  17.268  66.656  1.00  0.00    -0.026 OA 
BRANCH   7  18
HETATM   18  C   UNL     1     -10.437  12.353  69.076  1.00  0.00    -0.033 C  
BRANCH  18  19
HETATM   19  C   UNL     1     -11.905  12.019  69.192  1.00  0.00    -0.369 C  
HETATM   20  C   UNL     1     -12.362  10.933  69.830  1.00  0.00    -0.326 C  
ENDBRANCH  18  19
ENDBRANCH   7  18
ENDBRANCH   2   3
TORSDOF 3
ENDMDL
MODEL      113
REMARK 921   NORMALIZED FREE ENERGY PREDICTED BY IDOCK:   -3.32 KCAL/MOL
REMARK 922        TOTAL FREE ENERGY PREDICTED BY IDOCK:   -3.98 KCAL/MOL
REMARK 923 INTER-LIGAND FREE ENERGY PREDICTED BY IDOCK:   -3.91 KCAL/MOL
REMARK 924 INTRA-LIGAND FREE ENERGY PREDICTED BY IDOCK:   -0.07 KCAL/MOL
REMARK 927      BINDING AFFINITY PREDICTED BY RF-SCORE:    0.00 PKD
ROOT
HETATM    1  C   UNL     1      -9.588   1.626  70.984  1.00  0.00    -0.198 C  
HETATM    2  C   UNL     1      -8.625   2.779  70.762  1.00  0.00    -0.106 C  
ENDROOT
BRANCH   2   3
HETATM    3  C   UNL     1      -9.365   3.996  70.233  1.00  0.00    -0.234 C  
HETATM    4  C   UNL     1     -10.002   5.040  69.778  1.00  0.00    -0.319 C  
HETATM    5  C   UNL     1     -10.742   6.257  69.249  1.00  0.00    -0.367 C  
HETATM    6  C   UNL     1     -11.978   6.477  70.128  1.00  0.00    -0.200 C  
HETATM    7  C   UNL     1      -9.731   7.443  69.032  1.00  0.00    -0.160 C  
HETATM    8  O   UNL     1      -8.002   7.299  70.728  1.00  0.00    -0.096 OA 
HETATM    9  C   UNL     1     -10.496   8.637  68.505  1.00  0.00    -0.172 C  
HETATM   10  C   UNL     1      -9.750   8.222  72.663  1.00  0.00    -0.287 C  
HETATM   11  O   UNL     1     -10.813   8.781  67.323  1.00  0.00    -0.214 OA 
HETATM   12  N   UNL     1     -10.936   9.529  69.444  1.00  0.00    -0.356 N  
HETATM   13  H   UNL     1     -11.408  10.365  69.100  1.00  0.00     0.000 HD 
HETATM   14  C   UNL     1     -10.804   9.409  70.799  1.00  0.00    -0.305 C  
HETATM   15  C   UNL     1      -9.094   7.745  70.378  1.00  0.00    -0.155 C  
HETATM   16  N   UNL     1      -9.920   8.451  71.241  1.00  0.00    -0.191 N  
HETATM   17  O   UNL     1     -11.475  10.128  71.534  1.00  0.00    -0.283 OA 
BRANCH   7  18
HETATM   18  C   UNL     1      -8.676   7.006  67.966  1.00  0.00    -0.126 C  
BRANCH  18  19
HETATM   19  C   UNL     1      -7.475   7.902  67.787  1.00  0.00    -0.097 C  
HETATM   20  C   UNL     1      -6.276   7.453  67.392  1.00  0.00    -0.047 C  
ENDBRANCH  18  19
ENDBRANCH   7  18
ENDBRANCH   2   3
TORSDOF 3
ENDMDL
MODEL      114
REMARK 921   NORMALIZED FREE ENERGY PREDICTED BY IDOCK:   -3.30 KCAL/MOL
REMARK 922        TOTAL FREE ENERGY PREDICTED BY IDOCK:   -3.96 KCAL/MOL
REMARK 923 INTER-LIGAND FREE ENERGY PREDICTED BY IDOCK:   -3.81 KCAL/MOL
REMARK 924 INTRA-LIGAND FREE ENERGY PREDICTED BY IDOCK:   -0.15 KCAL/MOL
REMARK 927      BINDING AFFINITY PREDICTED BY RF-SCORE:    0.00 PKD
ROOT
HETATM    1  C   UNL     1      -7.017   5.958  65.926  1.00  0.00    -0.062 C  
HETATM    2  C   UNL     1      -6.026   6.820  66.687  1.00  0.00    -0.029 C  
ENDROOT
BRANCH   2   3
HETATM    3  C   UNL     1      -6.710   7.516  67.852  1.00  0.00    -0.066 C  
HETATM    4  C   UNL     1      -7.297   8.114  68.852  1.00  0.00    -0.090 C  
HETATM    5  C   UNL     1      -7.981   8.809  70.016  1.00  0.00    -0.108 C  
HETATM    6  C   UNL     1      -7.812  10.321  69.829  1.00  0.00    -0.151 C  
HETATM    7  C   UNL     1      -9.424   8.216  70.219  1.00  0.00    -0.170 C  
HETATM    8  O   UNL     1     -10.311   7.596  68.047  1.00  0.00    -0.194 OA 
HETATM    9  C   UNL     1     -10.078   8.926  71.383  1.00  0.00    -0.309 C  
HETATM   10  C   UNL     1     -10.738  10.252  67.406  1.00  0.00    -0.281 C  
HETATM   11  O   UNL     1      -9.870   8.643  72.564  1.00  0.00    -0.285 OA 
HETATM   12  N   UNL     1     -10.851  10.009  71.066  1.00  0.00    -0.318 N  
HETATM   13  H   UNL     1     -11.340  10.467  71.836  1.00  0.00     0.000 HD 
HETATM   14  C   UNL     1     -11.034  10.537  69.819  1.00  0.00    -0.294 C  
HETATM   15  C   UNL     1     -10.192   8.447  68.929  1.00  0.00    -0.210 C  
HETATM   16  N   UNL     1     -10.625   9.755  68.763  1.00  0.00    -0.213 N  
HETATM   17  O   UNL     1     -11.522  11.658  69.706  1.00  0.00    -0.282 OA 
BRANCH   7  18
HETATM   18  C   UNL     1      -9.291   6.698  70.561  1.00  0.00    -0.167 C  
BRANCH  18  19
HETATM   19  C   UNL     1     -10.565   5.958  70.890  1.00  0.00    -0.319 C  
HETATM   20  C   UNL     1     -10.747   5.279  72.031  1.00  0.00    -0.261 C  
ENDBRANCH  18  19
ENDBRANCH   7  18
ENDBRANCH   2   3
TORSDOF 3
ENDMDL
MODEL      115
REMARK 921   NORMALIZED FREE ENERGY PREDICTED BY IDOCK:   -3.30 KCAL/MOL
REMARK 922        TOTAL FREE ENERGY PREDICTED BY IDOCK:   -3.96 KCAL/MOL
REMARK 923 INTER-LIGAND FREE ENERGY PREDICTED BY IDOCK:   -3.82 KCAL/MOL
REMARK 924 INTRA-LIGAND FREE ENERGY PREDICTED BY IDOCK:   -0.14 KCAL/MOL
REMARK 927      BINDING AFFINITY PREDICTED BY RF-SCORE:    0.00 PKD
ROOT
HETATM    1  C   UNL     1      -9.195   4.038  65.644  1.00  0.00    -0.150 C  
HETATM    2  C   UNL     1      -8.291   5.100  65.042  1.00  0.00    -0.144 C  
ENDROOT
BRANCH   2   3
HETATM    3  C   UNL     1      -8.049   6.221  66.039  1.00  0.00    -0.119 C  
HETATM    4  C   UNL     1      -7.840   7.183  66.894  1.00  0.00    -0.107 C  
HETATM    5  C   UNL     1      -7.598   8.305  67.890  1.00  0.00    -0.102 C  
HETATM    6  C   UNL     1      -6.833   9.420  67.169  1.00  0.00    -0.084 C  
HETATM    7  C   UNL     1      -8.937   8.650  68.640  1.00  0.00    -0.142 C  
HETATM    8  O   UNL     1     -10.786   8.316  67.103  1.00  0.00    -0.302 OA 
HETATM    9  C   UNL     1      -8.665   9.767  69.623  1.00  0.00    -0.199 C  
HETATM   10  C   UNL     1     -10.137  10.632  65.737  1.00  0.00    -0.266 C  
HETATM   11  O   UNL     1      -8.167   9.594  70.736  1.00  0.00    -0.273 OA 
HETATM   12  N   UNL     1      -8.897  11.036  69.168  1.00  0.00    -0.376 N  
HETATM   13  H   UNL     1      -8.766  11.796  69.836  1.00  0.00     0.000 HD 
HETATM   14  C   UNL     1      -9.287  11.385  67.906  1.00  0.00    -0.164 C  
HETATM   15  C   UNL     1      -9.946   9.076  67.586  1.00  0.00    -0.201 C  
HETATM   16  N   UNL     1      -9.745  10.362  67.107  1.00  0.00    -0.168 N  
HETATM   17  O   UNL     1      -9.194  12.557  67.551  1.00  0.00    -0.176 OA 
BRANCH   7  18
HETATM   18  C   UNL     1      -9.406   7.385  69.426  1.00  0.00    -0.155 C  
BRANCH  18  19
HETATM   19  C   UNL     1     -10.664   7.520  70.250  1.00  0.00    -0.247 C  
HETATM   20  C   UNL     1     -11.481   6.492  70.515  1.00  0.00    -0.448 C  
ENDBRANCH  18  19
ENDBRANCH   7  18
ENDBRANCH   2   3
TORSDOF 3
ENDMDL
MODEL      116
REMARK 921   NORMALIZED FREE ENERGY PREDICTED BY IDOCK:   -3.25 KCAL/MOL
REMARK 922        TOTAL FREE ENERGY PREDICTED BY IDOCK:   -3.90 KCAL/MOL
REMARK 923 INTER-LIGAND FREE ENERGY PREDICTED BY IDOCK:   -3.84 KCAL/MOL
REMARK 924 INTRA-LIGAND FREE ENERGY PREDICTED BY IDOCK:   -0.06 KCAL/MOL
REMARK 927      BINDING AFFINITY PREDICTED BY RF-SCORE:    0.00 PKD
ROOT
HETATM    1  C   UNL     1      -6.450  16.832  69.254  1.00  0.00    -0.219 C  
HETATM    2  C   UNL     1      -6.726  15.434  69.777  1.00  0.00    -0.170 C  
ENDROOT
BRANCH   2   3
HETATM    3  C   UNL     1      -7.422  14.596  68.717  1.00  0.00    -0.135 C  
HETATM    4  C   UNL     1      -8.019  13.877  67.808  1.00  0.00    -0.174 C  
HETATM    5  C   UNL     1      -8.716  13.039  66.748  1.00  0.00    -0.105 C  
HETATM    6  C   UNL     1      -8.046  11.661  66.720  1.00  0.00    -0.150 C  
HETATM    7  C   UNL     1     -10.275  13.133  66.934  1.00  0.00    -0.245 C  
HETATM    8  O   UNL     1     -10.754  13.344  69.304  1.00  0.00    -0.126 OA 
HETATM    9  C   UNL     1     -10.939  12.291  65.867  1.00  0.00    -0.302 C  
HETATM   10  C   UNL     1     -10.166  10.673  69.714  1.00  0.00    -0.052 C  
HETATM   11  O   UNL     1     -11.123  12.672  64.710  1.00  0.00    -0.283 OA 
HETATM   12  N   UNL     1     -11.237  11.004  66.219  1.00  0.00    -0.049 N  
HETATM   13  H   UNL     1     -11.731  10.440  65.527  1.00  0.00     0.000 HD 
HETATM   14  C   UNL     1     -10.937  10.398  67.407  1.00  0.00    -0.270 C  
HETATM   15  C   UNL     1     -10.595  12.614  68.326  1.00  0.00    -0.237 C  
HETATM   16  N   UNL     1     -10.547  11.231  68.432  1.00  0.00    -0.187 N  
HETATM   17  O   UNL     1     -11.010   9.176  67.494  1.00  0.00    -0.176 OA 
BRANCH   7  18
HETATM   18  C   UNL     1     -10.708  14.622  66.748  1.00  0.00    -0.301 C  
BRANCH  18  19
HETATM   19  C   UNL     1      -9.832  15.483  65.870  1.00  0.00    -0.385 C  
HETATM   20  C   UNL     1      -9.842  16.822  65.911  1.00  0.00    -0.276 C  
ENDBRANCH  18  19
ENDBRANCH   7  18
ENDBRANCH   2   3
TORSDOF 3
ENDMDL
MODEL      117
REMARK 921   NORMALIZED FREE ENERGY PREDICTED BY IDOCK:   -3.24 KCAL/MOL
REMARK 922        TOTAL FREE ENERGY PREDICTED BY IDOCK:   -3.89 KCAL/MOL
REMARK 923 INTER-LIGAND FREE ENERGY PREDICTED BY IDOCK:   -3.74 KCAL/MOL
REMARK 924 INTRA-LIGAND FREE ENERGY PREDICTED BY IDOCK:   -0.15 KCAL/MOL
REMARK 927      BINDING AFFINITY PREDICTED BY RF-SCORE:    0.00 PKD
ROOT
HETATM    1  C   UNL     1     -11.298   3.667  73.550  1.00  0.00    -0.233 C  
HETATM    2  C   UNL     1     -10.090   3.872  72.654  1.00  0.00    -0.228 C  
ENDROOT
BRANCH   2   3
HETATM    3  C   UNL     1     -10.179   5.209  71.937  1.00  0.00    -0.269 C  
HETATM    4  C   UNL     1     -10.256   6.357  71.323  1.00  0.00    -0.232 C  
HETATM    5  C   UNL     1     -10.346   7.694  70.606  1.00  0.00    -0.205 C  
HETATM    6  C   UNL     1      -9.610   8.736  71.455  1.00  0.00    -0.354 C  
HETATM    7  C   UNL     1      -9.951   7.515  69.094  1.00  0.00    -0.179 C  
HETATM    8  O   UNL     1      -8.253   5.788  68.943  1.00  0.00    -0.100 OA 
HETATM    9  C   UNL     1     -10.050   8.860  68.408  1.00  0.00    -0.189 C  
HETATM   10  C   UNL     1      -6.340   7.505  69.963  1.00  0.00    -0.031 C  
HETATM   11  O   UNL     1     -11.107   9.347  68.003  1.00  0.00    -0.123 OA 
HETATM   12  N   UNL     1      -8.895   9.591  68.354  1.00  0.00    -0.124 N  
HETATM   13  H   UNL     1      -8.935  10.477  67.849  1.00  0.00     0.000 HD 
HETATM   14  C   UNL     1      -7.694   9.251  68.909  1.00  0.00    -0.079 C  
HETATM   15  C   UNL     1      -8.528   6.982  69.060  1.00  0.00    -0.129 C  
HETATM   16  N   UNL     1      -7.564   7.944  69.321  1.00  0.00    -0.095 N  
HETATM   17  O   UNL     1      -6.822  10.108  69.026  1.00  0.00    -0.052 OA 
BRANCH   7  18
HETATM   18  C   UNL     1     -10.965   6.531  68.429  1.00  0.00    -0.358 C  
BRANCH  18  19
HETATM   19  C   UNL     1     -10.869   6.359  66.932  1.00  0.00    -0.428 C  
HETATM   20  C   UNL     1     -10.592   5.189  66.344  1.00  0.00    -0.336 C  
ENDBRANCH  18  19
ENDBRANCH   7  18
ENDBRANCH   2   3
TORSDOF 3
ENDMDL
MODEL      118
REMARK 921   NORMALIZED FREE ENERGY PREDICTED BY IDOCK:   -3.23 KCAL/MOL
REMARK 922        TOTAL FREE ENERGY PREDICTED BY IDOCK:   -3.88 KCAL/MOL
REMARK 923 INTER-LIGAND FREE ENERGY PREDICTED BY IDOCK:   -3.77 KCAL/MOL
REMARK 924 INTRA-LIGAND FREE ENERGY PREDICTED BY IDOCK:   -0.10 KCAL/MOL
REMARK 927      BINDING AFFINITY PREDICTED BY RF-SCORE:    0.00 PKD
ROOT
HETATM    1  C   UNL     1      -6.633   4.912  73.116  1.00  0.00    -0.065 C  
HETATM    2  C   UNL     1      -5.913   4.724  71.792  1.00  0.00    -0.016 C  
ENDROOT
BRANCH   2   3
HETATM    3  C   UNL     1      -6.706   5.356  70.660  1.00  0.00    -0.044 C  
HETATM    4  C   UNL     1      -7.385   5.899  69.688  1.00  0.00    -0.075 C  
HETATM    5  C   UNL     1      -8.177   6.530  68.556  1.00  0.00    -0.121 C  
HETATM    6  C   UNL     1      -7.472   6.190  67.238  1.00  0.00    -0.081 C  
HETATM    7  C   UNL     1      -9.705   6.192  68.720  1.00  0.00    -0.148 C  
HETATM    8  O   UNL     1      -9.900   3.981  69.702  1.00  0.00    -0.210 OA 
HETATM    9  C   UNL     1     -10.466   6.833  67.581  1.00  0.00    -0.229 C  
HETATM   10  C   UNL     1      -9.181   2.797  67.308  1.00  0.00    -0.158 C  
HETATM   11  O   UNL     1     -10.801   8.018  67.562  1.00  0.00    -0.202 OA 
HETATM   12  N   UNL     1     -10.677   6.046  66.483  1.00  0.00    -0.545 N  
HETATM   13  H   UNL     1     -11.233   6.448  65.728  1.00  0.00     0.000 HD 
HETATM   14  C   UNL     1     -10.216   4.772  66.299  1.00  0.00    -0.282 C  
HETATM   15  C   UNL     1      -9.837   4.678  68.689  1.00  0.00    -0.120 C  
HETATM   16  N   UNL     1      -9.732   4.134  67.417  1.00  0.00    -0.181 N  
HETATM   17  O   UNL     1     -10.238   4.283  65.173  1.00  0.00    -0.227 OA 
BRANCH   7  18
HETATM   18  C   UNL     1     -10.205   6.798  70.070  1.00  0.00    -0.211 C  
BRANCH  18  19
HETATM   19  C   UNL     1     -11.632   6.505  70.464  1.00  0.00    -0.455 C  
HETATM   20  C   UNL     1     -12.309   7.230  71.363  1.00  0.00    -0.403 C  
ENDBRANCH  18  19
ENDBRANCH   7  18
ENDBRANCH   2   3
TORSDOF 3
ENDMDL
MODEL      119
REMARK 921   NORMALIZED FREE ENERGY PREDICTED BY IDOCK:   -3.21 KCAL/MOL
REMARK 922        TOTAL FREE ENERGY PREDICTED BY IDOCK:   -3.86 KCAL/MOL
REMARK 923 INTER-LIGAND FREE ENERGY PREDICTED BY IDOCK:   -3.92 KCAL/MOL
REMARK 924 INTRA-LIGAND FREE ENERGY PREDICTED BY IDOCK:    0.06 KCAL/MOL
REMARK 927      BINDING AFFINITY PREDICTED BY RF-SCORE:    0.00 PKD
ROOT
HETATM    1  C   UNL     1      -7.833   7.743  74.204  1.00  0.00    -0.233 C  
HETATM    2  C   UNL     1      -7.977   6.496  73.349  1.00  0.00    -0.098 C  
ENDROOT
BRANCH   2   3
HETATM    3  C   UNL     1      -8.235   6.871  71.900  1.00  0.00    -0.104 C  
HETATM    4  C   UNL     1      -8.456   7.194  70.655  1.00  0.00    -0.138 C  
HETATM    5  C   UNL     1      -8.713   7.569  69.205  1.00  0.00    -0.136 C  
HETATM    6  C   UNL     1      -7.583   6.977  68.356  1.00  0.00    -0.111 C  
HETATM    7  C   UNL     1     -10.207   7.248  68.829  1.00  0.00    -0.188 C  
HETATM    8  O   UNL     1     -10.905   5.282  70.068  1.00  0.00    -0.245 OA 
HETATM    9  C   UNL     1     -10.433   7.632  67.383  1.00  0.00    -0.297 C  
HETATM   10  C   UNL     1      -9.407   3.645  68.417  1.00  0.00    -0.165 C  
HETATM   11  O   UNL     1     -10.657   8.783  67.007  1.00  0.00    -0.282 OA 
HETATM   12  N   UNL     1     -10.260   6.633  66.465  1.00  0.00    -0.420 N  
HETATM   13  H   UNL     1     -10.459   6.864  65.491  1.00  0.00     0.000 HD 
HETATM   14  C   UNL     1      -9.848   5.356  66.724  1.00  0.00    -0.171 C  
HETATM   15  C   UNL     1     -10.416   5.758  69.044  1.00  0.00    -0.266 C  
HETATM   16  N   UNL     1      -9.870   4.967  68.044  1.00  0.00    -0.152 N  
HETATM   17  O   UNL     1      -9.472   4.646  65.795  1.00  0.00    -0.153 OA 
BRANCH   7  18
HETATM   18  C   UNL     1     -11.142   8.110  69.735  1.00  0.00    -0.058 C  
BRANCH  18  19
HETATM   19  C   UNL     1     -10.848   9.589  69.810  1.00  0.00    -0.264 C  
HETATM   20  C   UNL     1     -11.480  10.422  70.647  1.00  0.00    -0.438 C  
ENDBRANCH  18  19
ENDBRANCH   7  18
ENDBRANCH   2   3
TORSDOF 3
ENDMDL
MODEL      120
REMARK 921   NORMALIZED FREE ENERGY PREDICTED BY IDOCK:   -3.19 KCAL/MOL
REMARK 922        TOTAL FREE ENERGY PREDICTED BY IDOCK:   -3.83 KCAL/MOL
REMARK 923 INTER-LIGAND FREE ENERGY PREDICTED BY IDOCK:   -3.80 KCAL/MOL
REMARK 924 INTRA-LIGAND FREE ENERGY PREDICTED BY IDOCK:   -0.04 KCAL/MOL
REMARK 927      BINDING AFFINITY PREDICTED BY RF-SCORE:    0.00 PKD
ROOT
HETATM    1  C   UNL     1     -10.315   2.247  74.554  1.00  0.00    -0.184 C  
HETATM    2  C   UNL     1     -11.232   2.679  73.424  1.00  0.00    -0.267 C  
ENDROOT
BRANCH   2   3
HETATM    3  C   UNL     1     -10.878   4.081  72.957  1.00  0.00    -0.234 C  
HETATM    4  C   UNL     1     -10.574   5.285  72.557  1.00  0.00    -0.276 C  
HETATM    5  C   UNL     1     -10.220   6.687  72.091  1.00  0.00    -0.209 C  
HETATM    6  C   UNL     1     -10.269   7.617  73.308  1.00  0.00    -0.398 C  
HETATM    7  C   UNL     1      -8.919   6.642  71.208  1.00  0.00    -0.144 C  
HETATM    8  O   UNL     1      -7.479   4.881  72.053  1.00  0.00    -0.078 OA 
HETATM    9  C   UNL     1      -8.593   8.050  70.759  1.00  0.00    -0.129 C  
HETATM   10  C   UNL     1      -6.782   6.427  74.239  1.00  0.00    -0.078 C  
HETATM   11  O   UNL     1      -9.137   8.608  69.806  1.00  0.00    -0.146 OA 
HETATM   12  N   UNL     1      -7.719   8.743  71.550  1.00  0.00    -0.123 N  
HETATM   13  H   UNL     1      -7.450   9.675  71.232  1.00  0.00     0.000 HD 
HETATM   14  C   UNL     1      -7.170   8.311  72.725  1.00  0.00    -0.102 C  
HETATM   15  C   UNL     1      -7.808   6.067  72.072  1.00  0.00    -0.106 C  
HETATM   16  N   UNL     1      -7.294   6.967  72.994  1.00  0.00    -0.075 N  
HETATM   17  O   UNL     1      -6.626   9.122  73.469  1.00  0.00    -0.326 OA 
BRANCH   7  18
HETATM   18  C   UNL     1      -9.202   5.761  69.950  1.00  0.00    -0.166 C  
BRANCH  18  19
HETATM   19  C   UNL     1     -10.592   5.835  69.364  1.00  0.00    -0.383 C  
HETATM   20  C   UNL     1     -10.829   6.039  68.062  1.00  0.00    -0.374 C  
ENDBRANCH  18  19
ENDBRANCH   7  18
ENDBRANCH   2   3
TORSDOF 3
ENDMDL
MODEL      121
REMARK 921   NORMALIZED FREE ENERGY PREDICTED BY IDOCK:   -3.19 KCAL/MOL
REMARK 922        TOTAL FREE ENERGY PREDICTED BY IDOCK:   -3.83 KCAL/MOL
REMARK 923 INTER-LIGAND FREE ENERGY PREDICTED BY IDOCK:   -3.82 KCAL/MOL
REMARK 924 INTRA-LIGAND FREE ENERGY PREDICTED BY IDOCK:   -0.00 KCAL/MOL
REMARK 927      BINDING AFFINITY PREDICTED BY RF-SCORE:    0.00 PKD
ROOT
HETATM    1  C   UNL     1      -5.490  17.902  64.504  1.00  0.00     0.527 C  
HETATM    2  C   UNL     1      -5.792  17.734  65.983  1.00  0.00    -0.241 C  
ENDROOT
BRANCH   2   3
HETATM    3  C   UNL     1      -7.133  17.046  66.178  1.00  0.00    -0.142 C  
HETATM    4  C   UNL     1      -8.284  16.455  66.345  1.00  0.00    -0.366 C  
HETATM    5  C   UNL     1      -9.624  15.768  66.540  1.00  0.00    -0.288 C  
HETATM    6  C   UNL     1      -9.839  14.809  65.363  1.00  0.00    -0.295 C  
HETATM    7  C   UNL     1      -9.732  15.217  68.010  1.00  0.00    -0.211 C  
HETATM    8  O   UNL     1      -7.520  14.535  68.739  1.00  0.00    -0.120 OA 
HETATM    9  C   UNL     1     -11.075  14.540  68.173  1.00  0.00    -0.266 C  
HETATM   10  C   UNL     1      -7.634  12.279  67.143  1.00  0.00    -0.118 C  
HETATM   11  O   UNL     1     -12.125  15.144  68.395  1.00  0.00    -0.241 OA 
HETATM   12  N   UNL     1     -11.097  13.192  67.945  1.00  0.00    -0.252 N  
HETATM   13  H   UNL     1     -11.984  12.713  68.101  1.00  0.00     0.000 HD 
HETATM   14  C   UNL     1     -10.047  12.423  67.528  1.00  0.00    -0.202 C  
HETATM   15  C   UNL     1      -8.590  14.235  68.208  1.00  0.00    -0.176 C  
HETATM   16  N   UNL     1      -8.801  13.003  67.606  1.00  0.00    -0.179 N  
HETATM   17  O   UNL     1     -10.262  11.293  67.099  1.00  0.00    -0.192 OA 
BRANCH   7  18
HETATM   18  C   UNL     1      -9.649  16.424  68.998  1.00  0.00    -0.264 C  
BRANCH  18  19
HETATM   19  C   UNL     1     -10.222  17.737  68.523  1.00  0.00    -0.382 C  
HETATM   20  C   UNL     1      -9.524  18.880  68.506  1.00  0.00    -0.416 C  
ENDBRANCH  18  19
ENDBRANCH   7  18
ENDBRANCH   2   3
TORSDOF 3
ENDMDL
MODEL      122
REMARK 921   NORMALIZED FREE ENERGY PREDICTED BY IDOCK:   -3.18 KCAL/MOL
REMARK 922        TOTAL FREE ENERGY PREDICTED BY IDOCK:   -3.82 KCAL/MOL
REMARK 923 INTER-LIGAND FREE ENERGY PREDICTED BY IDOCK:   -3.67 KCAL/MOL
REMARK 924 INTRA-LIGAND FREE ENERGY PREDICTED BY IDOCK:   -0.15 KCAL/MOL
REMARK 927      BINDING AFFINITY PREDICTED BY RF-SCORE:    0.00 PKD
ROOT
HETATM    1  C   UNL     1      -9.033   2.586  69.325  1.00  0.00    -0.169 C  
HETATM    2  C   UNL     1      -9.501   3.267  68.051  1.00  0.00    -0.217 C  
ENDROOT
BRANCH   2   3
HETATM    3  C   UNL     1      -9.480   4.777  68.216  1.00  0.00    -0.191 C  
HETATM    4  C   UNL     1      -9.464   6.074  68.356  1.00  0.00    -0.124 C  
HETATM    5  C   UNL     1      -9.444   7.584  68.520  1.00  0.00    -0.146 C  
HETATM    6  C   UNL     1     -10.768   8.136  67.980  1.00  0.00    -0.108 C  
HETATM    7  C   UNL     1      -8.995   7.955  69.981  1.00  0.00    -0.145 C  
HETATM    8  O   UNL     1      -9.813   6.244  71.494  1.00  0.00    -0.172 OA 
HETATM    9  C   UNL     1      -8.984   9.462  70.114  1.00  0.00    -0.227 C  
HETATM   10  C   UNL     1     -12.392   7.222  71.291  1.00  0.00    -0.366 C  
HETATM   11  O   UNL     1      -8.062  10.178  69.722  1.00  0.00    -0.168 OA 
HETATM   12  N   UNL     1     -10.130  10.029  70.601  1.00  0.00    -0.358 N  
HETATM   13  H   UNL     1     -10.119  11.039  70.744  1.00  0.00     0.000 HD 
HETATM   14  C   UNL     1     -11.287   9.374  70.916  1.00  0.00    -0.319 C  
HETATM   15  C   UNL     1      -9.996   7.324  70.934  1.00  0.00    -0.185 C  
HETATM   16  N   UNL     1     -11.204   8.003  71.006  1.00  0.00    -0.261 N  
HETATM   17  O   UNL     1     -12.318  10.021  71.078  1.00  0.00    -0.311 OA 
BRANCH   7  18
HETATM   18  C   UNL     1      -7.547   7.416  70.207  1.00  0.00    -0.088 C  
BRANCH  18  19
HETATM   19  C   UNL     1      -6.946   7.624  71.576  1.00  0.00    -0.057 C  
HETATM   20  C   UNL     1      -6.303   6.661  72.250  1.00  0.00    -0.053 C  
ENDBRANCH  18  19
ENDBRANCH   7  18
ENDBRANCH   2   3
TORSDOF 3
ENDMDL
MODEL      123
REMARK 921   NORMALIZED FREE ENERGY PREDICTED BY IDOCK:   -3.17 KCAL/MOL
REMARK 922        TOTAL FREE ENERGY PREDICTED BY IDOCK:   -3.81 KCAL/MOL
REMARK 923 INTER-LIGAND FREE ENERGY PREDICTED BY IDOCK:   -3.68 KCAL/MOL
REMARK 924 INTRA-LIGAND FREE ENERGY PREDICTED BY IDOCK:   -0.13 KCAL/MOL
REMARK 927      BINDING AFFINITY PREDICTED BY RF-SCORE:    0.00 PKD
ROOT
HETATM    1  C   UNL     1      -9.026   3.366  66.969  1.00  0.00    -0.174 C  
HETATM    2  C   UNL     1      -9.947   4.560  67.144  1.00  0.00    -0.201 C  
ENDROOT
BRANCH   2   3
HETATM    3  C   UNL     1      -9.162   5.773  67.615  1.00  0.00    -0.105 C  
HETATM    4  C   UNL     1      -8.488   6.814  68.019  1.00  0.00    -0.120 C  
HETATM    5  C   UNL     1      -7.703   8.027  68.490  1.00  0.00    -0.106 C  
HETATM    6  C   UNL     1      -7.176   8.759  67.250  1.00  0.00    -0.080 C  
HETATM    7  C   UNL     1      -8.542   8.824  69.555  1.00  0.00    -0.130 C  
HETATM    8  O   UNL     1     -10.892   8.626  68.986  1.00  0.00    -0.153 OA 
HETATM    9  C   UNL     1      -7.736  10.023  70.005  1.00  0.00    -0.169 C  
HETATM   10  C   UNL     1     -10.586  10.393  66.881  1.00  0.00    -0.230 C  
HETATM   11  O   UNL     1      -6.841   9.969  70.849  1.00  0.00    -0.322 OA 
HETATM   12  N   UNL     1      -7.971  11.189  69.330  1.00  0.00    -0.373 N  
HETATM   13  H   UNL     1      -7.472  12.018  69.656  1.00  0.00     0.000 HD 
HETATM   14  C   UNL     1      -8.808  11.354  68.263  1.00  0.00    -0.167 C  
HETATM   15  C   UNL     1      -9.836   9.250  68.883  1.00  0.00    -0.165 C  
HETATM   16  N   UNL     1      -9.690  10.326  68.019  1.00  0.00    -0.148 N  
HETATM   17  O   UNL     1      -8.722  12.372  67.583  1.00  0.00    -0.159 OA 
BRANCH   7  18
HETATM   18  C   UNL     1      -8.795   7.894  70.784  1.00  0.00    -0.139 C  
BRANCH  18  19
HETATM   19  C   UNL     1      -9.510   8.502  71.966  1.00  0.00    -0.364 C  
HETATM   20  C   UNL     1     -10.332   7.808  72.764  1.00  0.00    -0.374 C  
ENDBRANCH  18  19
ENDBRANCH   7  18
ENDBRANCH   2   3
TORSDOF 3
ENDMDL
MODEL      124
REMARK 921   NORMALIZED FREE ENERGY PREDICTED BY IDOCK:   -3.14 KCAL/MOL
REMARK 922        TOTAL FREE ENERGY PREDICTED BY IDOCK:   -3.77 KCAL/MOL
REMARK 923 INTER-LIGAND FREE ENERGY PREDICTED BY IDOCK:   -3.65 KCAL/MOL
REMARK 924 INTRA-LIGAND FREE ENERGY PREDICTED BY IDOCK:   -0.12 KCAL/MOL
REMARK 927      BINDING AFFINITY PREDICTED BY RF-SCORE:    0.00 PKD
ROOT
HETATM    1  C   UNL     1      -5.981   8.403  68.058  1.00  0.00    -0.043 C  
HETATM    2  C   UNL     1      -6.772   9.623  68.495  1.00  0.00    -0.052 C  
ENDROOT
BRANCH   2   3
HETATM    3  C   UNL     1      -7.666   9.283  69.675  1.00  0.00    -0.087 C  
HETATM    4  C   UNL     1      -8.434   8.993  70.689  1.00  0.00    -0.229 C  
HETATM    5  C   UNL     1      -9.328   8.654  71.870  1.00  0.00    -0.357 C  
HETATM    6  C   UNL     1     -10.681   9.342  71.651  1.00  0.00    -0.393 C  
HETATM    7  C   UNL     1      -9.288   7.105  72.141  1.00  0.00    -0.148 C  
HETATM    8  O   UNL     1      -9.025   5.960  70.019  1.00  0.00    -0.137 OA 
HETATM    9  C   UNL     1     -10.185   6.799  73.320  1.00  0.00    -0.247 C  
HETATM   10  C   UNL     1     -11.659   6.479  69.353  1.00  0.00    -0.180 C  
HETATM   11  O   UNL     1      -9.847   6.945  74.495  1.00  0.00    -0.275 OA 
HETATM   12  N   UNL     1     -11.472   6.449  73.018  1.00  0.00    -0.478 N  
HETATM   13  H   UNL     1     -12.075   6.190  73.800  1.00  0.00     0.000 HD 
HETATM   14  C   UNL     1     -12.030   6.411  71.771  1.00  0.00    -0.316 C  
HETATM   15  C   UNL     1      -9.777   6.413  70.880  1.00  0.00    -0.176 C  
HETATM   16  N   UNL     1     -11.153   6.467  70.711  1.00  0.00    -0.280 N  
HETATM   17  O   UNL     1     -13.252   6.350  71.661  1.00  0.00    -0.016 OA 
BRANCH   7  18
HETATM   18  C   UNL     1      -7.822   6.703  72.502  1.00  0.00    -0.102 C  
BRANCH  18  19
HETATM   19  C   UNL     1      -7.601   5.291  72.987  1.00  0.00    -0.097 C  
HETATM   20  C   UNL     1      -6.475   4.603  72.754  1.00  0.00    -0.038 C  
ENDBRANCH  18  19
ENDBRANCH   7  18
ENDBRANCH   2   3
TORSDOF 3
ENDMDL
MODEL      125
REMARK 921   NORMALIZED FREE ENERGY PREDICTED BY IDOCK:   -3.14 KCAL/MOL
REMARK 922        TOTAL FREE ENERGY PREDICTED BY IDOCK:   -3.77 KCAL/MOL
REMARK 923 INTER-LIGAND FREE ENERGY PREDICTED BY IDOCK:   -3.61 KCAL/MOL
REMARK 924 INTRA-LIGAND FREE ENERGY PREDICTED BY IDOCK:   -0.16 KCAL/MOL
REMARK 927      BINDING AFFINITY PREDICTED BY RF-SCORE:    0.00 PKD
ROOT
HETATM    1  C   UNL     1     -11.724  14.098  64.871  1.00  0.00    -0.395 C  
HETATM    2  C   UNL     1     -12.311  12.700  64.940  1.00  0.00    -0.563 C  
ENDROOT
BRANCH   2   3
HETATM    3  C   UNL     1     -11.576  11.864  65.975  1.00  0.00    -0.296 C  
HETATM    4  C   UNL     1     -10.947  11.146  66.863  1.00  0.00    -0.333 C  
HETATM    5  C   UNL     1     -10.213  10.311  67.899  1.00  0.00    -0.217 C  
HETATM    6  C   UNL     1     -10.655   8.853  67.729  1.00  0.00    -0.266 C  
HETATM    7  C   UNL     1      -8.678  10.657  67.872  1.00  0.00    -0.127 C  
HETATM    8  O   UNL     1      -8.052  11.198  65.591  1.00  0.00    -0.062 OA 
HETATM    9  C   UNL     1      -7.976   9.812  68.912  1.00  0.00    -0.092 C  
HETATM   10  C   UNL     1      -8.174   8.531  64.870  1.00  0.00    -0.165 C  
HETATM   11  O   UNL     1      -7.947  10.085  70.112  1.00  0.00    -0.179 OA 
HETATM   12  N   UNL     1      -7.450   8.630  68.467  1.00  0.00    -0.092 N  
HETATM   13  H   UNL     1      -6.929   8.074  69.145  1.00  0.00     0.000 HD 
HETATM   14  C   UNL     1      -7.555   8.122  67.202  1.00  0.00    -0.096 C  
HETATM   15  C   UNL     1      -8.170  10.349  66.474  1.00  0.00    -0.131 C  
HETATM   16  N   UNL     1      -7.990   8.995  66.231  1.00  0.00    -0.102 N  
HETATM   17  O   UNL     1      -7.282   6.941  67.005  1.00  0.00    -0.080 OA 
BRANCH   7  18
HETATM   18  C   UNL     1      -8.504  12.165  68.242  1.00  0.00    -0.176 C  
BRANCH  18  19
HETATM   19  C   UNL     1      -7.098  12.712  68.232  1.00  0.00    -0.105 C  
HETATM   20  C   UNL     1      -6.746  13.819  67.565  1.00  0.00    -0.131 C  
ENDBRANCH  18  19
ENDBRANCH   7  18
ENDBRANCH   2   3
TORSDOF 3
ENDMDL
MODEL      126
REMARK 921   NORMALIZED FREE ENERGY PREDICTED BY IDOCK:   -3.10 KCAL/MOL
REMARK 922        TOTAL FREE ENERGY PREDICTED BY IDOCK:   -3.73 KCAL/MOL
REMARK 923 INTER-LIGAND FREE ENERGY PREDICTED BY IDOCK:   -3.74 KCAL/MOL
REMARK 924 INTRA-LIGAND FREE ENERGY PREDICTED BY IDOCK:    0.01 KCAL/MOL
REMARK 927      BINDING AFFINITY PREDICTED BY RF-SCORE:    0.00 PKD
ROOT
HETATM    1  C   UNL     1     -13.172  11.631  71.801  1.00  0.00    -0.438 C  
HETATM    2  C   UNL     1     -12.251  12.062  70.674  1.00  0.00    -0.409 C  
ENDROOT
BRANCH   2   3
HETATM    3  C   UNL     1     -11.470  10.873  70.140  1.00  0.00    -0.405 C  
HETATM    4  C   UNL     1     -10.801   9.852  69.680  1.00  0.00    -0.281 C  
HETATM    5  C   UNL     1     -10.020   8.663  69.146  1.00  0.00    -0.193 C  
HETATM    6  C   UNL     1     -10.571   8.322  67.757  1.00  0.00    -0.236 C  
HETATM    7  C   UNL     1      -8.478   8.915  69.322  1.00  0.00    -0.121 C  
HETATM    8  O   UNL     1      -8.054  11.290  69.060  1.00  0.00    -0.127 OA 
HETATM    9  C   UNL     1      -7.729   7.717  68.783  1.00  0.00    -0.118 C  
HETATM   10  C   UNL     1      -8.420  11.107  66.325  1.00  0.00    -0.168 C  
HETATM   11  O   UNL     1      -7.560   6.673  69.414  1.00  0.00    -0.092 OA 
HETATM   12  N   UNL     1      -7.329   7.798  67.477  1.00  0.00    -0.090 N  
HETATM   13  H   UNL     1      -6.778   7.019  67.115  1.00  0.00     0.000 HD 
HETATM   14  C   UNL     1      -7.594   8.821  66.611  1.00  0.00    -0.089 C  
HETATM   15  C   UNL     1      -8.136  10.176  68.545  1.00  0.00    -0.106 C  
HETATM   16  N   UNL     1      -8.068   9.985  67.172  1.00  0.00    -0.116 N  
HETATM   17  O   UNL     1      -7.419   8.650  65.407  1.00  0.00    -0.083 OA 
BRANCH   7  18
HETATM   18  C   UNL     1      -8.170   9.062  70.846  1.00  0.00    -0.222 C  
BRANCH  18  19
HETATM   19  C   UNL     1      -9.163   8.453  71.805  1.00  0.00    -0.287 C  
HETATM   20  C   UNL     1      -8.899   7.367  72.543  1.00  0.00    -0.159 C  
ENDBRANCH  18  19
ENDBRANCH   7  18
ENDBRANCH   2   3
TORSDOF 3
ENDMDL
MODEL      127
REMARK 921   NORMALIZED FREE ENERGY PREDICTED BY IDOCK:   -3.10 KCAL/MOL
REMARK 922        TOTAL FREE ENERGY PREDICTED BY IDOCK:   -3.72 KCAL/MOL
REMARK 923 INTER-LIGAND FREE ENERGY PREDICTED BY IDOCK:   -3.70 KCAL/MOL
REMARK 924 INTRA-LIGAND FREE ENERGY PREDICTED BY IDOCK:   -0.02 KCAL/MOL
REMARK 927      BINDING AFFINITY PREDICTED BY RF-SCORE:    0.00 PKD
ROOT
HETATM    1  C   UNL     1      -9.665   1.750  70.891  1.00  0.00    -0.143 C  
HETATM    2  C   UNL     1      -8.653   2.281  69.892  1.00  0.00    -0.100 C  
ENDROOT
BRANCH   2   3
HETATM    3  C   UNL     1      -8.771   3.791  69.765  1.00  0.00    -0.127 C  
HETATM    4  C   UNL     1      -8.872   5.087  69.657  1.00  0.00    -0.121 C  
HETATM    5  C   UNL     1      -8.991   6.596  69.530  1.00  0.00    -0.138 C  
HETATM    6  C   UNL     1      -7.641   7.137  69.046  1.00  0.00    -0.100 C  
HETATM    7  C   UNL     1     -10.297   6.963  68.734  1.00  0.00    -0.200 C  
HETATM    8  O   UNL     1     -10.700   5.234  67.081  1.00  0.00    -0.206 OA 
HETATM    9  C   UNL     1     -10.388   8.469  68.625  1.00  0.00    -0.198 C  
HETATM   10  C   UNL     1      -8.637   6.186  65.504  1.00  0.00    -0.130 C  
HETATM   11  O   UNL     1     -10.812   9.197  69.523  1.00  0.00    -0.231 OA 
HETATM   12  N   UNL     1      -9.855   9.021  67.492  1.00  0.00    -0.168 N  
HETATM   13  H   UNL     1      -9.954  10.030  67.381  1.00  0.00     0.000 HD 
HETATM   14  C   UNL     1      -9.203   8.352  66.495  1.00  0.00    -0.189 C  
HETATM   15  C   UNL     1     -10.187   6.316  67.364  1.00  0.00    -0.180 C  
HETATM   16  N   UNL     1      -9.331   6.981  66.498  1.00  0.00    -0.165 N  
HETATM   17  O   UNL     1      -8.539   8.987  65.679  1.00  0.00    -0.146 OA 
BRANCH   7  18
HETATM   18  C   UNL     1     -11.530   6.438  69.536  1.00  0.00    -0.412 C  
BRANCH  18  19
HETATM   19  C   UNL     1     -11.393   6.378  71.038  1.00  0.00    -0.386 C  
HETATM   20  C   UNL     1     -12.141   7.111  71.873  1.00  0.00    -0.357 C  
ENDBRANCH  18  19
ENDBRANCH   7  18
ENDBRANCH   2   3
TORSDOF 3
ENDMDL
MODEL      128
REMARK 921   NORMALIZED FREE ENERGY PREDICTED BY IDOCK:   -3.07 KCAL/MOL
REMARK 922        TOTAL FREE ENERGY PREDICTED BY IDOCK:   -3.69 KCAL/MOL
REMARK 923 INTER-LIGAND FREE ENERGY PREDICTED BY IDOCK:   -3.57 KCAL/MOL
REMARK 924 INTRA-LIGAND FREE ENERGY PREDICTED BY IDOCK:   -0.13 KCAL/MOL
REMARK 927      BINDING AFFINITY PREDICTED BY RF-SCORE:    0.00 PKD
ROOT
HETATM    1  C   UNL     1      -9.011   5.952  65.991  1.00  0.00    -0.159 C  
HETATM    2  C   UNL     1      -7.766   6.713  66.412  1.00  0.00    -0.102 C  
ENDROOT
BRANCH   2   3
HETATM    3  C   UNL     1      -7.967   7.349  67.777  1.00  0.00    -0.118 C  
HETATM    4  C   UNL     1      -8.140   7.896  68.949  1.00  0.00    -0.125 C  
HETATM    5  C   UNL     1      -8.341   8.532  70.314  1.00  0.00    -0.125 C  
HETATM    6  C   UNL     1      -9.506   9.523  70.207  1.00  0.00    -0.307 C  
HETATM    7  C   UNL     1      -8.380   7.416  71.422  1.00  0.00    -0.112 C  
HETATM    8  O   UNL     1      -9.400   5.429  70.474  1.00  0.00    -0.149 OA 
HETATM    9  C   UNL     1      -8.581   8.079  72.767  1.00  0.00    -0.192 C  
HETATM   10  C   UNL     1     -11.904   6.600  70.580  1.00  0.00    -0.370 C  
HETATM   11  O   UNL     1      -7.672   8.597  73.418  1.00  0.00    -0.383 OA 
HETATM   12  N   UNL     1      -9.875   8.184  73.196  1.00  0.00    -0.260 N  
HETATM   13  H   UNL     1     -10.022   8.583  74.124  1.00  0.00     0.000 HD 
HETATM   14  C   UNL     1     -10.991   7.808  72.503  1.00  0.00    -0.338 C  
HETATM   15  C   UNL     1      -9.536   6.488  71.086  1.00  0.00    -0.167 C  
HETATM   16  N   UNL     1     -10.782   7.011  71.401  1.00  0.00    -0.219 N  
HETATM   17  O   UNL     1     -12.092   8.204  72.877  1.00  0.00    -0.278 OA 
BRANCH   7  18
HETATM   18  C   UNL     1      -7.008   6.671  71.423  1.00  0.00    -0.075 C  
BRANCH  18  19
HETATM   19  C   UNL     1      -6.769   5.682  72.539  1.00  0.00    -0.072 C  
HETATM   20  C   UNL     1      -6.149   4.508  72.359  1.00  0.00    -0.017 C  
ENDBRANCH  18  19
ENDBRANCH   7  18
ENDBRANCH   2   3
TORSDOF 3
ENDMDL
MODEL      129
REMARK 921   NORMALIZED FREE ENERGY PREDICTED BY IDOCK:   -3.07 KCAL/MOL
REMARK 922        TOTAL FREE ENERGY PREDICTED BY IDOCK:   -3.69 KCAL/MOL
REMARK 923 INTER-LIGAND FREE ENERGY PREDICTED BY IDOCK:   -3.56 KCAL/MOL
REMARK 924 INTRA-LIGAND FREE ENERGY PREDICTED BY IDOCK:   -0.14 KCAL/MOL
REMARK 927      BINDING AFFINITY PREDICTED BY RF-SCORE:    0.00 PKD
ROOT
HETATM    1  C   UNL     1     -12.282  11.745  70.688  1.00  0.00    -0.443 C  
HETATM    2  C   UNL     1     -12.014  12.446  69.368  1.00  0.00    -0.319 C  
ENDROOT
BRANCH   2   3
HETATM    3  C   UNL     1     -10.730  11.929  68.741  1.00  0.00    -0.257 C  
HETATM    4  C   UNL     1      -9.627  11.486  68.204  1.00  0.00    -0.187 C  
HETATM    5  C   UNL     1      -8.343  10.969  67.577  1.00  0.00    -0.118 C  
HETATM    6  C   UNL     1      -7.474  10.383  68.696  1.00  0.00    -0.088 C  
HETATM    7  C   UNL     1      -8.681  10.084  66.322  1.00  0.00    -0.148 C  
HETATM    8  O   UNL     1     -10.776   8.931  66.736  1.00  0.00    -0.198 OA 
HETATM    9  C   UNL     1      -7.386   9.586  65.720  1.00  0.00    -0.097 C  
HETATM   10  C   UNL     1      -9.532   7.195  68.494  1.00  0.00    -0.139 C  
HETATM   11  O   UNL     1      -6.675  10.257  64.971  1.00  0.00    -0.125 OA 
HETATM   12  N   UNL     1      -6.961   8.357  66.146  1.00  0.00    -0.071 N  
HETATM   13  H   UNL     1      -6.116   7.986  65.712  1.00  0.00     0.000 HD 
HETATM   14  C   UNL     1      -7.559   7.579  67.098  1.00  0.00    -0.107 C  
HETATM   15  C   UNL     1      -9.547   8.931  66.803  1.00  0.00    -0.202 C  
HETATM   16  N   UNL     1      -8.837   7.937  67.460  1.00  0.00    -0.128 N  
HETATM   17  O   UNL     1      -6.936   6.637  67.581  1.00  0.00    -0.077 OA 
BRANCH   7  18
HETATM   18  C   UNL     1      -9.418  10.975  65.271  1.00  0.00    -0.259 C  
BRANCH  18  19
HETATM   19  C   UNL     1      -9.827  10.311  63.979  1.00  0.00    -0.286 C  
HETATM   20  C   UNL     1      -9.714  10.901  62.782  1.00  0.00    -0.307 C  
ENDBRANCH  18  19
ENDBRANCH   7  18
ENDBRANCH   2   3
TORSDOF 3
ENDMDL
MODEL      130
REMARK 921   NORMALIZED FREE ENERGY PREDICTED BY IDOCK:   -3.05 KCAL/MOL
REMARK 922        TOTAL FREE ENERGY PREDICTED BY IDOCK:   -3.66 KCAL/MOL
REMARK 923 INTER-LIGAND FREE ENERGY PREDICTED BY IDOCK:   -3.51 KCAL/MOL
REMARK 924 INTRA-LIGAND FREE ENERGY PREDICTED BY IDOCK:   -0.15 KCAL/MOL
REMARK 927      BINDING AFFINITY PREDICTED BY RF-SCORE:    0.00 PKD
ROOT
HETATM    1  C   UNL     1      -8.362   5.635  72.802  1.00  0.00    -0.120 C  
HETATM    2  C   UNL     1      -9.206   4.943  71.747  1.00  0.00    -0.175 C  
ENDROOT
BRANCH   2   3
HETATM    3  C   UNL     1      -9.287   5.790  70.489  1.00  0.00    -0.189 C  
HETATM    4  C   UNL     1      -9.358   6.518  69.408  1.00  0.00    -0.143 C  
HETATM    5  C   UNL     1      -9.439   7.366  68.150  1.00  0.00    -0.141 C  
HETATM    6  C   UNL     1     -10.885   7.323  67.645  1.00  0.00    -0.251 C  
HETATM    7  C   UNL     1      -8.752   8.758  68.400  1.00  0.00    -0.135 C  
HETATM    8  O   UNL     1      -9.110   9.386  70.717  1.00  0.00    -0.245 OA 
HETATM    9  C   UNL     1      -8.848   9.578  67.132  1.00  0.00    -0.131 C  
HETATM   10  C   UNL     1     -11.755  10.002  70.195  1.00  0.00    -0.215 C  
HETATM   11  O   UNL     1      -8.085   9.450  66.174  1.00  0.00    -0.109 OA 
HETATM   12  N   UNL     1      -9.923  10.418  67.043  1.00  0.00    -0.198 N  
HETATM   13  H   UNL     1      -9.974  11.014  66.216  1.00  0.00     0.000 HD 
HETATM   14  C   UNL     1     -10.937  10.537  67.952  1.00  0.00    -0.295 C  
HETATM   15  C   UNL     1      -9.491   9.426  69.547  1.00  0.00    -0.180 C  
HETATM   16  N   UNL     1     -10.718   9.964  69.184  1.00  0.00    -0.217 N  
HETATM   17  O   UNL     1     -11.970  11.116  67.627  1.00  0.00    -0.613 OA 
BRANCH   7  18
HETATM   18  C   UNL     1      -7.245   8.515  68.734  1.00  0.00    -0.078 C  
BRANCH  18  19
HETATM   19  C   UNL     1      -6.418   9.729  69.082  1.00  0.00    -0.044 C  
HETATM   20  C   UNL     1      -5.374  10.140  68.350  1.00  0.00    -0.035 C  
ENDBRANCH  18  19
ENDBRANCH   7  18
ENDBRANCH   2   3
TORSDOF 3
ENDMDL
MODEL      131
REMARK 921   NORMALIZED FREE ENERGY PREDICTED BY IDOCK:   -3.04 KCAL/MOL
REMARK 922        TOTAL FREE ENERGY PREDICTED BY IDOCK:   -3.66 KCAL/MOL
REMARK 923 INTER-LIGAND FREE ENERGY PREDICTED BY IDOCK:   -3.59 KCAL/MOL
REMARK 924 INTRA-LIGAND FREE ENERGY PREDICTED BY IDOCK:   -0.07 KCAL/MOL
REMARK 927      BINDING AFFINITY PREDICTED BY RF-SCORE:    0.00 PKD
ROOT
HETATM    1  C   UNL     1     -11.482   5.715  72.584  1.00  0.00    -0.339 C  
HETATM    2  C   UNL     1     -10.574   5.538  71.380  1.00  0.00    -0.310 C  
ENDROOT
BRANCH   2   3
HETATM    3  C   UNL     1     -10.630   6.765  70.485  1.00  0.00    -0.260 C  
HETATM    4  C   UNL     1     -10.680   7.819  69.718  1.00  0.00    -0.236 C  
HETATM    5  C   UNL     1     -10.737   9.045  68.823  1.00  0.00    -0.140 C  
HETATM    6  C   UNL     1     -10.846  10.282  69.723  1.00  0.00    -0.332 C  
HETATM    7  C   UNL     1      -9.590   8.975  67.749  1.00  0.00    -0.178 C  
HETATM    8  O   UNL     1      -7.672   7.872  68.744  1.00  0.00    -0.107 OA 
HETATM    9  C   UNL     1      -9.672  10.207  66.875  1.00  0.00    -0.187 C  
HETATM   10  C   UNL     1      -7.085  10.124  70.239  1.00  0.00    -0.138 C  
HETATM   11  O   UNL     1     -10.455  10.327  65.932  1.00  0.00    -0.195 OA 
HETATM   12  N   UNL     1      -8.894  11.265  67.256  1.00  0.00    -0.148 N  
HETATM   13  H   UNL     1      -8.901  12.084  66.648  1.00  0.00     0.000 HD 
HETATM   14  C   UNL     1      -8.109  11.333  68.372  1.00  0.00    -0.143 C  
HETATM   15  C   UNL     1      -8.270   8.919  68.501  1.00  0.00    -0.116 C  
HETATM   16  N   UNL     1      -7.871  10.142  69.020  1.00  0.00    -0.098 N  
HETATM   17  O   UNL     1      -7.682  12.423  68.742  1.00  0.00    -0.097 OA 
BRANCH   7  18
HETATM   18  C   UNL     1      -9.817   7.709  66.863  1.00  0.00    -0.304 C  
BRANCH  18  19
HETATM   19  C   UNL     1      -8.711   7.338  65.905  1.00  0.00    -0.150 C  
HETATM   20  C   UNL     1      -8.578   6.115  65.375  1.00  0.00    -0.111 C  
ENDBRANCH  18  19
ENDBRANCH   7  18
ENDBRANCH   2   3
TORSDOF 3
ENDMDL
MODEL      132
REMARK 921   NORMALIZED FREE ENERGY PREDICTED BY IDOCK:   -3.04 KCAL/MOL
REMARK 922        TOTAL FREE ENERGY PREDICTED BY IDOCK:   -3.65 KCAL/MOL
REMARK 923 INTER-LIGAND FREE ENERGY PREDICTED BY IDOCK:   -3.56 KCAL/MOL
REMARK 924 INTRA-LIGAND FREE ENERGY PREDICTED BY IDOCK:   -0.10 KCAL/MOL
REMARK 927      BINDING AFFINITY PREDICTED BY RF-SCORE:    0.00 PKD
ROOT
HETATM    1  C   UNL     1      -9.755   4.269  69.978  1.00  0.00    -0.287 C  
HETATM    2  C   UNL     1      -8.714   4.712  68.966  1.00  0.00    -0.108 C  
ENDROOT
BRANCH   2   3
HETATM    3  C   UNL     1      -8.914   6.173  68.600  1.00  0.00    -0.126 C  
HETATM    4  C   UNL     1      -9.087   7.428  68.285  1.00  0.00    -0.128 C  
HETATM    5  C   UNL     1      -9.287   8.889  67.920  1.00  0.00    -0.155 C  
HETATM    6  C   UNL     1     -10.727   9.057  67.421  1.00  0.00    -0.231 C  
HETATM    7  C   UNL     1      -8.764   9.806  69.085  1.00  0.00    -0.155 C  
HETATM    8  O   UNL     1      -9.155   8.670  71.193  1.00  0.00    -0.170 OA 
HETATM    9  C   UNL     1      -8.976  11.252  68.692  1.00  0.00    -0.147 C  
HETATM   10  C   UNL     1     -11.863   9.214  71.044  1.00  0.00    -0.292 C  
HETATM   11  O   UNL     1      -8.219  11.879  67.950  1.00  0.00    -0.133 OA 
HETATM   12  N   UNL     1     -10.144  11.823  69.117  1.00  0.00    -0.417 N  
HETATM   13  H   UNL     1     -10.278  12.811  68.904  1.00  0.00     0.000 HD 
HETATM   14  C   UNL     1     -11.149  11.198  69.801  1.00  0.00    -0.202 C  
HETATM   15  C   UNL     1      -9.558   9.450  70.331  1.00  0.00    -0.266 C  
HETATM   16  N   UNL     1     -10.845   9.970  70.341  1.00  0.00    -0.303 N  
HETATM   17  O   UNL     1     -12.248  11.740  69.881  1.00  0.00    -0.277 OA 
BRANCH   7  18
HETATM   18  C   UNL     1      -7.234   9.550  69.269  1.00  0.00    -0.063 C  
BRANCH  18  19
HETATM   19  C   UNL     1      -6.432   9.281  68.019  1.00  0.00    -0.059 C  
HETATM   20  C   UNL     1      -5.461   8.360  67.954  1.00  0.00    -0.035 C  
ENDBRANCH  18  19
ENDBRANCH   7  18
ENDBRANCH   2   3
TORSDOF 3
ENDMDL
MODEL      133
REMARK 921   NORMALIZED FREE ENERGY PREDICTED BY IDOCK:   -3.02 KCAL/MOL
REMARK 922        TOTAL FREE ENERGY PREDICTED BY IDOCK:   -3.63 KCAL/MOL
REMARK 923 INTER-LIGAND FREE ENERGY PREDICTED BY IDOCK:   -3.65 KCAL/MOL
REMARK 924 INTRA-LIGAND FREE ENERGY PREDICTED BY IDOCK:    0.02 KCAL/MOL
REMARK 927      BINDING AFFINITY PREDICTED BY RF-SCORE:    0.00 PKD
ROOT
HETATM    1  C   UNL     1      -6.674  15.671  68.545  1.00  0.00    -0.114 C  
HETATM    2  C   UNL     1      -7.557  14.986  67.517  1.00  0.00    -0.216 C  
ENDROOT
BRANCH   2   3
HETATM    3  C   UNL     1      -7.600  13.488  67.766  1.00  0.00    -0.163 C  
HETATM    4  C   UNL     1      -7.638  12.202  67.980  1.00  0.00    -0.123 C  
HETATM    5  C   UNL     1      -7.682  10.704  68.229  1.00  0.00    -0.107 C  
HETATM    6  C   UNL     1      -7.615  10.474  69.743  1.00  0.00    -0.102 C  
HETATM    7  C   UNL     1      -8.857  10.060  67.405  1.00  0.00    -0.132 C  
HETATM    8  O   UNL     1     -10.674  11.664  67.279  1.00  0.00    -0.217 OA 
HETATM    9  C   UNL     1      -8.875   8.572  67.672  1.00  0.00    -0.136 C  
HETATM   10  C   UNL     1     -11.341  11.193  69.922  1.00  0.00    -0.268 C  
HETATM   11  O   UNL     1      -8.131   7.766  67.111  1.00  0.00    -0.114 OA 
HETATM   12  N   UNL     1      -9.700   8.154  68.679  1.00  0.00    -0.150 N  
HETATM   13  H   UNL     1      -9.761   7.148  68.837  1.00  0.00     0.000 HD 
HETATM   14  C   UNL     1     -10.451   8.953  69.495  1.00  0.00    -0.226 C  
HETATM   15  C   UNL     1     -10.145  10.720  67.867  1.00  0.00    -0.172 C  
HETATM   16  N   UNL     1     -10.599  10.262  69.095  1.00  0.00    -0.215 N  
HETATM   17  O   UNL     1     -10.928   8.482  70.524  1.00  0.00    -0.236 OA 
BRANCH   7  18
HETATM   18  C   UNL     1      -8.585  10.300  65.885  1.00  0.00    -0.160 C  
BRANCH  18  19
HETATM   19  C   UNL     1      -9.730  10.037  64.937  1.00  0.00    -0.377 C  
HETATM   20  C   UNL     1     -10.203  10.956  64.084  1.00  0.00    -0.424 C  
ENDBRANCH  18  19
ENDBRANCH   7  18
ENDBRANCH   2   3
TORSDOF 3
ENDMDL
MODEL      134
REMARK 921   NORMALIZED FREE ENERGY PREDICTED BY IDOCK:   -3.02 KCAL/MOL
REMARK 922        TOTAL FREE ENERGY PREDICTED BY IDOCK:   -3.62 KCAL/MOL
REMARK 923 INTER-LIGAND FREE ENERGY PREDICTED BY IDOCK:   -3.67 KCAL/MOL
REMARK 924 INTRA-LIGAND FREE ENERGY PREDICTED BY IDOCK:    0.05 KCAL/MOL
REMARK 927      BINDING AFFINITY PREDICTED BY RF-SCORE:    0.00 PKD
ROOT
HETATM    1  C   UNL     1      -5.845   4.731  68.240  1.00  0.00    -0.025 C  
HETATM    2  C   UNL     1      -5.520   4.496  69.705  1.00  0.00    -0.008 C  
ENDROOT
BRANCH   2   3
HETATM    3  C   UNL     1      -6.484   5.262  70.595  1.00  0.00    -0.027 C  
HETATM    4  C   UNL     1      -7.311   5.921  71.358  1.00  0.00    -0.084 C  
HETATM    5  C   UNL     1      -8.275   6.687  72.248  1.00  0.00    -0.104 C  
HETATM    6  C   UNL     1      -8.315   8.140  71.761  1.00  0.00    -0.181 C  
HETATM    7  C   UNL     1      -9.622   5.886  72.389  1.00  0.00    -0.168 C  
HETATM    8  O   UNL     1     -10.037   4.709  70.308  1.00  0.00    -0.239 OA 
HETATM    9  C   UNL     1     -10.559   6.672  73.279  1.00  0.00    -0.291 C  
HETATM   10  C   UNL     1     -10.760   7.068  69.058  1.00  0.00    -0.210 C  
HETATM   11  O   UNL     1     -10.504   6.663  74.510  1.00  0.00    -0.254 OA 
HETATM   12  N   UNL     1     -11.429   7.511  72.640  1.00  0.00    -0.452 N  
HETATM   13  H   UNL     1     -12.101   8.009  73.224  1.00  0.00     0.000 HD 
HETATM   14  C   UNL     1     -11.485   7.748  71.295  1.00  0.00    -0.269 C  
HETATM   15  C   UNL     1     -10.196   5.720  70.992  1.00  0.00    -0.217 C  
HETATM   16  N   UNL     1     -10.794   6.868  70.494  1.00  0.00    -0.242 N  
HETATM   17  O   UNL     1     -12.116   8.717  70.882  1.00  0.00    -0.264 OA 
BRANCH   7  18
HETATM   18  C   UNL     1      -9.313   4.512  73.066  1.00  0.00    -0.138 C  
BRANCH  18  19
HETATM   19  C   UNL     1     -10.329   3.412  72.873  1.00  0.00    -0.248 C  
HETATM   20  C   UNL     1     -11.239   3.083  73.799  1.00  0.00    -0.250 C  
ENDBRANCH  18  19
ENDBRANCH   7  18
ENDBRANCH   2   3
TORSDOF 3
ENDMDL
MODEL      135
REMARK 921   NORMALIZED FREE ENERGY PREDICTED BY IDOCK:   -2.98 KCAL/MOL
REMARK 922        TOTAL FREE ENERGY PREDICTED BY IDOCK:   -3.58 KCAL/MOL
REMARK 923 INTER-LIGAND FREE ENERGY PREDICTED BY IDOCK:   -3.89 KCAL/MOL
REMARK 924 INTRA-LIGAND FREE ENERGY PREDICTED BY IDOCK:    0.31 KCAL/MOL
REMARK 927      BINDING AFFINITY PREDICTED BY RF-SCORE:    0.00 PKD
ROOT
HETATM    1  C   UNL     1     -12.328  15.484  72.657  1.00  0.00    -0.512 C  
HETATM    2  C   UNL     1     -13.040  14.966  71.420  1.00  0.00    -0.441 C  
ENDROOT
BRANCH   2   3
HETATM    3  C   UNL     1     -12.122  15.030  70.211  1.00  0.00    -0.378 C  
HETATM    4  C   UNL     1     -11.335  15.084  69.172  1.00  0.00    -0.311 C  
HETATM    5  C   UNL     1     -10.417  15.148  67.963  1.00  0.00    -0.247 C  
HETATM    6  C   UNL     1     -11.264  15.546  66.748  1.00  0.00    -0.139 C  
HETATM    7  C   UNL     1      -9.132  15.985  68.312  1.00  0.00    -0.191 C  
HETATM    8  O   UNL     1      -9.755  17.731  69.878  1.00  0.00     0.569 OA 
HETATM    9  C   UNL     1      -8.240  16.030  67.092  1.00  0.00    -0.195 C  
HETATM   10  C   UNL     1     -10.991  19.168  67.864  1.00  0.00    -0.088 C  
HETATM   11  O   UNL     1      -7.476  15.120  66.767  1.00  0.00    -0.050 OA 
HETATM   12  N   UNL     1      -8.402  17.112  66.271  1.00  0.00    -0.274 N  
HETATM   13  H   UNL     1      -7.773  17.182  65.471  1.00  0.00     0.000 HD 
HETATM   14  C   UNL     1      -9.327  18.108  66.417  1.00  0.00    -0.265 C  
HETATM   15  C   UNL     1      -9.594  17.376  68.710  1.00  0.00    -0.267 C  
HETATM   16  N   UNL     1      -9.963  18.172  67.635  1.00  0.00    -0.322 N  
HETATM   17  O   UNL     1      -9.550  18.863  65.474  1.00  0.00    -0.199 OA 
BRANCH   7  18
HETATM   18  C   UNL     1      -8.371  15.264  69.470  1.00  0.00    -0.190 C  
BRANCH  18  19
HETATM   19  C   UNL     1      -6.871  15.428  69.508  1.00  0.00    -0.181 C  
HETATM   20  C   UNL     1      -6.266  16.593  69.772  1.00  0.00    -0.209 C  
ENDBRANCH  18  19
ENDBRANCH   7  18
ENDBRANCH   2   3
TORSDOF 3
ENDMDL
MODEL      136
REMARK 921   NORMALIZED FREE ENERGY PREDICTED BY IDOCK:   -2.96 KCAL/MOL
REMARK 922        TOTAL FREE ENERGY PREDICTED BY IDOCK:   -3.56 KCAL/MOL
REMARK 923 INTER-LIGAND FREE ENERGY PREDICTED BY IDOCK:   -3.71 KCAL/MOL
REMARK 924 INTRA-LIGAND FREE ENERGY PREDICTED BY IDOCK:    0.15 KCAL/MOL
REMARK 927      BINDING AFFINITY PREDICTED BY RF-SCORE:    0.00 PKD
ROOT
HETATM    1  C   UNL     1     -10.594  16.922  67.590  1.00  0.00    -0.325 C  
HETATM    2  C   UNL     1     -10.416  15.792  66.592  1.00  0.00    -0.302 C  
ENDROOT
BRANCH   2   3
HETATM    3  C   UNL     1     -10.415  14.449  67.303  1.00  0.00    -0.269 C  
HETATM    4  C   UNL     1     -10.415  13.296  67.913  1.00  0.00    -0.244 C  
HETATM    5  C   UNL     1     -10.413  11.953  68.624  1.00  0.00    -0.231 C  
HETATM    6  C   UNL     1     -11.740  11.252  68.312  1.00  0.00    -0.344 C  
HETATM    7  C   UNL     1      -9.061  11.201  68.341  1.00  0.00    -0.168 C  
HETATM    8  O   UNL     1      -8.321  11.769  66.100  1.00  0.00    -0.055 OA 
HETATM    9  C   UNL     1      -9.089   9.871  69.061  1.00  0.00    -0.164 C  
HETATM   10  C   UNL     1     -10.265  10.143  64.991  1.00  0.00    -0.133 C  
HETATM   11  O   UNL     1      -8.836   9.734  70.258  1.00  0.00    -0.225 OA 
HETATM   12  N   UNL     1      -9.534   8.804  68.329  1.00  0.00    -0.140 N  
HETATM   13  H   UNL     1      -9.510   7.892  68.785  1.00  0.00     0.000 HD 
HETATM   14  C   UNL     1     -10.006   8.841  67.047  1.00  0.00    -0.240 C  
HETATM   15  C   UNL     1      -8.956  11.014  66.837  1.00  0.00    -0.157 C  
HETATM   16  N   UNL     1      -9.761   9.997  66.343  1.00  0.00    -0.198 N  
HETATM   17  O   UNL     1     -10.624   7.875  66.607  1.00  0.00    -0.276 OA 
BRANCH   7  18
HETATM   18  C   UNL     1      -7.887  12.061  68.910  1.00  0.00     0.042 C  
BRANCH  18  19
HETATM   19  C   UNL     1      -6.645  11.320  69.341  1.00  0.00    -0.116 C  
HETATM   20  C   UNL     1      -5.788  11.794  70.255  1.00  0.00    -0.163 C  
ENDBRANCH  18  19
ENDBRANCH   7  18
ENDBRANCH   2   3
TORSDOF 3
ENDMDL
MODEL      137
REMARK 921   NORMALIZED FREE ENERGY PREDICTED BY IDOCK:   -2.91 KCAL/MOL
REMARK 922        TOTAL FREE ENERGY PREDICTED BY IDOCK:   -3.50 KCAL/MOL
REMARK 923 INTER-LIGAND FREE ENERGY PREDICTED BY IDOCK:   -4.08 KCAL/MOL
REMARK 924 INTRA-LIGAND FREE ENERGY PREDICTED BY IDOCK:    0.57 KCAL/MOL
REMARK 927      BINDING AFFINITY PREDICTED BY RF-SCORE:    0.00 PKD
ROOT
HETATM    1  C   UNL     1      -7.124   7.099  64.988  1.00  0.00    -0.064 C  
HETATM    2  C   UNL     1      -6.327   7.228  66.275  1.00  0.00    -0.041 C  
ENDROOT
BRANCH   2   3
HETATM    3  C   UNL     1      -7.256   7.248  67.477  1.00  0.00    -0.090 C  
HETATM    4  C   UNL     1      -8.053   7.265  68.510  1.00  0.00    -0.125 C  
HETATM    5  C   UNL     1      -8.982   7.285  69.712  1.00  0.00    -0.142 C  
HETATM    6  C   UNL     1      -8.557   8.446  70.618  1.00  0.00    -0.150 C  
HETATM    7  C   UNL     1     -10.477   7.190  69.232  1.00  0.00    -0.220 C  
HETATM    8  O   UNL     1     -10.674   8.338  67.103  1.00  0.00    -0.302 OA 
HETATM    9  C   UNL     1     -11.375   7.211  70.449  1.00  0.00    -0.289 C  
HETATM   10  C   UNL     1     -10.501  10.799  68.355  1.00  0.00    -0.183 C  
HETATM   11  O   UNL     1     -11.608   6.223  71.146  1.00  0.00    -0.318 OA 
HETATM   12  N   UNL     1     -11.847   8.439  70.824  1.00  0.00    -0.447 N  
HETATM   13  H   UNL     1     -12.495   8.463  71.611  1.00  0.00     0.000 HD 
HETATM   14  C   UNL     1     -11.534   9.638  70.247  1.00  0.00    -0.233 C  
HETATM   15  C   UNL     1     -10.738   8.386  68.332  1.00  0.00    -0.023 C  
HETATM   16  N   UNL     1     -10.910   9.578  69.021  1.00  0.00    -0.198 N  
HETATM   17  O   UNL     1     -11.801  10.679  70.841  1.00  0.00    -0.332 OA 
BRANCH   7  18
HETATM   18  C   UNL     1     -10.672   5.835  68.481  1.00  0.00    -0.288 C  
BRANCH  18  19
HETATM   19  C   UNL     1     -10.935   5.908  66.996  1.00  0.00    -0.301 C  
HETATM   20  C   UNL     1     -10.519   4.975  66.130  1.00  0.00    -0.334 C  
ENDBRANCH  18  19
ENDBRANCH   7  18
ENDBRANCH   2   3
TORSDOF 3
ENDMDL
MODEL      138
REMARK 921   NORMALIZED FREE ENERGY PREDICTED BY IDOCK:   -2.91 KCAL/MOL
REMARK 922        TOTAL FREE ENERGY PREDICTED BY IDOCK:   -3.50 KCAL/MOL
REMARK 923 INTER-LIGAND FREE ENERGY PREDICTED BY IDOCK:   -3.39 KCAL/MOL
REMARK 924 INTRA-LIGAND FREE ENERGY PREDICTED BY IDOCK:   -0.11 KCAL/MOL
REMARK 927      BINDING AFFINITY PREDICTED BY RF-SCORE:    0.00 PKD
ROOT
HETATM    1  C   UNL     1     -12.699   8.714  72.070  1.00  0.00    -0.427 C  
HETATM    2  C   UNL     1     -12.954   7.264  71.698  1.00  0.00    -0.417 C  
ENDROOT
BRANCH   2   3
HETATM    3  C   UNL     1     -11.684   6.619  71.171  1.00  0.00    -0.399 C  
HETATM    4  C   UNL     1     -10.594   6.063  70.718  1.00  0.00    -0.316 C  
HETATM    5  C   UNL     1      -9.323   5.418  70.191  1.00  0.00    -0.193 C  
HETATM    6  C   UNL     1      -9.699   4.554  68.981  1.00  0.00    -0.235 C  
HETATM    7  C   UNL     1      -8.196   6.504  70.039  1.00  0.00    -0.130 C  
HETATM    8  O   UNL     1      -9.236   8.608  69.421  1.00  0.00    -0.148 OA 
HETATM    9  C   UNL     1      -6.947   5.832  69.514  1.00  0.00    -0.063 C  
HETATM   10  C   UNL     1      -9.671   7.696  66.846  1.00  0.00    -0.213 C  
HETATM   11  O   UNL     1      -6.155   5.209  70.222  1.00  0.00    -0.017 OA 
HETATM   12  N   UNL     1      -6.783   5.849  68.156  1.00  0.00    -0.055 N  
HETATM   13  H   UNL     1      -5.920   5.445  67.792  1.00  0.00     0.000 HD 
HETATM   14  C   UNL     1      -7.662   6.355  67.240  1.00  0.00    -0.100 C  
HETATM   15  C   UNL     1      -8.709   7.553  69.067  1.00  0.00    -0.136 C  
HETATM   16  N   UNL     1      -8.666   7.153  67.739  1.00  0.00    -0.126 N  
HETATM   17  O   UNL     1      -7.528   6.064  66.055  1.00  0.00    -0.082 OA 
BRANCH   7  18
HETATM   18  C   UNL     1      -7.895   7.106  71.449  1.00  0.00    -0.097 C  
BRANCH  18  19
HETATM   19  C   UNL     1      -7.965   6.161  72.624  1.00  0.00    -0.103 C  
HETATM   20  C   UNL     1      -8.475   6.506  73.813  1.00  0.00    -0.131 C  
ENDBRANCH  18  19
ENDBRANCH   7  18
ENDBRANCH   2   3
TORSDOF 3
ENDMDL
MODEL      139
REMARK 921   NORMALIZED FREE ENERGY PREDICTED BY IDOCK:   -2.88 KCAL/MOL
REMARK 922        TOTAL FREE ENERGY PREDICTED BY IDOCK:   -3.47 KCAL/MOL
REMARK 923 INTER-LIGAND FREE ENERGY PREDICTED BY IDOCK:   -3.33 KCAL/MOL
REMARK 924 INTRA-LIGAND FREE ENERGY PREDICTED BY IDOCK:   -0.13 KCAL/MOL
REMARK 927      BINDING AFFINITY PREDICTED BY RF-SCORE:    0.00 PKD
ROOT
HETATM    1  C   UNL     1      -9.902   9.904  65.697  1.00  0.00    -0.368 C  
HETATM    2  C   UNL     1     -10.560  10.493  66.933  1.00  0.00    -0.303 C  
ENDROOT
BRANCH   2   3
HETATM    3  C   UNL     1     -10.521   9.500  68.082  1.00  0.00    -0.268 C  
HETATM    4  C   UNL     1     -10.488   8.647  69.068  1.00  0.00    -0.216 C  
HETATM    5  C   UNL     1     -10.449   7.654  70.218  1.00  0.00    -0.224 C  
HETATM    6  C   UNL     1     -11.588   6.649  70.012  1.00  0.00    -0.423 C  
HETATM    7  C   UNL     1      -8.982   7.124  70.415  1.00  0.00    -0.155 C  
HETATM    8  O   UNL     1      -7.904   7.023  68.243  1.00  0.00    -0.114 OA 
HETATM    9  C   UNL     1      -8.975   6.140  71.563  1.00  0.00    -0.143 C  
HETATM   10  C   UNL     1      -9.367   4.776  67.563  1.00  0.00    -0.138 C  
HETATM   11  O   UNL     1      -8.941   6.471  72.749  1.00  0.00    -0.125 OA 
HETATM   12  N   UNL     1      -9.126   4.823  71.225  1.00  0.00    -0.134 N  
HETATM   13  H   UNL     1      -9.073   4.144  71.984  1.00  0.00     0.000 HD 
HETATM   14  C   UNL     1      -9.343   4.329  69.969  1.00  0.00    -0.164 C  
HETATM   15  C   UNL     1      -8.565   6.458  69.114  1.00  0.00    -0.125 C  
HETATM   16  N   UNL     1      -9.120   5.200  68.927  1.00  0.00    -0.104 N  
HETATM   17  O   UNL     1      -9.733   3.172  69.838  1.00  0.00    -0.124 OA 
BRANCH   7  18
HETATM   18  C   UNL     1      -8.062   8.333  70.777  1.00  0.00    -0.109 C  
BRANCH  18  19
HETATM   19  C   UNL     1      -6.602   8.034  71.017  1.00  0.00    -0.038 C  
HETATM   20  C   UNL     1      -5.835   8.744  71.855  1.00  0.00    -0.061 C  
ENDBRANCH  18  19
ENDBRANCH   7  18
ENDBRANCH   2   3
TORSDOF 3
ENDMDL
MODEL      140
REMARK 921   NORMALIZED FREE ENERGY PREDICTED BY IDOCK:   -2.87 KCAL/MOL
REMARK 922        TOTAL FREE ENERGY PREDICTED BY IDOCK:   -3.46 KCAL/MOL
REMARK 923 INTER-LIGAND FREE ENERGY PREDICTED BY IDOCK:   -3.33 KCAL/MOL
REMARK 924 INTRA-LIGAND FREE ENERGY PREDICTED BY IDOCK:   -0.13 KCAL/MOL
REMARK 927      BINDING AFFINITY PREDICTED BY RF-SCORE:    0.00 PKD
ROOT
HETATM    1  C   UNL     1      -7.592   2.711  67.916  1.00  0.00    -0.056 C  
HETATM    2  C   UNL     1      -8.536   3.785  67.404  1.00  0.00    -0.104 C  
ENDROOT
BRANCH   2   3
HETATM    3  C   UNL     1      -8.472   5.017  68.291  1.00  0.00    -0.098 C  
HETATM    4  C   UNL     1      -8.418   6.075  69.052  1.00  0.00    -0.117 C  
HETATM    5  C   UNL     1      -8.355   7.307  69.938  1.00  0.00    -0.135 C  
HETATM    6  C   UNL     1      -9.226   8.395  69.299  1.00  0.00    -0.154 C  
HETATM    7  C   UNL     1      -8.609   6.900  71.436  1.00  0.00    -0.119 C  
HETATM    8  O   UNL     1     -10.173   5.044  71.472  1.00  0.00    -0.198 OA 
HETATM    9  C   UNL     1      -8.540   8.145  72.293  1.00  0.00    -0.175 C  
HETATM   10  C   UNL     1     -12.272   6.733  70.846  1.00  0.00    -0.331 C  
HETATM   11  O   UNL     1      -7.486   8.651  72.681  1.00  0.00    -0.315 OA 
HETATM   12  N   UNL     1      -9.730   8.773  72.534  1.00  0.00    -0.185 N  
HETATM   13  H   UNL     1      -9.706   9.584  73.152  1.00  0.00     0.000 HD 
HETATM   14  C   UNL     1     -10.950   8.420  72.028  1.00  0.00    -0.323 C  
HETATM   15  C   UNL     1      -9.986   6.261  71.502  1.00  0.00    -0.184 C  
HETATM   16  N   UNL     1     -11.029   7.174  71.449  1.00  0.00    -0.232 N  
HETATM   17  O   UNL     1     -11.882   9.216  72.097  1.00  0.00    -0.345 OA 
BRANCH   7  18
HETATM   18  C   UNL     1      -7.482   5.915  71.880  1.00  0.00    -0.095 C  
BRANCH  18  19
HETATM   19  C   UNL     1      -7.394   5.595  73.353  1.00  0.00    -0.091 C  
HETATM   20  C   UNL     1      -7.379   4.345  73.834  1.00  0.00    -0.069 C  
ENDBRANCH  18  19
ENDBRANCH   7  18
ENDBRANCH   2   3
TORSDOF 3
ENDMDL
MODEL      141
REMARK 921   NORMALIZED FREE ENERGY PREDICTED BY IDOCK:   -2.79 KCAL/MOL
REMARK 922        TOTAL FREE ENERGY PREDICTED BY IDOCK:   -3.35 KCAL/MOL
REMARK 923 INTER-LIGAND FREE ENERGY PREDICTED BY IDOCK:   -3.24 KCAL/MOL
REMARK 924 INTRA-LIGAND FREE ENERGY PREDICTED BY IDOCK:   -0.12 KCAL/MOL
REMARK 927      BINDING AFFINITY PREDICTED BY RF-SCORE:    0.00 PKD
ROOT
HETATM    1  C   UNL     1     -11.789  12.573  64.663  1.00  0.00    -0.439 C  
HETATM    2  C   UNL     1     -11.036  11.574  63.803  1.00  0.00    -0.485 C  
ENDROOT
BRANCH   2   3
HETATM    3  C   UNL     1     -10.040  10.792  64.643  1.00  0.00    -0.410 C  
HETATM    4  C   UNL     1      -9.185  10.121  65.365  1.00  0.00    -0.249 C  
HETATM    5  C   UNL     1      -8.190   9.339  66.205  1.00  0.00    -0.111 C  
HETATM    6  C   UNL     1      -7.122  10.318  66.706  1.00  0.00    -0.094 C  
HETATM    7  C   UNL     1      -8.958   8.441  67.243  1.00  0.00    -0.142 C  
HETATM    8  O   UNL     1     -10.978   9.604  67.918  1.00  0.00    -0.243 OA 
HETATM    9  C   UNL     1      -7.942   7.676  68.063  1.00  0.00    -0.122 C  
HETATM   10  C   UNL     1      -9.510  11.360  69.471  1.00  0.00     0.671 C  
HETATM   11  O   UNL     1      -7.391   6.643  67.681  1.00  0.00    -0.090 OA 
HETATM   12  N   UNL     1      -7.563   8.258  69.241  1.00  0.00    -0.092 N  
HETATM   13  H   UNL     1      -6.917   7.730  69.828  1.00  0.00     0.000 HD 
HETATM   14  C   UNL     1      -7.963   9.479  69.708  1.00  0.00    -0.133 C  
HETATM   15  C   UNL     1      -9.786   9.369  68.116  1.00  0.00    -0.160 C  
HETATM   16  N   UNL     1      -9.044  10.047  69.073  1.00  0.00    -0.160 N  
HETATM   17  O   UNL     1      -7.345  10.001  70.631  1.00  0.00    -0.308 OA 
BRANCH   7  18
HETATM   18  C   UNL     1      -9.846   7.424  66.458  1.00  0.00    -0.209 C  
BRANCH  18  19
HETATM   19  C   UNL     1     -10.788   6.570  67.271  1.00  0.00    -0.463 C  
HETATM   20  C   UNL     1     -10.858   5.237  67.153  1.00  0.00     0.002 C  
ENDBRANCH  18  19
ENDBRANCH   7  18
ENDBRANCH   2   3
TORSDOF 3
ENDMDL
MODEL      142
REMARK 921   NORMALIZED FREE ENERGY PREDICTED BY IDOCK:   -2.77 KCAL/MOL
REMARK 922        TOTAL FREE ENERGY PREDICTED BY IDOCK:   -3.33 KCAL/MOL
REMARK 923 INTER-LIGAND FREE ENERGY PREDICTED BY IDOCK:   -3.29 KCAL/MOL
REMARK 924 INTRA-LIGAND FREE ENERGY PREDICTED BY IDOCK:   -0.05 KCAL/MOL
REMARK 927      BINDING AFFINITY PREDICTED BY RF-SCORE:    0.00 PKD
ROOT
HETATM    1  C   UNL     1      -8.469   4.769  66.193  1.00  0.00    -0.114 C  
HETATM    2  C   UNL     1      -9.538   3.906  66.838  1.00  0.00    -0.226 C  
ENDROOT
BRANCH   2   3
HETATM    3  C   UNL     1      -9.567   4.128  68.341  1.00  0.00    -0.190 C  
HETATM    4  C   UNL     1      -9.592   4.318  69.632  1.00  0.00    -0.275 C  
HETATM    5  C   UNL     1      -9.621   4.540  71.134  1.00  0.00    -0.245 C  
HETATM    6  C   UNL     1      -8.467   3.742  71.752  1.00  0.00    -0.102 C  
HETATM    7  C   UNL     1      -9.745   6.077  71.444  1.00  0.00    -0.189 C  
HETATM    8  O   UNL     1      -8.561   7.306  69.719  1.00  0.00    -0.138 OA 
HETATM    9  C   UNL     1      -9.772   6.265  72.945  1.00  0.00    -0.158 C  
HETATM   10  C   UNL     1      -6.122   6.576  70.801  1.00  0.00    -0.031 C  
HETATM   11  O   UNL     1     -10.779   6.114  73.637  1.00  0.00    -0.264 OA 
HETATM   12  N   UNL     1      -8.564   6.509  73.539  1.00  0.00    -0.122 N  
HETATM   13  H   UNL     1      -8.574   6.689  74.543  1.00  0.00     0.000 HD 
HETATM   14  C   UNL     1      -7.347   6.535  72.919  1.00  0.00    -0.086 C  
HETATM   15  C   UNL     1      -8.539   6.761  70.823  1.00  0.00    -0.141 C  
HETATM   16  N   UNL     1      -7.366   6.590  71.544  1.00  0.00    -0.086 N  
HETATM   17  O   UNL     1      -6.325   6.491  73.600  1.00  0.00    -0.064 OA 
BRANCH   7  18
HETATM   18  C   UNL     1     -11.090   6.596  70.843  1.00  0.00    -0.335 C  
BRANCH  18  19
HETATM   19  C   UNL     1     -11.274   8.093  70.773  1.00  0.00    -0.275 C  
HETATM   20  C   UNL     1     -12.411   8.710  71.123  1.00  0.00    -0.243 C  
ENDBRANCH  18  19
ENDBRANCH   7  18
ENDBRANCH   2   3
TORSDOF 3
ENDMDL
MODEL      143
REMARK 921   NORMALIZED FREE ENERGY PREDICTED BY IDOCK:   -2.73 KCAL/MOL
REMARK 922        TOTAL FREE ENERGY PREDICTED BY IDOCK:   -3.29 KCAL/MOL
REMARK 923 INTER-LIGAND FREE ENERGY PREDICTED BY IDOCK:   -3.17 KCAL/MOL
REMARK 924 INTRA-LIGAND FREE ENERGY PREDICTED BY IDOCK:   -0.11 KCAL/MOL
REMARK 927      BINDING AFFINITY PREDICTED BY RF-SCORE:    0.00 PKD
ROOT
HETATM    1  C   UNL     1      -9.934  10.938  68.499  1.00  0.00    -0.188 C  
HETATM    2  C   UNL     1     -10.677  10.234  67.378  1.00  0.00    -0.339 C  
ENDROOT
BRANCH   2   3
HETATM    3  C   UNL     1     -10.596   8.726  67.550  1.00  0.00    -0.298 C  
HETATM    4  C   UNL     1     -10.527   7.432  67.697  1.00  0.00    -0.310 C  
HETATM    5  C   UNL     1     -10.446   5.924  67.870  1.00  0.00    -0.297 C  
HETATM    6  C   UNL     1     -10.660   5.280  66.496  1.00  0.00    -0.348 C  
HETATM    7  C   UNL     1      -9.165   5.551  68.703  1.00  0.00    -0.140 C  
HETATM    8  O   UNL     1      -7.414   7.146  68.175  1.00  0.00    -0.094 OA 
HETATM    9  C   UNL     1      -9.112   4.047  68.858  1.00  0.00    -0.133 C  
HETATM   10  C   UNL     1      -7.007   5.962  65.708  1.00  0.00    -0.065 C  
HETATM   11  O   UNL     1      -9.758   3.422  69.699  1.00  0.00    -0.144 OA 
HETATM   12  N   UNL     1      -8.379   3.374  67.919  1.00  0.00    -0.083 N  
HETATM   13  H   UNL     1      -8.292   2.365  68.040  1.00  0.00     0.000 HD 
HETATM   14  C   UNL     1      -7.752   3.921  66.836  1.00  0.00    -0.085 C  
HETATM   15  C   UNL     1      -7.961   6.070  67.935  1.00  0.00    -0.106 C  
HETATM   16  N   UNL     1      -7.619   5.291  66.838  1.00  0.00    -0.088 N  
HETATM   17  O   UNL     1      -7.365   3.187  65.931  1.00  0.00    -0.069 OA 
BRANCH   7  18
HETATM   18  C   UNL     1      -9.286   6.203  70.117  1.00  0.00    -0.164 C  
BRANCH  18  19
HETATM   19  C   UNL     1      -8.168   5.929  71.094  1.00  0.00    -0.123 C  
HETATM   20  C   UNL     1      -8.142   6.424  72.338  1.00  0.00    -0.103 C  
ENDBRANCH  18  19
ENDBRANCH   7  18
ENDBRANCH   2   3
TORSDOF 3
ENDMDL
MODEL      144
REMARK 921   NORMALIZED FREE ENERGY PREDICTED BY IDOCK:   -2.70 KCAL/MOL
REMARK 922        TOTAL FREE ENERGY PREDICTED BY IDOCK:   -3.26 KCAL/MOL
REMARK 923 INTER-LIGAND FREE ENERGY PREDICTED BY IDOCK:   -3.12 KCAL/MOL
REMARK 924 INTRA-LIGAND FREE ENERGY PREDICTED BY IDOCK:   -0.14 KCAL/MOL
REMARK 927      BINDING AFFINITY PREDICTED BY RF-SCORE:    0.00 PKD
ROOT
HETATM    1  C   UNL     1     -10.692   3.966  64.370  1.00  0.00    -0.200 C  
HETATM    2  C   UNL     1      -9.531   3.284  65.071  1.00  0.00    -0.145 C  
ENDROOT
BRANCH   2   3
HETATM    3  C   UNL     1      -8.960   4.183  66.154  1.00  0.00    -0.126 C  
HETATM    4  C   UNL     1      -8.468   4.956  67.083  1.00  0.00    -0.105 C  
HETATM    5  C   UNL     1      -7.897   5.856  68.166  1.00  0.00    -0.105 C  
HETATM    6  C   UNL     1      -7.227   7.053  67.481  1.00  0.00    -0.090 C  
HETATM    7  C   UNL     1      -8.983   6.112  69.274  1.00  0.00    -0.123 C  
HETATM    8  O   UNL     1     -11.166   6.159  68.214  1.00  0.00    -0.323 OA 
HETATM    9  C   UNL     1      -8.386   7.009  70.336  1.00  0.00    -0.129 C  
HETATM   10  C   UNL     1     -10.654   8.661  67.152  1.00  0.00    -0.234 C  
HETATM   11  O   UNL     1      -7.656   6.605  71.242  1.00  0.00    -0.090 OA 
HETATM   12  N   UNL     1      -8.605   8.350  70.180  1.00  0.00    -0.128 N  
HETATM   13  H   UNL     1      -8.252   8.963  70.916  1.00  0.00     0.000 HD 
HETATM   14  C   UNL     1      -9.250   8.950  69.135  1.00  0.00    -0.144 C  
HETATM   15  C   UNL     1     -10.171   6.775  68.596  1.00  0.00    -0.175 C  
HETATM   16  N   UNL     1      -9.974   8.119  68.311  1.00  0.00    -0.180 N  
HETATM   17  O   UNL     1      -9.139  10.162  68.977  1.00  0.00    -0.153 OA 
BRANCH   7  18
HETATM   18  C   UNL     1      -9.364   4.743  69.922  1.00  0.00    -0.207 C  
BRANCH  18  19
HETATM   19  C   UNL     1     -10.252   4.788  71.142  1.00  0.00    -0.229 C  
HETATM   20  C   UNL     1     -10.014   4.072  72.249  1.00  0.00    -0.236 C  
ENDBRANCH  18  19
ENDBRANCH   7  18
ENDBRANCH   2   3
TORSDOF 3
ENDMDL
MODEL      145
REMARK 921   NORMALIZED FREE ENERGY PREDICTED BY IDOCK:   -2.70 KCAL/MOL
REMARK 922        TOTAL FREE ENERGY PREDICTED BY IDOCK:   -3.26 KCAL/MOL
REMARK 923 INTER-LIGAND FREE ENERGY PREDICTED BY IDOCK:   -3.14 KCAL/MOL
REMARK 924 INTRA-LIGAND FREE ENERGY PREDICTED BY IDOCK:   -0.12 KCAL/MOL
REMARK 927      BINDING AFFINITY PREDICTED BY RF-SCORE:    0.00 PKD
ROOT
HETATM    1  C   UNL     1     -12.754  10.332  71.949  1.00  0.00    -0.478 C  
HETATM    2  C   UNL     1     -13.081  11.787  71.664  1.00  0.00    -0.443 C  
ENDROOT
BRANCH   2   3
HETATM    3  C   UNL     1     -12.474  12.220  70.340  1.00  0.00    -0.221 C  
HETATM    4  C   UNL     1     -11.954  12.592  69.203  1.00  0.00    -0.287 C  
HETATM    5  C   UNL     1     -11.347  13.025  67.879  1.00  0.00    -0.327 C  
HETATM    6  C   UNL     1     -12.325  13.993  67.205  1.00  0.00    -0.234 C  
HETATM    7  C   UNL     1      -9.853  13.468  68.097  1.00  0.00    -0.237 C  
HETATM    8  O   UNL     1      -9.666  14.484  70.292  1.00  0.00     0.663 OA 
HETATM    9  C   UNL     1      -9.277  13.891  66.764  1.00  0.00    -0.254 C  
HETATM   10  C   UNL     1     -10.945  16.769  69.401  1.00  0.00    -0.176 C  
HETATM   11  O   UNL     1      -8.849  13.103  65.920  1.00  0.00     0.322 OA 
HETATM   12  N   UNL     1      -9.357  15.226  66.474  1.00  0.00    -0.260 N  
HETATM   13  H   UNL     1      -8.927  15.534  65.601  1.00  0.00     0.000 HD 
HETATM   14  C   UNL     1      -9.957  16.187  67.239  1.00  0.00    -0.248 C  
HETATM   15  C   UNL     1      -9.865  14.622  69.085  1.00  0.00    -0.124 C  
HETATM   16  N   UNL     1     -10.266  15.828  68.531  1.00  0.00    -0.212 N  
HETATM   17  O   UNL     1     -10.200  17.284  66.743  1.00  0.00    -0.301 OA 
BRANCH   7  18
HETATM   18  C   UNL     1      -9.046  12.242  68.632  1.00  0.00     0.013 C  
BRANCH  18  19
HETATM   19  C   UNL     1      -9.450  10.881  68.119  1.00  0.00    -0.167 C  
HETATM   20  C   UNL     1      -9.648   9.825  68.918  1.00  0.00    -0.167 C  
ENDBRANCH  18  19
ENDBRANCH   7  18
ENDBRANCH   2   3
TORSDOF 3
ENDMDL
MODEL      146
REMARK 921   NORMALIZED FREE ENERGY PREDICTED BY IDOCK:   -2.70 KCAL/MOL
REMARK 922        TOTAL FREE ENERGY PREDICTED BY IDOCK:   -3.25 KCAL/MOL
REMARK 923 INTER-LIGAND FREE ENERGY PREDICTED BY IDOCK:   -3.55 KCAL/MOL
REMARK 924 INTRA-LIGAND FREE ENERGY PREDICTED BY IDOCK:    0.30 KCAL/MOL
REMARK 927      BINDING AFFINITY PREDICTED BY RF-SCORE:    0.00 PKD
ROOT
HETATM    1  C   UNL     1     -12.368   9.088  72.061  1.00  0.00    -0.455 C  
HETATM    2  C   UNL     1     -11.235   8.117  72.340  1.00  0.00    -0.452 C  
ENDROOT
BRANCH   2   3
HETATM    3  C   UNL     1     -10.330   7.992  71.126  1.00  0.00    -0.229 C  
HETATM    4  C   UNL     1      -9.552   7.884  70.084  1.00  0.00    -0.175 C  
HETATM    5  C   UNL     1      -8.647   7.759  68.870  1.00  0.00    -0.132 C  
HETATM    6  C   UNL     1      -7.316   7.157  69.333  1.00  0.00    -0.090 C  
HETATM    7  C   UNL     1      -9.431   7.076  67.689  1.00  0.00    -0.134 C  
HETATM    8  O   UNL     1     -10.992   5.474  68.629  1.00  0.00    -0.131 OA 
HETATM    9  C   UNL     1      -8.506   6.966  66.497  1.00  0.00    -0.125 C  
HETATM   10  C   UNL     1      -8.931   3.720  69.199  1.00  0.00    -0.117 C  
HETATM   11  O   UNL     1      -8.278   7.893  65.719  1.00  0.00    -0.115 OA 
HETATM   12  N   UNL     1      -7.821   5.788  66.378  1.00  0.00    -0.100 N  
HETATM   13  H   UNL     1      -7.232   5.680  65.551  1.00  0.00     0.000 HD 
HETATM   14  C   UNL     1      -7.847   4.742  67.257  1.00  0.00    -0.094 C  
HETATM   15  C   UNL     1      -9.872   5.705  68.174  1.00  0.00    -0.137 C  
HETATM   16  N   UNL     1      -8.852   4.765  68.198  1.00  0.00    -0.103 N  
HETATM   17  O   UNL     1      -6.987   3.869  67.179  1.00  0.00    -0.060 OA 
BRANCH   7  18
HETATM   18  C   UNL     1     -10.643   7.984  67.308  1.00  0.00    -0.360 C  
BRANCH  18  19
HETATM   19  C   UNL     1     -10.570   9.432  67.726  1.00  0.00    -0.317 C  
HETATM   20  C   UNL     1      -9.833  10.346  67.081  1.00  0.00    -0.221 C  
ENDBRANCH  18  19
ENDBRANCH   7  18
ENDBRANCH   2   3
TORSDOF 3
ENDMDL
MODEL      147
REMARK 921   NORMALIZED FREE ENERGY PREDICTED BY IDOCK:   -2.68 KCAL/MOL
REMARK 922        TOTAL FREE ENERGY PREDICTED BY IDOCK:   -3.23 KCAL/MOL
REMARK 923 INTER-LIGAND FREE ENERGY PREDICTED BY IDOCK:   -3.12 KCAL/MOL
REMARK 924 INTRA-LIGAND FREE ENERGY PREDICTED BY IDOCK:   -0.11 KCAL/MOL
REMARK 927      BINDING AFFINITY PREDICTED BY RF-SCORE:    0.00 PKD
ROOT
HETATM    1  C   UNL     1     -12.492   8.431  72.037  1.00  0.00    -0.407 C  
HETATM    2  C   UNL     1     -12.701   7.156  71.239  1.00  0.00    -0.412 C  
ENDROOT
BRANCH   2   3
HETATM    3  C   UNL     1     -11.477   6.261  71.333  1.00  0.00    -0.352 C  
HETATM    4  C   UNL     1     -10.426   5.492  71.414  1.00  0.00    -0.305 C  
HETATM    5  C   UNL     1      -9.202   4.598  71.507  1.00  0.00    -0.186 C  
HETATM    6  C   UNL     1      -9.644   3.160  71.210  1.00  0.00    -0.229 C  
HETATM    7  C   UNL     1      -8.019   5.225  70.683  1.00  0.00    -0.103 C  
HETATM    8  O   UNL     1      -8.949   6.381  68.763  1.00  0.00    -0.127 OA 
HETATM    9  C   UNL     1      -6.816   4.314  70.796  1.00  0.00    -0.036 C  
HETATM   10  C   UNL     1      -9.473   3.976  67.503  1.00  0.00    -0.188 C  
HETATM   11  O   UNL     1      -6.050   4.307  71.760  1.00  0.00    -0.016 OA 
HETATM   12  N   UNL     1      -6.672   3.387  69.801  1.00  0.00    -0.033 N  
HETATM   13  H   UNL     1      -5.839   2.799  69.836  1.00  0.00     0.000 HD 
HETATM   14  C   UNL     1      -7.536   3.170  68.764  1.00  0.00    -0.048 C  
HETATM   15  C   UNL     1      -8.487   5.346  69.242  1.00  0.00    -0.099 C  
HETATM   16  N   UNL     1      -8.486   4.143  68.552  1.00  0.00    -0.090 N  
HETATM   17  O   UNL     1      -7.436   2.139  68.104  1.00  0.00    -0.050 OA 
BRANCH   7  18
HETATM   18  C   UNL     1      -7.663   6.613  71.304  1.00  0.00    -0.094 C  
BRANCH  18  19
HETATM   19  C   UNL     1      -7.843   6.760  72.796  1.00  0.00    -0.099 C  
HETATM   20  C   UNL     1      -8.529   7.765  73.357  1.00  0.00    -0.248 C  
ENDBRANCH  18  19
ENDBRANCH   7  18
ENDBRANCH   2   3
TORSDOF 3
ENDMDL
MODEL      148
REMARK 921   NORMALIZED FREE ENERGY PREDICTED BY IDOCK:   -2.67 KCAL/MOL
REMARK 922        TOTAL FREE ENERGY PREDICTED BY IDOCK:   -3.22 KCAL/MOL
REMARK 923 INTER-LIGAND FREE ENERGY PREDICTED BY IDOCK:   -3.16 KCAL/MOL
REMARK 924 INTRA-LIGAND FREE ENERGY PREDICTED BY IDOCK:   -0.06 KCAL/MOL
REMARK 927      BINDING AFFINITY PREDICTED BY RF-SCORE:    0.00 PKD
ROOT
HETATM    1  C   UNL     1      -9.125   9.359  64.426  1.00  0.00    -0.180 C  
HETATM    2  C   UNL     1      -9.852   9.241  65.753  1.00  0.00    -0.302 C  
ENDROOT
BRANCH   2   3
HETATM    3  C   UNL     1      -9.280   8.098  66.575  1.00  0.00    -0.237 C  
HETATM    4  C   UNL     1      -8.788   7.117  67.280  1.00  0.00    -0.120 C  
HETATM    5  C   UNL     1      -8.216   5.974  68.102  1.00  0.00    -0.113 C  
HETATM    6  C   UNL     1      -7.393   6.580  69.245  1.00  0.00    -0.093 C  
HETATM    7  C   UNL     1      -9.351   4.938  68.436  1.00  0.00    -0.172 C  
HETATM    8  O   UNL     1     -11.439   6.145  68.705  1.00  0.00    -0.259 OA 
HETATM    9  C   UNL     1      -8.752   3.814  69.252  1.00  0.00    -0.085 C  
HETATM   10  C   UNL     1     -10.627   7.104  71.169  1.00  0.00    -0.223 C  
HETATM   11  O   UNL     1      -8.128   2.871  68.765  1.00  0.00    -0.056 OA 
HETATM   12  N   UNL     1      -8.836   3.950  70.611  1.00  0.00    -0.077 N  
HETATM   13  H   UNL     1      -8.482   3.176  71.173  1.00  0.00     0.000 HD 
HETATM   14  C   UNL     1      -9.347   5.021  71.288  1.00  0.00    -0.149 C  
HETATM   15  C   UNL     1     -10.422   5.679  69.219  1.00  0.00    -0.286 C  
HETATM   16  N   UNL     1     -10.084   5.914  70.544  1.00  0.00    -0.188 N  
HETATM   17  O   UNL     1      -9.115   5.140  72.488  1.00  0.00    -0.132 OA 
BRANCH   7  18
HETATM   18  C   UNL     1      -9.900   4.354  67.095  1.00  0.00    -0.217 C  
BRANCH  18  19
HETATM   19  C   UNL     1      -8.888   4.049  66.018  1.00  0.00    -0.120 C  
HETATM   20  C   UNL     1      -9.164   4.120  64.709  1.00  0.00    -0.154 C  
ENDBRANCH  18  19
ENDBRANCH   7  18
ENDBRANCH   2   3
TORSDOF 3
ENDMDL
MODEL      149
REMARK 921   NORMALIZED FREE ENERGY PREDICTED BY IDOCK:   -2.67 KCAL/MOL
REMARK 922        TOTAL FREE ENERGY PREDICTED BY IDOCK:   -3.22 KCAL/MOL
REMARK 923 INTER-LIGAND FREE ENERGY PREDICTED BY IDOCK:   -3.08 KCAL/MOL
REMARK 924 INTRA-LIGAND FREE ENERGY PREDICTED BY IDOCK:   -0.14 KCAL/MOL
REMARK 927      BINDING AFFINITY PREDICTED BY RF-SCORE:    0.00 PKD
ROOT
HETATM    1  C   UNL     1      -9.427   1.602  70.032  1.00  0.00    -0.139 C  
HETATM    2  C   UNL     1      -8.699   2.467  69.020  1.00  0.00    -0.132 C  
ENDROOT
BRANCH   2   3
HETATM    3  C   UNL     1      -8.410   3.840  69.603  1.00  0.00    -0.076 C  
HETATM    4  C   UNL     1      -8.161   5.019  70.103  1.00  0.00    -0.081 C  
HETATM    5  C   UNL     1      -7.872   6.392  70.686  1.00  0.00    -0.107 C  
HETATM    6  C   UNL     1      -6.492   6.836  70.188  1.00  0.00    -0.040 C  
HETATM    7  C   UNL     1      -9.111   7.336  70.465  1.00  0.00    -0.158 C  
HETATM    8  O   UNL     1     -10.168   6.736  68.365  1.00  0.00    -0.161 OA 
HETATM    9  C   UNL     1      -8.794   8.693  71.055  1.00  0.00    -0.191 C  
HETATM   10  C   UNL     1      -8.123   7.928  66.934  1.00  0.00    -0.115 C  
HETATM   11  O   UNL     1      -8.892   8.959  72.253  1.00  0.00    -0.397 OA 
HETATM   12  N   UNL     1      -8.267   9.613  70.191  1.00  0.00    -0.177 N  
HETATM   13  H   UNL     1      -8.097  10.548  70.563  1.00  0.00     0.000 HD 
HETATM   14  C   UNL     1      -7.948   9.404  68.879  1.00  0.00    -0.087 C  
HETATM   15  C   UNL     1      -9.346   7.427  68.966  1.00  0.00    -0.145 C  
HETATM   16  N   UNL     1      -8.448   8.255  68.309  1.00  0.00    -0.135 N  
HETATM   17  O   UNL     1      -7.236  10.217  68.297  1.00  0.00    -0.078 OA 
BRANCH   7  18
HETATM   18  C   UNL     1     -10.337   6.730  71.218  1.00  0.00    -0.225 C  
BRANCH  18  19
HETATM   19  C   UNL     1     -11.617   7.530  71.195  1.00  0.00    -0.304 C  
HETATM   20  C   UNL     1     -12.244   7.944  72.304  1.00  0.00    -0.333 C  
ENDBRANCH  18  19
ENDBRANCH   7  18
ENDBRANCH   2   3
TORSDOF 3
ENDMDL
MODEL      150
REMARK 921   NORMALIZED FREE ENERGY PREDICTED BY IDOCK:   -2.67 KCAL/MOL
REMARK 922        TOTAL FREE ENERGY PREDICTED BY IDOCK:   -3.22 KCAL/MOL
REMARK 923 INTER-LIGAND FREE ENERGY PREDICTED BY IDOCK:   -3.20 KCAL/MOL
REMARK 924 INTRA-LIGAND FREE ENERGY PREDICTED BY IDOCK:   -0.02 KCAL/MOL
REMARK 927      BINDING AFFINITY PREDICTED BY RF-SCORE:    0.00 PKD
ROOT
HETATM    1  C   UNL     1     -11.638  12.447  67.667  1.00  0.00    -0.421 C  
HETATM    2  C   UNL     1     -11.593  12.179  69.161  1.00  0.00    -0.374 C  
ENDROOT
BRANCH   2   3
HETATM    3  C   UNL     1     -11.087  10.773  69.435  1.00  0.00    -0.324 C  
HETATM    4  C   UNL     1     -10.653   9.566  69.671  1.00  0.00    -0.245 C  
HETATM    5  C   UNL     1     -10.147   8.160  69.946  1.00  0.00    -0.195 C  
HETATM    6  C   UNL     1     -11.008   7.181  69.139  1.00  0.00    -0.142 C  
HETATM    7  C   UNL     1      -8.582   8.116  69.789  1.00  0.00    -0.133 C  
HETATM    8  O   UNL     1      -7.941   9.681  68.049  1.00  0.00    -0.097 OA 
HETATM    9  C   UNL     1      -8.109   6.707  70.069  1.00  0.00    -0.121 C  
HETATM   10  C   UNL     1      -8.881   7.970  66.091  1.00  0.00    -0.166 C  
HETATM   11  O   UNL     1      -7.940   6.253  71.201  1.00  0.00    -0.112 OA 
HETATM   12  N   UNL     1      -7.979   5.892  68.978  1.00  0.00    -0.098 N  
HETATM   13  H   UNL     1      -7.612   4.955  69.145  1.00  0.00     0.000 HD 
HETATM   14  C   UNL     1      -8.293   6.210  67.687  1.00  0.00    -0.112 C  
HETATM   15  C   UNL     1      -8.260   8.535  68.365  1.00  0.00    -0.123 C  
HETATM   16  N   UNL     1      -8.499   7.545  67.423  1.00  0.00    -0.115 N  
HETATM   17  O   UNL     1      -8.391   5.313  66.854  1.00  0.00    -0.108 OA 
BRANCH   7  18
HETATM   18  C   UNL     1      -7.952   9.082  70.843  1.00  0.00    -0.194 C  
BRANCH  18  19
HETATM   19  C   UNL     1      -6.456   9.005  71.031  1.00  0.00    -0.068 C  
HETATM   20  C   UNL     1      -5.593   9.795  70.379  1.00  0.00    -0.051 C  
ENDBRANCH  18  19
ENDBRANCH   7  18
ENDBRANCH   2   3
TORSDOF 3
ENDMDL
MODEL      151
REMARK 921   NORMALIZED FREE ENERGY PREDICTED BY IDOCK:   -2.65 KCAL/MOL
REMARK 922        TOTAL FREE ENERGY PREDICTED BY IDOCK:   -3.20 KCAL/MOL
REMARK 923 INTER-LIGAND FREE ENERGY PREDICTED BY IDOCK:   -3.10 KCAL/MOL
REMARK 924 INTRA-LIGAND FREE ENERGY PREDICTED BY IDOCK:   -0.10 KCAL/MOL
REMARK 927      BINDING AFFINITY PREDICTED BY RF-SCORE:    0.00 PKD
ROOT
HETATM    1  C   UNL     1      -5.987   7.397  72.584  1.00  0.00    -0.040 C  
HETATM    2  C   UNL     1      -7.169   6.472  72.815  1.00  0.00    -0.081 C  
ENDROOT
BRANCH   2   3
HETATM    3  C   UNL     1      -8.134   6.538  71.644  1.00  0.00    -0.108 C  
HETATM    4  C   UNL     1      -8.964   6.595  70.639  1.00  0.00    -0.151 C  
HETATM    5  C   UNL     1      -9.930   6.661  69.468  1.00  0.00    -0.178 C  
HETATM    6  C   UNL     1     -10.898   7.822  69.718  1.00  0.00    -0.211 C  
HETATM    7  C   UNL     1      -9.130   6.604  68.114  1.00  0.00    -0.119 C  
HETATM    8  O   UNL     1      -7.002   7.725  68.431  1.00  0.00    -0.068 OA 
HETATM    9  C   UNL     1     -10.117   6.671  66.969  1.00  0.00    -0.187 C  
HETATM   10  C   UNL     1      -8.241  10.198  68.403  1.00  0.00    -0.112 C  
HETATM   11  O   UNL     1     -10.753   5.701  66.555  1.00  0.00    -0.288 OA 
HETATM   12  N   UNL     1     -10.367   7.918  66.467  1.00  0.00    -0.483 N  
HETATM   13  H   UNL     1     -10.991   7.973  65.661  1.00  0.00     0.000 HD 
HETATM   14  C   UNL     1      -9.864   9.098  66.938  1.00  0.00    -0.217 C  
HETATM   15  C   UNL     1      -8.185   7.793  68.099  1.00  0.00    -0.124 C  
HETATM   16  N   UNL     1      -8.809   9.000  67.816  1.00  0.00    -0.125 N  
HETATM   17  O   UNL     1     -10.376  10.155  66.581  1.00  0.00    -0.225 OA 
BRANCH   7  18
HETATM   18  C   UNL     1      -8.366   5.244  68.046  1.00  0.00    -0.098 C  
BRANCH  18  19
HETATM   19  C   UNL     1      -9.084   4.029  68.583  1.00  0.00    -0.188 C  
HETATM   20  C   UNL     1      -8.485   3.093  69.331  1.00  0.00    -0.099 C  
ENDBRANCH  18  19
ENDBRANCH   7  18
ENDBRANCH   2   3
TORSDOF 3
ENDMDL
MODEL      152
REMARK 921   NORMALIZED FREE ENERGY PREDICTED BY IDOCK:   -2.63 KCAL/MOL
REMARK 922        TOTAL FREE ENERGY PREDICTED BY IDOCK:   -3.18 KCAL/MOL
REMARK 923 INTER-LIGAND FREE ENERGY PREDICTED BY IDOCK:   -3.25 KCAL/MOL
REMARK 924 INTRA-LIGAND FREE ENERGY PREDICTED BY IDOCK:    0.07 KCAL/MOL
REMARK 927      BINDING AFFINITY PREDICTED BY RF-SCORE:    0.00 PKD
ROOT
HETATM    1  C   UNL     1      -6.134  10.272  67.032  1.00  0.00    -0.055 C  
HETATM    2  C   UNL     1      -6.424  11.326  68.086  1.00  0.00    -0.056 C  
ENDROOT
BRANCH   2   3
HETATM    3  C   UNL     1      -7.515  12.270  67.611  1.00  0.00    -0.134 C  
HETATM    4  C   UNL     1      -8.453  13.079  67.202  1.00  0.00    -0.176 C  
HETATM    5  C   UNL     1      -9.544  14.023  66.726  1.00  0.00    -0.293 C  
HETATM    6  C   UNL     1     -10.898  13.399  67.084  1.00  0.00    -0.284 C  
HETATM    7  C   UNL     1      -9.224  15.489  67.198  1.00  0.00    -0.228 C  
HETATM    8  O   UNL     1      -8.103  15.376  69.347  1.00  0.00    -0.232 OA 
HETATM    9  C   UNL     1     -10.326  16.404  66.710  1.00  0.00    -0.293 C  
HETATM   10  C   UNL     1     -10.479  14.742  70.613  1.00  0.00     0.420 C  
HETATM   11  O   UNL     1     -10.383  16.858  65.566  1.00  0.00    -0.572 OA 
HETATM   12  N   UNL     1     -11.353  16.624  67.586  1.00  0.00     0.000 N  
HETATM   13  H   UNL     1     -12.078  17.279  67.290  1.00  0.00     0.000 HD 
HETATM   14  C   UNL     1     -11.504  16.053  68.818  1.00  0.00    -0.375 C  
HETATM   15  C   UNL     1      -9.155  15.469  68.716  1.00  0.00    -0.207 C  
HETATM   16  N   UNL     1     -10.398  15.415  69.331  1.00  0.00    -0.242 N  
HETATM   17  O   UNL     1     -12.593  16.120  69.382  1.00  0.00     0.052 OA 
BRANCH   7  18
HETATM   18  C   UNL     1      -7.873  15.934  66.554  1.00  0.00    -0.169 C  
BRANCH  18  19
HETATM   19  C   UNL     1      -7.163  17.103  67.193  1.00  0.00    -0.205 C  
HETATM   20  C   UNL     1      -5.929  17.492  66.846  1.00  0.00    -0.197 C  
ENDBRANCH  18  19
ENDBRANCH   7  18
ENDBRANCH   2   3
TORSDOF 3
ENDMDL
MODEL      153
REMARK 921   NORMALIZED FREE ENERGY PREDICTED BY IDOCK:   -2.60 KCAL/MOL
REMARK 922        TOTAL FREE ENERGY PREDICTED BY IDOCK:   -3.14 KCAL/MOL
REMARK 923 INTER-LIGAND FREE ENERGY PREDICTED BY IDOCK:   -3.16 KCAL/MOL
REMARK 924 INTRA-LIGAND FREE ENERGY PREDICTED BY IDOCK:    0.02 KCAL/MOL
REMARK 927      BINDING AFFINITY PREDICTED BY RF-SCORE:    0.00 PKD
ROOT
HETATM    1  C   UNL     1      -9.077   5.261  70.998  1.00  0.00    -0.171 C  
HETATM    2  C   UNL     1      -9.259   6.760  71.150  1.00  0.00    -0.159 C  
ENDROOT
BRANCH   2   3
HETATM    3  C   UNL     1      -8.918   7.472  69.851  1.00  0.00    -0.141 C  
HETATM    4  C   UNL     1      -8.625   8.083  68.737  1.00  0.00    -0.128 C  
HETATM    5  C   UNL     1      -8.284   8.795  67.438  1.00  0.00    -0.109 C  
HETATM    6  C   UNL     1      -6.836   8.448  67.075  1.00  0.00    -0.070 C  
HETATM    7  C   UNL     1      -9.422   8.548  66.380  1.00  0.00    -0.297 C  
HETATM    8  O   UNL     1     -10.333   6.327  66.737  1.00  0.00    -0.204 OA 
HETATM    9  C   UNL     1      -9.055   9.268  65.101  1.00  0.00    -0.206 C  
HETATM   10  C   UNL     1      -8.084   5.168  65.619  1.00  0.00    -0.115 C  
HETATM   11  O   UNL     1      -9.238  10.471  64.916  1.00  0.00    -0.185 OA 
HETATM   12  N   UNL     1      -8.386   8.526  64.168  1.00  0.00    -0.308 N  
HETATM   13  H   UNL     1      -8.177   8.983  63.280  1.00  0.00     0.000 HD 
HETATM   14  C   UNL     1      -7.969   7.232  64.308  1.00  0.00    -0.093 C  
HETATM   15  C   UNL     1      -9.517   7.047  66.162  1.00  0.00     0.003 C  
HETATM   16  N   UNL     1      -8.503   6.533  65.366  1.00  0.00    -0.142 N  
HETATM   17  O   UNL     1      -7.148   6.776  63.517  1.00  0.00    -0.052 OA 
BRANCH   7  18
HETATM   18  C   UNL     1     -10.753   9.147  66.936  1.00  0.00    -0.149 C  
BRANCH  18  19
HETATM   19  C   UNL     1     -10.632  10.282  67.924  1.00  0.00    -0.282 C  
HETATM   20  C   UNL     1     -11.598  11.187  68.124  1.00  0.00    -0.350 C  
ENDBRANCH  18  19
ENDBRANCH   7  18
ENDBRANCH   2   3
TORSDOF 3
ENDMDL
MODEL      154
REMARK 921   NORMALIZED FREE ENERGY PREDICTED BY IDOCK:   -2.55 KCAL/MOL
REMARK 922        TOTAL FREE ENERGY PREDICTED BY IDOCK:   -3.07 KCAL/MOL
REMARK 923 INTER-LIGAND FREE ENERGY PREDICTED BY IDOCK:   -3.02 KCAL/MOL
REMARK 924 INTRA-LIGAND FREE ENERGY PREDICTED BY IDOCK:   -0.05 KCAL/MOL
REMARK 927      BINDING AFFINITY PREDICTED BY RF-SCORE:    0.00 PKD
ROOT
HETATM    1  C   UNL     1      -9.733   6.411  71.972  1.00  0.00    -0.160 C  
HETATM    2  C   UNL     1      -8.428   6.624  71.225  1.00  0.00    -0.125 C  
ENDROOT
BRANCH   2   3
HETATM    3  C   UNL     1      -8.684   6.766  69.734  1.00  0.00    -0.141 C  
HETATM    4  C   UNL     1      -8.904   6.887  68.454  1.00  0.00    -0.123 C  
HETATM    5  C   UNL     1      -9.160   7.029  66.963  1.00  0.00    -0.150 C  
HETATM    6  C   UNL     1     -10.647   7.348  66.767  1.00  0.00    -0.281 C  
HETATM    7  C   UNL     1      -8.080   7.977  66.325  1.00  0.00    -0.112 C  
HETATM    8  O   UNL     1      -7.476   9.665  67.960  1.00  0.00    -0.082 OA 
HETATM    9  C   UNL     1      -8.360   8.098  64.843  1.00  0.00    -0.123 C  
HETATM   10  C   UNL     1      -9.876  10.982  67.563  1.00  0.00    -0.169 C  
HETATM   11  O   UNL     1      -8.017   7.258  64.010  1.00  0.00    -0.135 OA 
HETATM   12  N   UNL     1      -9.136   9.159  64.465  1.00  0.00    -0.429 N  
HETATM   13  H   UNL     1      -9.291   9.282  63.464  1.00  0.00     0.000 HD 
HETATM   14  C   UNL     1      -9.724  10.070  65.297  1.00  0.00    -0.306 C  
HETATM   15  C   UNL     1      -8.194   9.323  67.020  1.00  0.00    -0.116 C  
HETATM   16  N   UNL     1      -9.278  10.080  66.599  1.00  0.00    -0.147 N  
HETATM   17  O   UNL     1     -10.609  10.799  64.859  1.00  0.00    -0.292 OA 
BRANCH   7  18
HETATM   18  C   UNL     1      -6.672   7.329  66.524  1.00  0.00    -0.060 C  
BRANCH  18  19
HETATM   19  C   UNL     1      -6.624   5.826  66.651  1.00  0.00    -0.056 C  
HETATM   20  C   UNL     1      -5.711   5.181  67.389  1.00  0.00    -0.014 C  
ENDBRANCH  18  19
ENDBRANCH   7  18
ENDBRANCH   2   3
TORSDOF 3
ENDMDL
MODEL      155
REMARK 921   NORMALIZED FREE ENERGY PREDICTED BY IDOCK:   -2.50 KCAL/MOL
REMARK 922        TOTAL FREE ENERGY PREDICTED BY IDOCK:   -3.01 KCAL/MOL
REMARK 923 INTER-LIGAND FREE ENERGY PREDICTED BY IDOCK:   -2.90 KCAL/MOL
REMARK 924 INTRA-LIGAND FREE ENERGY PREDICTED BY IDOCK:   -0.12 KCAL/MOL
REMARK 927      BINDING AFFINITY PREDICTED BY RF-SCORE:    0.00 PKD
ROOT
HETATM    1  C   UNL     1     -11.930  12.472  69.727  1.00  0.00    -0.359 C  
HETATM    2  C   UNL     1     -11.715  11.502  68.579  1.00  0.00    -0.379 C  
ENDROOT
BRANCH   2   3
HETATM    3  C   UNL     1     -10.631  10.496  68.928  1.00  0.00    -0.243 C  
HETATM    4  C   UNL     1      -9.701   9.632  69.229  1.00  0.00    -0.191 C  
HETATM    5  C   UNL     1      -8.617   8.626  69.578  1.00  0.00    -0.131 C  
HETATM    6  C   UNL     1      -9.239   7.557  70.484  1.00  0.00    -0.157 C  
HETATM    7  C   UNL     1      -7.861   8.182  68.272  1.00  0.00    -0.122 C  
HETATM    8  O   UNL     1      -9.443   8.178  66.432  1.00  0.00    -0.204 OA 
HETATM    9  C   UNL     1      -6.790   7.183  68.651  1.00  0.00    -0.076 C  
HETATM   10  C   UNL     1     -10.616   5.858  67.377  1.00  0.00    -0.282 C  
HETATM   11  O   UNL     1      -5.688   7.497  69.100  1.00  0.00    -0.024 OA 
HETATM   12  N   UNL     1      -7.148   5.865  68.578  1.00  0.00    -0.079 N  
HETATM   13  H   UNL     1      -6.421   5.178  68.782  1.00  0.00     0.000 HD 
HETATM   14  C   UNL     1      -8.385   5.377  68.260  1.00  0.00    -0.098 C  
HETATM   15  C   UNL     1      -8.891   7.562  67.343  1.00  0.00    -0.127 C  
HETATM   16  N   UNL     1      -9.267   6.276  67.704  1.00  0.00    -0.113 N  
HETATM   17  O   UNL     1      -8.646   4.201  68.497  1.00  0.00    -0.090 OA 
BRANCH   7  18
HETATM   18  C   UNL     1      -7.181   9.439  67.641  1.00  0.00    -0.083 C  
BRANCH  18  19
HETATM   19  C   UNL     1      -6.199   9.195  66.522  1.00  0.00    -0.065 C  
HETATM   20  C   UNL     1      -6.452   9.501  65.242  1.00  0.00    -0.078 C  
ENDBRANCH  18  19
ENDBRANCH   7  18
ENDBRANCH   2   3
TORSDOF 3
ENDMDL
MODEL      156
REMARK 921   NORMALIZED FREE ENERGY PREDICTED BY IDOCK:   -2.46 KCAL/MOL
REMARK 922        TOTAL FREE ENERGY PREDICTED BY IDOCK:   -2.97 KCAL/MOL
REMARK 923 INTER-LIGAND FREE ENERGY PREDICTED BY IDOCK:   -2.95 KCAL/MOL
REMARK 924 INTRA-LIGAND FREE ENERGY PREDICTED BY IDOCK:   -0.02 KCAL/MOL
REMARK 927      BINDING AFFINITY PREDICTED BY RF-SCORE:    0.00 PKD
ROOT
HETATM    1  C   UNL     1      -5.847   1.673  70.279  1.00  0.00    -0.018 C  
HETATM    2  C   UNL     1      -6.903   1.936  69.221  1.00  0.00    -0.033 C  
ENDROOT
BRANCH   2   3
HETATM    3  C   UNL     1      -7.863   3.020  69.683  1.00  0.00    -0.048 C  
HETATM    4  C   UNL     1      -8.687   3.949  70.081  1.00  0.00    -0.120 C  
HETATM    5  C   UNL     1      -9.647   5.033  70.543  1.00  0.00    -0.252 C  
HETATM    6  C   UNL     1      -9.992   4.762  72.012  1.00  0.00    -0.247 C  
HETATM    7  C   UNL     1      -9.093   6.446  70.131  1.00  0.00    -0.154 C  
HETATM    8  O   UNL     1      -6.670   6.380  70.227  1.00  0.00    -0.049 OA 
HETATM    9  C   UNL     1     -10.069   7.502  70.604  1.00  0.00    -0.187 C  
HETATM   10  C   UNL     1      -6.725   6.436  72.992  1.00  0.00    -0.073 C  
HETATM   11  O   UNL     1     -11.098   7.804  69.999  1.00  0.00    -0.248 OA 
HETATM   12  N   UNL     1      -9.811   8.048  71.831  1.00  0.00    -0.177 N  
HETATM   13  H   UNL     1     -10.431   8.797  72.140  1.00  0.00     0.000 HD 
HETATM   14  C   UNL     1      -8.805   7.688  72.683  1.00  0.00    -0.149 C  
HETATM   15  C   UNL     1      -7.737   6.611  70.795  1.00  0.00    -0.097 C  
HETATM   16  N   UNL     1      -7.809   6.903  72.150  1.00  0.00    -0.094 N  
HETATM   17  O   UNL     1      -8.849   8.057  73.854  1.00  0.00    -0.269 OA 
BRANCH   7  18
HETATM   18  C   UNL     1      -8.997   6.506  68.573  1.00  0.00    -0.126 C  
BRANCH  18  19
HETATM   19  C   UNL     1      -9.963   5.645  67.796  1.00  0.00    -0.175 C  
HETATM   20  C   UNL     1     -10.884   6.145  66.961  1.00  0.00    -0.435 C  
ENDBRANCH  18  19
ENDBRANCH   7  18
ENDBRANCH   2   3
TORSDOF 3
ENDMDL
MODEL      157
REMARK 921   NORMALIZED FREE ENERGY PREDICTED BY IDOCK:   -2.43 KCAL/MOL
REMARK 922        TOTAL FREE ENERGY PREDICTED BY IDOCK:   -2.93 KCAL/MOL
REMARK 923 INTER-LIGAND FREE ENERGY PREDICTED BY IDOCK:   -2.87 KCAL/MOL
REMARK 924 INTRA-LIGAND FREE ENERGY PREDICTED BY IDOCK:   -0.06 KCAL/MOL
REMARK 927      BINDING AFFINITY PREDICTED BY RF-SCORE:    0.00 PKD
ROOT
HETATM    1  C   UNL     1     -11.662  12.481  64.843  1.00  0.00    -0.409 C  
HETATM    2  C   UNL     1     -11.006  11.541  63.847  1.00  0.00    -0.474 C  
ENDROOT
BRANCH   2   3
HETATM    3  C   UNL     1      -9.710  10.985  64.414  1.00  0.00    -0.330 C  
HETATM    4  C   UNL     1      -8.597  10.509  64.901  1.00  0.00    -0.179 C  
HETATM    5  C   UNL     1      -7.301   9.954  65.467  1.00  0.00    -0.122 C  
HETATM    6  C   UNL     1      -6.750  10.972  66.472  1.00  0.00    -0.135 C  
HETATM    7  C   UNL     1      -7.514   8.463  65.921  1.00  0.00    -0.081 C  
HETATM    8  O   UNL     1      -9.788   8.224  66.734  1.00  0.00    -0.216 OA 
HETATM    9  C   UNL     1      -6.209   7.938  66.479  1.00  0.00    -0.046 C  
HETATM   10  C   UNL     1      -9.152   9.575  69.063  1.00  0.00    -0.144 C  
HETATM   11  O   UNL     1      -5.284   7.522  65.781  1.00  0.00    -0.024 OA 
HETATM   12  N   UNL     1      -6.047   8.053  67.832  1.00  0.00    -0.045 N  
HETATM   13  H   UNL     1      -5.195   7.658  68.229  1.00  0.00     0.000 HD 
HETATM   14  C   UNL     1      -6.916   8.646  68.705  1.00  0.00    -0.064 C  
HETATM   15  C   UNL     1      -8.606   8.465  66.978  1.00  0.00    -0.122 C  
HETATM   16  N   UNL     1      -8.178   8.907  68.222  1.00  0.00    -0.120 N  
HETATM   17  O   UNL     1      -6.533   8.926  69.837  1.00  0.00    -0.037 OA 
BRANCH   7  18
HETATM   18  C   UNL     1      -7.908   7.615  64.670  1.00  0.00    -0.126 C  
BRANCH  18  19
HETATM   19  C   UNL     1      -8.265   6.168  64.910  1.00  0.00    -0.125 C  
HETATM   20  C   UNL     1      -7.449   5.150  64.606  1.00  0.00    -0.072 C  
ENDBRANCH  18  19
ENDBRANCH   7  18
ENDBRANCH   2   3
TORSDOF 3
ENDMDL
MODEL      158
REMARK 921   NORMALIZED FREE ENERGY PREDICTED BY IDOCK:   -2.37 KCAL/MOL
REMARK 922        TOTAL FREE ENERGY PREDICTED BY IDOCK:   -2.87 KCAL/MOL
REMARK 923 INTER-LIGAND FREE ENERGY PREDICTED BY IDOCK:   -2.74 KCAL/MOL
REMARK 924 INTRA-LIGAND FREE ENERGY PREDICTED BY IDOCK:   -0.13 KCAL/MOL
REMARK 927      BINDING AFFINITY PREDICTED BY RF-SCORE:    0.00 PKD
ROOT
HETATM    1  C   UNL     1      -9.061   5.516  65.898  1.00  0.00    -0.163 C  
HETATM    2  C   UNL     1      -9.217   7.000  66.177  1.00  0.00    -0.119 C  
ENDROOT
BRANCH   2   3
HETATM    3  C   UNL     1      -9.523   7.236  67.646  1.00  0.00    -0.149 C  
HETATM    4  C   UNL     1      -9.786   7.439  68.907  1.00  0.00    -0.157 C  
HETATM    5  C   UNL     1     -10.092   7.676  70.377  1.00  0.00    -0.190 C  
HETATM    6  C   UNL     1     -11.356   6.884  70.730  1.00  0.00    -0.355 C  
HETATM    7  C   UNL     1      -8.789   7.466  71.233  1.00  0.00    -0.138 C  
HETATM    8  O   UNL     1      -7.455   5.729  70.188  1.00  0.00    -0.077 OA 
HETATM    9  C   UNL     1      -9.124   7.709  72.688  1.00  0.00    -0.157 C  
HETATM   10  C   UNL     1      -9.197   3.778  71.088  1.00  0.00    -0.131 C  
HETATM   11  O   UNL     1      -9.196   8.828  73.197  1.00  0.00    -0.199 OA 
HETATM   12  N   UNL     1      -9.466   6.603  73.416  1.00  0.00    -0.138 N  
HETATM   13  H   UNL     1      -9.645   6.744  74.410  1.00  0.00     0.000 HD 
HETATM   14  C   UNL     1      -9.592   5.328  72.941  1.00  0.00    -0.144 C  
HETATM   15  C   UNL     1      -8.324   6.038  71.004  1.00  0.00    -0.124 C  
HETATM   16  N   UNL     1      -9.069   5.091  71.690  1.00  0.00    -0.139 N  
HETATM   17  O   UNL     1     -10.166   4.486  73.626  1.00  0.00    -0.148 OA 
BRANCH   7  18
HETATM   18  C   UNL     1      -7.722   8.513  70.776  1.00  0.00    -0.087 C  
BRANCH  18  19
HETATM   19  C   UNL     1      -6.392   8.488  71.490  1.00  0.00    -0.057 C  
HETATM   20  C   UNL     1      -5.650   9.583  71.698  1.00  0.00    -0.068 C  
ENDBRANCH  18  19
ENDBRANCH   7  18
ENDBRANCH   2   3
TORSDOF 3
ENDMDL
MODEL      159
REMARK 921   NORMALIZED FREE ENERGY PREDICTED BY IDOCK:   -2.37 KCAL/MOL
REMARK 922        TOTAL FREE ENERGY PREDICTED BY IDOCK:   -2.87 KCAL/MOL
REMARK 923 INTER-LIGAND FREE ENERGY PREDICTED BY IDOCK:   -2.88 KCAL/MOL
REMARK 924 INTRA-LIGAND FREE ENERGY PREDICTED BY IDOCK:    0.01 KCAL/MOL
REMARK 927      BINDING AFFINITY PREDICTED BY RF-SCORE:    0.00 PKD
ROOT
HETATM    1  C   UNL     1     -12.306   8.333  72.066  1.00  0.00    -0.395 C  
HETATM    2  C   UNL     1     -12.360   6.886  71.608  1.00  0.00    -0.413 C  
ENDROOT
BRANCH   2   3
HETATM    3  C   UNL     1     -11.013   6.452  71.053  1.00  0.00    -0.328 C  
HETATM    4  C   UNL     1      -9.857   6.081  70.577  1.00  0.00    -0.222 C  
HETATM    5  C   UNL     1      -8.510   5.647  70.023  1.00  0.00    -0.122 C  
HETATM    6  C   UNL     1      -7.419   6.199  70.947  1.00  0.00    -0.095 C  
HETATM    7  C   UNL     1      -8.538   4.108  69.699  1.00  0.00    -0.106 C  
HETATM    8  O   UNL     1      -9.973   3.008  71.316  1.00  0.00    -0.132 OA 
HETATM    9  C   UNL     1      -7.187   3.707  69.149  1.00  0.00    -0.049 C  
HETATM   10  C   UNL     1      -8.045   3.269  73.282  1.00  0.00    -0.073 C  
HETATM   11  O   UNL     1      -6.846   3.878  67.978  1.00  0.00    -0.046 OA 
HETATM   12  N   UNL     1      -6.286   3.233  70.062  1.00  0.00    -0.027 N  
HETATM   13  H   UNL     1      -5.388   2.911  69.698  1.00  0.00     0.000 HD 
HETATM   14  C   UNL     1      -6.469   3.149  71.413  1.00  0.00    -0.019 C  
HETATM   15  C   UNL     1      -8.845   3.380  70.996  1.00  0.00    -0.083 C  
HETATM   16  N   UNL     1      -7.762   3.299  71.861  1.00  0.00    -0.053 N  
HETATM   17  O   UNL     1      -5.498   2.968  72.142  1.00  0.00    -0.003 OA 
BRANCH   7  18
HETATM   18  C   UNL     1      -9.626   3.851  68.608  1.00  0.00    -0.181 C  
BRANCH  18  19
HETATM   19  C   UNL     1      -9.545   4.683  67.352  1.00  0.00    -0.198 C  
HETATM   20  C   UNL     1     -10.513   5.523  66.963  1.00  0.00    -0.336 C  
ENDBRANCH  18  19
ENDBRANCH   7  18
ENDBRANCH   2   3
TORSDOF 3
ENDMDL
MODEL      160
REMARK 921   NORMALIZED FREE ENERGY PREDICTED BY IDOCK:   -2.33 KCAL/MOL
REMARK 922        TOTAL FREE ENERGY PREDICTED BY IDOCK:   -2.82 KCAL/MOL
REMARK 923 INTER-LIGAND FREE ENERGY PREDICTED BY IDOCK:   -2.82 KCAL/MOL
REMARK 924 INTRA-LIGAND FREE ENERGY PREDICTED BY IDOCK:   -0.00 KCAL/MOL
REMARK 927      BINDING AFFINITY PREDICTED BY RF-SCORE:    0.00 PKD
ROOT
HETATM    1  C   UNL     1     -11.421  10.187  70.887  1.00  0.00    -0.444 C  
HETATM    2  C   UNL     1     -12.218   8.923  71.155  1.00  0.00    -0.303 C  
ENDROOT
BRANCH   2   3
HETATM    3  C   UNL     1     -11.317   7.832  71.709  1.00  0.00    -0.302 C  
HETATM    4  C   UNL     1     -10.545   6.895  72.185  1.00  0.00    -0.241 C  
HETATM    5  C   UNL     1      -9.644   5.804  72.739  1.00  0.00    -0.159 C  
HETATM    6  C   UNL     1     -10.051   4.478  72.086  1.00  0.00    -0.260 C  
HETATM    7  C   UNL     1      -8.142   6.267  72.670  1.00  0.00    -0.106 C  
HETATM    8  O   UNL     1      -7.857   7.660  70.703  1.00  0.00    -0.094 OA 
HETATM    9  C   UNL     1      -7.271   5.163  73.228  1.00  0.00    -0.086 C  
HETATM   10  C   UNL     1      -7.978   5.445  69.052  1.00  0.00    -0.094 C  
HETATM   11  O   UNL     1      -7.087   4.977  74.431  1.00  0.00    -0.076 OA 
HETATM   12  N   UNL     1      -6.769   4.277  72.314  1.00  0.00    -0.039 N  
HETATM   13  H   UNL     1      -6.139   3.558  72.670  1.00  0.00     0.000 HD 
HETATM   14  C   UNL     1      -7.028   4.262  70.973  1.00  0.00    -0.036 C  
HETATM   15  C   UNL     1      -7.821   6.539  71.209  1.00  0.00    -0.103 C  
HETATM   16  N   UNL     1      -7.625   5.390  70.457  1.00  0.00    -0.078 N  
HETATM   17  O   UNL     1      -6.741   3.265  70.316  1.00  0.00    -0.032 OA 
BRANCH   7  18
HETATM   18  C   UNL     1      -7.975   7.542  73.556  1.00  0.00    -0.158 C  
BRANCH  18  19
HETATM   19  C   UNL     1      -6.570   7.904  73.973  1.00  0.00    -0.116 C  
HETATM   20  C   UNL     1      -5.742   8.632  73.212  1.00  0.00    -0.094 C  
ENDBRANCH  18  19
ENDBRANCH   7  18
ENDBRANCH   2   3
TORSDOF 3
ENDMDL
MODEL      161
REMARK 921   NORMALIZED FREE ENERGY PREDICTED BY IDOCK:   -2.33 KCAL/MOL
REMARK 922        TOTAL FREE ENERGY PREDICTED BY IDOCK:   -2.82 KCAL/MOL
REMARK 923 INTER-LIGAND FREE ENERGY PREDICTED BY IDOCK:   -2.72 KCAL/MOL
REMARK 924 INTRA-LIGAND FREE ENERGY PREDICTED BY IDOCK:   -0.10 KCAL/MOL
REMARK 927      BINDING AFFINITY PREDICTED BY RF-SCORE:    0.00 PKD
ROOT
HETATM    1  C   UNL     1      -6.050   1.781  68.488  1.00  0.00    -0.024 C  
HETATM    2  C   UNL     1      -6.524   2.674  67.355  1.00  0.00    -0.036 C  
ENDROOT
BRANCH   2   3
HETATM    3  C   UNL     1      -6.800   4.079  67.863  1.00  0.00    -0.047 C  
HETATM    4  C   UNL     1      -7.037   5.285  68.300  1.00  0.00    -0.062 C  
HETATM    5  C   UNL     1      -7.313   6.690  68.808  1.00  0.00    -0.090 C  
HETATM    6  C   UNL     1      -6.245   7.622  68.224  1.00  0.00    -0.040 C  
HETATM    7  C   UNL     1      -8.833   7.040  68.607  1.00  0.00    -0.128 C  
HETATM    8  O   UNL     1      -9.614   5.942  66.589  1.00  0.00    -0.144 OA 
HETATM    9  C   UNL     1      -9.077   8.442  69.122  1.00  0.00    -0.147 C  
HETATM   10  C   UNL     1      -8.266   7.770  65.010  1.00  0.00    -0.120 C  
HETATM   11  O   UNL     1      -9.242   8.716  70.311  1.00  0.00    -0.155 OA 
HETATM   12  N   UNL     1      -8.992   9.444  68.195  1.00  0.00    -0.128 N  
HETATM   13  H   UNL     1      -9.204  10.388  68.517  1.00  0.00     0.000 HD 
HETATM   14  C   UNL     1      -8.651   9.303  66.879  1.00  0.00    -0.127 C  
HETATM   15  C   UNL     1      -9.126   6.940  67.119  1.00  0.00    -0.131 C  
HETATM   16  N   UNL     1      -8.658   8.019  66.383  1.00  0.00    -0.137 N  
HETATM   17  O   UNL     1      -8.345  10.299  66.228  1.00  0.00    -0.127 OA 
BRANCH   7  18
HETATM   18  C   UNL     1      -9.688   6.037  69.444  1.00  0.00    -0.176 C  
BRANCH  18  19
HETATM   19  C   UNL     1     -11.178   6.277  69.485  1.00  0.00    -0.500 C  
HETATM   20  C   UNL     1     -11.848   6.537  70.616  1.00  0.00    -0.398 C  
ENDBRANCH  18  19
ENDBRANCH   7  18
ENDBRANCH   2   3
TORSDOF 3
ENDMDL
MODEL      162
REMARK 921   NORMALIZED FREE ENERGY PREDICTED BY IDOCK:   -2.32 KCAL/MOL
REMARK 922        TOTAL FREE ENERGY PREDICTED BY IDOCK:   -2.81 KCAL/MOL
REMARK 923 INTER-LIGAND FREE ENERGY PREDICTED BY IDOCK:   -2.87 KCAL/MOL
REMARK 924 INTRA-LIGAND FREE ENERGY PREDICTED BY IDOCK:    0.06 KCAL/MOL
REMARK 927      BINDING AFFINITY PREDICTED BY RF-SCORE:    0.00 PKD
ROOT
HETATM    1  C   UNL     1     -12.376  13.243  66.939  1.00  0.00    -0.220 C  
HETATM    2  C   UNL     1     -10.858  13.203  66.980  1.00  0.00    -0.278 C  
ENDROOT
BRANCH   2   3
HETATM    3  C   UNL     1     -10.379  12.076  67.878  1.00  0.00    -0.209 C  
HETATM    4  C   UNL     1      -9.968  11.107  68.649  1.00  0.00    -0.210 C  
HETATM    5  C   UNL     1      -9.488   9.979  69.547  1.00  0.00    -0.245 C  
HETATM    6  C   UNL     1     -10.723   9.247  70.086  1.00  0.00    -0.269 C  
HETATM    7  C   UNL     1      -8.365   9.157  68.816  1.00  0.00    -0.121 C  
HETATM    8  O   UNL     1      -8.846   9.145  66.438  1.00  0.00    -0.131 OA 
HETATM    9  C   UNL     1      -7.908   8.044  69.733  1.00  0.00    -0.106 C  
HETATM   10  C   UNL     1     -10.902   7.332  66.810  1.00  0.00    -0.056 C  
HETATM   11  O   UNL     1      -7.102   8.200  70.651  1.00  0.00    -0.043 OA 
HETATM   12  N   UNL     1      -8.533   6.839  69.569  1.00  0.00    -0.132 N  
HETATM   13  H   UNL     1      -8.200   6.065  70.146  1.00  0.00     0.000 HD 
HETATM   14  C   UNL     1      -9.560   6.569  68.709  1.00  0.00    -0.126 C  
HETATM   15  C   UNL     1      -8.970   8.605  67.536  1.00  0.00    -0.134 C  
HETATM   16  N   UNL     1      -9.803   7.513  67.738  1.00  0.00    -0.148 N  
HETATM   17  O   UNL     1     -10.209   5.536  68.853  1.00  0.00    -0.183 OA 
BRANCH   7  18
HETATM   18  C   UNL     1      -7.159  10.108  68.533  1.00  0.00    -0.074 C  
BRANCH  18  19
HETATM   19  C   UNL     1      -7.057  11.353  69.381  1.00  0.00    -0.065 C  
HETATM   20  C   UNL     1      -5.890  11.881  69.773  1.00  0.00    -0.120 C  
ENDBRANCH  18  19
ENDBRANCH   7  18
ENDBRANCH   2   3
TORSDOF 3
ENDMDL
MODEL      163
REMARK 921   NORMALIZED FREE ENERGY PREDICTED BY IDOCK:   -2.32 KCAL/MOL
REMARK 922        TOTAL FREE ENERGY PREDICTED BY IDOCK:   -2.81 KCAL/MOL
REMARK 923 INTER-LIGAND FREE ENERGY PREDICTED BY IDOCK:   -2.71 KCAL/MOL
REMARK 924 INTRA-LIGAND FREE ENERGY PREDICTED BY IDOCK:   -0.09 KCAL/MOL
REMARK 927      BINDING AFFINITY PREDICTED BY RF-SCORE:    0.00 PKD
ROOT
HETATM    1  C   UNL     1      -5.894   8.517  67.082  1.00  0.00    -0.043 C  
HETATM    2  C   UNL     1      -6.685   9.412  68.019  1.00  0.00    -0.063 C  
ENDROOT
BRANCH   2   3
HETATM    3  C   UNL     1      -7.439  10.472  67.233  1.00  0.00    -0.095 C  
HETATM    4  C   UNL     1      -8.087  11.381  66.557  1.00  0.00    -0.141 C  
HETATM    5  C   UNL     1      -8.841  12.440  65.771  1.00  0.00     0.399 C  
HETATM    6  C   UNL     1      -9.907  11.732  64.927  1.00  0.00    -0.251 C  
HETATM    7  C   UNL     1      -9.272  13.610  66.731  1.00  0.00    -0.251 C  
HETATM    8  O   UNL     1      -9.746  12.674  68.918  1.00  0.00     0.006 OA 
HETATM    9  C   UNL     1     -10.018  14.647  65.921  1.00  0.00    -0.328 C  
HETATM   10  C   UNL     1     -12.132  11.612  68.004  1.00  0.00     0.075 C  
HETATM   11  O   UNL     1      -9.466  15.506  65.232  1.00  0.00    -0.204 OA 
HETATM   12  N   UNL     1     -11.379  14.518  65.893  1.00  0.00    -0.338 N  
HETATM   13  H   UNL     1     -11.900  15.240  65.393  1.00  0.00     0.000 HD 
HETATM   14  C   UNL     1     -12.111  13.518  66.468  1.00  0.00    -0.408 C  
HETATM   15  C   UNL     1     -10.158  13.007  67.807  1.00  0.00    -0.229 C  
HETATM   16  N   UNL     1     -11.447  12.726  67.378  1.00  0.00    -0.319 N  
HETATM   17  O   UNL     1     -13.285  13.367  66.141  1.00  0.00     0.041 OA 
BRANCH   7  18
HETATM   18  C   UNL     1      -7.983  14.262  67.326  1.00  0.00    -0.191 C  
BRANCH  18  19
HETATM   19  C   UNL     1      -8.148  15.598  68.009  1.00  0.00    -0.140 C  
HETATM   20  C   UNL     1      -7.860  15.803  69.301  1.00  0.00    -0.233 C  
ENDBRANCH  18  19
ENDBRANCH   7  18
ENDBRANCH   2   3
TORSDOF 3
ENDMDL
MODEL      164
REMARK 921   NORMALIZED FREE ENERGY PREDICTED BY IDOCK:   -2.26 KCAL/MOL
REMARK 922        TOTAL FREE ENERGY PREDICTED BY IDOCK:   -2.73 KCAL/MOL
REMARK 923 INTER-LIGAND FREE ENERGY PREDICTED BY IDOCK:   -2.63 KCAL/MOL
REMARK 924 INTRA-LIGAND FREE ENERGY PREDICTED BY IDOCK:   -0.11 KCAL/MOL
REMARK 927      BINDING AFFINITY PREDICTED BY RF-SCORE:    0.00 PKD
ROOT
HETATM    1  C   UNL     1     -10.214   3.857  62.913  1.00  0.00    -0.178 C  
HETATM    2  C   UNL     1      -9.998   3.375  64.336  1.00  0.00    -0.167 C  
ENDROOT
BRANCH   2   3
HETATM    3  C   UNL     1     -10.033   4.545  65.306  1.00  0.00    -0.178 C  
HETATM    4  C   UNL     1     -10.064   5.548  66.139  1.00  0.00    -0.135 C  
HETATM    5  C   UNL     1     -10.099   6.718  67.108  1.00  0.00    -0.249 C  
HETATM    6  C   UNL     1     -10.809   6.252  68.384  1.00  0.00    -0.394 C  
HETATM    7  C   UNL     1      -8.669   7.364  67.215  1.00  0.00    -0.121 C  
HETATM    8  O   UNL     1      -7.012   5.609  66.965  1.00  0.00    -0.062 OA 
HETATM    9  C   UNL     1      -8.736   8.523  68.185  1.00  0.00    -0.142 C  
HETATM   10  C   UNL     1      -7.543   4.672  69.513  1.00  0.00    -0.055 C  
HETATM   11  O   UNL     1      -9.145   9.645  67.885  1.00  0.00    -0.126 OA 
HETATM   12  N   UNL     1      -8.418   8.236  69.484  1.00  0.00    -0.124 N  
HETATM   13  H   UNL     1      -8.409   9.019  70.139  1.00  0.00     0.000 HD 
HETATM   14  C   UNL     1      -8.111   7.005  69.990  1.00  0.00    -0.128 C  
HETATM   15  C   UNL     1      -7.722   6.284  67.710  1.00  0.00    -0.102 C  
HETATM   16  N   UNL     1      -7.834   6.021  69.068  1.00  0.00    -0.095 N  
HETATM   17  O   UNL     1      -8.116   6.837  71.207  1.00  0.00    -0.109 OA 
BRANCH   7  18
HETATM   18  C   UNL     1      -8.262   7.904  65.807  1.00  0.00    -0.130 C  
BRANCH  18  19
HETATM   19  C   UNL     1      -6.900   8.544  65.689  1.00  0.00    -0.067 C  
HETATM   20  C   UNL     1      -6.286   8.752  64.517  1.00  0.00    -0.066 C  
ENDBRANCH  18  19
ENDBRANCH   7  18
ENDBRANCH   2   3
TORSDOF 3
ENDMDL
MODEL      165
REMARK 921   NORMALIZED FREE ENERGY PREDICTED BY IDOCK:   -2.25 KCAL/MOL
REMARK 922        TOTAL FREE ENERGY PREDICTED BY IDOCK:   -2.73 KCAL/MOL
REMARK 923 INTER-LIGAND FREE ENERGY PREDICTED BY IDOCK:   -2.71 KCAL/MOL
REMARK 924 INTRA-LIGAND FREE ENERGY PREDICTED BY IDOCK:   -0.02 KCAL/MOL
REMARK 927      BINDING AFFINITY PREDICTED BY RF-SCORE:    0.00 PKD
ROOT
HETATM    1  C   UNL     1      -9.255   3.764  63.086  1.00  0.00    -0.108 C  
HETATM    2  C   UNL     1     -10.483   3.657  63.972  1.00  0.00    -0.271 C  
ENDROOT
BRANCH   2   3
HETATM    3  C   UNL     1     -10.214   4.281  65.332  1.00  0.00    -0.235 C  
HETATM    4  C   UNL     1      -9.985   4.815  66.499  1.00  0.00    -0.262 C  
HETATM    5  C   UNL     1      -9.716   5.438  67.859  1.00  0.00    -0.165 C  
HETATM    6  C   UNL     1      -9.871   4.343  68.920  1.00  0.00    -0.163 C  
HETATM    7  C   UNL     1      -8.387   6.277  67.808  1.00  0.00    -0.117 C  
HETATM    8  O   UNL     1      -6.853   5.193  66.271  1.00  0.00    -0.056 OA 
HETATM    9  C   UNL     1      -8.147   6.884  69.172  1.00  0.00    -0.121 C  
HETATM   10  C   UNL     1      -6.341   3.192  68.112  1.00  0.00    -0.033 C  
HETATM   11  O   UNL     1      -8.699   7.910  69.572  1.00  0.00    -0.133 OA 
HETATM   12  N   UNL     1      -7.351   6.161  70.018  1.00  0.00    -0.076 N  
HETATM   13  H   UNL     1      -7.140   6.582  70.923  1.00  0.00     0.000 HD 
HETATM   14  C   UNL     1      -6.813   4.930  69.769  1.00  0.00    -0.052 C  
HETATM   15  C   UNL     1      -7.267   5.324  67.423  1.00  0.00    -0.075 C  
HETATM   16  N   UNL     1      -6.849   4.504  68.461  1.00  0.00    -0.050 N  
HETATM   17  O   UNL     1      -6.353   4.276  70.701  1.00  0.00    -0.021 OA 
BRANCH   7  18
HETATM   18  C   UNL     1      -8.565   7.427  66.765  1.00  0.00    -0.127 C  
BRANCH  18  19
HETATM   19  C   UNL     1      -9.961   7.973  66.584  1.00  0.00    -0.326 C  
HETATM   20  C   UNL     1     -10.294   9.241  66.858  1.00  0.00    -0.316 C  
ENDBRANCH  18  19
ENDBRANCH   7  18
ENDBRANCH   2   3
TORSDOF 3
ENDMDL
MODEL      166
REMARK 921   NORMALIZED FREE ENERGY PREDICTED BY IDOCK:   -2.24 KCAL/MOL
REMARK 922        TOTAL FREE ENERGY PREDICTED BY IDOCK:   -2.72 KCAL/MOL
REMARK 923 INTER-LIGAND FREE ENERGY PREDICTED BY IDOCK:   -2.98 KCAL/MOL
REMARK 924 INTRA-LIGAND FREE ENERGY PREDICTED BY IDOCK:    0.27 KCAL/MOL
REMARK 927      BINDING AFFINITY PREDICTED BY RF-SCORE:    0.00 PKD
ROOT
HETATM    1  C   UNL     1     -10.125   4.377  65.469  1.00  0.00    -0.251 C  
HETATM    2  C   UNL     1     -10.753   5.153  66.613  1.00  0.00    -0.225 C  
ENDROOT
BRANCH   2   3
HETATM    3  C   UNL     1      -9.860   5.105  67.842  1.00  0.00    -0.199 C  
HETATM    4  C   UNL     1      -9.094   5.065  68.897  1.00  0.00    -0.142 C  
HETATM    5  C   UNL     1      -8.201   5.017  70.125  1.00  0.00    -0.081 C  
HETATM    6  C   UNL     1      -7.426   6.337  70.198  1.00  0.00    -0.094 C  
HETATM    7  C   UNL     1      -9.036   4.545  71.372  1.00  0.00    -0.177 C  
HETATM    8  O   UNL     1     -11.304   5.375  71.137  1.00  0.00     0.013 OA 
HETATM    9  C   UNL     1      -8.123   4.506  72.577  1.00  0.00    -0.101 C  
HETATM   10  C   UNL     1     -10.488   7.939  71.778  1.00  0.00    -0.221 C  
HETATM   11  O   UNL     1      -7.354   3.576  72.826  1.00  0.00    -0.048 OA 
HETATM   12  N   UNL     1      -8.100   5.636  73.348  1.00  0.00    -0.113 N  
HETATM   13  H   UNL     1      -7.527   5.607  74.192  1.00  0.00     0.000 HD 
HETATM   14  C   UNL     1      -8.769   6.801  73.097  1.00  0.00    -0.122 C  
HETATM   15  C   UNL     1     -10.163   5.546  71.565  1.00  0.00    -0.212 C  
HETATM   16  N   UNL     1      -9.757   6.741  72.141  1.00  0.00    -0.150 N  
HETATM   17  O   UNL     1      -8.452   7.819  73.707  1.00  0.00    -0.186 OA 
BRANCH   7  18
HETATM   18  C   UNL     1      -9.570   3.103  71.095  1.00  0.00    -0.230 C  
BRANCH  18  19
HETATM   19  C   UNL     1      -9.977   2.283  72.295  1.00  0.00    -0.226 C  
HETATM   20  C   UNL     1     -10.931   2.663  73.155  1.00  0.00    -0.216 C  
ENDBRANCH  18  19
ENDBRANCH   7  18
ENDBRANCH   2   3
TORSDOF 3
ENDMDL
MODEL      167
REMARK 921   NORMALIZED FREE ENERGY PREDICTED BY IDOCK:   -2.19 KCAL/MOL
REMARK 922        TOTAL FREE ENERGY PREDICTED BY IDOCK:   -2.65 KCAL/MOL
REMARK 923 INTER-LIGAND FREE ENERGY PREDICTED BY IDOCK:   -2.54 KCAL/MOL
REMARK 924 INTRA-LIGAND FREE ENERGY PREDICTED BY IDOCK:   -0.11 KCAL/MOL
REMARK 927      BINDING AFFINITY PREDICTED BY RF-SCORE:    0.00 PKD
ROOT
HETATM    1  C   UNL     1      -7.657   4.576  73.605  1.00  0.00    -0.082 C  
HETATM    2  C   UNL     1      -7.167   4.426  72.176  1.00  0.00    -0.062 C  
ENDROOT
BRANCH   2   3
HETATM    3  C   UNL     1      -8.117   5.117  71.212  1.00  0.00    -0.113 C  
HETATM    4  C   UNL     1      -8.933   5.710  70.385  1.00  0.00    -0.153 C  
HETATM    5  C   UNL     1      -9.883   6.400  69.421  1.00  0.00    -0.170 C  
HETATM    6  C   UNL     1     -10.027   7.861  69.865  1.00  0.00    -0.192 C  
HETATM    7  C   UNL     1      -9.461   6.085  67.939  1.00  0.00    -0.112 C  
HETATM    8  O   UNL     1      -7.045   5.884  67.855  1.00  0.00    -0.067 OA 
HETATM    9  C   UNL     1     -10.424   6.784  67.005  1.00  0.00    -0.299 C  
HETATM   10  C   UNL     1      -6.757   8.625  68.089  1.00  0.00    -0.065 C  
HETATM   11  O   UNL     1     -11.536   6.342  66.710  1.00  0.00    -0.141 OA 
HETATM   12  N   UNL     1     -10.045   8.025  66.573  1.00  0.00    -0.441 N  
HETATM   13  H   UNL     1     -10.660   8.487  65.902  1.00  0.00     0.000 HD 
HETATM   14  C   UNL     1      -8.922   8.707  66.952  1.00  0.00    -0.138 C  
HETATM   15  C   UNL     1      -8.043   6.597  67.755  1.00  0.00    -0.116 C  
HETATM   16  N   UNL     1      -7.961   7.975  67.610  1.00  0.00    -0.121 N  
HETATM   17  O   UNL     1      -8.839   9.907  66.710  1.00  0.00    -0.133 OA 
BRANCH   7  18
HETATM   18  C   UNL     1      -9.564   4.543  67.712  1.00  0.00    -0.208 C  
BRANCH  18  19
HETATM   19  C   UNL     1      -9.156   4.023  66.355  1.00  0.00    -0.140 C  
HETATM   20  C   UNL     1      -9.697   2.934  65.793  1.00  0.00     0.216 C  
ENDBRANCH  18  19
ENDBRANCH   7  18
ENDBRANCH   2   3
TORSDOF 3
ENDMDL
MODEL      168
REMARK 921   NORMALIZED FREE ENERGY PREDICTED BY IDOCK:   -2.15 KCAL/MOL
REMARK 922        TOTAL FREE ENERGY PREDICTED BY IDOCK:   -2.61 KCAL/MOL
REMARK 923 INTER-LIGAND FREE ENERGY PREDICTED BY IDOCK:   -2.72 KCAL/MOL
REMARK 924 INTRA-LIGAND FREE ENERGY PREDICTED BY IDOCK:    0.11 KCAL/MOL
REMARK 927      BINDING AFFINITY PREDICTED BY RF-SCORE:    0.00 PKD
ROOT
HETATM    1  C   UNL     1      -5.482  14.994  68.271  1.00  0.00    -0.118 C  
HETATM    2  C   UNL     1      -6.623  14.272  68.965  1.00  0.00    -0.105 C  
ENDROOT
BRANCH   2   3
HETATM    3  C   UNL     1      -6.839  12.900  68.349  1.00  0.00    -0.096 C  
HETATM    4  C   UNL     1      -7.023  11.722  67.819  1.00  0.00    -0.094 C  
HETATM    5  C   UNL     1      -7.240  10.351  67.203  1.00  0.00    -0.091 C  
HETATM    6  C   UNL     1      -6.054   9.463  67.598  1.00  0.00    -0.053 C  
HETATM    7  C   UNL     1      -8.703   9.857  67.501  1.00  0.00    -0.121 C  
HETATM    8  O   UNL     1      -9.370  10.700  69.676  1.00  0.00    -0.076 OA 
HETATM    9  C   UNL     1      -8.888   8.492  66.875  1.00  0.00    -0.137 C  
HETATM   10  C   UNL     1      -7.744   8.857  70.946  1.00  0.00    -0.122 C  
HETATM   11  O   UNL     1      -9.143   8.313  65.684  1.00  0.00    -0.156 OA 
HETATM   12  N   UNL     1      -8.640   7.421  67.690  1.00  0.00    -0.120 N  
HETATM   13  H   UNL     1      -8.810   6.495  67.297  1.00  0.00     0.000 HD 
HETATM   14  C   UNL     1      -8.187   7.471  68.978  1.00  0.00    -0.128 C  
HETATM   15  C   UNL     1      -8.861   9.798  69.011  1.00  0.00    -0.153 C  
HETATM   16  N   UNL     1      -8.245   8.700  69.595  1.00  0.00    -0.112 N  
HETATM   17  O   UNL     1      -7.747   6.451  69.500  1.00  0.00    -0.096 OA 
BRANCH   7  18
HETATM   18  C   UNL     1      -9.707  10.856  66.843  1.00  0.00    -0.210 C  
BRANCH  18  19
HETATM   19  C   UNL     1     -11.108  10.887  67.405  1.00  0.00    -0.373 C  
HETATM   20  C   UNL     1     -11.779  12.022  67.640  1.00  0.00    -0.365 C  
ENDBRANCH  18  19
ENDBRANCH   7  18
ENDBRANCH   2   3
TORSDOF 3
ENDMDL
MODEL      169
REMARK 921   NORMALIZED FREE ENERGY PREDICTED BY IDOCK:   -2.15 KCAL/MOL
REMARK 922        TOTAL FREE ENERGY PREDICTED BY IDOCK:   -2.60 KCAL/MOL
REMARK 923 INTER-LIGAND FREE ENERGY PREDICTED BY IDOCK:   -2.49 KCAL/MOL
REMARK 924 INTRA-LIGAND FREE ENERGY PREDICTED BY IDOCK:   -0.11 KCAL/MOL
REMARK 927      BINDING AFFINITY PREDICTED BY RF-SCORE:    0.00 PKD
ROOT
HETATM    1  C   UNL     1      -9.820   3.560  64.244  1.00  0.00    -0.179 C  
HETATM    2  C   UNL     1     -10.605   4.277  65.328  1.00  0.00    -0.165 C  
ENDROOT
BRANCH   2   3
HETATM    3  C   UNL     1      -9.663   4.911  66.338  1.00  0.00    -0.200 C  
HETATM    4  C   UNL     1      -8.854   5.455  67.205  1.00  0.00    -0.109 C  
HETATM    5  C   UNL     1      -7.912   6.089  68.215  1.00  0.00    -0.106 C  
HETATM    6  C   UNL     1      -8.015   7.611  68.066  1.00  0.00    -0.122 C  
HETATM    7  C   UNL     1      -8.131   5.437  69.629  1.00  0.00    -0.099 C  
HETATM    8  O   UNL     1     -10.476   4.855  69.852  1.00  0.00    -0.238 OA 
HETATM    9  C   UNL     1      -7.181   6.087  70.611  1.00  0.00    -0.080 C  
HETATM   10  C   UNL     1     -11.158   7.513  70.199  1.00  0.00    -0.231 C  
HETATM   11  O   UNL     1      -5.996   5.774  70.727  1.00  0.00    -0.027 OA 
HETATM   12  N   UNL     1      -7.680   7.150  71.313  1.00  0.00    -0.092 N  
HETATM   13  H   UNL     1      -7.067   7.566  72.015  1.00  0.00     0.000 HD 
HETATM   14  C   UNL     1      -8.917   7.710  71.164  1.00  0.00    -0.138 C  
HETATM   15  C   UNL     1      -9.580   5.681  70.019  1.00  0.00    -0.166 C  
HETATM   16  N   UNL     1      -9.833   6.977  70.445  1.00  0.00    -0.179 N  
HETATM   17  O   UNL     1      -9.139   8.816  71.650  1.00  0.00    -0.221 OA 
BRANCH   7  18
HETATM   18  C   UNL     1      -7.797   3.915  69.531  1.00  0.00    -0.052 C  
BRANCH  18  19
HETATM   19  C   UNL     1      -7.977   3.094  70.785  1.00  0.00    -0.054 C  
HETATM   20  C   UNL     1      -7.296   1.966  71.028  1.00  0.00    -0.033 C  
ENDBRANCH  18  19
ENDBRANCH   7  18
ENDBRANCH   2   3
TORSDOF 3
ENDMDL
MODEL      170
REMARK 921   NORMALIZED FREE ENERGY PREDICTED BY IDOCK:   -2.13 KCAL/MOL
REMARK 922        TOTAL FREE ENERGY PREDICTED BY IDOCK:   -2.59 KCAL/MOL
REMARK 923 INTER-LIGAND FREE ENERGY PREDICTED BY IDOCK:   -2.83 KCAL/MOL
REMARK 924 INTRA-LIGAND FREE ENERGY PREDICTED BY IDOCK:    0.25 KCAL/MOL
REMARK 927      BINDING AFFINITY PREDICTED BY RF-SCORE:    0.00 PKD
ROOT
HETATM    1  C   UNL     1      -7.527   6.808  74.143  1.00  0.00    -0.100 C  
HETATM    2  C   UNL     1      -7.347   6.099  72.813  1.00  0.00    -0.089 C  
ENDROOT
BRANCH   2   3
HETATM    3  C   UNL     1      -7.939   6.926  71.684  1.00  0.00    -0.101 C  
HETATM    4  C   UNL     1      -8.448   7.637  70.716  1.00  0.00    -0.125 C  
HETATM    5  C   UNL     1      -9.040   8.464  69.587  1.00  0.00    -0.153 C  
HETATM    6  C   UNL     1      -8.525   9.900  69.733  1.00  0.00    -0.206 C  
HETATM    7  C   UNL     1      -8.847   7.713  68.218  1.00  0.00    -0.125 C  
HETATM    8  O   UNL     1      -6.757   6.483  68.305  1.00  0.00    -0.063 OA 
HETATM    9  C   UNL     1      -9.446   8.559  67.116  1.00  0.00    -0.162 C  
HETATM   10  C   UNL     1      -5.308   8.822  68.024  1.00  0.00    -0.035 C  
HETATM   11  O   UNL     1     -10.648   8.589  66.852  1.00  0.00    -0.298 OA 
HETATM   12  N   UNL     1      -8.583   9.405  66.475  1.00  0.00    -0.132 N  
HETATM   13  H   UNL     1      -8.962   9.945  65.696  1.00  0.00     0.000 HD 
HETATM   14  C   UNL     1      -7.265   9.599  66.776  1.00  0.00    -0.090 C  
HETATM   15  C   UNL     1      -7.353   7.520  68.017  1.00  0.00    -0.096 C  
HETATM   16  N   UNL     1      -6.690   8.671  67.614  1.00  0.00    -0.065 N  
HETATM   17  O   UNL     1      -6.680  10.575  66.313  1.00  0.00    -0.106 OA 
BRANCH   7  18
HETATM   18  C   UNL     1      -9.612   6.353  68.286  1.00  0.00    -0.123 C  
BRANCH  18  19
HETATM   19  C   UNL     1     -11.017   6.387  68.837  1.00  0.00    -0.412 C  
HETATM   20  C   UNL     1     -11.323   6.031  70.091  1.00  0.00    -0.351 C  
ENDBRANCH  18  19
ENDBRANCH   7  18
ENDBRANCH   2   3
TORSDOF 3
ENDMDL
MODEL      171
REMARK 921   NORMALIZED FREE ENERGY PREDICTED BY IDOCK:   -2.05 KCAL/MOL
REMARK 922        TOTAL FREE ENERGY PREDICTED BY IDOCK:   -2.49 KCAL/MOL
REMARK 923 INTER-LIGAND FREE ENERGY PREDICTED BY IDOCK:   -2.68 KCAL/MOL
REMARK 924 INTRA-LIGAND FREE ENERGY PREDICTED BY IDOCK:    0.19 KCAL/MOL
REMARK 927      BINDING AFFINITY PREDICTED BY RF-SCORE:    0.00 PKD
ROOT
HETATM    1  C   UNL     1     -10.900   9.028  70.407  1.00  0.00    -0.284 C  
HETATM    2  C   UNL     1      -9.393   9.188  70.505  1.00  0.00    -0.287 C  
ENDROOT
BRANCH   2   3
HETATM    3  C   UNL     1      -8.716   8.625  69.268  1.00  0.00    -0.133 C  
HETATM    4  C   UNL     1      -8.133   8.141  68.206  1.00  0.00    -0.128 C  
HETATM    5  C   UNL     1      -7.455   7.577  66.968  1.00  0.00    -0.098 C  
HETATM    6  C   UNL     1      -6.670   6.328  67.386  1.00  0.00    -0.061 C  
HETATM    7  C   UNL     1      -8.494   7.475  65.791  1.00  0.00    -0.151 C  
HETATM    8  O   UNL     1     -10.672   6.965  66.732  1.00  0.00    -0.297 OA 
HETATM    9  C   UNL     1      -7.791   6.912  64.576  1.00  0.00    -0.115 C  
HETATM   10  C   UNL     1      -9.910   4.350  67.214  1.00  0.00    -0.162 C  
HETATM   11  O   UNL     1      -7.097   7.585  63.813  1.00  0.00    -0.063 OA 
HETATM   12  N   UNL     1      -7.867   5.556  64.414  1.00  0.00    -0.102 N  
HETATM   13  H   UNL     1      -7.441   5.169  63.572  1.00  0.00     0.000 HD 
HETATM   14  C   UNL     1      -8.458   4.670  65.270  1.00  0.00    -0.128 C  
HETATM   15  C   UNL     1      -9.613   6.557  66.256  1.00  0.00    -0.046 C  
HETATM   16  N   UNL     1      -9.277   5.211  66.235  1.00  0.00    -0.141 N  
HETATM   17  O   UNL     1      -8.220   3.471  65.152  1.00  0.00    -0.096 OA 
BRANCH   7  18
HETATM   18  C   UNL     1      -9.010   8.911  65.459  1.00  0.00    -0.246 C  
BRANCH  18  19
HETATM   19  C   UNL     1      -7.982   9.918  65.004  1.00  0.00    -0.137 C  
HETATM   20  C   UNL     1      -7.452  10.844  65.815  1.00  0.00    -0.007 C  
ENDBRANCH  18  19
ENDBRANCH   7  18
ENDBRANCH   2   3
TORSDOF 3
ENDMDL
MODEL      172
REMARK 921   NORMALIZED FREE ENERGY PREDICTED BY IDOCK:   -1.96 KCAL/MOL
REMARK 922        TOTAL FREE ENERGY PREDICTED BY IDOCK:   -2.38 KCAL/MOL
REMARK 923 INTER-LIGAND FREE ENERGY PREDICTED BY IDOCK:   -2.29 KCAL/MOL
REMARK 924 INTRA-LIGAND FREE ENERGY PREDICTED BY IDOCK:   -0.09 KCAL/MOL
REMARK 927      BINDING AFFINITY PREDICTED BY RF-SCORE:    0.00 PKD
ROOT
HETATM    1  C   UNL     1      -8.496   6.970  65.280  1.00  0.00    -0.060 C  
HETATM    2  C   UNL     1      -7.351   6.674  66.232  1.00  0.00    -0.073 C  
ENDROOT
BRANCH   2   3
HETATM    3  C   UNL     1      -6.891   7.945  66.925  1.00  0.00    -0.072 C  
HETATM    4  C   UNL     1      -6.496   9.037  67.519  1.00  0.00    -0.064 C  
HETATM    5  C   UNL     1      -6.036  10.309  68.212  1.00  0.00    -0.044 C  
HETATM    6  C   UNL     1      -5.572  11.294  67.133  1.00  0.00    -0.075 C  
HETATM    7  C   UNL     1      -7.118  10.767  69.258  1.00  0.00    -0.116 C  
HETATM    8  O   UNL     1      -9.311  10.174  68.404  1.00  0.00    -0.132 OA 
HETATM    9  C   UNL     1      -6.633  12.032  69.930  1.00  0.00     0.048 C  
HETATM   10  C   UNL     1      -9.208  12.236  66.563  1.00  0.00    -0.219 C  
HETATM   11  O   UNL     1      -5.826  12.048  70.861  1.00  0.00    -0.348 OA 
HETATM   12  N   UNL     1      -7.054  13.207  69.371  1.00  0.00    -0.321 N  
HETATM   13  H   UNL     1      -6.777  14.068  69.844  1.00  0.00     0.000 HD 
HETATM   14  C   UNL     1      -7.810  13.341  68.240  1.00  0.00    -0.143 C  
HETATM   15  C   UNL     1      -8.410  11.008  68.494  1.00  0.00    -0.149 C  
HETATM   16  N   UNL     1      -8.424  12.198  67.781  1.00  0.00    -0.150 N  
HETATM   17  O   UNL     1      -7.886  14.439  67.695  1.00  0.00    -0.150 OA 
BRANCH   7  18
HETATM   18  C   UNL     1      -7.272   9.647  70.335  1.00  0.00    -0.147 C  
BRANCH  18  19
HETATM   19  C   UNL     1      -6.022   8.894  70.721  1.00  0.00    -0.038 C  
HETATM   20  C   UNL     1      -5.974   7.560  70.838  1.00  0.00    -0.035 C  
ENDBRANCH  18  19
ENDBRANCH   7  18
ENDBRANCH   2   3
TORSDOF 3
ENDMDL
MODEL      173
REMARK 921   NORMALIZED FREE ENERGY PREDICTED BY IDOCK:   -1.95 KCAL/MOL
REMARK 922        TOTAL FREE ENERGY PREDICTED BY IDOCK:   -2.37 KCAL/MOL
REMARK 923 INTER-LIGAND FREE ENERGY PREDICTED BY IDOCK:   -2.32 KCAL/MOL
REMARK 924 INTRA-LIGAND FREE ENERGY PREDICTED BY IDOCK:   -0.06 KCAL/MOL
REMARK 927      BINDING AFFINITY PREDICTED BY RF-SCORE:    0.00 PKD
ROOT
HETATM    1  C   UNL     1      -9.838   4.070  66.904  1.00  0.00    -0.157 C  
HETATM    2  C   UNL     1     -10.472   5.376  66.461  1.00  0.00    -0.352 C  
ENDROOT
BRANCH   2   3
HETATM    3  C   UNL     1     -10.033   6.516  67.366  1.00  0.00    -0.180 C  
HETATM    4  C   UNL     1      -9.656   7.494  68.142  1.00  0.00    -0.155 C  
HETATM    5  C   UNL     1      -9.217   8.633  69.046  1.00  0.00    -0.145 C  
HETATM    6  C   UNL     1     -10.265   8.789  70.154  1.00  0.00    -0.207 C  
HETATM    7  C   UNL     1      -7.705   8.449  69.439  1.00  0.00    -0.097 C  
HETATM    8  O   UNL     1      -7.237   6.073  69.602  1.00  0.00    -0.069 OA 
HETATM    9  C   UNL     1      -7.297   9.596  70.337  1.00  0.00    -0.149 C  
HETATM   10  C   UNL     1      -8.602   5.916  72.003  1.00  0.00    -0.137 C  
HETATM   11  O   UNL     1      -6.983  10.712  69.923  1.00  0.00    -0.143 OA 
HETATM   12  N   UNL     1      -7.403   9.371  71.682  1.00  0.00     0.268 N  
HETATM   13  H   UNL     1      -7.084  10.117  72.300  1.00  0.00     0.000 HD 
HETATM   14  C   UNL     1      -7.896   8.244  72.278  1.00  0.00    -0.130 C  
HETATM   15  C   UNL     1      -7.585   7.115  70.157  1.00  0.00    -0.091 C  
HETATM   16  N   UNL     1      -8.044   7.142  71.467  1.00  0.00    -0.102 N  
HETATM   17  O   UNL     1      -8.192   8.275  73.470  1.00  0.00    -0.222 OA 
BRANCH   7  18
HETATM   18  C   UNL     1      -6.845   8.495  68.136  1.00  0.00    -0.069 C  
BRANCH  18  19
HETATM   19  C   UNL     1      -7.216   9.537  67.109  1.00  0.00    -0.087 C  
HETATM   20  C   UNL     1      -7.018   9.376  65.794  1.00  0.00    -0.090 C  
ENDBRANCH  18  19
ENDBRANCH   7  18
ENDBRANCH   2   3
TORSDOF 3
ENDMDL
MODEL      174
REMARK 921   NORMALIZED FREE ENERGY PREDICTED BY IDOCK:   -1.90 KCAL/MOL
REMARK 922        TOTAL FREE ENERGY PREDICTED BY IDOCK:   -2.32 KCAL/MOL
REMARK 923 INTER-LIGAND FREE ENERGY PREDICTED BY IDOCK:   -2.28 KCAL/MOL
REMARK 924 INTRA-LIGAND FREE ENERGY PREDICTED BY IDOCK:   -0.03 KCAL/MOL
REMARK 927      BINDING AFFINITY PREDICTED BY RF-SCORE:    0.00 PKD
ROOT
HETATM    1  C   UNL     1      -6.672  15.654  68.537  1.00  0.00    -0.114 C  
HETATM    2  C   UNL     1      -7.526  14.945  67.502  1.00  0.00    -0.224 C  
ENDROOT
BRANCH   2   3
HETATM    3  C   UNL     1      -7.582  13.454  67.787  1.00  0.00    -0.157 C  
HETATM    4  C   UNL     1      -7.630  12.174  68.033  1.00  0.00    -0.123 C  
HETATM    5  C   UNL     1      -7.686  10.682  68.318  1.00  0.00    -0.107 C  
HETATM    6  C   UNL     1      -8.938  10.409  69.159  1.00  0.00    -0.188 C  
HETATM    7  C   UNL     1      -7.463   9.876  66.986  1.00  0.00    -0.091 C  
HETATM    8  O   UNL     1      -8.429  11.139  65.153  1.00  0.00    -0.038 OA 
HETATM    9  C   UNL     1      -7.523   8.398  67.302  1.00  0.00    -0.093 C  
HETATM   10  C   UNL     1     -10.985  10.455  65.959  1.00  0.00     0.240 C  
HETATM   11  O   UNL     1      -6.580   7.757  67.767  1.00  0.00    -0.056 OA 
HETATM   12  N   UNL     1      -8.746   7.802  67.151  1.00  0.00    -0.123 N  
HETATM   13  H   UNL     1      -8.790   6.796  67.311  1.00  0.00     0.000 HD 
HETATM   14  C   UNL     1      -9.913   8.424  66.807  1.00  0.00    -0.284 C  
HETATM   15  C   UNL     1      -8.568  10.281  66.024  1.00  0.00    -0.145 C  
HETATM   16  N   UNL     1      -9.796   9.702  66.308  1.00  0.00    -0.237 N  
HETATM   17  O   UNL     1     -10.978   7.837  66.972  1.00  0.00    -0.247 OA 
BRANCH   7  18
HETATM   18  C   UNL     1      -6.044  10.219  66.430  1.00  0.00    -0.074 C  
BRANCH  18  19
HETATM   19  C   UNL     1      -5.725   9.746  65.033  1.00  0.00    -0.073 C  
HETATM   20  C   UNL     1      -5.313  10.565  64.057  1.00  0.00    -0.151 C  
ENDBRANCH  18  19
ENDBRANCH   7  18
ENDBRANCH   2   3
TORSDOF 3
ENDMDL
MODEL      175
REMARK 921   NORMALIZED FREE ENERGY PREDICTED BY IDOCK:   -1.89 KCAL/MOL
REMARK 922        TOTAL FREE ENERGY PREDICTED BY IDOCK:   -2.30 KCAL/MOL
REMARK 923 INTER-LIGAND FREE ENERGY PREDICTED BY IDOCK:   -2.23 KCAL/MOL
REMARK 924 INTRA-LIGAND FREE ENERGY PREDICTED BY IDOCK:   -0.07 KCAL/MOL
REMARK 927      BINDING AFFINITY PREDICTED BY RF-SCORE:    0.00 PKD
ROOT
HETATM    1  C   UNL     1      -8.720   2.099  67.989  1.00  0.00    -0.126 C  
HETATM    2  C   UNL     1      -9.200   3.343  67.263  1.00  0.00    -0.222 C  
ENDROOT
BRANCH   2   3
HETATM    3  C   UNL     1      -8.469   4.573  67.775  1.00  0.00    -0.103 C  
HETATM    4  C   UNL     1      -7.842   5.629  68.213  1.00  0.00    -0.096 C  
HETATM    5  C   UNL     1      -7.111   6.860  68.725  1.00  0.00    -0.089 C  
HETATM    6  C   UNL     1      -6.804   7.761  67.523  1.00  0.00    -0.069 C  
HETATM    7  C   UNL     1      -7.878   7.460  69.960  1.00  0.00    -0.104 C  
HETATM    8  O   UNL     1     -10.255   7.091  69.642  1.00  0.00    -0.192 OA 
HETATM    9  C   UNL     1      -7.128   8.680  70.447  1.00  0.00    -0.044 C  
HETATM   10  C   UNL     1     -10.361   9.082  67.725  1.00  0.00    -0.246 C  
HETATM   11  O   UNL     1      -6.136   8.630  71.174  1.00  0.00    -0.036 OA 
HETATM   12  N   UNL     1      -7.543   9.880  69.937  1.00  0.00    -0.146 N  
HETATM   13  H   UNL     1      -7.081  10.716  70.295  1.00  0.00     0.000 HD 
HETATM   14  C   UNL     1      -8.516  10.068  68.996  1.00  0.00    -0.147 C  
HETATM   15  C   UNL     1      -9.277   7.822  69.490  1.00  0.00    -0.149 C  
HETATM   16  N   UNL     1      -9.330   8.988  68.740  1.00  0.00    -0.140 N  
HETATM   17  O   UNL     1      -8.601  11.154  68.428  1.00  0.00    -0.139 OA 
BRANCH   7  18
HETATM   18  C   UNL     1      -7.899   6.390  71.098  1.00  0.00    -0.114 C  
BRANCH  18  19
HETATM   19  C   UNL     1      -6.607   5.658  71.371  1.00  0.00    -0.045 C  
HETATM   20  C   UNL     1      -6.501   4.323  71.345  1.00  0.00    -0.019 C  
ENDBRANCH  18  19
ENDBRANCH   7  18
ENDBRANCH   2   3
TORSDOF 3
ENDMDL
MODEL      176
REMARK 921   NORMALIZED FREE ENERGY PREDICTED BY IDOCK:   -1.87 KCAL/MOL
REMARK 922        TOTAL FREE ENERGY PREDICTED BY IDOCK:   -2.28 KCAL/MOL
REMARK 923 INTER-LIGAND FREE ENERGY PREDICTED BY IDOCK:   -2.26 KCAL/MOL
REMARK 924 INTRA-LIGAND FREE ENERGY PREDICTED BY IDOCK:   -0.02 KCAL/MOL
REMARK 927      BINDING AFFINITY PREDICTED BY RF-SCORE:    0.00 PKD
ROOT
HETATM    1  C   UNL     1      -8.107   5.075  71.147  1.00  0.00    -0.109 C  
HETATM    2  C   UNL     1      -7.299   6.335  70.892  1.00  0.00    -0.080 C  
ENDROOT
BRANCH   2   3
HETATM    3  C   UNL     1      -7.241   6.639  69.404  1.00  0.00    -0.090 C  
HETATM    4  C   UNL     1      -7.190   6.899  68.127  1.00  0.00    -0.091 C  
HETATM    5  C   UNL     1      -7.132   7.203  66.640  1.00  0.00    -0.078 C  
HETATM    6  C   UNL     1      -6.086   6.277  66.009  1.00  0.00    -0.033 C  
HETATM    7  C   UNL     1      -8.588   7.237  66.045  1.00  0.00    -0.160 C  
HETATM    8  O   UNL     1      -9.945   5.621  67.244  1.00  0.00    -0.133 OA 
HETATM    9  C   UNL     1      -8.497   7.541  64.566  1.00  0.00     0.149 C  
HETATM   10  C   UNL     1      -8.706   3.527  65.929  1.00  0.00    -0.122 C  
HETATM   11  O   UNL     1      -8.357   8.675  64.107  1.00  0.00    -0.168 OA 
HETATM   12  N   UNL     1      -8.463   6.457  63.733  1.00  0.00    -0.329 N  
HETATM   13  H   UNL     1      -8.453   6.647  62.730  1.00  0.00     0.000 HD 
HETATM   14  C   UNL     1      -8.439   5.144  64.111  1.00  0.00    -0.127 C  
HETATM   15  C   UNL     1      -9.207   5.871  66.291  1.00  0.00    -0.158 C  
HETATM   16  N   UNL     1      -8.750   4.886  65.427  1.00  0.00    -0.138 N  
HETATM   17  O   UNL     1      -8.133   4.287  63.288  1.00  0.00    -0.081 OA 
BRANCH   7  18
HETATM   18  C   UNL     1      -9.385   8.380  66.750  1.00  0.00    -0.235 C  
BRANCH  18  19
HETATM   19  C   UNL     1      -8.600   9.596  67.178  1.00  0.00    -0.133 C  
HETATM   20  C   UNL     1      -8.838  10.827  66.706  1.00  0.00    -0.147 C  
ENDBRANCH  18  19
ENDBRANCH   7  18
ENDBRANCH   2   3
TORSDOF 3
ENDMDL
MODEL      177
REMARK 921   NORMALIZED FREE ENERGY PREDICTED BY IDOCK:   -1.83 KCAL/MOL
REMARK 922        TOTAL FREE ENERGY PREDICTED BY IDOCK:   -2.23 KCAL/MOL
REMARK 923 INTER-LIGAND FREE ENERGY PREDICTED BY IDOCK:   -2.13 KCAL/MOL
REMARK 924 INTRA-LIGAND FREE ENERGY PREDICTED BY IDOCK:   -0.10 KCAL/MOL
REMARK 927      BINDING AFFINITY PREDICTED BY RF-SCORE:    0.00 PKD
ROOT
HETATM    1  C   UNL     1     -12.289   9.368  71.839  1.00  0.00    -0.450 C  
HETATM    2  C   UNL     1     -11.721   9.574  70.446  1.00  0.00    -0.227 C  
ENDROOT
BRANCH   2   3
HETATM    3  C   UNL     1     -10.521   8.671  70.221  1.00  0.00    -0.229 C  
HETATM    4  C   UNL     1      -9.490   7.895  70.027  1.00  0.00    -0.157 C  
HETATM    5  C   UNL     1      -8.289   6.991  69.803  1.00  0.00    -0.132 C  
HETATM    6  C   UNL     1      -8.453   6.319  68.435  1.00  0.00    -0.115 C  
HETATM    7  C   UNL     1      -6.964   7.777  70.119  1.00  0.00    -0.050 C  
HETATM    8  O   UNL     1      -7.287  10.104  69.511  1.00  0.00    -0.092 OA 
HETATM    9  C   UNL     1      -5.789   6.854  69.888  1.00  0.00    -0.023 C  
HETATM   10  C   UNL     1      -7.099   9.482  66.823  1.00  0.00    -0.086 C  
HETATM   11  O   UNL     1      -5.405   6.014  70.703  1.00  0.00    -0.012 OA 
HETATM   12  N   UNL     1      -5.218   6.911  68.646  1.00  0.00    -0.015 N  
HETATM   13  H   UNL     1      -4.393   6.331  68.491  1.00  0.00     0.000 HD 
HETATM   14  C   UNL     1      -5.645   7.670  67.592  1.00  0.00    -0.035 C  
HETATM   15  C   UNL     1      -6.917   8.976  69.187  1.00  0.00    -0.058 C  
HETATM   16  N   UNL     1      -6.557   8.658  67.885  1.00  0.00    -0.060 N  
HETATM   17  O   UNL     1      -5.220   7.427  66.466  1.00  0.00    -0.022 OA 
BRANCH   7  18
HETATM   18  C   UNL     1      -6.987   8.202  71.622  1.00  0.00    -0.072 C  
BRANCH  18  19
HETATM   19  C   UNL     1      -7.522   7.192  72.609  1.00  0.00    -0.084 C  
HETATM   20  C   UNL     1      -8.342   7.515  73.618  1.00  0.00    -0.207 C  
ENDBRANCH  18  19
ENDBRANCH   7  18
ENDBRANCH   2   3
TORSDOF 3
ENDMDL
MODEL      178
REMARK 921   NORMALIZED FREE ENERGY PREDICTED BY IDOCK:   -1.62 KCAL/MOL
REMARK 922        TOTAL FREE ENERGY PREDICTED BY IDOCK:   -1.99 KCAL/MOL
REMARK 923 INTER-LIGAND FREE ENERGY PREDICTED BY IDOCK:   -1.87 KCAL/MOL
REMARK 924 INTRA-LIGAND FREE ENERGY PREDICTED BY IDOCK:   -0.12 KCAL/MOL
REMARK 927      BINDING AFFINITY PREDICTED BY RF-SCORE:    0.00 PKD
ROOT
HETATM    1  C   UNL     1     -12.928  10.834  70.159  1.00  0.00    -0.050 C  
HETATM    2  C   UNL     1     -11.837  11.200  69.169  1.00  0.00    -0.419 C  
ENDROOT
BRANCH   2   3
HETATM    3  C   UNL     1     -10.748  10.141  69.161  1.00  0.00    -0.254 C  
HETATM    4  C   UNL     1      -9.813   9.231  69.154  1.00  0.00    -0.167 C  
HETATM    5  C   UNL     1      -8.724   8.172  69.147  1.00  0.00    -0.140 C  
HETATM    6  C   UNL     1      -9.067   7.149  68.058  1.00  0.00    -0.132 C  
HETATM    7  C   UNL     1      -7.310   8.861  69.137  1.00  0.00    -0.072 C  
HETATM    8  O   UNL     1      -7.471  10.926  67.872  1.00  0.00    -0.087 OA 
HETATM    9  C   UNL     1      -6.248   7.783  69.130  1.00  0.00    -0.035 C  
HETATM   10  C   UNL     1      -7.575   9.521  65.492  1.00  0.00    -0.105 C  
HETATM   11  O   UNL     1      -5.873   7.184  70.138  1.00  0.00    -0.023 OA 
HETATM   12  N   UNL     1      -5.785   7.407  67.899  1.00  0.00    -0.029 N  
HETATM   13  H   UNL     1      -5.032   6.718  67.881  1.00  0.00     0.000 HD 
HETATM   14  C   UNL     1      -6.231   7.864  66.691  1.00  0.00    -0.050 C  
HETATM   15  C   UNL     1      -7.235   9.718  67.884  1.00  0.00    -0.084 C  
HETATM   16  N   UNL     1      -7.020   8.991  66.722  1.00  0.00    -0.080 N  
HETATM   17  O   UNL     1      -5.929   7.254  65.669  1.00  0.00    -0.036 OA 
BRANCH   7  18
HETATM   18  C   UNL     1      -7.163   9.710  70.440  1.00  0.00    -0.147 C  
BRANCH  18  19
HETATM   19  C   UNL     1      -5.866  10.461  70.623  1.00  0.00    -0.106 C  
HETATM   20  C   UNL     1      -5.346  10.746  71.824  1.00  0.00     0.149 C  
ENDBRANCH  18  19
ENDBRANCH   7  18
ENDBRANCH   2   3
TORSDOF 3
ENDMDL
MODEL      179
REMARK 921   NORMALIZED FREE ENERGY PREDICTED BY IDOCK:   -1.27 KCAL/MOL
REMARK 922        TOTAL FREE ENERGY PREDICTED BY IDOCK:   -1.57 KCAL/MOL
REMARK 923 INTER-LIGAND FREE ENERGY PREDICTED BY IDOCK:   -1.64 KCAL/MOL
REMARK 924 INTRA-LIGAND FREE ENERGY PREDICTED BY IDOCK:    0.07 KCAL/MOL
REMARK 927      BINDING AFFINITY PREDICTED BY RF-SCORE:    0.00 PKD
ROOT
HETATM    1  C   UNL     1      -5.224  18.545  63.322  1.00  0.00     0.122 C  
HETATM    2  C   UNL     1      -5.533  19.607  64.363  1.00  0.00    -0.257 C  
ENDROOT
BRANCH   2   3
HETATM    3  C   UNL     1      -6.102  18.972  65.620  1.00  0.00    -0.251 C  
HETATM    4  C   UNL     1      -6.591  18.427  66.699  1.00  0.00    -0.219 C  
HETATM    5  C   UNL     1      -7.161  17.791  67.956  1.00  0.00    -0.218 C  
HETATM    6  C   UNL     1      -7.224  18.869  69.044  1.00  0.00    -0.328 C  
HETATM    7  C   UNL     1      -8.461  16.980  67.601  1.00  0.00    -0.210 C  
HETATM    8  O   UNL     1      -9.603  18.115  65.786  1.00  0.00    -0.492 OA 
HETATM    9  C   UNL     1      -9.004  16.360  68.870  1.00  0.00    -0.256 C  
HETATM   10  C   UNL     1     -10.471  20.101  67.504  1.00  0.00    -0.282 C  
HETATM   11  O   UNL     1      -8.571  15.318  69.363  1.00  0.00    -0.238 OA 
HETATM   12  N   UNL     1      -9.953  17.088  69.533  1.00  0.00    -0.065 N  
HETATM   13  H   UNL     1     -10.365  16.659  70.363  1.00  0.00     0.000 HD 
HETATM   14  C   UNL     1     -10.404  18.333  69.194  1.00  0.00     0.034 C  
HETATM   15  C   UNL     1      -9.453  17.960  66.997  1.00  0.00    -0.272 C  
HETATM   16  N   UNL     1     -10.074  18.775  67.933  1.00  0.00    -0.348 N  
HETATM   17  O   UNL     1     -11.045  18.984  70.014  1.00  0.00     2.182 OA 
BRANCH   7  18
HETATM   18  C   UNL     1      -8.078  15.841  66.604  1.00  0.00    -0.282 C  
BRANCH  18  19
HETATM   19  C   UNL     1      -9.065  14.710  66.447  1.00  0.00    -0.242 C  
HETATM   20  C   UNL     1      -8.759  13.429  66.692  1.00  0.00    -0.014 C  
ENDBRANCH  18  19
ENDBRANCH   7  18
ENDBRANCH   2   3
TORSDOF 3
ENDMDL
MODEL      180
REMARK 921   NORMALIZED FREE ENERGY PREDICTED BY IDOCK:   -0.84 KCAL/MOL
REMARK 922        TOTAL FREE ENERGY PREDICTED BY IDOCK:   -1.07 KCAL/MOL
REMARK 923 INTER-LIGAND FREE ENERGY PREDICTED BY IDOCK:   -2.06 KCAL/MOL
REMARK 924 INTRA-LIGAND FREE ENERGY PREDICTED BY IDOCK:    0.99 KCAL/MOL
REMARK 927      BINDING AFFINITY PREDICTED BY RF-SCORE:    0.00 PKD
ROOT
HETATM    1  C   UNL     1      -9.815   9.534  68.121  1.00  0.00    -0.177 C  
HETATM    2  C   UNL     1     -11.033  10.412  68.352  1.00  0.00    -0.312 C  
ENDROOT
BRANCH   2   3
HETATM    3  C   UNL     1     -10.637  11.878  68.372  1.00  0.00    -0.239 C  
HETATM    4  C   UNL     1     -10.297  13.138  68.390  1.00  0.00    -0.257 C  
HETATM    5  C   UNL     1      -9.900  14.604  68.410  1.00  0.00    -0.220 C  
HETATM    6  C   UNL     1      -9.177  14.880  69.733  1.00  0.00     0.183 C  
HETATM    7  C   UNL     1      -9.198  14.985  67.056  1.00  0.00    -0.246 C  
HETATM    8  O   UNL     1      -7.956  13.056  66.266  1.00  0.00     0.689 OA 
HETATM    9  C   UNL     1      -8.816  16.448  67.105  1.00  0.00    -0.195 C  
HETATM   10  C   UNL     1      -6.011  13.454  68.192  1.00  0.00    -0.112 C  
HETATM   11  O   UNL     1      -9.602  17.369  66.878  1.00  0.00    -0.258 OA 
HETATM   12  N   UNL     1      -7.548  16.722  67.539  1.00  0.00    -0.153 N  
HETATM   13  H   UNL     1      -7.260  17.701  67.529  1.00  0.00     0.000 HD 
HETATM   14  C   UNL     1      -6.630  15.813  67.983  1.00  0.00    -0.135 C  
HETATM   15  C   UNL     1      -7.971  14.099  66.919  1.00  0.00     0.187 C  
HETATM   16  N   UNL     1      -6.907  14.491  67.718  1.00  0.00    -0.165 N  
HETATM   17  O   UNL     1      -5.641  16.208  68.596  1.00  0.00    -0.102 OA 
BRANCH   7  18
HETATM   18  C   UNL     1     -10.215  14.766  65.891  1.00  0.00    -0.331 C  
BRANCH  18  19
HETATM   19  C   UNL     1     -11.658  15.111  66.169  1.00  0.00    -0.080 C  
HETATM   20  C   UNL     1     -12.512  14.270  66.767  1.00  0.00    -0.136 C  
ENDBRANCH  18  19
ENDBRANCH   7  18
ENDBRANCH   2   3
TORSDOF 3
ENDMDL
MODEL      181
REMARK 921   NORMALIZED FREE ENERGY PREDICTED BY IDOCK:   -0.60 KCAL/MOL
REMARK 922        TOTAL FREE ENERGY PREDICTED BY IDOCK:   -0.78 KCAL/MOL
REMARK 923 INTER-LIGAND FREE ENERGY PREDICTED BY IDOCK:   -2.04 KCAL/MOL
REMARK 924 INTRA-LIGAND FREE ENERGY PREDICTED BY IDOCK:    1.25 KCAL/MOL
REMARK 927      BINDING AFFINITY PREDICTED BY RF-SCORE:    0.00 PKD
ROOT
HETATM    1  C   UNL     1      -5.642   5.479  70.060  1.00  0.00    -0.008 C  
HETATM    2  C   UNL     1      -5.143   6.504  69.057  1.00  0.00    -0.012 C  
ENDROOT
BRANCH   2   3
HETATM    3  C   UNL     1      -5.662   6.184  67.665  1.00  0.00    -0.012 C  
HETATM    4  C   UNL     1      -6.106   5.909  66.470  1.00  0.00    -0.026 C  
HETATM    5  C   UNL     1      -6.625   5.589  65.079  1.00  0.00    -0.040 C  
HETATM    6  C   UNL     1      -6.448   4.084  64.843  1.00  0.00    -0.038 C  
HETATM    7  C   UNL     1      -8.044   6.238  64.876  1.00  0.00    -0.130 C  
HETATM    8  O   UNL     1      -9.208   6.219  67.005  1.00  0.00    -0.119 OA 
HETATM    9  C   UNL     1      -8.533   5.903  63.484  1.00  0.00     0.099 C  
HETATM   10  C   UNL     1      -9.654   3.497  66.796  1.00  0.00    -0.112 C  
HETATM   11  O   UNL     1      -8.185   6.511  62.471  1.00  0.00    -0.102 OA 
HETATM   12  N   UNL     1      -9.316   4.787  63.377  1.00  0.00    -0.348 N  
HETATM   13  H   UNL     1      -9.695   4.577  62.453  1.00  0.00     0.000 HD 
HETATM   14  C   UNL     1      -9.641   3.924  64.387  1.00  0.00    -0.170 C  
HETATM   15  C   UNL     1      -8.961   5.656  65.939  1.00  0.00    -0.155 C  
HETATM   16  N   UNL     1      -9.383   4.363  65.666  1.00  0.00    -0.149 N  
HETATM   17  O   UNL     1     -10.114   2.826  64.109  1.00  0.00    -0.149 OA 
BRANCH   7  18
HETATM   18  C   UNL     1      -7.903   7.788  65.005  1.00  0.00    -0.125 C  
BRANCH  18  19
HETATM   19  C   UNL     1      -8.427   8.418  66.273  1.00  0.00    -0.132 C  
HETATM   20  C   UNL     1      -9.585   9.088  66.335  1.00  0.00    -0.309 C  
ENDBRANCH  18  19
ENDBRANCH   7  18
ENDBRANCH   2   3
TORSDOF 3
ENDMDL
MODEL      182
REMARK 921   NORMALIZED FREE ENERGY PREDICTED BY IDOCK:    1.36 KCAL/MOL
REMARK 922        TOTAL FREE ENERGY PREDICTED BY IDOCK:    1.52 KCAL/MOL
REMARK 923 INTER-LIGAND FREE ENERGY PREDICTED BY IDOCK:    1.58 KCAL/MOL
REMARK 924 INTRA-LIGAND FREE ENERGY PREDICTED BY IDOCK:   -0.05 KCAL/MOL
REMARK 927      BINDING AFFINITY PREDICTED BY RF-SCORE:    0.00 PKD
ROOT
HETATM    1  C   UNL     1      -5.127  17.373  63.628  1.00  0.00     2.468 C  
HETATM    2  C   UNL     1      -5.169  17.324  65.145  1.00  0.00     1.199 C  
ENDROOT
BRANCH   2   3
HETATM    3  C   UNL     1      -6.604  17.232  65.636  1.00  0.00     0.443 C  
HETATM    4  C   UNL     1      -7.836  17.153  66.056  1.00  0.00    -0.193 C  
HETATM    5  C   UNL     1      -9.271  17.061  66.547  1.00  0.00    -0.296 C  
HETATM    6  C   UNL     1      -9.837  15.709  66.101  1.00  0.00    -0.340 C  
HETATM    7  C   UNL     1      -9.341  17.461  68.067  1.00  0.00    -0.276 C  
HETATM    8  O   UNL     1      -7.287  16.748  69.144  1.00  0.00    -0.238 OA 
HETATM    9  C   UNL     1     -10.779  17.361  68.526  1.00  0.00    -0.279 C  
HETATM   10  C   UNL     1      -8.110  14.108  69.083  1.00  0.00     0.132 C  
HETATM   11  O   UNL     1     -11.624  18.235  68.328  1.00  0.00     0.978 OA 
HETATM   12  N   UNL     1     -11.146  16.171  69.091  1.00  0.00    -0.309 N  
HETATM   13  H   UNL     1     -12.098  16.106  69.452  1.00  0.00     0.000 HD 
HETATM   14  C   UNL     1     -10.361  15.059  69.220  1.00  0.00    -0.246 C  
HETATM   15  C   UNL     1      -8.449  16.495  68.829  1.00  0.00    -0.248 C  
HETATM   16  N   UNL     1      -9.013  15.240  69.012  1.00  0.00    -0.211 N  
HETATM   17  O   UNL     1     -10.885  13.982  69.490  1.00  0.00    -0.165 OA 
BRANCH   7  18
HETATM   18  C   UNL     1      -8.864  18.941  68.213  1.00  0.00    -0.367 C  
BRANCH  18  19
HETATM   19  C   UNL     1      -9.173  19.874  67.067  1.00  0.00    -0.472 C  
HETATM   20  C   UNL     1      -8.256  20.672  66.503  1.00  0.00    -0.002 C  
ENDBRANCH  18  19
ENDBRANCH   7  18
ENDBRANCH   2   3
TORSDOF 3
ENDMDL
MODEL      183
REMARK 921   NORMALIZED FREE ENERGY PREDICTED BY IDOCK:    2.01 KCAL/MOL
REMARK 922        TOTAL FREE ENERGY PREDICTED BY IDOCK:    2.28 KCAL/MOL
REMARK 923 INTER-LIGAND FREE ENERGY PREDICTED BY IDOCK:    2.23 KCAL/MOL
REMARK 924 INTRA-LIGAND FREE ENERGY PREDICTED BY IDOCK:    0.05 KCAL/MOL
REMARK 927      BINDING AFFINITY PREDICTED BY RF-SCORE:    0.00 PKD
ROOT
HETATM    1  C   UNL     1      -5.722  16.999  68.939  1.00  0.00    -0.143 C  
HETATM    2  C   UNL     1      -6.106  15.939  67.922  1.00  0.00    -0.151 C  
ENDROOT
BRANCH   2   3
HETATM    3  C   UNL     1      -6.141  14.566  68.570  1.00  0.00    -0.091 C  
HETATM    4  C   UNL     1      -6.172  13.387  69.128  1.00  0.00    -0.098 C  
HETATM    5  C   UNL     1      -6.208  12.013  69.776  1.00  0.00    -0.136 C  
HETATM    6  C   UNL     1      -6.976  12.134  71.097  1.00  0.00     3.970 C  
HETATM    7  C   UNL     1      -6.657  10.937  68.720  1.00  0.00    -0.059 C  
HETATM    8  O   UNL     1      -8.234  11.970  67.193  1.00  0.00    -0.168 OA 
HETATM    9  C   UNL     1      -6.682   9.583  69.394  1.00  0.00    -0.048 C  
HETATM   10  C   UNL     1     -10.215  11.919  69.123  1.00  0.00     0.118 C  
HETATM   11  O   UNL     1      -5.681   8.888  69.575  1.00  0.00    -0.033 OA 
HETATM   12  N   UNL     1      -7.886   9.195  69.914  1.00  0.00    -0.080 N  
HETATM   13  H   UNL     1      -7.931   8.263  70.326  1.00  0.00     0.000 HD 
HETATM   14  C   UNL     1      -9.035   9.935  69.936  1.00  0.00    -0.202 C  
HETATM   15  C   UNL     1      -8.038  11.336  68.230  1.00  0.00    -0.137 C  
HETATM   16  N   UNL     1      -9.055  11.050  69.129  1.00  0.00    -0.061 N  
HETATM   17  O   UNL     1      -9.959   9.589  70.668  1.00  0.00    -0.263 OA 
BRANCH   7  18
HETATM   18  C   UNL     1      -5.607  10.909  67.564  1.00  0.00    -0.044 C  
BRANCH  18  19
HETATM   19  C   UNL     1      -6.031  10.251  66.273  1.00  0.00    -0.072 C  
HETATM   20  C   UNL     1      -5.237  10.167  65.197  1.00  0.00    -0.071 C  
ENDBRANCH  18  19
ENDBRANCH   7  18
ENDBRANCH   2   3
TORSDOF 3
ENDMDL
MODEL      184
REMARK 921   NORMALIZED FREE ENERGY PREDICTED BY IDOCK:    4.13 KCAL/MOL
REMARK 922        TOTAL FREE ENERGY PREDICTED BY IDOCK:    4.77 KCAL/MOL
REMARK 923 INTER-LIGAND FREE ENERGY PREDICTED BY IDOCK:    2.80 KCAL/MOL
REMARK 924 INTRA-LIGAND FREE ENERGY PREDICTED BY IDOCK:    1.97 KCAL/MOL
REMARK 927      BINDING AFFINITY PREDICTED BY RF-SCORE:    0.00 PKD
ROOT
HETATM    1  C   UNL     1     -10.093   9.629  67.883  1.00  0.00    -0.222 C  
HETATM    2  C   UNL     1     -11.388  10.280  68.335  1.00  0.00    -0.244 C  
ENDROOT
BRANCH   2   3
HETATM    3  C   UNL     1     -11.136  11.708  68.788  1.00  0.00    -0.283 C  
HETATM    4  C   UNL     1     -10.920  12.934  69.177  1.00  0.00    -0.184 C  
HETATM    5  C   UNL     1     -10.669  14.363  69.630  1.00  0.00    -0.084 C  
HETATM    6  C   UNL     1      -9.373  14.378  70.449  1.00  0.00     1.906 C  
HETATM    7  C   UNL     1     -10.817  15.343  68.408  1.00  0.00    -0.268 C  
HETATM    8  O   UNL     1     -10.062  14.197  66.407  1.00  0.00    -0.276 OA 
HETATM    9  C   UNL     1     -10.562  16.754  68.889  1.00  0.00    -0.350 C  
HETATM   10  C   UNL     1      -7.422  14.459  67.190  1.00  0.00     0.063 C  
HETATM   11  O   UNL     1     -11.406  17.447  69.460  1.00  0.00     0.700 OA 
HETATM   12  N   UNL     1      -9.278  17.208  68.762  1.00  0.00    -0.268 N  
HETATM   13  H   UNL     1      -9.102  18.175  69.035  1.00  0.00     0.000 HD 
HETATM   14  C   UNL     1      -8.208  16.491  68.306  1.00  0.00    -0.185 C  
HETATM   15  C   UNL     1      -9.796  14.922  67.365  1.00  0.00    -0.221 C  
HETATM   16  N   UNL     1      -8.497  15.307  67.668  1.00  0.00    -0.154 N  
HETATM   17  O   UNL     1      -7.073  16.919  68.498  1.00  0.00    -0.178 OA 
BRANCH   7  18
HETATM   18  C   UNL     1     -12.281  15.247  67.871  1.00  0.00     0.331 C  
BRANCH  18  19
HETATM   19  C   UNL     1     -13.363  14.959  68.884  1.00  0.00     2.654 C  
HETATM   20  C   UNL     1     -13.108  14.628  70.156  1.00  0.00     0.065 C  
ENDBRANCH  18  19
ENDBRANCH   7  18
ENDBRANCH   2   3
TORSDOF 3
ENDMDL
MODEL      185
REMARK 921   NORMALIZED FREE ENERGY PREDICTED BY IDOCK:    4.80 KCAL/MOL
REMARK 922        TOTAL FREE ENERGY PREDICTED BY IDOCK:    5.56 KCAL/MOL
REMARK 923 INTER-LIGAND FREE ENERGY PREDICTED BY IDOCK:    5.51 KCAL/MOL
REMARK 924 INTRA-LIGAND FREE ENERGY PREDICTED BY IDOCK:    0.05 KCAL/MOL
REMARK 927      BINDING AFFINITY PREDICTED BY RF-SCORE:    0.00 PKD
ROOT
HETATM    1  C   UNL     1      -5.702  19.133  65.071  1.00  0.00    -0.273 C  
HETATM    2  C   UNL     1      -5.354  17.712  64.667  1.00  0.00     0.913 C  
ENDROOT
BRANCH   2   3
HETATM    3  C   UNL     1      -5.764  16.733  65.755  1.00  0.00     1.527 C  
HETATM    4  C   UNL     1      -6.116  15.894  66.690  1.00  0.00     0.869 C  
HETATM    5  C   UNL     1      -6.526  14.916  67.777  1.00  0.00    -0.183 C  
HETATM    6  C   UNL     1      -6.379  15.623  69.129  1.00  0.00    -0.127 C  
HETATM    7  C   UNL     1      -7.901  14.249  67.404  1.00  0.00    -0.207 C  
HETATM    8  O   UNL     1      -9.240  15.873  66.197  1.00  0.00    -0.299 OA 
HETATM    9  C   UNL     1      -8.282  13.282  68.503  1.00  0.00    -0.084 C  
HETATM   10  C   UNL     1      -9.754  17.263  68.532  1.00  0.00    -0.296 C  
HETATM   11  O   UNL     1      -7.831  12.140  68.597  1.00  0.00    -0.130 OA 
HETATM   12  N   UNL     1      -9.089  13.782  69.487  1.00  0.00     0.248 N  
HETATM   13  H   UNL     1      -9.396  13.128  70.208  1.00  0.00     0.000 HD 
HETATM   14  C   UNL     1      -9.525  15.072  69.600  1.00  0.00    -0.014 C  
HETATM   15  C   UNL     1      -8.923  15.366  67.272  1.00  0.00    -0.198 C  
HETATM   16  N   UNL     1      -9.362  15.868  68.489  1.00  0.00    -0.200 N  
HETATM   17  O   UNL     1     -10.009  15.452  70.663  1.00  0.00     0.083 OA 
BRANCH   7  18
HETATM   18  C   UNL     1      -7.721  13.456  66.070  1.00  0.00     2.785 C  
BRANCH  18  19
HETATM   19  C   UNL     1      -8.722  12.363  65.786  1.00  0.00     0.543 C  
HETATM   20  C   UNL     1      -9.112  12.028  64.548  1.00  0.00     0.551 C  
ENDBRANCH  18  19
ENDBRANCH   7  18
ENDBRANCH   2   3
TORSDOF 3
ENDMDL
MODEL      186
REMARK 921   NORMALIZED FREE ENERGY PREDICTED BY IDOCK:    6.25 KCAL/MOL
REMARK 922        TOTAL FREE ENERGY PREDICTED BY IDOCK:    7.27 KCAL/MOL
REMARK 923 INTER-LIGAND FREE ENERGY PREDICTED BY IDOCK:    5.34 KCAL/MOL
REMARK 924 INTRA-LIGAND FREE ENERGY PREDICTED BY IDOCK:    1.92 KCAL/MOL
REMARK 927      BINDING AFFINITY PREDICTED BY RF-SCORE:    0.00 PKD
ROOT
HETATM    1  C   UNL     1     -10.173   9.731  67.862  1.00  0.00    -0.237 C  
HETATM    2  C   UNL     1     -11.590  10.240  68.059  1.00  0.00     0.105 C  
ENDROOT
BRANCH   2   3
HETATM    3  C   UNL     1     -11.582  11.720  68.398  1.00  0.00    -0.380 C  
HETATM    4  C   UNL     1     -11.576  12.992  68.689  1.00  0.00    -0.354 C  
HETATM    5  C   UNL     1     -11.568  14.473  69.029  1.00  0.00    -0.330 C  
HETATM    6  C   UNL     1     -12.918  15.062  68.606  1.00  0.00     1.460 C  
HETATM    7  C   UNL     1     -11.067  14.678  70.506  1.00  0.00    -0.062 C  
HETATM    8  O   UNL     1     -11.805  12.788  71.837  1.00  0.00     1.270 OA 
HETATM    9  C   UNL     1     -11.070  16.159  70.814  1.00  0.00    -0.253 C  
HETATM   10  C   UNL     1     -14.402  13.741  71.845  1.00  0.00    -0.188 C  
HETATM   11  O   UNL     1     -10.172  16.931  70.475  1.00  0.00     0.721 OA 
HETATM   12  N   UNL     1     -12.202  16.646  71.407  1.00  0.00    -0.104 N  
HETATM   13  H   UNL     1     -12.198  17.632  71.667  1.00  0.00     0.000 HD 
HETATM   14  C   UNL     1     -13.339  15.939  71.685  1.00  0.00    -0.133 C  
HETATM   15  C   UNL     1     -12.023  13.923  71.415  1.00  0.00     0.058 C  
HETATM   16  N   UNL     1     -13.235  14.569  71.611  1.00  0.00    -0.328 N  
HETATM   17  O   UNL     1     -14.370  16.546  71.960  1.00  0.00     0.972 OA 
BRANCH   7  18
HETATM   18  C   UNL     1      -9.605  14.140  70.613  1.00  0.00     3.018 C  
BRANCH  18  19
HETATM   19  C   UNL     1      -8.611  14.656  69.601  1.00  0.00     0.303 C  
HETATM   20  C   UNL     1      -8.937  15.512  68.623  1.00  0.00    -0.194 C  
ENDBRANCH  18  19
ENDBRANCH   7  18
ENDBRANCH   2   3
TORSDOF 3
ENDMDL
MODEL      187
REMARK 921   NORMALIZED FREE ENERGY PREDICTED BY IDOCK:    6.70 KCAL/MOL
REMARK 922        TOTAL FREE ENERGY PREDICTED BY IDOCK:    7.80 KCAL/MOL
REMARK 923 INTER-LIGAND FREE ENERGY PREDICTED BY IDOCK:    7.25 KCAL/MOL
REMARK 924 INTRA-LIGAND FREE ENERGY PREDICTED BY IDOCK:    0.55 KCAL/MOL
REMARK 927      BINDING AFFINITY PREDICTED BY RF-SCORE:    0.00 PKD
ROOT
HETATM    1  C   UNL     1      -8.441  16.415  70.991  1.00  0.00     5.066 C  
HETATM    2  C   UNL     1      -7.344  15.456  71.417  1.00  0.00     2.797 C  
ENDROOT
BRANCH   2   3
HETATM    3  C   UNL     1      -7.182  14.344  70.396  1.00  0.00     0.536 C  
HETATM    4  C   UNL     1      -7.042  13.388  69.519  1.00  0.00     0.220 C  
HETATM    5  C   UNL     1      -6.880  12.275  68.497  1.00  0.00    -0.081 C  
HETATM    6  C   UNL     1      -6.295  11.054  69.217  1.00  0.00    -0.065 C  
HETATM    7  C   UNL     1      -8.207  12.116  67.668  1.00  0.00    -0.163 C  
HETATM    8  O   UNL     1     -10.085  12.626  69.117  1.00  0.00     0.101 OA 
HETATM    9  C   UNL     1      -8.015  11.003  66.661  1.00  0.00    -0.156 C  
HETATM   10  C   UNL     1      -9.795  10.210  70.432  1.00  0.00     0.137 C  
HETATM   11  O   UNL     1      -7.439  11.147  65.582  1.00  0.00     0.051 OA 
HETATM   12  N   UNL     1      -8.422   9.759  67.058  1.00  0.00    -0.117 N  
HETATM   13  H   UNL     1      -8.346   9.009  66.371  1.00  0.00     0.000 HD 
HETATM   14  C   UNL     1      -8.921   9.423  68.285  1.00  0.00    -0.128 C  
HETATM   15  C   UNL     1      -9.317  11.785  68.651  1.00  0.00    -0.090 C  
HETATM   16  N   UNL     1      -9.297  10.470  69.095  1.00  0.00    -0.199 N  
HETATM   17  O   UNL     1      -8.989   8.239  68.602  1.00  0.00    -0.137 OA 
BRANCH   7  18
HETATM   18  C   UNL     1      -8.477  13.451  66.903  1.00  0.00    -0.066 C  
BRANCH  18  19
HETATM   19  C   UNL     1      -9.678  14.256  67.337  1.00  0.00    -0.235 C  
HETATM   20  C   UNL     1      -9.686  15.594  67.386  1.00  0.00    -0.222 C  
ENDBRANCH  18  19
ENDBRANCH   7  18
ENDBRANCH   2   3
TORSDOF 3
ENDMDL
MODEL      188
REMARK 921   NORMALIZED FREE ENERGY PREDICTED BY IDOCK:    9.36 KCAL/MOL
REMARK 922        TOTAL FREE ENERGY PREDICTED BY IDOCK:   10.92 KCAL/MOL
REMARK 923 INTER-LIGAND FREE ENERGY PREDICTED BY IDOCK:   10.29 KCAL/MOL
REMARK 924 INTRA-LIGAND FREE ENERGY PREDICTED BY IDOCK:    0.63 KCAL/MOL
REMARK 927      BINDING AFFINITY PREDICTED BY RF-SCORE:    0.00 PKD
ROOT
HETATM    1  C   UNL     1      -8.443  16.422  71.004  1.00  0.00     5.066 C  
HETATM    2  C   UNL     1      -7.348  15.472  71.454  1.00  0.00     3.052 C  
ENDROOT
BRANCH   2   3
HETATM    3  C   UNL     1      -7.182  14.339  70.456  1.00  0.00     0.799 C  
HETATM    4  C   UNL     1      -7.039  13.365  69.599  1.00  0.00     0.311 C  
HETATM    5  C   UNL     1      -6.873  12.232  68.601  1.00  0.00    -0.087 C  
HETATM    6  C   UNL     1      -7.883  11.136  68.958  1.00  0.00    -0.103 C  
HETATM    7  C   UNL     1      -6.849  12.809  67.138  1.00  0.00     0.012 C  
HETATM    8  O   UNL     1      -8.308  14.746  67.053  1.00  0.00    -0.206 OA 
HETATM    9  C   UNL     1      -6.682  11.660  66.169  1.00  0.00     0.389 C  
HETATM   10  C   UNL     1     -10.549  13.127  67.124  1.00  0.00    -0.257 C  
HETATM   11  O   UNL     1      -5.599  11.137  65.906  1.00  0.00    -0.144 OA 
HETATM   12  N   UNL     1      -7.838  11.131  65.662  1.00  0.00    -0.371 N  
HETATM   13  H   UNL     1      -7.739  10.390  64.968  1.00  0.00     0.000 HD 
HETATM   14  C   UNL     1      -9.111  11.500  65.994  1.00  0.00    -0.198 C  
HETATM   15  C   UNL     1      -8.168  13.531  66.917  1.00  0.00     0.067 C  
HETATM   16  N   UNL     1      -9.240  12.680  66.690  1.00  0.00    -0.228 N  
HETATM   17  O   UNL     1     -10.048  10.771  65.681  1.00  0.00    -0.244 OA 
BRANCH   7  18
HETATM   18  C   UNL     1      -5.624  13.769  67.003  1.00  0.00     1.135 C  
BRANCH  18  19
HETATM   19  C   UNL     1      -5.922  15.237  66.823  1.00  0.00     1.400 C  
HETATM   20  C   UNL     1      -5.192  16.209  67.384  1.00  0.00    -0.100 C  
ENDBRANCH  18  19
ENDBRANCH   7  18
ENDBRANCH   2   3
TORSDOF 3
ENDMDL
MODEL      189
REMARK 921   NORMALIZED FREE ENERGY PREDICTED BY IDOCK:   12.22 KCAL/MOL
REMARK 922        TOTAL FREE ENERGY PREDICTED BY IDOCK:   14.28 KCAL/MOL
REMARK 923 INTER-LIGAND FREE ENERGY PREDICTED BY IDOCK:   13.47 KCAL/MOL
REMARK 924 INTRA-LIGAND FREE ENERGY PREDICTED BY IDOCK:    0.82 KCAL/MOL
REMARK 927      BINDING AFFINITY PREDICTED BY RF-SCORE:    0.00 PKD
ROOT
HETATM    1  C   UNL     1      -7.332  18.718  63.858  1.00  0.00     5.723 C  
HETATM    2  C   UNL     1      -7.839  17.493  64.597  1.00  0.00     5.713 C  
ENDROOT
BRANCH   2   3
HETATM    3  C   UNL     1      -7.882  17.753  66.094  1.00  0.00    -0.262 C  
HETATM    4  C   UNL     1      -7.917  17.975  67.378  1.00  0.00    -0.227 C  
HETATM    5  C   UNL     1      -7.960  18.236  68.875  1.00  0.00    -0.198 C  
HETATM    6  C   UNL     1      -6.617  17.796  69.469  1.00  0.00    -0.147 C  
HETATM    7  C   UNL     1      -8.481  19.695  69.148  1.00  0.00    -0.061 C  
HETATM    8  O   UNL     1      -7.719  21.131  67.347  1.00  0.00    -0.341 OA 
HETATM    9  C   UNL     1      -8.512  19.923  70.643  1.00  0.00     1.808 C  
HETATM   10  C   UNL     1      -5.143  21.115  68.353  1.00  0.00    -0.238 C  
HETATM   11  O   UNL     1      -9.422  19.535  71.376  1.00  0.00     2.310 OA 
HETATM   12  N   UNL     1      -7.397  20.501  71.184  1.00  0.00     0.519 N  
HETATM   13  H   UNL     1      -7.424  20.707  72.182  1.00  0.00     0.000 HD 
HETATM   14  C   UNL     1      -6.249  20.827  70.517  1.00  0.00     0.499 C  
HETATM   15  C   UNL     1      -7.520  20.652  68.462  1.00  0.00     0.268 C  
HETATM   16  N   UNL     1      -6.323  20.825  69.143  1.00  0.00    -0.154 N  
HETATM   17  O   UNL     1      -5.233  21.080  71.159  1.00  0.00    -0.518 OA 
BRANCH   7  18
HETATM   18  C   UNL     1      -9.933  19.816  68.585  1.00  0.00    -0.535 C  
BRANCH  18  19
HETATM   19  C   UNL     1     -10.126  20.699  67.377  1.00  0.00    -0.359 C  
HETATM   20  C   UNL     1     -10.453  20.227  66.166  1.00  0.00    -0.332 C  
ENDBRANCH  18  19
ENDBRANCH   7  18
ENDBRANCH   2   3
TORSDOF 3
ENDMDL
MODEL      190
REMARK 921   NORMALIZED FREE ENERGY PREDICTED BY IDOCK:   19.26 KCAL/MOL
REMARK 922        TOTAL FREE ENERGY PREDICTED BY IDOCK:   22.55 KCAL/MOL
REMARK 923 INTER-LIGAND FREE ENERGY PREDICTED BY IDOCK:   22.16 KCAL/MOL
REMARK 924 INTRA-LIGAND FREE ENERGY PREDICTED BY IDOCK:    0.39 KCAL/MOL
REMARK 927      BINDING AFFINITY PREDICTED BY RF-SCORE:    0.00 PKD
ROOT
HETATM    1  C   UNL     1      -5.307  16.609  63.263  1.00  0.00     7.834 C  
HETATM    2  C   UNL     1      -5.137  15.789  64.530  1.00  0.00    10.769 C  
ENDROOT
BRANCH   2   3
HETATM    3  C   UNL     1      -6.316  16.003  65.465  1.00  0.00     5.414 C  
HETATM    4  C   UNL     1      -7.328  16.188  66.266  1.00  0.00     0.387 C  
HETATM    5  C   UNL     1      -8.507  16.402  67.201  1.00  0.00    -0.208 C  
HETATM    6  C   UNL     1      -9.793  16.172  66.399  1.00  0.00    -0.304 C  
HETATM    7  C   UNL     1      -8.280  15.603  68.537  1.00  0.00    -0.153 C  
HETATM    8  O   UNL     1      -7.065  13.568  68.018  1.00  0.00    -0.095 OA 
HETATM    9  C   UNL     1      -9.467  15.836  69.445  1.00  0.00    -0.275 C  
HETATM   10  C   UNL     1      -9.331  12.435  66.909  1.00  0.00    -0.213 C  
HETATM   11  O   UNL     1      -9.606  16.838  70.148  1.00  0.00     0.747 OA 
HETATM   12  N   UNL     1     -10.471  14.910  69.368  1.00  0.00    -0.277 N  
HETATM   13  H   UNL     1     -11.254  15.026  70.011  1.00  0.00     0.000 HD 
HETATM   14  C   UNL     1     -10.527  13.845  68.514  1.00  0.00    -0.250 C  
HETATM   15  C   UNL     1      -8.147  14.135  68.168  1.00  0.00    -0.148 C  
HETATM   16  N   UNL     1      -9.355  13.523  67.868  1.00  0.00    -0.206 N  
HETATM   17  O   UNL     1     -11.593  13.258  68.355  1.00  0.00    -0.292 OA 
BRANCH   7  18
HETATM   18  C   UNL     1      -6.994  16.154  69.231  1.00  0.00    -0.210 C  
BRANCH  18  19
HETATM   19  C   UNL     1      -6.520  17.523  68.805  1.00  0.00    -0.207 C  
HETATM   20  C   UNL     1      -5.306  17.750  68.286  1.00  0.00    -0.150 C  
ENDBRANCH  18  19
ENDBRANCH   7  18
ENDBRANCH   2   3
TORSDOF 3
ENDMDL
MODEL      191
REMARK 921   NORMALIZED FREE ENERGY PREDICTED BY IDOCK:   40.56 KCAL/MOL
REMARK 922        TOTAL FREE ENERGY PREDICTED BY IDOCK:   47.60 KCAL/MOL
REMARK 923 INTER-LIGAND FREE ENERGY PREDICTED BY IDOCK:   43.49 KCAL/MOL
REMARK 924 INTRA-LIGAND FREE ENERGY PREDICTED BY IDOCK:    4.11 KCAL/MOL
REMARK 927      BINDING AFFINITY PREDICTED BY RF-SCORE:    0.00 PKD
ROOT
HETATM    1  C   UNL     1      -5.650   4.798  68.260  1.00  0.00    -0.016 C  
HETATM    2  C   UNL     1      -5.692   5.944  67.265  1.00  0.00    -0.016 C  
ENDROOT
BRANCH   2   3
HETATM    3  C   UNL     1      -6.788   5.717  66.237  1.00  0.00    -0.058 C  
HETATM    4  C   UNL     1      -7.728   5.522  65.354  1.00  0.00    -0.089 C  
HETATM    5  C   UNL     1      -8.824   5.296  64.327  1.00  0.00     0.034 C  
HETATM    6  C   UNL     1      -8.563   3.947  63.647  1.00  0.00    -0.096 C  
HETATM    7  C   UNL     1     -10.230   5.570  64.977  1.00  0.00     1.030 C  
HETATM    8  O   UNL     1     -10.136   4.915  67.312  1.00  0.00    -0.186 OA 
HETATM    9  C   UNL     1     -11.298   5.337  63.932  1.00  0.00     3.443 C  
HETATM   10  C   UNL     1     -10.203   2.238  66.618  1.00  0.00     2.060 C  
HETATM   11  O   UNL     1     -11.610   6.164  63.075  1.00  0.00     7.205 OA 
HETATM   12  N   UNL     1     -11.846   4.084  63.904  1.00  0.00     1.118 N  
HETATM   13  H   UNL     1     -12.603   3.927  63.239  1.00  0.00     0.000 HD 
HETATM   14  C   UNL     1     -11.478   3.021  64.681  1.00  0.00     2.303 C  
HETATM   15  C   UNL     1     -10.381   4.609  66.145  1.00  0.00    -0.275 C  
HETATM   16  N   UNL     1     -10.679   3.309  65.764  1.00  0.00     1.554 N  
HETATM   17  O   UNL     1     -11.852   1.893  64.372  1.00  0.00     1.728 OA 
BRANCH   7  18
HETATM   18  C   UNL     1     -10.283   7.063  65.433  1.00  0.00     2.337 C  
BRANCH  18  19
HETATM   19  C   UNL     1     -10.766   8.070  64.418  1.00  0.00     9.494 C  
HETATM   20  C   UNL     1     -10.707   7.866  63.095  1.00  0.00    11.918 C  
ENDBRANCH  18  19
ENDBRANCH   7  18
ENDBRANCH   2   3
TORSDOF 3
ENDMDL
