MODEL        1
REMARK 921   NORMALIZED FREE ENERGY PREDICTED BY IDOCK:   -6.87 KCAL/MOL
REMARK 922        TOTAL FREE ENERGY PREDICTED BY IDOCK:   -7.37 KCAL/MOL
REMARK 923 INTER-LIGAND FREE ENERGY PREDICTED BY IDOCK:   -7.28 KCAL/MOL
REMARK 924 INTRA-LIGAND FREE ENERGY PREDICTED BY IDOCK:   -0.09 KCAL/MOL
REMARK 927      BINDING AFFINITY PREDICTED BY RF-SCORE:    0.00 PKD
ROOT
HETATM    1  C   UNL     1     -13.749  13.164  72.221  1.00  0.00    -0.647 C  
HETATM    2  C   UNL     1     -13.281  14.586  71.896  1.00  0.00    -0.359 C  
HETATM    3  C   UNL     1     -11.917  14.600  71.150  1.00  0.00    -0.405 C  
HETATM    4  C   UNL     1     -13.031  15.308  73.250  1.00  0.00    -0.527 C  
HETATM    5  N   UNL     1     -14.355  15.265  71.143  1.00  0.00    -0.788 NA 
HETATM    6  H2  UNL     1     -15.249  15.247  71.632  1.00  0.00     0.000 HD 
HETATM    7  H1  UNL     1     -14.043  16.212  70.927  1.00  0.00     0.000 HD 
HETATM    8  O   UNL     1     -12.211  14.957  74.084  1.00  0.00    -0.546 OA 
HETATM    9  O   UNL     1     -13.817  16.398  73.435  1.00  0.00    -0.497 OA 
ENDROOT
BRANCH   3  10
HETATM   10  C   UNL     1     -11.814  14.009  69.755  1.00  0.00    -0.385 A  
HETATM   11  C   UNL     1     -11.819  14.856  68.629  1.00  0.00    -0.332 A  
HETATM   12  C   UNL     1     -11.890  14.335  67.330  1.00  0.00    -0.444 A  
HETATM   13  C   UNL     1     -11.949  12.959  67.153  1.00  0.00    -0.310 A  
HETATM   14  O   UNL     1     -12.076  12.390  65.917  1.00  0.00    -0.580 OA 
HETATM   15  C   UNL     1     -11.910  12.113  68.255  1.00  0.00    -0.301 A  
HETATM   16  C   UNL     1     -11.848  12.623  69.545  1.00  0.00    -0.376 A  
HETATM   17  O   UNL     1     -11.968  10.759  68.078  1.00  0.00    -0.780 OA 
HETATM   18  H   UNL     1     -12.117  11.448  65.797  1.00  0.00     0.000 HD 
HETATM   19  H   UNL     1     -11.941  10.180  68.831  1.00  0.00     0.000 HD 
ENDBRANCH   3  10
TORSDOF 1
ENDMDL
MODEL        2
REMARK 921   NORMALIZED FREE ENERGY PREDICTED BY IDOCK:   -6.46 KCAL/MOL
REMARK 922        TOTAL FREE ENERGY PREDICTED BY IDOCK:   -6.93 KCAL/MOL
REMARK 923 INTER-LIGAND FREE ENERGY PREDICTED BY IDOCK:   -6.71 KCAL/MOL
REMARK 924 INTRA-LIGAND FREE ENERGY PREDICTED BY IDOCK:   -0.22 KCAL/MOL
REMARK 927      BINDING AFFINITY PREDICTED BY RF-SCORE:    0.00 PKD
ROOT
HETATM    1  C   UNL     1     -10.528  18.071  68.050  1.00  0.00    -0.388 C  
HETATM    2  C   UNL     1      -9.804  18.023  66.701  1.00  0.00    -0.352 C  
HETATM    3  C   UNL     1      -9.447  16.570  66.277  1.00  0.00    -0.339 C  
HETATM    4  C   UNL     1      -8.445  18.758  66.882  1.00  0.00    -0.279 C  
HETATM    5  N   UNL     1     -10.638  18.724  65.704  1.00  0.00    -0.578 NA 
HETATM    6  H2  UNL     1     -10.875  19.674  65.989  1.00  0.00     0.000 HD 
HETATM    7  H1  UNL     1     -10.155  18.693  64.806  1.00  0.00     0.000 HD 
HETATM    8  O   UNL     1      -7.565  18.410  67.654  1.00  0.00    -0.225 OA 
HETATM    9  O   UNL     1      -8.310  19.846  66.085  1.00  0.00    -0.349 OA 
ENDROOT
BRANCH   3  10
HETATM   10  C   UNL     1     -10.557  15.580  65.968  1.00  0.00    -0.333 A  
HETATM   11  C   UNL     1     -11.011  14.697  66.967  1.00  0.00    -0.317 A  
HETATM   12  C   UNL     1     -11.914  13.668  66.670  1.00  0.00    -0.458 A  
HETATM   13  C   UNL     1     -12.372  13.523  65.367  1.00  0.00    -0.478 A  
HETATM   14  O   UNL     1     -13.209  12.507  64.999  1.00  0.00    -0.700 OA 
HETATM   15  C   UNL     1     -11.958  14.410  64.380  1.00  0.00    -0.452 A  
HETATM   16  C   UNL     1     -11.057  15.427  64.667  1.00  0.00    -0.361 A  
HETATM   17  O   UNL     1     -12.411  14.266  63.099  1.00  0.00    -1.102 OA 
HETATM   18  H   UNL     1     -13.522  12.408  64.107  1.00  0.00     0.000 HD 
HETATM   19  H   UNL     1     -12.128  14.871  62.424  1.00  0.00     0.000 HD 
ENDBRANCH   3  10
TORSDOF 1
ENDMDL
MODEL        3
REMARK 921   NORMALIZED FREE ENERGY PREDICTED BY IDOCK:   -6.32 KCAL/MOL
REMARK 922        TOTAL FREE ENERGY PREDICTED BY IDOCK:   -6.78 KCAL/MOL
REMARK 923 INTER-LIGAND FREE ENERGY PREDICTED BY IDOCK:   -7.15 KCAL/MOL
REMARK 924 INTRA-LIGAND FREE ENERGY PREDICTED BY IDOCK:    0.36 KCAL/MOL
REMARK 927      BINDING AFFINITY PREDICTED BY RF-SCORE:    0.00 PKD
ROOT
HETATM    1  C   UNL     1     -11.758  13.565  69.798  1.00  0.00    -0.363 C  
HETATM    2  C   UNL     1     -11.246  12.349  69.020  1.00  0.00    -0.266 C  
HETATM    3  C   UNL     1     -11.908  12.227  67.619  1.00  0.00    -0.334 C  
HETATM    4  C   UNL     1     -11.685  11.082  69.808  1.00  0.00    -0.335 C  
HETATM    5  N   UNL     1      -9.773  12.428  68.955  1.00  0.00    -0.413 NA 
HETATM    6  H2  UNL     1      -9.344  12.516  69.875  1.00  0.00     0.000 HD 
HETATM    7  H1  UNL     1      -9.433  11.618  68.437  1.00  0.00     0.000 HD 
HETATM    8  O   UNL     1     -12.844  10.770  70.033  1.00  0.00    -0.230 OA 
HETATM    9  O   UNL     1     -10.644  10.325  70.235  1.00  0.00    -0.282 OA 
ENDROOT
BRANCH   3  10
HETATM   10  C   UNL     1     -11.646  13.289  66.565  1.00  0.00    -0.392 A  
HETATM   11  C   UNL     1     -11.096  14.530  66.939  1.00  0.00    -0.325 A  
HETATM   12  C   UNL     1     -10.995  15.585  66.022  1.00  0.00    -0.251 A  
HETATM   13  C   UNL     1     -11.441  15.396  64.720  1.00  0.00    -0.336 A  
HETATM   14  O   UNL     1     -11.423  16.400  63.793  1.00  0.00    -1.590 OA 
HETATM   15  C   UNL     1     -11.954  14.165  64.331  1.00  0.00    -0.457 A  
HETATM   16  C   UNL     1     -12.064  13.119  65.238  1.00  0.00    -0.471 A  
HETATM   17  O   UNL     1     -12.391  13.982  63.049  1.00  0.00    -1.101 OA 
HETATM   18  H   UNL     1     -11.728  16.271  62.903  1.00  0.00     0.000 HD 
HETATM   19  H   UNL     1     -12.742  13.140  62.782  1.00  0.00     0.000 HD 
ENDBRANCH   3  10
TORSDOF 1
ENDMDL
MODEL        4
REMARK 921   NORMALIZED FREE ENERGY PREDICTED BY IDOCK:   -6.28 KCAL/MOL
REMARK 922        TOTAL FREE ENERGY PREDICTED BY IDOCK:   -6.74 KCAL/MOL
REMARK 923 INTER-LIGAND FREE ENERGY PREDICTED BY IDOCK:   -6.52 KCAL/MOL
REMARK 924 INTRA-LIGAND FREE ENERGY PREDICTED BY IDOCK:   -0.22 KCAL/MOL
REMARK 927      BINDING AFFINITY PREDICTED BY RF-SCORE:    0.00 PKD
ROOT
HETATM    1  C   UNL     1      -8.866  11.182  67.468  1.00  0.00    -0.139 C  
HETATM    2  C   UNL     1     -10.195  10.607  66.969  1.00  0.00    -0.220 C  
HETATM    3  C   UNL     1     -11.345  11.653  67.022  1.00  0.00    -0.373 C  
HETATM    4  C   UNL     1     -10.606   9.476  67.954  1.00  0.00    -0.244 C  
HETATM    5  N   UNL     1      -9.982  10.056  65.616  1.00  0.00    -0.288 NA 
HETATM    6  H2  UNL     1      -9.223   9.377  65.584  1.00  0.00     0.000 HD 
HETATM    7  H1  UNL     1     -10.867   9.673  65.283  1.00  0.00     0.000 HD 
HETATM    8  O   UNL     1     -10.831   9.638  69.143  1.00  0.00    -0.220 OA 
HETATM    9  O   UNL     1     -10.702   8.257  67.367  1.00  0.00    -0.270 OA 
ENDROOT
BRANCH   3  10
HETATM   10  C   UNL     1     -11.288  12.882  66.132  1.00  0.00    -0.356 A  
HETATM   11  C   UNL     1     -10.789  14.097  66.641  1.00  0.00    -0.299 A  
HETATM   12  C   UNL     1     -10.874  15.284  65.901  1.00  0.00    -0.345 A  
HETATM   13  C   UNL     1     -11.456  15.256  64.641  1.00  0.00    -0.354 A  
HETATM   14  O   UNL     1     -11.621  16.387  63.892  1.00  0.00    -1.564 OA 
HETATM   15  C   UNL     1     -11.921  14.057  64.114  1.00  0.00    -0.408 A  
HETATM   16  C   UNL     1     -11.846  12.879  64.846  1.00  0.00    -0.409 A  
HETATM   17  O   UNL     1     -12.492  14.033  62.873  1.00  0.00    -1.028 OA 
HETATM   18  H   UNL     1     -12.019  16.368  63.029  1.00  0.00     0.000 HD 
HETATM   19  H   UNL     1     -12.810  13.214  62.512  1.00  0.00     0.000 HD 
ENDBRANCH   3  10
TORSDOF 1
ENDMDL
MODEL        5
REMARK 921   NORMALIZED FREE ENERGY PREDICTED BY IDOCK:   -6.20 KCAL/MOL
REMARK 922        TOTAL FREE ENERGY PREDICTED BY IDOCK:   -6.65 KCAL/MOL
REMARK 923 INTER-LIGAND FREE ENERGY PREDICTED BY IDOCK:   -6.68 KCAL/MOL
REMARK 924 INTRA-LIGAND FREE ENERGY PREDICTED BY IDOCK:    0.03 KCAL/MOL
REMARK 927      BINDING AFFINITY PREDICTED BY RF-SCORE:    0.00 PKD
ROOT
HETATM    1  C   UNL     1      -9.905  11.738  68.395  1.00  0.00    -0.199 C  
HETATM    2  C   UNL     1     -11.293  12.266  68.768  1.00  0.00    -0.289 C  
HETATM    3  C   UNL     1     -12.281  11.120  69.127  1.00  0.00    -0.244 C  
HETATM    4  C   UNL     1     -11.880  12.951  67.502  1.00  0.00    -0.351 C  
HETATM    5  N   UNL     1     -11.135  13.250  69.858  1.00  0.00    -0.458 NA 
HETATM    6  H2  UNL     1     -10.481  13.995  69.621  1.00  0.00     0.000 HD 
HETATM    7  H1  UNL     1     -12.060  13.602  70.106  1.00  0.00     0.000 HD 
HETATM    8  O   UNL     1     -12.102  12.383  66.444  1.00  0.00    -0.607 OA 
HETATM    9  O   UNL     1     -12.140  14.271  67.673  1.00  0.00    -0.376 OA 
ENDROOT
BRANCH   3  10
HETATM   10  C   UNL     1     -12.031  10.265  70.357  1.00  0.00    -0.391 A  
HETATM   11  C   UNL     1     -10.842   9.518  70.466  1.00  0.00    -0.352 A  
HETATM   12  C   UNL     1     -10.655   8.598  71.506  1.00  0.00    -0.352 A  
HETATM   13  C   UNL     1     -11.660   8.428  72.448  1.00  0.00    -0.380 A  
HETATM   14  O   UNL     1     -11.565   7.508  73.455  1.00  0.00    -0.621 OA 
HETATM   15  C   UNL     1     -12.823   9.185  72.372  1.00  0.00    -0.367 A  
HETATM   16  C   UNL     1     -13.017  10.092  71.339  1.00  0.00    -0.528 A  
HETATM   17  O   UNL     1     -13.810   9.016  73.302  1.00  0.00    -1.159 OA 
HETATM   18  H   UNL     1     -12.253   7.391  74.100  1.00  0.00     0.000 HD 
HETATM   19  H   UNL     1     -14.605   9.533  73.250  1.00  0.00     0.000 HD 
ENDBRANCH   3  10
TORSDOF 1
ENDMDL
MODEL        6
REMARK 921   NORMALIZED FREE ENERGY PREDICTED BY IDOCK:   -6.15 KCAL/MOL
REMARK 922        TOTAL FREE ENERGY PREDICTED BY IDOCK:   -6.60 KCAL/MOL
REMARK 923 INTER-LIGAND FREE ENERGY PREDICTED BY IDOCK:   -6.42 KCAL/MOL
REMARK 924 INTRA-LIGAND FREE ENERGY PREDICTED BY IDOCK:   -0.18 KCAL/MOL
REMARK 927      BINDING AFFINITY PREDICTED BY RF-SCORE:    0.00 PKD
ROOT
HETATM    1  C   UNL     1     -10.653   8.887  67.494  1.00  0.00    -0.307 C  
HETATM    2  C   UNL     1     -10.690  10.145  68.367  1.00  0.00    -0.230 C  
HETATM    3  C   UNL     1     -10.085  11.381  67.642  1.00  0.00    -0.200 C  
HETATM    4  C   UNL     1      -9.770   9.881  69.593  1.00  0.00    -0.229 C  
HETATM    5  N   UNL     1     -12.082  10.362  68.807  1.00  0.00    -0.728 NA 
HETATM    6  H2  UNL     1     -12.477   9.547  69.275  1.00  0.00     0.000 HD 
HETATM    7  H1  UNL     1     -12.106  11.200  69.389  1.00  0.00     0.000 HD 
HETATM    8  O   UNL     1      -8.572   9.654  69.526  1.00  0.00    -0.143 OA 
HETATM    9  O   UNL     1     -10.424   9.930  70.779  1.00  0.00    -0.290 OA 
ENDROOT
BRANCH   3  10
HETATM   10  C   UNL     1     -10.774  11.946  66.411  1.00  0.00    -0.303 A  
HETATM   11  C   UNL     1     -10.203  11.759  65.138  1.00  0.00    -0.309 A  
HETATM   12  C   UNL     1     -10.724  12.403  64.007  1.00  0.00    -0.441 A  
HETATM   13  C   UNL     1     -11.827  13.234  64.150  1.00  0.00    -0.443 A  
HETATM   14  O   UNL     1     -12.349  13.935  63.098  1.00  0.00    -1.122 OA 
HETATM   15  C   UNL     1     -12.420  13.398  65.396  1.00  0.00    -0.494 A  
HETATM   16  C   UNL     1     -11.903  12.769  66.520  1.00  0.00    -0.471 A  
HETATM   17  O   UNL     1     -13.507  14.216  65.532  1.00  0.00    -0.710 OA 
HETATM   18  H   UNL     1     -13.104  14.504  63.196  1.00  0.00     0.000 HD 
HETATM   19  H   UNL     1     -13.913  14.329  66.383  1.00  0.00     0.000 HD 
ENDBRANCH   3  10
TORSDOF 1
ENDMDL
MODEL        7
REMARK 921   NORMALIZED FREE ENERGY PREDICTED BY IDOCK:   -6.14 KCAL/MOL
REMARK 922        TOTAL FREE ENERGY PREDICTED BY IDOCK:   -6.59 KCAL/MOL
REMARK 923 INTER-LIGAND FREE ENERGY PREDICTED BY IDOCK:   -6.38 KCAL/MOL
REMARK 924 INTRA-LIGAND FREE ENERGY PREDICTED BY IDOCK:   -0.21 KCAL/MOL
REMARK 927      BINDING AFFINITY PREDICTED BY RF-SCORE:    0.00 PKD
ROOT
HETATM    1  C   UNL     1     -12.409  14.138  66.088  1.00  0.00    -0.463 C  
HETATM    2  C   UNL     1     -11.579  14.455  64.840  1.00  0.00    -0.395 C  
HETATM    3  C   UNL     1     -10.156  13.832  64.907  1.00  0.00    -0.297 C  
HETATM    4  C   UNL     1     -11.366  15.996  64.810  1.00  0.00    -0.280 C  
HETATM    5  N   UNL     1     -12.342  14.019  63.654  1.00  0.00    -1.059 NA 
HETATM    6  H2  UNL     1     -13.277  14.424  63.618  1.00  0.00     0.000 HD 
HETATM    7  H1  UNL     1     -11.789  14.231  62.823  1.00  0.00     0.000 HD 
HETATM    8  O   UNL     1     -10.782  16.634  65.671  1.00  0.00    -0.317 OA 
HETATM    9  O   UNL     1     -11.894  16.592  63.712  1.00  0.00    -1.011 OA 
ENDROOT
BRANCH   3  10
HETATM   10  C   UNL     1      -9.992  12.322  64.903  1.00  0.00    -0.219 A  
HETATM   11  C   UNL     1      -9.763  11.636  66.111  1.00  0.00    -0.253 A  
HETATM   12  C   UNL     1      -9.447  10.271  66.122  1.00  0.00    -0.229 A  
HETATM   13  C   UNL     1      -9.366   9.585  64.917  1.00  0.00    -0.198 A  
HETATM   14  O   UNL     1      -9.007   8.267  64.854  1.00  0.00    -0.404 OA 
HETATM   15  C   UNL     1      -9.624  10.243  63.721  1.00  0.00    -0.284 A  
HETATM   16  C   UNL     1      -9.929  11.598  63.704  1.00  0.00    -0.406 A  
HETATM   17  O   UNL     1      -9.544   9.565  62.537  1.00  0.00    -0.566 OA 
HETATM   18  H   UNL     1      -8.952   7.798  64.030  1.00  0.00     0.000 HD 
HETATM   19  H   UNL     1      -9.720  10.015  61.720  1.00  0.00     0.000 HD 
ENDBRANCH   3  10
TORSDOF 1
ENDMDL
MODEL        8
REMARK 921   NORMALIZED FREE ENERGY PREDICTED BY IDOCK:   -6.08 KCAL/MOL
REMARK 922        TOTAL FREE ENERGY PREDICTED BY IDOCK:   -6.53 KCAL/MOL
REMARK 923 INTER-LIGAND FREE ENERGY PREDICTED BY IDOCK:   -6.83 KCAL/MOL
REMARK 924 INTRA-LIGAND FREE ENERGY PREDICTED BY IDOCK:    0.31 KCAL/MOL
REMARK 927      BINDING AFFINITY PREDICTED BY RF-SCORE:    0.00 PKD
ROOT
HETATM    1  C   UNL     1     -10.162  14.056  68.280  1.00  0.00    -0.249 C  
HETATM    2  C   UNL     1     -11.551  13.425  68.141  1.00  0.00    -0.341 C  
HETATM    3  C   UNL     1     -12.025  12.750  69.459  1.00  0.00    -0.338 C  
HETATM    4  C   UNL     1     -11.431  12.278  67.097  1.00  0.00    -0.352 C  
HETATM    5  N   UNL     1     -12.484  14.462  67.658  1.00  0.00    -0.530 NA 
HETATM    6  H2  UNL     1     -12.166  14.907  66.798  1.00  0.00     0.000 HD 
HETATM    7  H1  UNL     1     -13.408  14.041  67.564  1.00  0.00     0.000 HD 
HETATM    8  O   UNL     1     -10.717  11.295  67.223  1.00  0.00    -0.223 OA 
HETATM    9  O   UNL     1     -12.211  12.460  66.003  1.00  0.00    -0.636 OA 
ENDROOT
BRANCH   3  10
HETATM   10  C   UNL     1     -12.292  13.601  70.688  1.00  0.00    -0.440 A  
HETATM   11  C   UNL     1     -13.235  13.179  71.645  1.00  0.00    -0.435 A  
HETATM   12  C   UNL     1     -13.621  14.016  72.702  1.00  0.00    -0.623 A  
HETATM   13  C   UNL     1     -13.056  15.280  72.806  1.00  0.00    -0.461 A  
HETATM   14  O   UNL     1     -13.430  16.165  73.779  1.00  0.00    -0.913 OA 
HETATM   15  C   UNL     1     -12.099  15.694  71.887  1.00  0.00    -0.432 A  
HETATM   16  C   UNL     1     -11.719  14.873  70.834  1.00  0.00    -0.374 A  
HETATM   17  O   UNL     1     -11.544  16.938  71.993  1.00  0.00    -0.487 OA 
HETATM   18  H   UNL     1     -13.044  17.030  73.850  1.00  0.00     0.000 HD 
HETATM   19  H   UNL     1     -10.890  17.222  71.366  1.00  0.00     0.000 HD 
ENDBRANCH   3  10
TORSDOF 1
ENDMDL
MODEL        9
REMARK 921   NORMALIZED FREE ENERGY PREDICTED BY IDOCK:   -6.03 KCAL/MOL
REMARK 922        TOTAL FREE ENERGY PREDICTED BY IDOCK:   -6.47 KCAL/MOL
REMARK 923 INTER-LIGAND FREE ENERGY PREDICTED BY IDOCK:   -6.40 KCAL/MOL
REMARK 924 INTRA-LIGAND FREE ENERGY PREDICTED BY IDOCK:   -0.07 KCAL/MOL
REMARK 927      BINDING AFFINITY PREDICTED BY RF-SCORE:    0.00 PKD
ROOT
HETATM    1  C   UNL     1     -11.286  16.437  68.512  1.00  0.00    -0.289 C  
HETATM    2  C   UNL     1     -11.301  15.087  69.235  1.00  0.00    -0.296 C  
HETATM    3  C   UNL     1     -12.146  14.024  68.477  1.00  0.00    -0.329 C  
HETATM    4  C   UNL     1     -12.016  15.304  70.598  1.00  0.00    -0.343 C  
HETATM    5  N   UNL     1      -9.903  14.663  69.450  1.00  0.00    -0.422 NA 
HETATM    6  H2  UNL     1      -9.351  15.366  69.941  1.00  0.00     0.000 HD 
HETATM    7  H1  UNL     1      -9.913  13.764  69.932  1.00  0.00     0.000 HD 
HETATM    8  O   UNL     1     -13.174  15.671  70.725  1.00  0.00    -0.517 OA 
HETATM    9  O   UNL     1     -11.229  15.039  71.670  1.00  0.00    -0.333 OA 
ENDROOT
BRANCH   3  10
HETATM   10  C   UNL     1     -11.697  13.538  67.110  1.00  0.00    -0.419 A  
HETATM   11  C   UNL     1     -10.539  12.744  66.990  1.00  0.00    -0.253 A  
HETATM   12  C   UNL     1     -10.010  12.418  65.734  1.00  0.00    -0.270 A  
HETATM   13  C   UNL     1     -10.645  12.883  64.590  1.00  0.00    -0.363 A  
HETATM   14  O   UNL     1     -10.149  12.648  63.338  1.00  0.00    -0.579 OA 
HETATM   15  C   UNL     1     -11.807  13.638  64.695  1.00  0.00    -0.397 A  
HETATM   16  C   UNL     1     -12.332  13.971  65.937  1.00  0.00    -0.515 A  
HETATM   17  O   UNL     1     -12.430  14.093  63.567  1.00  0.00    -1.076 OA 
HETATM   18  H   UNL     1     -10.584  12.966  62.555  1.00  0.00     0.000 HD 
HETATM   19  H   UNL     1     -13.224  14.608  63.639  1.00  0.00     0.000 HD 
ENDBRANCH   3  10
TORSDOF 1
ENDMDL
MODEL       10
REMARK 921   NORMALIZED FREE ENERGY PREDICTED BY IDOCK:   -6.01 KCAL/MOL
REMARK 922        TOTAL FREE ENERGY PREDICTED BY IDOCK:   -6.45 KCAL/MOL
REMARK 923 INTER-LIGAND FREE ENERGY PREDICTED BY IDOCK:   -6.35 KCAL/MOL
REMARK 924 INTRA-LIGAND FREE ENERGY PREDICTED BY IDOCK:   -0.10 KCAL/MOL
REMARK 927      BINDING AFFINITY PREDICTED BY RF-SCORE:    0.00 PKD
ROOT
HETATM    1  C   UNL     1     -10.363  13.375  64.785  1.00  0.00    -0.397 C  
HETATM    2  C   UNL     1     -11.110  14.527  65.465  1.00  0.00    -0.339 C  
HETATM    3  C   UNL     1     -12.251  14.021  66.392  1.00  0.00    -0.492 C  
HETATM    4  C   UNL     1     -11.807  15.349  64.345  1.00  0.00    -0.256 C  
HETATM    5  N   UNL     1     -10.122  15.362  66.176  1.00  0.00    -0.285 NA 
HETATM    6  H2  UNL     1      -9.371  15.686  65.567  1.00  0.00     0.000 HD 
HETATM    7  H1  UNL     1     -10.619  16.129  66.629  1.00  0.00     0.000 HD 
HETATM    8  O   UNL     1     -12.657  14.909  63.587  1.00  0.00    -0.724 OA 
HETATM    9  O   UNL     1     -11.385  16.636  64.278  1.00  0.00    -1.116 OA 
ENDROOT
BRANCH   3  10
HETATM   10  C   UNL     1     -11.914  13.211  67.632  1.00  0.00    -0.363 A  
HETATM   11  C   UNL     1     -11.490  11.874  67.507  1.00  0.00    -0.396 A  
HETATM   12  C   UNL     1     -11.328  11.055  68.632  1.00  0.00    -0.346 A  
HETATM   13  C   UNL     1     -11.587  11.577  69.893  1.00  0.00    -0.308 A  
HETATM   14  O   UNL     1     -11.503  10.817  71.025  1.00  0.00    -0.312 OA 
HETATM   15  C   UNL     1     -11.972  12.905  70.032  1.00  0.00    -0.309 A  
HETATM   16  C   UNL     1     -12.141  13.719  68.919  1.00  0.00    -0.348 A  
HETATM   17  O   UNL     1     -12.224  13.417  71.274  1.00  0.00    -0.357 OA 
HETATM   18  H   UNL     1     -11.680  11.174  71.888  1.00  0.00     0.000 HD 
HETATM   19  H   UNL     1     -12.488  14.324  71.369  1.00  0.00     0.000 HD 
ENDBRANCH   3  10
TORSDOF 1
ENDMDL
MODEL       11
REMARK 921   NORMALIZED FREE ENERGY PREDICTED BY IDOCK:   -5.99 KCAL/MOL
REMARK 922        TOTAL FREE ENERGY PREDICTED BY IDOCK:   -6.44 KCAL/MOL
REMARK 923 INTER-LIGAND FREE ENERGY PREDICTED BY IDOCK:   -6.42 KCAL/MOL
REMARK 924 INTRA-LIGAND FREE ENERGY PREDICTED BY IDOCK:   -0.01 KCAL/MOL
REMARK 927      BINDING AFFINITY PREDICTED BY RF-SCORE:    0.00 PKD
ROOT
HETATM    1  C   UNL     1     -11.519  15.311  64.726  1.00  0.00    -0.364 C  
HETATM    2  C   UNL     1     -12.003  13.941  65.210  1.00  0.00    -0.375 C  
HETATM    3  C   UNL     1     -11.201  13.436  66.443  1.00  0.00    -0.323 C  
HETATM    4  C   UNL     1     -11.715  12.923  64.070  1.00  0.00    -0.434 C  
HETATM    5  N   UNL     1     -13.455  14.027  65.466  1.00  0.00    -0.627 NA 
HETATM    6  H2  UNL     1     -13.976  14.366  64.658  1.00  0.00     0.000 HD 
HETATM    7  H1  UNL     1     -13.777  13.114  65.788  1.00  0.00     0.000 HD 
HETATM    8  O   UNL     1     -10.604  12.661  63.638  1.00  0.00    -0.418 OA 
HETATM    9  O   UNL     1     -12.831  12.327  63.584  1.00  0.00    -0.753 OA 
ENDROOT
BRANCH   3  10
HETATM   10  C   UNL     1     -11.295  14.182  67.762  1.00  0.00    -0.330 A  
HETATM   11  C   UNL     1     -11.952  13.592  68.860  1.00  0.00    -0.392 A  
HETATM   12  C   UNL     1     -12.197  14.317  70.034  1.00  0.00    -0.417 A  
HETATM   13  C   UNL     1     -11.778  15.638  70.114  1.00  0.00    -0.360 A  
HETATM   14  O   UNL     1     -12.035  16.416  71.208  1.00  0.00    -0.621 OA 
HETATM   15  C   UNL     1     -11.098  16.220  69.051  1.00  0.00    -0.331 A  
HETATM   16  C   UNL     1     -10.860  15.510  67.882  1.00  0.00    -0.307 A  
HETATM   17  O   UNL     1     -10.686  17.521  69.134  1.00  0.00    -0.369 OA 
HETATM   18  H   UNL     1     -11.748  17.321  71.263  1.00  0.00     0.000 HD 
HETATM   19  H   UNL     1     -10.222  17.919  68.408  1.00  0.00     0.000 HD 
ENDBRANCH   3  10
TORSDOF 1
ENDMDL
MODEL       12
REMARK 921   NORMALIZED FREE ENERGY PREDICTED BY IDOCK:   -5.96 KCAL/MOL
REMARK 922        TOTAL FREE ENERGY PREDICTED BY IDOCK:   -6.40 KCAL/MOL
REMARK 923 INTER-LIGAND FREE ENERGY PREDICTED BY IDOCK:   -6.27 KCAL/MOL
REMARK 924 INTRA-LIGAND FREE ENERGY PREDICTED BY IDOCK:   -0.13 KCAL/MOL
REMARK 927      BINDING AFFINITY PREDICTED BY RF-SCORE:    0.00 PKD
ROOT
HETATM    1  C   UNL     1     -10.658  15.849  67.414  1.00  0.00    -0.315 C  
HETATM    2  C   UNL     1     -11.086  14.391  67.605  1.00  0.00    -0.300 C  
HETATM    3  C   UNL     1     -10.854  13.896  69.061  1.00  0.00    -0.253 C  
HETATM    4  C   UNL     1     -10.161  13.520  66.709  1.00  0.00    -0.264 C  
HETATM    5  N   UNL     1     -12.491  14.262  67.171  1.00  0.00    -0.537 NA 
HETATM    6  H2  UNL     1     -12.640  14.594  66.219  1.00  0.00     0.000 HD 
HETATM    7  H1  UNL     1     -12.776  13.290  67.298  1.00  0.00     0.000 HD 
HETATM    8  O   UNL     1      -8.948  13.445  66.828  1.00  0.00    -0.235 OA 
HETATM    9  O   UNL     1     -10.831  12.823  65.758  1.00  0.00    -0.267 OA 
ENDROOT
BRANCH   3  10
HETATM   10  C   UNL     1     -11.647  14.511  70.202  1.00  0.00    -0.334 A  
HETATM   11  C   UNL     1     -11.293  15.780  70.701  1.00  0.00    -0.412 A  
HETATM   12  C   UNL     1     -11.898  16.301  71.853  1.00  0.00    -0.538 A  
HETATM   13  C   UNL     1     -12.866  15.551  72.508  1.00  0.00    -0.420 A  
HETATM   14  O   UNL     1     -13.452  15.976  73.667  1.00  0.00    -0.829 OA 
HETATM   15  C   UNL     1     -13.247  14.313  72.005  1.00  0.00    -0.385 A  
HETATM   16  C   UNL     1     -12.646  13.788  70.868  1.00  0.00    -0.428 A  
HETATM   17  O   UNL     1     -14.201  13.578  72.652  1.00  0.00    -0.751 OA 
HETATM   18  H   UNL     1     -14.115  15.462  74.116  1.00  0.00     0.000 HD 
HETATM   19  H   UNL     1     -14.462  12.732  72.309  1.00  0.00     0.000 HD 
ENDBRANCH   3  10
TORSDOF 1
ENDMDL
MODEL       13
REMARK 921   NORMALIZED FREE ENERGY PREDICTED BY IDOCK:   -5.88 KCAL/MOL
REMARK 922        TOTAL FREE ENERGY PREDICTED BY IDOCK:   -6.31 KCAL/MOL
REMARK 923 INTER-LIGAND FREE ENERGY PREDICTED BY IDOCK:   -6.23 KCAL/MOL
REMARK 924 INTRA-LIGAND FREE ENERGY PREDICTED BY IDOCK:   -0.08 KCAL/MOL
REMARK 927      BINDING AFFINITY PREDICTED BY RF-SCORE:    0.00 PKD
ROOT
HETATM    1  C   UNL     1      -9.462  15.031  65.894  1.00  0.00    -0.313 C  
HETATM    2  C   UNL     1     -10.858  15.654  65.799  1.00  0.00    -0.306 C  
HETATM    3  C   UNL     1     -11.136  16.651  66.960  1.00  0.00     0.145 C  
HETATM    4  C   UNL     1     -11.888  14.502  65.973  1.00  0.00    -0.334 C  
HETATM    5  N   UNL     1     -10.999  16.272  64.466  1.00  0.00    -0.980 NA 
HETATM    6  H2  UNL     1     -10.808  15.617  63.708  1.00  0.00     0.000 HD 
HETATM    7  H1  UNL     1     -11.929  16.686  64.403  1.00  0.00     0.000 HD 
HETATM    8  O   UNL     1     -11.989  13.805  66.971  1.00  0.00    -0.387 OA 
HETATM    9  O   UNL     1     -12.695  14.332  64.897  1.00  0.00    -0.637 OA 
ENDROOT
BRANCH   3  10
HETATM   10  C   UNL     1     -10.328  17.933  67.064  1.00  0.00    -0.366 A  
HETATM   11  C   UNL     1     -10.525  18.967  66.128  1.00  0.00    -0.541 A  
HETATM   12  C   UNL     1      -9.685  20.089  66.099  1.00  0.00    -0.517 A  
HETATM   13  C   UNL     1      -8.646  20.181  67.015  1.00  0.00    -0.336 A  
HETATM   14  O   UNL     1      -7.758  21.220  67.004  1.00  0.00    -0.733 OA 
HETATM   15  C   UNL     1      -8.463  19.183  67.965  1.00  0.00    -0.309 A  
HETATM   16  C   UNL     1      -9.287  18.065  67.993  1.00  0.00    -0.273 A  
HETATM   17  O   UNL     1      -7.439  19.277  68.865  1.00  0.00    -0.347 OA 
HETATM   18  H   UNL     1      -7.046  21.283  67.630  1.00  0.00     0.000 HD 
HETATM   19  H   UNL     1      -7.314  18.595  69.514  1.00  0.00     0.000 HD 
ENDBRANCH   3  10
TORSDOF 1
ENDMDL
MODEL       14
REMARK 921   NORMALIZED FREE ENERGY PREDICTED BY IDOCK:   -5.86 KCAL/MOL
REMARK 922        TOTAL FREE ENERGY PREDICTED BY IDOCK:   -6.30 KCAL/MOL
REMARK 923 INTER-LIGAND FREE ENERGY PREDICTED BY IDOCK:   -6.17 KCAL/MOL
REMARK 924 INTRA-LIGAND FREE ENERGY PREDICTED BY IDOCK:   -0.13 KCAL/MOL
REMARK 927      BINDING AFFINITY PREDICTED BY RF-SCORE:    0.00 PKD
ROOT
HETATM    1  C   UNL     1     -10.809   9.270  67.478  1.00  0.00    -0.182 C  
HETATM    2  C   UNL     1     -10.942  10.498  68.383  1.00  0.00    -0.261 C  
HETATM    3  C   UNL     1     -10.254  11.753  67.776  1.00  0.00    -0.205 C  
HETATM    4  C   UNL     1     -10.171  10.186  69.697  1.00  0.00    -0.242 C  
HETATM    5  N   UNL     1     -12.375  10.709  68.667  1.00  0.00    -0.765 NA 
HETATM    6  H2  UNL     1     -12.825   9.882  69.058  1.00  0.00     0.000 HD 
HETATM    7  H1  UNL     1     -12.464  11.527  69.270  1.00  0.00     0.000 HD 
HETATM    8  O   UNL     1      -8.974   9.953  69.762  1.00  0.00    -0.207 OA 
HETATM    9  O   UNL     1     -10.958  10.200  70.801  1.00  0.00    -0.320 OA 
ENDROOT
BRANCH   3  10
HETATM   10  C   UNL     1     -10.794  12.363  66.494  1.00  0.00    -0.284 A  
HETATM   11  C   UNL     1     -11.846  13.298  66.547  1.00  0.00    -0.450 A  
HETATM   12  C   UNL     1     -12.472  13.754  65.379  1.00  0.00    -0.532 A  
HETATM   13  C   UNL     1     -12.041  13.277  64.149  1.00  0.00    -0.432 A  
HETATM   14  O   UNL     1     -12.645  13.638  62.977  1.00  0.00    -0.957 OA 
HETATM   15  C   UNL     1     -10.981  12.381  64.081  1.00  0.00    -0.367 A  
HETATM   16  C   UNL     1     -10.361  11.920  65.236  1.00  0.00    -0.316 A  
HETATM   17  O   UNL     1     -10.557  11.914  62.869  1.00  0.00    -0.648 OA 
HETATM   18  H   UNL     1     -12.350  13.311  62.135  1.00  0.00     0.000 HD 
HETATM   19  H   UNL     1      -9.833  11.302  62.822  1.00  0.00     0.000 HD 
ENDBRANCH   3  10
TORSDOF 1
ENDMDL
MODEL       15
REMARK 921   NORMALIZED FREE ENERGY PREDICTED BY IDOCK:   -5.79 KCAL/MOL
REMARK 922        TOTAL FREE ENERGY PREDICTED BY IDOCK:   -6.22 KCAL/MOL
REMARK 923 INTER-LIGAND FREE ENERGY PREDICTED BY IDOCK:   -6.07 KCAL/MOL
REMARK 924 INTRA-LIGAND FREE ENERGY PREDICTED BY IDOCK:   -0.15 KCAL/MOL
REMARK 927      BINDING AFFINITY PREDICTED BY RF-SCORE:    0.00 PKD
ROOT
HETATM    1  C   UNL     1     -10.097  14.164  64.817  1.00  0.00    -0.200 C  
HETATM    2  C   UNL     1     -11.275  15.002  65.323  1.00  0.00    -0.367 C  
HETATM    3  C   UNL     1     -10.878  15.915  66.516  1.00  0.00    -0.198 C  
HETATM    4  C   UNL     1     -12.337  14.012  65.881  1.00  0.00    -0.486 C  
HETATM    5  N   UNL     1     -11.829  15.757  64.181  1.00  0.00    -0.866 NA 
HETATM    6  H2  UNL     1     -12.082  15.155  63.398  1.00  0.00     0.000 HD 
HETATM    7  H1  UNL     1     -12.614  16.315  64.518  1.00  0.00     0.000 HD 
HETATM    8  O   UNL     1     -12.151  13.248  66.816  1.00  0.00    -0.384 OA 
HETATM    9  O   UNL     1     -13.526  14.071  65.231  1.00  0.00    -0.622 OA 
ENDROOT
BRANCH   3  10
HETATM   10  C   UNL     1      -9.880  17.041  66.306  1.00  0.00    -0.310 A  
HETATM   11  C   UNL     1      -8.500  16.761  66.271  1.00  0.00    -0.342 A  
HETATM   12  C   UNL     1      -7.551  17.792  66.242  1.00  0.00    -0.322 A  
HETATM   13  C   UNL     1      -7.984  19.111  66.241  1.00  0.00    -0.300 A  
HETATM   14  O   UNL     1      -7.110  20.162  66.270  1.00  0.00    -0.243 OA 
HETATM   15  C   UNL     1      -9.344  19.399  66.240  1.00  0.00    -0.355 A  
HETATM   16  C   UNL     1     -10.288  18.382  66.277  1.00  0.00    -0.440 A  
HETATM   17  O   UNL     1      -9.766  20.699  66.238  1.00  0.00    -0.632 OA 
HETATM   18  H   UNL     1      -7.407  21.065  66.269  1.00  0.00     0.000 HD 
HETATM   19  H   UNL     1     -10.695  20.896  66.237  1.00  0.00     0.000 HD 
ENDBRANCH   3  10
TORSDOF 1
ENDMDL
MODEL       16
REMARK 921   NORMALIZED FREE ENERGY PREDICTED BY IDOCK:   -5.77 KCAL/MOL
REMARK 922        TOTAL FREE ENERGY PREDICTED BY IDOCK:   -6.20 KCAL/MOL
REMARK 923 INTER-LIGAND FREE ENERGY PREDICTED BY IDOCK:   -6.59 KCAL/MOL
REMARK 924 INTRA-LIGAND FREE ENERGY PREDICTED BY IDOCK:    0.39 KCAL/MOL
REMARK 927      BINDING AFFINITY PREDICTED BY RF-SCORE:    0.00 PKD
ROOT
HETATM    1  C   UNL     1     -10.577  10.028  67.498  1.00  0.00    -0.336 C  
HETATM    2  C   UNL     1     -10.788  11.368  68.208  1.00  0.00    -0.209 C  
HETATM    3  C   UNL     1     -11.949  11.311  69.241  1.00  0.00    -0.411 C  
HETATM    4  C   UNL     1     -11.232  12.395  67.128  1.00  0.00    -0.298 C  
HETATM    5  N   UNL     1      -9.505  11.780  68.810  1.00  0.00    -0.389 NA 
HETATM    6  H2  UNL     1      -8.744  11.810  68.131  1.00  0.00     0.000 HD 
HETATM    7  H1  UNL     1      -9.645  12.673  69.282  1.00  0.00     0.000 HD 
HETATM    8  O   UNL     1     -12.248  12.302  66.456  1.00  0.00    -0.588 OA 
HETATM    9  O   UNL     1     -10.378  13.439  66.991  1.00  0.00    -0.245 OA 
ENDROOT
BRANCH   3  10
HETATM   10  C   UNL     1     -11.823  10.427  70.470  1.00  0.00    -0.430 A  
HETATM   11  C   UNL     1     -10.620   9.739  70.721  1.00  0.00    -0.371 A  
HETATM   12  C   UNL     1     -10.526   8.794  71.752  1.00  0.00    -0.417 A  
HETATM   13  C   UNL     1     -11.640   8.538  72.540  1.00  0.00    -0.306 A  
HETATM   14  O   UNL     1     -11.632   7.589  73.524  1.00  0.00    -0.568 OA 
HETATM   15  C   UNL     1     -12.823   9.236  72.323  1.00  0.00    -0.384 A  
HETATM   16  C   UNL     1     -12.924  10.168  71.299  1.00  0.00    -0.510 A  
HETATM   17  O   UNL     1     -13.917   8.983  73.101  1.00  0.00    -1.130 OA 
HETATM   18  H   UNL     1     -12.395   7.414  74.063  1.00  0.00     0.000 HD 
HETATM   19  H   UNL     1     -14.725   9.460  72.954  1.00  0.00     0.000 HD 
ENDBRANCH   3  10
TORSDOF 1
ENDMDL
MODEL       17
REMARK 921   NORMALIZED FREE ENERGY PREDICTED BY IDOCK:   -5.72 KCAL/MOL
REMARK 922        TOTAL FREE ENERGY PREDICTED BY IDOCK:   -6.14 KCAL/MOL
REMARK 923 INTER-LIGAND FREE ENERGY PREDICTED BY IDOCK:   -6.04 KCAL/MOL
REMARK 924 INTRA-LIGAND FREE ENERGY PREDICTED BY IDOCK:   -0.10 KCAL/MOL
REMARK 927      BINDING AFFINITY PREDICTED BY RF-SCORE:    0.00 PKD
ROOT
HETATM    1  C   UNL     1      -8.582  11.423  66.480  1.00  0.00    -0.175 C  
HETATM    2  C   UNL     1      -9.989  10.861  66.252  1.00  0.00    -0.227 C  
HETATM    3  C   UNL     1     -11.098  11.827  66.755  1.00  0.00    -0.360 C  
HETATM    4  C   UNL     1     -10.118   9.578  67.121  1.00  0.00    -0.229 C  
HETATM    5  N   UNL     1     -10.125  10.526  64.820  1.00  0.00    -0.338 NA 
HETATM    6  H2  UNL     1      -9.392   9.898  64.492  1.00  0.00     0.000 HD 
HETATM    7  H1  UNL     1     -11.062  10.151  64.668  1.00  0.00     0.000 HD 
HETATM    8  O   UNL     1     -10.030   9.552  68.339  1.00  0.00    -0.155 OA 
HETATM    9  O   UNL     1     -10.348   8.455  66.396  1.00  0.00    -0.235 OA 
ENDROOT
BRANCH   3  10
HETATM   10  C   UNL     1     -11.286  13.176  66.082  1.00  0.00    -0.343 A  
HETATM   11  C   UNL     1     -12.283  13.339  65.100  1.00  0.00    -0.487 A  
HETATM   12  C   UNL     1     -12.374  14.518  64.348  1.00  0.00    -0.437 A  
HETATM   13  C   UNL     1     -11.467  15.543  64.582  1.00  0.00    -0.324 A  
HETATM   14  O   UNL     1     -11.466  16.695  63.846  1.00  0.00    -1.604 OA 
HETATM   15  C   UNL     1     -10.501  15.407  65.572  1.00  0.00    -0.380 A  
HETATM   16  C   UNL     1     -10.401  14.238  66.315  1.00  0.00    -0.297 A  
HETATM   17  O   UNL     1      -9.611  16.418  65.801  1.00  0.00    -0.452 OA 
HETATM   18  H   UNL     1     -10.845  17.396  64.006  1.00  0.00     0.000 HD 
HETATM   19  H   UNL     1      -8.951  16.325  66.477  1.00  0.00     0.000 HD 
ENDBRANCH   3  10
TORSDOF 1
ENDMDL
MODEL       18
REMARK 921   NORMALIZED FREE ENERGY PREDICTED BY IDOCK:   -5.70 KCAL/MOL
REMARK 922        TOTAL FREE ENERGY PREDICTED BY IDOCK:   -6.12 KCAL/MOL
REMARK 923 INTER-LIGAND FREE ENERGY PREDICTED BY IDOCK:   -6.03 KCAL/MOL
REMARK 924 INTRA-LIGAND FREE ENERGY PREDICTED BY IDOCK:   -0.09 KCAL/MOL
REMARK 927      BINDING AFFINITY PREDICTED BY RF-SCORE:    0.00 PKD
ROOT
HETATM    1  C   UNL     1      -7.454  15.622  66.980  1.00  0.00    -0.228 C  
HETATM    2  C   UNL     1      -8.020  14.398  67.706  1.00  0.00    -0.158 C  
HETATM    3  C   UNL     1      -9.556  14.499  67.919  1.00  0.00    -0.217 C  
HETATM    4  C   UNL     1      -7.394  14.380  69.130  1.00  0.00    -0.113 C  
HETATM    5  N   UNL     1      -7.622  13.191  66.956  1.00  0.00    -0.383 NA 
HETATM    6  H2  UNL     1      -6.614  13.132  66.812  1.00  0.00     0.000 HD 
HETATM    7  H1  UNL     1      -7.998  12.375  67.440  1.00  0.00     0.000 HD 
HETATM    8  O   UNL     1      -7.541  15.259  69.965  1.00  0.00    -0.106 OA 
HETATM    9  O   UNL     1      -6.655  13.271  69.381  1.00  0.00    -0.109 OA 
ENDROOT
BRANCH   3  10
HETATM   10  C   UNL     1     -10.487  14.492  66.719  1.00  0.00    -0.270 A  
HETATM   11  C   UNL     1     -11.156  13.309  66.353  1.00  0.00    -0.313 A  
HETATM   12  C   UNL     1     -11.890  13.228  65.161  1.00  0.00    -0.377 A  
HETATM   13  C   UNL     1     -11.959  14.340  64.332  1.00  0.00    -0.456 A  
HETATM   14  O   UNL     1     -12.610  14.311  63.131  1.00  0.00    -1.028 OA 
HETATM   15  C   UNL     1     -11.332  15.524  64.700  1.00  0.00    -0.357 A  
HETATM   16  C   UNL     1     -10.597  15.607  65.876  1.00  0.00    -0.354 A  
HETATM   17  O   UNL     1     -11.403  16.617  63.882  1.00  0.00    -1.558 OA 
HETATM   18  H   UNL     1     -12.658  15.072  62.564  1.00  0.00     0.000 HD 
HETATM   19  H   UNL     1     -10.974  17.427  64.133  1.00  0.00     0.000 HD 
ENDBRANCH   3  10
TORSDOF 1
ENDMDL
MODEL       19
REMARK 921   NORMALIZED FREE ENERGY PREDICTED BY IDOCK:   -5.67 KCAL/MOL
REMARK 922        TOTAL FREE ENERGY PREDICTED BY IDOCK:   -6.09 KCAL/MOL
REMARK 923 INTER-LIGAND FREE ENERGY PREDICTED BY IDOCK:   -5.91 KCAL/MOL
REMARK 924 INTRA-LIGAND FREE ENERGY PREDICTED BY IDOCK:   -0.18 KCAL/MOL
REMARK 927      BINDING AFFINITY PREDICTED BY RF-SCORE:    0.00 PKD
ROOT
HETATM    1  C   UNL     1     -11.640  15.248  64.446  1.00  0.00    -0.265 C  
HETATM    2  C   UNL     1     -11.801  13.849  65.051  1.00  0.00    -0.373 C  
HETATM    3  C   UNL     1     -10.926  13.655  66.322  1.00  0.00    -0.300 C  
HETATM    4  C   UNL     1     -11.262  12.832  64.005  1.00  0.00    -0.413 C  
HETATM    5  N   UNL     1     -13.237  13.616  65.301  1.00  0.00    -0.657 NA 
HETATM    6  H2  UNL     1     -13.808  13.752  64.467  1.00  0.00     0.000 HD 
HETATM    7  H1  UNL     1     -13.344  12.685  65.703  1.00  0.00     0.000 HD 
HETATM    8  O   UNL     1     -10.112  12.800  63.596  1.00  0.00    -0.378 OA 
HETATM    9  O   UNL     1     -12.199  11.952  63.575  1.00  0.00    -0.524 OA 
ENDROOT
BRANCH   3  10
HETATM   10  C   UNL     1     -11.217  14.470  67.570  1.00  0.00    -0.333 A  
HETATM   11  C   UNL     1     -10.701  15.775  67.694  1.00  0.00    -0.310 A  
HETATM   12  C   UNL     1     -10.813  16.488  68.895  1.00  0.00    -0.336 A  
HETATM   13  C   UNL     1     -11.451  15.896  69.977  1.00  0.00    -0.354 A  
HETATM   14  O   UNL     1     -11.544  16.515  71.193  1.00  0.00    -0.612 OA 
HETATM   15  C   UNL     1     -11.994  14.623  69.856  1.00  0.00    -0.329 A  
HETATM   16  C   UNL     1     -11.879  13.908  68.671  1.00  0.00    -0.407 A  
HETATM   17  O   UNL     1     -12.622  14.044  70.922  1.00  0.00    -0.322 OA 
HETATM   18  H   UNL     1     -11.981  16.110  71.933  1.00  0.00     0.000 HD 
HETATM   19  H   UNL     1     -12.994  13.174  70.840  1.00  0.00     0.000 HD 
ENDBRANCH   3  10
TORSDOF 1
ENDMDL
MODEL       20
REMARK 921   NORMALIZED FREE ENERGY PREDICTED BY IDOCK:   -5.67 KCAL/MOL
REMARK 922        TOTAL FREE ENERGY PREDICTED BY IDOCK:   -6.09 KCAL/MOL
REMARK 923 INTER-LIGAND FREE ENERGY PREDICTED BY IDOCK:   -5.89 KCAL/MOL
REMARK 924 INTRA-LIGAND FREE ENERGY PREDICTED BY IDOCK:   -0.20 KCAL/MOL
REMARK 927      BINDING AFFINITY PREDICTED BY RF-SCORE:    0.00 PKD
ROOT
HETATM    1  C   UNL     1     -11.872  12.812  66.612  1.00  0.00    -0.462 C  
HETATM    2  C   UNL     1     -11.188  11.974  67.697  1.00  0.00    -0.282 C  
HETATM    3  C   UNL     1     -10.736  12.837  68.909  1.00  0.00    -0.199 C  
HETATM    4  C   UNL     1      -9.884  11.397  67.078  1.00  0.00    -0.191 C  
HETATM    5  N   UNL     1     -12.102  10.880  68.080  1.00  0.00    -0.790 NA 
HETATM    6  H2  UNL     1     -12.402  10.321  67.282  1.00  0.00     0.000 HD 
HETATM    7  H1  UNL     1     -11.647  10.322  68.803  1.00  0.00     0.000 HD 
HETATM    8  O   UNL     1      -8.957  12.071  66.657  1.00  0.00    -0.199 OA 
HETATM    9  O   UNL     1      -9.855  10.042  67.046  1.00  0.00    -0.173 OA 
ENDROOT
BRANCH   3  10
HETATM   10  C   UNL     1     -11.777  13.520  69.779  1.00  0.00    -0.363 A  
HETATM   11  C   UNL     1     -12.026  14.898  69.630  1.00  0.00    -0.360 A  
HETATM   12  C   UNL     1     -12.858  15.587  70.523  1.00  0.00    -0.402 A  
HETATM   13  C   UNL     1     -13.450  14.892  71.570  1.00  0.00    -0.410 A  
HETATM   14  O   UNL     1     -14.226  15.514  72.508  1.00  0.00    -0.548 OA 
HETATM   15  C   UNL     1     -13.240  13.525  71.706  1.00  0.00    -0.404 A  
HETATM   16  C   UNL     1     -12.410  12.839  70.829  1.00  0.00    -0.375 A  
HETATM   17  O   UNL     1     -13.825  12.844  72.737  1.00  0.00    -0.727 OA 
HETATM   18  H   UNL     1     -14.631  15.038  73.224  1.00  0.00     0.000 HD 
HETATM   19  H   UNL     1     -13.682  11.910  72.830  1.00  0.00     0.000 HD 
ENDBRANCH   3  10
TORSDOF 1
ENDMDL
MODEL       21
REMARK 921   NORMALIZED FREE ENERGY PREDICTED BY IDOCK:   -5.66 KCAL/MOL
REMARK 922        TOTAL FREE ENERGY PREDICTED BY IDOCK:   -6.08 KCAL/MOL
REMARK 923 INTER-LIGAND FREE ENERGY PREDICTED BY IDOCK:   -6.02 KCAL/MOL
REMARK 924 INTRA-LIGAND FREE ENERGY PREDICTED BY IDOCK:   -0.06 KCAL/MOL
REMARK 927      BINDING AFFINITY PREDICTED BY RF-SCORE:    0.00 PKD
ROOT
HETATM    1  C   UNL     1     -11.575  11.954  68.961  1.00  0.00    -0.376 C  
HETATM    2  C   UNL     1     -10.236  11.728  68.254  1.00  0.00    -0.205 C  
HETATM    3  C   UNL     1     -10.358  11.853  66.709  1.00  0.00    -0.238 C  
HETATM    4  C   UNL     1      -9.814  10.256  68.528  1.00  0.00    -0.164 C  
HETATM    5  N   UNL     1      -9.246  12.660  68.830  1.00  0.00    -0.400 NA 
HETATM    6  H2  UNL     1      -9.174  12.580  69.844  1.00  0.00     0.000 HD 
HETATM    7  H1  UNL     1      -8.354  12.509  68.359  1.00  0.00     0.000 HD 
HETATM    8  O   UNL     1     -10.452   9.274  68.181  1.00  0.00    -0.207 OA 
HETATM    9  O   UNL     1      -8.641  10.146  69.200  1.00  0.00    -0.142 OA 
ENDROOT
BRANCH   3  10
HETATM   10  C   UNL     1     -10.713  13.192  66.087  1.00  0.00    -0.289 A  
HETATM   11  C   UNL     1     -11.872  13.315  65.296  1.00  0.00    -0.386 A  
HETATM   12  C   UNL     1     -12.140  14.489  64.578  1.00  0.00    -0.501 A  
HETATM   13  C   UNL     1     -11.246  15.549  64.655  1.00  0.00    -0.371 A  
HETATM   14  O   UNL     1     -11.419  16.699  63.936  1.00  0.00    -1.604 OA 
HETATM   15  C   UNL     1     -10.117  15.452  65.460  1.00  0.00    -0.373 A  
HETATM   16  C   UNL     1      -9.843  14.288  66.167  1.00  0.00    -0.335 A  
HETATM   17  O   UNL     1      -9.240  16.497  65.534  1.00  0.00    -0.430 OA 
HETATM   18  H   UNL     1     -10.807  17.424  63.989  1.00  0.00     0.000 HD 
HETATM   19  H   UNL     1      -8.468  16.431  66.084  1.00  0.00     0.000 HD 
ENDBRANCH   3  10
TORSDOF 1
ENDMDL
MODEL       22
REMARK 921   NORMALIZED FREE ENERGY PREDICTED BY IDOCK:   -5.64 KCAL/MOL
REMARK 922        TOTAL FREE ENERGY PREDICTED BY IDOCK:   -6.06 KCAL/MOL
REMARK 923 INTER-LIGAND FREE ENERGY PREDICTED BY IDOCK:   -6.23 KCAL/MOL
REMARK 924 INTRA-LIGAND FREE ENERGY PREDICTED BY IDOCK:    0.17 KCAL/MOL
REMARK 927      BINDING AFFINITY PREDICTED BY RF-SCORE:    0.00 PKD
ROOT
HETATM    1  C   UNL     1     -11.846  14.619  66.813  1.00  0.00    -0.334 C  
HETATM    2  C   UNL     1     -11.597  14.425  65.314  1.00  0.00    -0.353 C  
HETATM    3  C   UNL     1     -10.289  13.631  65.034  1.00  0.00    -0.393 C  
HETATM    4  C   UNL     1     -11.377  15.835  64.698  1.00  0.00    -0.337 C  
HETATM    5  N   UNL     1     -12.792  13.788  64.726  1.00  0.00    -0.704 NA 
HETATM    6  H2  UNL     1     -13.648  14.307  64.918  1.00  0.00     0.000 HD 
HETATM    7  H1  UNL     1     -12.626  13.659  63.728  1.00  0.00     0.000 HD 
HETATM    8  O   UNL     1     -10.473  16.596  65.008  1.00  0.00    -0.664 OA 
HETATM    9  O   UNL     1     -12.295  16.161  63.754  1.00  0.00    -0.864 OA 
ENDROOT
BRANCH   3  10
HETATM   10  C   UNL     1     -10.180  12.179  65.467  1.00  0.00    -0.294 A  
HETATM   11  C   UNL     1      -9.683  11.213  64.571  1.00  0.00    -0.310 A  
HETATM   12  C   UNL     1      -9.722   9.847  64.882  1.00  0.00    -0.332 A  
HETATM   13  C   UNL     1     -10.256   9.444  66.099  1.00  0.00    -0.194 A  
HETATM   14  O   UNL     1     -10.375   8.126  66.439  1.00  0.00    -0.458 OA 
HETATM   15  C   UNL     1     -10.718  10.391  67.005  1.00  0.00    -0.235 A  
HETATM   16  C   UNL     1     -10.689  11.745  66.699  1.00  0.00    -0.300 A  
HETATM   17  O   UNL     1     -11.242   9.992  68.203  1.00  0.00    -0.459 OA 
HETATM   18  H   UNL     1     -10.741   7.850  67.272  1.00  0.00     0.000 HD 
HETATM   19  H   UNL     1     -11.557  10.638  68.822  1.00  0.00     0.000 HD 
ENDBRANCH   3  10
TORSDOF 1
ENDMDL
MODEL       23
REMARK 921   NORMALIZED FREE ENERGY PREDICTED BY IDOCK:   -5.62 KCAL/MOL
REMARK 922        TOTAL FREE ENERGY PREDICTED BY IDOCK:   -6.04 KCAL/MOL
REMARK 923 INTER-LIGAND FREE ENERGY PREDICTED BY IDOCK:   -5.91 KCAL/MOL
REMARK 924 INTRA-LIGAND FREE ENERGY PREDICTED BY IDOCK:   -0.13 KCAL/MOL
REMARK 927      BINDING AFFINITY PREDICTED BY RF-SCORE:    0.00 PKD
ROOT
HETATM    1  C   UNL     1      -9.361  14.183  68.256  1.00  0.00    -0.203 C  
HETATM    2  C   UNL     1     -10.669  14.981  68.226  1.00  0.00    -0.253 C  
HETATM    3  C   UNL     1     -11.018  15.484  66.797  1.00  0.00    -0.257 C  
HETATM    4  C   UNL     1     -10.447  16.259  69.083  1.00  0.00    -0.280 C  
HETATM    5  N   UNL     1     -11.733  14.145  68.816  1.00  0.00    -0.324 NA 
HETATM    6  H2  UNL     1     -11.498  13.811  69.750  1.00  0.00     0.000 HD 
HETATM    7  H1  UNL     1     -12.604  14.676  68.796  1.00  0.00     0.000 HD 
HETATM    8  O   UNL     1      -9.619  17.123  68.842  1.00  0.00    -0.268 OA 
HETATM    9  O   UNL     1     -11.278  16.343  70.152  1.00  0.00    -0.354 OA 
ENDROOT
BRANCH   3  10
HETATM   10  C   UNL     1     -11.344  14.482  65.703  1.00  0.00    -0.336 A  
HETATM   11  C   UNL     1     -12.660  14.001  65.558  1.00  0.00    -0.543 A  
HETATM   12  C   UNL     1     -12.958  12.960  64.669  1.00  0.00    -0.204 A  
HETATM   13  C   UNL     1     -11.936  12.399  63.915  1.00  0.00    -0.486 A  
HETATM   14  O   UNL     1     -12.149  11.345  63.072  1.00  0.00    -0.934 OA 
HETATM   15  C   UNL     1     -10.640  12.889  64.023  1.00  0.00    -0.389 A  
HETATM   16  C   UNL     1     -10.337  13.915  64.908  1.00  0.00    -0.430 A  
HETATM   17  O   UNL     1      -9.636  12.336  63.279  1.00  0.00    -0.650 OA 
HETATM   18  H   UNL     1     -11.450  10.961  62.555  1.00  0.00     0.000 HD 
HETATM   19  H   UNL     1      -8.750  12.670  63.353  1.00  0.00     0.000 HD 
ENDBRANCH   3  10
TORSDOF 1
ENDMDL
MODEL       24
REMARK 921   NORMALIZED FREE ENERGY PREDICTED BY IDOCK:   -5.62 KCAL/MOL
REMARK 922        TOTAL FREE ENERGY PREDICTED BY IDOCK:   -6.03 KCAL/MOL
REMARK 923 INTER-LIGAND FREE ENERGY PREDICTED BY IDOCK:   -5.91 KCAL/MOL
REMARK 924 INTRA-LIGAND FREE ENERGY PREDICTED BY IDOCK:   -0.12 KCAL/MOL
REMARK 927      BINDING AFFINITY PREDICTED BY RF-SCORE:    0.00 PKD
ROOT
HETATM    1  C   UNL     1      -9.453  16.487  66.172  1.00  0.00    -0.347 C  
HETATM    2  C   UNL     1      -9.339  15.445  67.289  1.00  0.00    -0.210 C  
HETATM    3  C   UNL     1     -10.621  14.574  67.414  1.00  0.00    -0.271 C  
HETATM    4  C   UNL     1      -9.222  16.222  68.632  1.00  0.00    -0.227 C  
HETATM    5  N   UNL     1      -8.122  14.645  67.052  1.00  0.00    -0.346 NA 
HETATM    6  H2  UNL     1      -7.284  15.220  66.964  1.00  0.00     0.000 HD 
HETATM    7  H1  UNL     1      -8.046  13.951  67.796  1.00  0.00     0.000 HD 
HETATM    8  O   UNL     1     -10.075  16.976  69.075  1.00  0.00    -0.278 OA 
HETATM    9  O   UNL     1      -8.064  15.983  69.295  1.00  0.00    -0.232 OA 
ENDROOT
BRANCH   3  10
HETATM   10  C   UNL     1     -11.013  13.642  66.280  1.00  0.00    -0.300 A  
HETATM   11  C   UNL     1     -10.563  12.307  66.280  1.00  0.00    -0.282 A  
HETATM   12  C   UNL     1     -10.770  11.472  65.173  1.00  0.00    -0.348 A  
HETATM   13  C   UNL     1     -11.436  11.973  64.062  1.00  0.00    -0.404 A  
HETATM   14  O   UNL     1     -11.621  11.229  62.930  1.00  0.00    -0.834 OA 
HETATM   15  C   UNL     1     -11.915  13.277  64.065  1.00  0.00    -0.465 A  
HETATM   16  C   UNL     1     -11.706  14.112  65.156  1.00  0.00    -0.361 A  
HETATM   17  O   UNL     1     -12.571  13.766  62.971  1.00  0.00    -1.005 OA 
HETATM   18  H   UNL     1     -12.076  11.572  62.170  1.00  0.00     0.000 HD 
HETATM   19  H   UNL     1     -12.898  14.658  62.972  1.00  0.00     0.000 HD 
ENDBRANCH   3  10
TORSDOF 1
ENDMDL
MODEL       25
REMARK 921   NORMALIZED FREE ENERGY PREDICTED BY IDOCK:   -5.61 KCAL/MOL
REMARK 922        TOTAL FREE ENERGY PREDICTED BY IDOCK:   -6.03 KCAL/MOL
REMARK 923 INTER-LIGAND FREE ENERGY PREDICTED BY IDOCK:   -5.81 KCAL/MOL
REMARK 924 INTRA-LIGAND FREE ENERGY PREDICTED BY IDOCK:   -0.22 KCAL/MOL
REMARK 927      BINDING AFFINITY PREDICTED BY RF-SCORE:    0.00 PKD
ROOT
HETATM    1  C   UNL     1     -11.156  10.856  67.404  1.00  0.00    -0.373 C  
HETATM    2  C   UNL     1     -10.291   9.691  67.893  1.00  0.00    -0.224 C  
HETATM    3  C   UNL     1     -10.095   9.710  69.435  1.00  0.00    -0.213 C  
HETATM    4  C   UNL     1      -8.873   9.884  67.283  1.00  0.00    -0.132 C  
HETATM    5  N   UNL     1     -10.891   8.433  67.406  1.00  0.00    -0.485 NA 
HETATM    6  H2  UNL     1     -11.024   8.427  66.395  1.00  0.00     0.000 HD 
HETATM    7  H1  UNL     1     -10.314   7.657  67.731  1.00  0.00     0.000 HD 
HETATM    8  O   UNL     1      -8.150  10.844  67.498  1.00  0.00    -0.114 OA 
HETATM    9  O   UNL     1      -8.490   8.866  66.473  1.00  0.00    -0.115 OA 
ENDROOT
BRANCH   3  10
HETATM   10  C   UNL     1     -11.289   9.498  70.350  1.00  0.00    -0.318 A  
HETATM   11  C   UNL     1     -11.999  10.607  70.849  1.00  0.00    -0.469 A  
HETATM   12  C   UNL     1     -12.998  10.452  71.819  1.00  0.00    -0.580 A  
HETATM   13  C   UNL     1     -13.293   9.179  72.291  1.00  0.00    -0.477 A  
HETATM   14  O   UNL     1     -14.216   8.965  73.276  1.00  0.00    -1.197 OA 
HETATM   15  C   UNL     1     -12.623   8.074  71.781  1.00  0.00    -0.325 A  
HETATM   16  C   UNL     1     -11.626   8.222  70.825  1.00  0.00    -0.250 A  
HETATM   17  O   UNL     1     -12.916   6.823  72.246  1.00  0.00    -0.542 OA 
HETATM   18  H   UNL     1     -14.418   8.094  73.599  1.00  0.00     0.000 HD 
HETATM   19  H   UNL     1     -12.458   6.067  71.898  1.00  0.00     0.000 HD 
ENDBRANCH   3  10
TORSDOF 1
ENDMDL
MODEL       26
REMARK 921   NORMALIZED FREE ENERGY PREDICTED BY IDOCK:   -5.60 KCAL/MOL
REMARK 922        TOTAL FREE ENERGY PREDICTED BY IDOCK:   -6.02 KCAL/MOL
REMARK 923 INTER-LIGAND FREE ENERGY PREDICTED BY IDOCK:   -5.82 KCAL/MOL
REMARK 924 INTRA-LIGAND FREE ENERGY PREDICTED BY IDOCK:   -0.20 KCAL/MOL
REMARK 927      BINDING AFFINITY PREDICTED BY RF-SCORE:    0.00 PKD
ROOT
HETATM    1  C   UNL     1      -8.089  11.968  67.118  1.00  0.00    -0.177 C  
HETATM    2  C   UNL     1      -9.326  11.637  66.276  1.00  0.00    -0.216 C  
HETATM    3  C   UNL     1     -10.518  12.587  66.583  1.00  0.00    -0.252 C  
HETATM    4  C   UNL     1      -9.798  10.216  66.693  1.00  0.00    -0.200 C  
HETATM    5  N   UNL     1      -8.933  11.651  64.853  1.00  0.00    -0.386 NA 
HETATM    6  H2  UNL     1      -8.146  11.032  64.656  1.00  0.00     0.000 HD 
HETATM    7  H1  UNL     1      -9.756  11.430  64.292  1.00  0.00     0.000 HD 
HETATM    8  O   UNL     1     -10.166   9.907  67.815  1.00  0.00    -0.173 OA 
HETATM    9  O   UNL     1      -9.773   9.319  65.676  1.00  0.00    -0.284 OA 
ENDROOT
BRANCH   3  10
HETATM   10  C   UNL     1     -10.411  14.065  66.248  1.00  0.00    -0.294 A  
HETATM   11  C   UNL     1      -9.855  14.960  67.183  1.00  0.00    -0.231 A  
HETATM   12  C   UNL     1      -9.891  16.345  66.971  1.00  0.00    -0.253 A  
HETATM   13  C   UNL     1     -10.481  16.839  65.815  1.00  0.00    -0.292 A  
HETATM   14  O   UNL     1     -10.600  18.179  65.575  1.00  0.00    -0.638 OA 
HETATM   15  C   UNL     1     -11.002  15.963  64.870  1.00  0.00    -0.411 A  
HETATM   16  C   UNL     1     -10.976  14.590  65.078  1.00  0.00    -0.408 A  
HETATM   17  O   UNL     1     -11.581  16.452  63.733  1.00  0.00    -1.605 OA 
HETATM   18  H   UNL     1     -11.003  18.517  64.784  1.00  0.00     0.000 HD 
HETATM   19  H   UNL     1     -11.937  15.854  63.086  1.00  0.00     0.000 HD 
ENDBRANCH   3  10
TORSDOF 1
ENDMDL
MODEL       27
REMARK 921   NORMALIZED FREE ENERGY PREDICTED BY IDOCK:   -5.60 KCAL/MOL
REMARK 922        TOTAL FREE ENERGY PREDICTED BY IDOCK:   -6.02 KCAL/MOL
REMARK 923 INTER-LIGAND FREE ENERGY PREDICTED BY IDOCK:   -5.81 KCAL/MOL
REMARK 924 INTRA-LIGAND FREE ENERGY PREDICTED BY IDOCK:   -0.20 KCAL/MOL
REMARK 927      BINDING AFFINITY PREDICTED BY RF-SCORE:    0.00 PKD
ROOT
HETATM    1  C   UNL     1     -11.173  12.324  66.674  1.00  0.00    -0.367 C  
HETATM    2  C   UNL     1     -11.179  13.123  65.368  1.00  0.00    -0.291 C  
HETATM    3  C   UNL     1     -11.677  14.582  65.573  1.00  0.00    -0.343 C  
HETATM    4  C   UNL     1     -12.215  12.451  64.423  1.00  0.00    -0.437 C  
HETATM    5  N   UNL     1      -9.828  13.055  64.778  1.00  0.00    -0.563 NA 
HETATM    6  H2  UNL     1      -9.502  12.097  64.652  1.00  0.00     0.000 HD 
HETATM    7  H1  UNL     1      -9.832  13.587  63.908  1.00  0.00     0.000 HD 
HETATM    8  O   UNL     1     -13.408  12.347  64.661  1.00  0.00    -0.778 OA 
HETATM    9  O   UNL     1     -11.672  11.979  63.273  1.00  0.00    -0.406 OA 
ENDROOT
BRANCH   3  10
HETATM   10  C   UNL     1     -10.862  15.545  66.418  1.00  0.00    -0.277 A  
HETATM   11  C   UNL     1     -11.265  15.842  67.735  1.00  0.00    -0.286 A  
HETATM   12  C   UNL     1     -10.631  16.845  68.480  1.00  0.00    -0.367 A  
HETATM   13  C   UNL     1      -9.582  17.553  67.907  1.00  0.00    -0.277 A  
HETATM   14  O   UNL     1      -8.959  18.580  68.558  1.00  0.00    -0.316 OA 
HETATM   15  C   UNL     1      -9.153  17.246  66.622  1.00  0.00    -0.265 A  
HETATM   16  C   UNL     1      -9.783  16.258  65.876  1.00  0.00    -0.354 A  
HETATM   17  O   UNL     1      -8.120  17.944  66.062  1.00  0.00    -0.486 OA 
HETATM   18  H   UNL     1      -8.241  19.065  68.167  1.00  0.00     0.000 HD 
HETATM   19  H   UNL     1      -7.826  17.734  65.183  1.00  0.00     0.000 HD 
ENDBRANCH   3  10
TORSDOF 1
ENDMDL
MODEL       28
REMARK 921   NORMALIZED FREE ENERGY PREDICTED BY IDOCK:   -5.58 KCAL/MOL
REMARK 922        TOTAL FREE ENERGY PREDICTED BY IDOCK:   -6.00 KCAL/MOL
REMARK 923 INTER-LIGAND FREE ENERGY PREDICTED BY IDOCK:   -5.84 KCAL/MOL
REMARK 924 INTRA-LIGAND FREE ENERGY PREDICTED BY IDOCK:   -0.16 KCAL/MOL
REMARK 927      BINDING AFFINITY PREDICTED BY RF-SCORE:    0.00 PKD
ROOT
HETATM    1  C   UNL     1      -9.247  13.655  68.186  1.00  0.00    -0.204 C  
HETATM    2  C   UNL     1     -10.191  14.777  68.632  1.00  0.00    -0.236 C  
HETATM    3  C   UNL     1     -11.663  14.292  68.758  1.00  0.00    -0.378 C  
HETATM    4  C   UNL     1     -10.192  15.850  67.507  1.00  0.00    -0.269 C  
HETATM    5  N   UNL     1      -9.666  15.351  69.887  1.00  0.00    -0.438 NA 
HETATM    6  H2  UNL     1      -8.698  15.661  69.803  1.00  0.00     0.000 HD 
HETATM    7  H1  UNL     1     -10.294  16.098  70.184  1.00  0.00     0.000 HD 
HETATM    8  O   UNL     1     -10.559  15.653  66.359  1.00  0.00    -0.301 OA 
HETATM    9  O   UNL     1      -9.746  17.063  67.916  1.00  0.00    -0.253 OA 
ENDROOT
BRANCH   3  10
HETATM   10  C   UNL     1     -12.030  13.262  69.811  1.00  0.00    -0.391 A  
HETATM   11  C   UNL     1     -11.779  11.896  69.578  1.00  0.00    -0.410 A  
HETATM   12  C   UNL     1     -12.252  10.911  70.456  1.00  0.00    -0.459 A  
HETATM   13  C   UNL     1     -12.977  11.293  71.576  1.00  0.00    -0.415 A  
HETATM   14  O   UNL     1     -13.514  10.381  72.441  1.00  0.00    -0.612 OA 
HETATM   15  C   UNL     1     -13.201  12.640  71.835  1.00  0.00    -0.403 A  
HETATM   16  C   UNL     1     -12.742  13.620  70.965  1.00  0.00    -0.408 A  
HETATM   17  O   UNL     1     -13.914  13.013  72.940  1.00  0.00    -0.666 OA 
HETATM   18  H   UNL     1     -14.010  10.643  73.208  1.00  0.00     0.000 HD 
HETATM   19  H   UNL     1     -14.068  13.934  73.117  1.00  0.00     0.000 HD 
ENDBRANCH   3  10
TORSDOF 1
ENDMDL
MODEL       29
REMARK 921   NORMALIZED FREE ENERGY PREDICTED BY IDOCK:   -5.57 KCAL/MOL
REMARK 922        TOTAL FREE ENERGY PREDICTED BY IDOCK:   -5.99 KCAL/MOL
REMARK 923 INTER-LIGAND FREE ENERGY PREDICTED BY IDOCK:   -5.87 KCAL/MOL
REMARK 924 INTRA-LIGAND FREE ENERGY PREDICTED BY IDOCK:   -0.12 KCAL/MOL
REMARK 927      BINDING AFFINITY PREDICTED BY RF-SCORE:    0.00 PKD
ROOT
HETATM    1  C   UNL     1     -11.583  14.623  67.128  1.00  0.00    -0.394 C  
HETATM    2  C   UNL     1     -10.746  14.809  65.858  1.00  0.00    -0.316 C  
HETATM    3  C   UNL     1     -10.590  16.306  65.470  1.00  0.00    -0.369 C  
HETATM    4  C   UNL     1     -11.530  14.147  64.690  1.00  0.00    -0.387 C  
HETATM    5  N   UNL     1      -9.450  14.130  66.056  1.00  0.00    -0.502 NA 
HETATM    6  H2  UNL     1      -9.556  13.150  66.318  1.00  0.00     0.000 HD 
HETATM    7  H1  UNL     1      -8.892  14.253  65.211  1.00  0.00     0.000 HD 
HETATM    8  O   UNL     1     -12.639  14.492  64.314  1.00  0.00    -0.681 OA 
HETATM    9  O   UNL     1     -10.860  13.127  64.099  1.00  0.00    -0.388 OA 
ENDROOT
BRANCH   3  10
HETATM   10  C   UNL     1      -9.821  17.247  66.382  1.00  0.00    -0.310 A  
HETATM   11  C   UNL     1      -8.413  17.243  66.370  1.00  0.00    -0.304 A  
HETATM   12  C   UNL     1      -7.677  17.977  67.311  1.00  0.00    -0.220 A  
HETATM   13  C   UNL     1      -8.354  18.725  68.265  1.00  0.00    -0.330 A  
HETATM   14  O   UNL     1      -7.697  19.417  69.244  1.00  0.00    -0.310 OA 
HETATM   15  C   UNL     1      -9.743  18.764  68.265  1.00  0.00    -0.362 A  
HETATM   16  C   UNL     1     -10.477  18.032  67.340  1.00  0.00    -0.399 A  
HETATM   17  O   UNL     1     -10.405  19.502  69.205  1.00  0.00    -0.598 OA 
HETATM   18  H   UNL     1      -8.160  19.929  69.897  1.00  0.00     0.000 HD 
HETATM   19  H   UNL     1     -11.355  19.529  69.205  1.00  0.00     0.000 HD 
ENDBRANCH   3  10
TORSDOF 1
ENDMDL
MODEL       30
REMARK 921   NORMALIZED FREE ENERGY PREDICTED BY IDOCK:   -5.55 KCAL/MOL
REMARK 922        TOTAL FREE ENERGY PREDICTED BY IDOCK:   -5.97 KCAL/MOL
REMARK 923 INTER-LIGAND FREE ENERGY PREDICTED BY IDOCK:   -5.96 KCAL/MOL
REMARK 924 INTRA-LIGAND FREE ENERGY PREDICTED BY IDOCK:   -0.00 KCAL/MOL
REMARK 927      BINDING AFFINITY PREDICTED BY RF-SCORE:    0.00 PKD
ROOT
HETATM    1  C   UNL     1     -10.826  17.826  67.819  1.00  0.00    -0.238 C  
HETATM    2  C   UNL     1      -9.897  17.817  66.602  1.00  0.00    -0.322 C  
HETATM    3  C   UNL     1      -9.376  16.390  66.271  1.00  0.00    -0.348 C  
HETATM    4  C   UNL     1      -8.639  18.651  66.978  1.00  0.00    -0.276 C  
HETATM    5  N   UNL     1     -10.609  18.445  65.472  1.00  0.00    -0.567 NA 
HETATM    6  H2  UNL     1     -10.955  19.377  65.695  1.00  0.00     0.000 HD 
HETATM    7  H1  UNL     1      -9.990  18.439  64.661  1.00  0.00     0.000 HD 
HETATM    8  O   UNL     1      -7.870  18.377  67.886  1.00  0.00    -0.246 OA 
HETATM    9  O   UNL     1      -8.456  19.738  66.189  1.00  0.00    -0.355 OA 
ENDROOT
BRANCH   3  10
HETATM   10  C   UNL     1     -10.350  15.318  65.813  1.00  0.00    -0.364 A  
HETATM   11  C   UNL     1     -11.093  15.501  64.631  1.00  0.00    -0.373 A  
HETATM   12  C   UNL     1     -12.114  14.610  64.270  1.00  0.00    -0.437 A  
HETATM   13  C   UNL     1     -12.390  13.527  65.094  1.00  0.00    -0.449 A  
HETATM   14  O   UNL     1     -13.408  12.654  64.829  1.00  0.00    -0.787 OA 
HETATM   15  C   UNL     1     -11.640  13.317  66.245  1.00  0.00    -0.346 A  
HETATM   16  C   UNL     1     -10.633  14.200  66.611  1.00  0.00    -0.278 A  
HETATM   17  O   UNL     1     -11.914  12.249  67.053  1.00  0.00    -0.576 OA 
HETATM   18  H   UNL     1     -13.597  11.913  65.392  1.00  0.00     0.000 HD 
HETATM   19  H   UNL     1     -11.402  12.106  67.839  1.00  0.00     0.000 HD 
ENDBRANCH   3  10
TORSDOF 1
ENDMDL
MODEL       31
REMARK 921   NORMALIZED FREE ENERGY PREDICTED BY IDOCK:   -5.55 KCAL/MOL
REMARK 922        TOTAL FREE ENERGY PREDICTED BY IDOCK:   -5.97 KCAL/MOL
REMARK 923 INTER-LIGAND FREE ENERGY PREDICTED BY IDOCK:   -5.75 KCAL/MOL
REMARK 924 INTRA-LIGAND FREE ENERGY PREDICTED BY IDOCK:   -0.21 KCAL/MOL
REMARK 927      BINDING AFFINITY PREDICTED BY RF-SCORE:    0.00 PKD
ROOT
HETATM    1  C   UNL     1      -9.247  16.774  66.443  1.00  0.00    -0.309 C  
HETATM    2  C   UNL     1      -9.869  17.021  67.820  1.00  0.00    -0.271 C  
HETATM    3  C   UNL     1     -11.242  16.309  67.983  1.00  0.00    -0.260 C  
HETATM    4  C   UNL     1     -10.167  18.544  67.923  1.00  0.00    -0.384 C  
HETATM    5  N   UNL     1      -8.889  16.621  68.849  1.00  0.00    -0.253 NA 
HETATM    6  H2  UNL     1      -7.988  17.084  68.735  1.00  0.00     0.000 HD 
HETATM    7  H1  UNL     1      -9.303  16.786  69.766  1.00  0.00     0.000 HD 
HETATM    8  O   UNL     1     -10.929  19.154  67.188  1.00  0.00    -0.453 OA 
HETATM    9  O   UNL     1      -9.498  19.160  68.928  1.00  0.00    -0.380 OA 
ENDROOT
BRANCH   3  10
HETATM   10  C   UNL     1     -11.309  14.791  67.979  1.00  0.00    -0.332 A  
HETATM   11  C   UNL     1     -11.495  14.098  66.767  1.00  0.00    -0.383 A  
HETATM   12  C   UNL     1     -11.723  12.715  66.750  1.00  0.00    -0.460 A  
HETATM   13  C   UNL     1     -11.761  12.020  67.952  1.00  0.00    -0.323 A  
HETATM   14  O   UNL     1     -12.035  10.682  68.008  1.00  0.00    -0.784 OA 
HETATM   15  C   UNL     1     -11.544  12.688  69.151  1.00  0.00    -0.320 A  
HETATM   16  C   UNL     1     -11.325  14.059  69.175  1.00  0.00    -0.323 A  
HETATM   17  O   UNL     1     -11.580  12.000  70.331  1.00  0.00    -0.519 OA 
HETATM   18  H   UNL     1     -12.060  10.206  68.830  1.00  0.00     0.000 HD 
HETATM   19  H   UNL     1     -11.432  12.456  71.151  1.00  0.00     0.000 HD 
ENDBRANCH   3  10
TORSDOF 1
ENDMDL
MODEL       32
REMARK 921   NORMALIZED FREE ENERGY PREDICTED BY IDOCK:   -5.52 KCAL/MOL
REMARK 922        TOTAL FREE ENERGY PREDICTED BY IDOCK:   -5.93 KCAL/MOL
REMARK 923 INTER-LIGAND FREE ENERGY PREDICTED BY IDOCK:   -6.05 KCAL/MOL
REMARK 924 INTRA-LIGAND FREE ENERGY PREDICTED BY IDOCK:    0.12 KCAL/MOL
REMARK 927      BINDING AFFINITY PREDICTED BY RF-SCORE:    0.00 PKD
ROOT
HETATM    1  C   UNL     1     -10.277  19.636  68.124  1.00  0.00    -0.580 C  
HETATM    2  C   UNL     1      -9.045  19.077  67.405  1.00  0.00    -0.293 C  
HETATM    3  C   UNL     1      -8.955  17.528  67.511  1.00  0.00    -0.230 C  
HETATM    4  C   UNL     1      -7.793  19.626  68.145  1.00  0.00    -0.311 C  
HETATM    5  N   UNL     1      -9.068  19.556  66.009  1.00  0.00    -0.422 NA 
HETATM    6  H2  UNL     1      -9.135  20.572  65.944  1.00  0.00     0.000 HD 
HETATM    7  H1  UNL     1      -8.248  19.184  65.530  1.00  0.00     0.000 HD 
HETATM    8  O   UNL     1      -7.524  19.405  69.315  1.00  0.00    -0.337 OA 
HETATM    9  O   UNL     1      -6.994  20.390  67.360  1.00  0.00    -0.255 OA 
ENDROOT
BRANCH   3  10
HETATM   10  C   UNL     1     -10.011  16.663  66.846  1.00  0.00    -0.272 A  
HETATM   11  C   UNL     1     -10.492  15.512  67.499  1.00  0.00    -0.282 A  
HETATM   12  C   UNL     1     -11.342  14.609  66.846  1.00  0.00    -0.361 A  
HETATM   13  C   UNL     1     -11.719  14.861  65.533  1.00  0.00    -0.211 A  
HETATM   14  O   UNL     1     -12.499  13.993  64.822  1.00  0.00    -0.541 OA 
HETATM   15  C   UNL     1     -11.278  16.012  64.890  1.00  0.00    -0.312 A  
HETATM   16  C   UNL     1     -10.430  16.906  65.530  1.00  0.00    -0.220 A  
HETATM   17  O   UNL     1     -11.652  16.257  63.599  1.00  0.00    -1.424 OA 
HETATM   18  H   UNL     1     -12.756  14.165  63.924  1.00  0.00     0.000 HD 
HETATM   19  H   UNL     1     -11.351  17.044  63.159  1.00  0.00     0.000 HD 
ENDBRANCH   3  10
TORSDOF 1
ENDMDL
MODEL       33
REMARK 921   NORMALIZED FREE ENERGY PREDICTED BY IDOCK:   -5.50 KCAL/MOL
REMARK 922        TOTAL FREE ENERGY PREDICTED BY IDOCK:   -5.91 KCAL/MOL
REMARK 923 INTER-LIGAND FREE ENERGY PREDICTED BY IDOCK:   -5.76 KCAL/MOL
REMARK 924 INTRA-LIGAND FREE ENERGY PREDICTED BY IDOCK:   -0.15 KCAL/MOL
REMARK 927      BINDING AFFINITY PREDICTED BY RF-SCORE:    0.00 PKD
ROOT
HETATM    1  C   UNL     1     -10.967  11.459  66.476  1.00  0.00    -0.328 C  
HETATM    2  C   UNL     1     -10.785  12.735  65.649  1.00  0.00    -0.273 C  
HETATM    3  C   UNL     1     -11.759  13.865  66.089  1.00  0.00    -0.393 C  
HETATM    4  C   UNL     1     -11.170  12.391  64.182  1.00  0.00    -0.376 C  
HETATM    5  N   UNL     1      -9.366  13.137  65.726  1.00  0.00    -0.457 NA 
HETATM    6  H2  UNL     1      -8.731  12.391  65.444  1.00  0.00     0.000 HD 
HETATM    7  H1  UNL     1      -9.245  13.987  65.175  1.00  0.00     0.000 HD 
HETATM    8  O   UNL     1     -12.275  12.013  63.824  1.00  0.00    -0.475 OA 
HETATM    9  O   UNL     1     -10.150  12.555  63.303  1.00  0.00    -0.373 OA 
ENDROOT
BRANCH   3  10
HETATM   10  C   UNL     1     -11.628  14.477  67.473  1.00  0.00    -0.403 A  
HETATM   11  C   UNL     1     -12.154  13.804  68.593  1.00  0.00    -0.333 A  
HETATM   12  C   UNL     1     -12.194  14.415  69.854  1.00  0.00    -0.394 A  
HETATM   13  C   UNL     1     -11.699  15.705  69.998  1.00  0.00    -0.357 A  
HETATM   14  O   UNL     1     -11.759  16.377  71.186  1.00  0.00    -0.610 OA 
HETATM   15  C   UNL     1     -11.146  16.365  68.907  1.00  0.00    -0.328 A  
HETATM   16  C   UNL     1     -11.111  15.768  67.654  1.00  0.00    -0.283 A  
HETATM   17  O   UNL     1     -10.659  17.634  69.052  1.00  0.00    -0.374 OA 
HETATM   18  H   UNL     1     -11.421  17.260  71.284  1.00  0.00     0.000 HD 
HETATM   19  H   UNL     1     -10.281  18.085  68.307  1.00  0.00     0.000 HD 
ENDBRANCH   3  10
TORSDOF 1
ENDMDL
MODEL       34
REMARK 921   NORMALIZED FREE ENERGY PREDICTED BY IDOCK:   -5.46 KCAL/MOL
REMARK 922        TOTAL FREE ENERGY PREDICTED BY IDOCK:   -5.87 KCAL/MOL
REMARK 923 INTER-LIGAND FREE ENERGY PREDICTED BY IDOCK:   -5.66 KCAL/MOL
REMARK 924 INTRA-LIGAND FREE ENERGY PREDICTED BY IDOCK:   -0.22 KCAL/MOL
REMARK 927      BINDING AFFINITY PREDICTED BY RF-SCORE:    0.00 PKD
ROOT
HETATM    1  C   UNL     1     -11.118  16.228  68.127  1.00  0.00    -0.329 C  
HETATM    2  C   UNL     1     -11.294  14.931  68.922  1.00  0.00    -0.283 C  
HETATM    3  C   UNL     1     -12.260  13.937  68.218  1.00  0.00    -0.185 C  
HETATM    4  C   UNL     1     -11.978  15.306  70.268  1.00  0.00    -0.330 C  
HETATM    5  N   UNL     1      -9.957  14.355  69.170  1.00  0.00    -0.408 NA 
HETATM    6  H2  UNL     1      -9.324  15.013  69.625  1.00  0.00     0.000 HD 
HETATM    7  H1  UNL     1     -10.074  13.492  69.700  1.00  0.00     0.000 HD 
HETATM    8  O   UNL     1     -13.083  15.816  70.367  1.00  0.00    -0.399 OA 
HETATM    9  O   UNL     1     -11.228  15.007  71.357  1.00  0.00    -0.311 OA 
ENDROOT
BRANCH   3  10
HETATM   10  C   UNL     1     -11.873  13.327  66.882  1.00  0.00    -0.446 A  
HETATM   11  C   UNL     1     -12.357  13.888  65.685  1.00  0.00    -0.511 A  
HETATM   12  C   UNL     1     -12.152  13.255  64.452  1.00  0.00    -0.471 A  
HETATM   13  C   UNL     1     -11.453  12.056  64.413  1.00  0.00    -0.343 A  
HETATM   14  O   UNL     1     -11.268  11.360  63.252  1.00  0.00    -0.770 OA 
HETATM   15  C   UNL     1     -10.940  11.510  65.584  1.00  0.00    -0.236 A  
HETATM   16  C   UNL     1     -11.147  12.129  66.810  1.00  0.00    -0.349 A  
HETATM   17  O   UNL     1     -10.252  10.331  65.543  1.00  0.00    -0.284 OA 
HETATM   18  H   UNL     1     -10.789  10.539  63.226  1.00  0.00     0.000 HD 
HETATM   19  H   UNL     1      -9.901   9.957  66.343  1.00  0.00     0.000 HD 
ENDBRANCH   3  10
TORSDOF 1
ENDMDL
MODEL       35
REMARK 921   NORMALIZED FREE ENERGY PREDICTED BY IDOCK:   -5.45 KCAL/MOL
REMARK 922        TOTAL FREE ENERGY PREDICTED BY IDOCK:   -5.86 KCAL/MOL
REMARK 923 INTER-LIGAND FREE ENERGY PREDICTED BY IDOCK:   -5.72 KCAL/MOL
REMARK 924 INTRA-LIGAND FREE ENERGY PREDICTED BY IDOCK:   -0.13 KCAL/MOL
REMARK 927      BINDING AFFINITY PREDICTED BY RF-SCORE:    0.00 PKD
ROOT
HETATM    1  C   UNL     1      -8.896  12.720  68.189  1.00  0.00    -0.194 C  
HETATM    2  C   UNL     1      -8.629  11.393  67.472  1.00  0.00    -0.137 C  
HETATM    3  C   UNL     1      -9.934  10.743  66.932  1.00  0.00    -0.240 C  
HETATM    4  C   UNL     1      -8.068  10.403  68.532  1.00  0.00    -0.116 C  
HETATM    5  N   UNL     1      -7.627  11.634  66.414  1.00  0.00    -0.373 NA 
HETATM    6  H2  UNL     1      -6.776  12.067  66.771  1.00  0.00     0.000 HD 
HETATM    7  H1  UNL     1      -7.448  10.750  65.937  1.00  0.00     0.000 HD 
HETATM    8  O   UNL     1      -8.673  10.035  69.527  1.00  0.00    -0.170 OA 
HETATM    9  O   UNL     1      -6.817   9.962  68.251  1.00  0.00    -0.063 OA 
ENDROOT
BRANCH   3  10
HETATM   10  C   UNL     1     -10.722  11.434  65.833  1.00  0.00    -0.311 A  
HETATM   11  C   UNL     1     -10.387  11.216  64.483  1.00  0.00    -0.400 A  
HETATM   12  C   UNL     1     -10.986  11.960  63.457  1.00  0.00    -0.505 A  
HETATM   13  C   UNL     1     -11.930  12.925  63.783  1.00  0.00    -0.512 A  
HETATM   14  O   UNL     1     -12.510  13.723  62.836  1.00  0.00    -1.009 OA 
HETATM   15  C   UNL     1     -12.295  13.124  65.109  1.00  0.00    -0.473 A  
HETATM   16  C   UNL     1     -11.699  12.395  66.130  1.00  0.00    -0.460 A  
HETATM   17  O   UNL     1     -13.225  14.073  65.426  1.00  0.00    -0.761 OA 
HETATM   18  H   UNL     1     -13.156  14.382  63.059  1.00  0.00     0.000 HD 
HETATM   19  H   UNL     1     -13.475  14.210  66.332  1.00  0.00     0.000 HD 
ENDBRANCH   3  10
TORSDOF 1
ENDMDL
MODEL       36
REMARK 921   NORMALIZED FREE ENERGY PREDICTED BY IDOCK:   -5.42 KCAL/MOL
REMARK 922        TOTAL FREE ENERGY PREDICTED BY IDOCK:   -5.83 KCAL/MOL
REMARK 923 INTER-LIGAND FREE ENERGY PREDICTED BY IDOCK:   -5.63 KCAL/MOL
REMARK 924 INTRA-LIGAND FREE ENERGY PREDICTED BY IDOCK:   -0.20 KCAL/MOL
REMARK 927      BINDING AFFINITY PREDICTED BY RF-SCORE:    0.00 PKD
ROOT
HETATM    1  C   UNL     1      -9.780  14.267  68.952  1.00  0.00    -0.118 C  
HETATM    2  C   UNL     1      -9.556  15.346  67.889  1.00  0.00    -0.206 C  
HETATM    3  C   UNL     1      -9.078  14.749  66.536  1.00  0.00    -0.291 C  
HETATM    4  C   UNL     1      -8.393  16.249  68.389  1.00  0.00    -0.190 C  
HETATM    5  N   UNL     1     -10.798  16.135  67.762  1.00  0.00    -0.327 NA 
HETATM    6  H2  UNL     1     -11.113  16.519  68.653  1.00  0.00     0.000 HD 
HETATM    7  H1  UNL     1     -10.649  16.854  67.054  1.00  0.00     0.000 HD 
HETATM    8  O   UNL     1      -7.254  15.861  68.600  1.00  0.00    -0.127 OA 
HETATM    9  O   UNL     1      -8.753  17.543  68.573  1.00  0.00    -0.274 OA 
ENDROOT
BRANCH   3  10
HETATM   10  C   UNL     1     -10.004  13.845  65.741  1.00  0.00    -0.304 A  
HETATM   11  C   UNL     1      -9.808  12.450  65.753  1.00  0.00    -0.253 A  
HETATM   12  C   UNL     1     -10.539  11.607  64.906  1.00  0.00    -0.349 A  
HETATM   13  C   UNL     1     -11.477  12.160  64.045  1.00  0.00    -0.411 A  
HETATM   14  O   UNL     1     -12.183  11.400  63.155  1.00  0.00    -0.904 OA 
HETATM   15  C   UNL     1     -11.705  13.531  64.049  1.00  0.00    -0.395 A  
HETATM   16  C   UNL     1     -10.977  14.372  64.881  1.00  0.00    -0.416 A  
HETATM   17  O   UNL     1     -12.630  14.072  63.201  1.00  0.00    -1.062 OA 
HETATM   18  H   UNL     1     -12.826  11.778  62.566  1.00  0.00     0.000 HD 
HETATM   19  H   UNL     1     -12.786  15.009  63.204  1.00  0.00     0.000 HD 
ENDBRANCH   3  10
TORSDOF 1
ENDMDL
MODEL       37
REMARK 921   NORMALIZED FREE ENERGY PREDICTED BY IDOCK:   -5.41 KCAL/MOL
REMARK 922        TOTAL FREE ENERGY PREDICTED BY IDOCK:   -5.81 KCAL/MOL
REMARK 923 INTER-LIGAND FREE ENERGY PREDICTED BY IDOCK:   -6.11 KCAL/MOL
REMARK 924 INTRA-LIGAND FREE ENERGY PREDICTED BY IDOCK:    0.30 KCAL/MOL
REMARK 927      BINDING AFFINITY PREDICTED BY RF-SCORE:    0.00 PKD
ROOT
HETATM    1  C   UNL     1      -9.983   9.033  71.468  1.00  0.00    -0.391 C  
HETATM    2  C   UNL     1     -11.285   8.621  70.775  1.00  0.00    -0.261 C  
HETATM    3  C   UNL     1     -12.514   9.405  71.317  1.00  0.00    -0.416 C  
HETATM    4  C   UNL     1     -11.543   7.129  71.131  1.00  0.00    -0.301 C  
HETATM    5  N   UNL     1     -11.102   8.776  69.318  1.00  0.00    -0.432 NA 
HETATM    6  H2  UNL     1     -10.292   8.267  68.967  1.00  0.00     0.000 HD 
HETATM    7  H1  UNL     1     -11.969   8.501  68.856  1.00  0.00     0.000 HD 
HETATM    8  O   UNL     1     -11.714   6.705  72.263  1.00  0.00    -0.284 OA 
HETATM    9  O   UNL     1     -11.570   6.312  70.049  1.00  0.00    -0.425 OA 
ENDROOT
BRANCH   3  10
HETATM   10  C   UNL     1     -12.610  10.904  71.094  1.00  0.00    -0.532 A  
HETATM   11  C   UNL     1     -11.937  11.500  70.010  1.00  0.00    -0.435 A  
HETATM   12  C   UNL     1     -11.872  12.893  69.873  1.00  0.00    -0.373 A  
HETATM   13  C   UNL     1     -12.490  13.697  70.822  1.00  0.00    -0.359 A  
HETATM   14  O   UNL     1     -12.417  15.061  70.777  1.00  0.00    -0.304 OA 
HETATM   15  C   UNL     1     -13.187  13.120  71.877  1.00  0.00    -0.431 A  
HETATM   16  C   UNL     1     -13.247  11.740  72.022  1.00  0.00    -0.460 A  
HETATM   17  O   UNL     1     -13.794  13.914  72.809  1.00  0.00    -0.701 OA 
HETATM   18  H   UNL     1     -12.839  15.611  71.427  1.00  0.00     0.000 HD 
HETATM   19  H   UNL     1     -14.270  13.520  73.530  1.00  0.00     0.000 HD 
ENDBRANCH   3  10
TORSDOF 1
ENDMDL
MODEL       38
REMARK 921   NORMALIZED FREE ENERGY PREDICTED BY IDOCK:   -5.38 KCAL/MOL
REMARK 922        TOTAL FREE ENERGY PREDICTED BY IDOCK:   -5.79 KCAL/MOL
REMARK 923 INTER-LIGAND FREE ENERGY PREDICTED BY IDOCK:   -5.57 KCAL/MOL
REMARK 924 INTRA-LIGAND FREE ENERGY PREDICTED BY IDOCK:   -0.22 KCAL/MOL
REMARK 927      BINDING AFFINITY PREDICTED BY RF-SCORE:    0.00 PKD
ROOT
HETATM    1  C   UNL     1      -8.546  15.589  69.214  1.00  0.00    -0.263 C  
HETATM    2  C   UNL     1      -8.399  16.742  68.217  1.00  0.00    -0.213 C  
HETATM    3  C   UNL     1      -8.253  16.238  66.753  1.00  0.00    -0.294 C  
HETATM    4  C   UNL     1      -7.065  17.469  68.550  1.00  0.00    -0.226 C  
HETATM    5  N   UNL     1      -9.542  17.658  68.397  1.00  0.00    -0.297 NA 
HETATM    6  H2  UNL     1      -9.639  17.981  69.359  1.00  0.00     0.000 HD 
HETATM    7  H1  UNL     1      -9.444  18.426  67.733  1.00  0.00     0.000 HD 
HETATM    8  O   UNL     1      -5.961  16.951  68.503  1.00  0.00    -0.138 OA 
HETATM    9  O   UNL     1      -7.232  18.768  68.902  1.00  0.00    -0.300 OA 
ENDROOT
BRANCH   3  10
HETATM   10  C   UNL     1      -9.409  15.514  66.085  1.00  0.00    -0.380 A  
HETATM   11  C   UNL     1      -9.494  14.110  66.152  1.00  0.00    -0.229 A  
HETATM   12  C   UNL     1     -10.453  13.404  65.413  1.00  0.00    -0.310 A  
HETATM   13  C   UNL     1     -11.337  14.107  64.606  1.00  0.00    -0.371 A  
HETATM   14  O   UNL     1     -12.259  13.477  63.817  1.00  0.00    -0.600 OA 
HETATM   15  C   UNL     1     -11.286  15.495  64.559  1.00  0.00    -0.314 A  
HETATM   16  C   UNL     1     -10.333  16.199  65.283  1.00  0.00    -0.281 A  
HETATM   17  O   UNL     1     -12.159  16.184  63.764  1.00  0.00    -1.355 OA 
HETATM   18  H   UNL     1     -12.864  13.958  63.265  1.00  0.00     0.000 HD 
HETATM   19  H   UNL     1     -12.124  17.133  63.732  1.00  0.00     0.000 HD 
ENDBRANCH   3  10
TORSDOF 1
ENDMDL
MODEL       39
REMARK 921   NORMALIZED FREE ENERGY PREDICTED BY IDOCK:   -5.34 KCAL/MOL
REMARK 922        TOTAL FREE ENERGY PREDICTED BY IDOCK:   -5.75 KCAL/MOL
REMARK 923 INTER-LIGAND FREE ENERGY PREDICTED BY IDOCK:   -5.62 KCAL/MOL
REMARK 924 INTRA-LIGAND FREE ENERGY PREDICTED BY IDOCK:   -0.13 KCAL/MOL
REMARK 927      BINDING AFFINITY PREDICTED BY RF-SCORE:    0.00 PKD
ROOT
HETATM    1  C   UNL     1     -12.477  14.116  65.872  1.00  0.00    -0.479 C  
HETATM    2  C   UNL     1     -11.597  13.655  67.038  1.00  0.00    -0.359 C  
HETATM    3  C   UNL     1     -10.192  14.320  67.014  1.00  0.00    -0.260 C  
HETATM    4  C   UNL     1     -11.348  12.131  66.852  1.00  0.00    -0.343 C  
HETATM    5  N   UNL     1     -12.329  13.904  68.296  1.00  0.00    -0.455 NA 
HETATM    6  H2  UNL     1     -13.253  13.473  68.305  1.00  0.00     0.000 HD 
HETATM    7  H1  UNL     1     -11.744  13.597  69.073  1.00  0.00     0.000 HD 
HETATM    8  O   UNL     1     -10.779  11.632  65.894  1.00  0.00    -0.263 OA 
HETATM    9  O   UNL     1     -11.823  11.377  67.874  1.00  0.00    -0.588 OA 
ENDROOT
BRANCH   3  10
HETATM   10  C   UNL     1     -10.064  15.820  67.219  1.00  0.00    -0.247 A  
HETATM   11  C   UNL     1      -9.915  16.342  68.518  1.00  0.00    -0.239 A  
HETATM   12  C   UNL     1      -9.957  17.723  68.754  1.00  0.00    -0.367 A  
HETATM   13  C   UNL     1     -10.144  18.588  67.684  1.00  0.00    -0.364 A  
HETATM   14  O   UNL     1     -10.251  19.940  67.853  1.00  0.00    -0.413 OA 
HETATM   15  C   UNL     1     -10.258  18.085  66.393  1.00  0.00    -0.393 A  
HETATM   16  C   UNL     1     -10.224  16.718  66.154  1.00  0.00    -0.363 A  
HETATM   17  O   UNL     1     -10.441  18.939  65.342  1.00  0.00    -0.487 OA 
HETATM   18  H   UNL     1     -10.379  20.532  67.121  1.00  0.00     0.000 HD 
HETATM   19  H   UNL     1     -10.518  18.597  64.460  1.00  0.00     0.000 HD 
ENDBRANCH   3  10
TORSDOF 1
ENDMDL
MODEL       40
REMARK 921   NORMALIZED FREE ENERGY PREDICTED BY IDOCK:   -5.33 KCAL/MOL
REMARK 922        TOTAL FREE ENERGY PREDICTED BY IDOCK:   -5.73 KCAL/MOL
REMARK 923 INTER-LIGAND FREE ENERGY PREDICTED BY IDOCK:   -5.52 KCAL/MOL
REMARK 924 INTRA-LIGAND FREE ENERGY PREDICTED BY IDOCK:   -0.22 KCAL/MOL
REMARK 927      BINDING AFFINITY PREDICTED BY RF-SCORE:    0.00 PKD
ROOT
HETATM    1  C   UNL     1     -12.031  13.919  66.475  1.00  0.00    -0.470 C  
HETATM    2  C   UNL     1     -11.038  14.108  65.324  1.00  0.00    -0.331 C  
HETATM    3  C   UNL     1     -10.729  15.608  65.055  1.00  0.00    -0.458 C  
HETATM    4  C   UNL     1     -11.724  13.578  64.033  1.00  0.00    -0.395 C  
HETATM    5  N   UNL     1      -9.828  13.317  65.624  1.00  0.00    -0.446 NA 
HETATM    6  H2  UNL     1     -10.035  12.336  65.807  1.00  0.00     0.000 HD 
HETATM    7  H1  UNL     1      -9.166  13.443  64.857  1.00  0.00     0.000 HD 
HETATM    8  O   UNL     1     -12.752  14.032  63.556  1.00  0.00    -0.805 OA 
HETATM    9  O   UNL     1     -11.064  12.543  63.457  1.00  0.00    -0.444 OA 
ENDROOT
BRANCH   3  10
HETATM   10  C   UNL     1     -10.007  16.431  66.109  1.00  0.00    -0.360 A  
HETATM   11  C   UNL     1     -10.740  17.270  66.971  1.00  0.00    -0.152 A  
HETATM   12  C   UNL     1     -10.094  18.160  67.839  1.00  0.00    -0.366 A  
HETATM   13  C   UNL     1      -8.706  18.207  67.851  1.00  0.00    -0.261 A  
HETATM   14  O   UNL     1      -8.016  19.091  68.633  1.00  0.00    -0.333 OA 
HETATM   15  C   UNL     1      -7.972  17.359  67.031  1.00  0.00    -0.215 A  
HETATM   16  C   UNL     1      -8.607  16.481  66.162  1.00  0.00    -0.334 A  
HETATM   17  O   UNL     1      -6.606  17.407  67.046  1.00  0.00    -0.150 OA 
HETATM   18  H   UNL     1      -7.066  19.123  68.642  1.00  0.00     0.000 HD 
HETATM   19  H   UNL     1      -6.104  16.828  66.485  1.00  0.00     0.000 HD 
ENDBRANCH   3  10
TORSDOF 1
ENDMDL
MODEL       41
REMARK 921   NORMALIZED FREE ENERGY PREDICTED BY IDOCK:   -5.30 KCAL/MOL
REMARK 922        TOTAL FREE ENERGY PREDICTED BY IDOCK:   -5.70 KCAL/MOL
REMARK 923 INTER-LIGAND FREE ENERGY PREDICTED BY IDOCK:   -5.59 KCAL/MOL
REMARK 924 INTRA-LIGAND FREE ENERGY PREDICTED BY IDOCK:   -0.12 KCAL/MOL
REMARK 927      BINDING AFFINITY PREDICTED BY RF-SCORE:    0.00 PKD
ROOT
HETATM    1  C   UNL     1     -10.245  11.559  63.519  1.00  0.00    -0.462 C  
HETATM    2  C   UNL     1     -10.993  12.580  64.382  1.00  0.00    -0.340 C  
HETATM    3  C   UNL     1     -11.319  12.027  65.798  1.00  0.00    -0.384 C  
HETATM    4  C   UNL     1     -12.367  12.838  63.701  1.00  0.00    -0.463 C  
HETATM    5  N   UNL     1     -10.198  13.823  64.420  1.00  0.00    -0.729 NA 
HETATM    6  H2  UNL     1      -9.980  14.179  63.490  1.00  0.00     0.000 HD 
HETATM    7  H1  UNL     1     -10.696  14.504  64.994  1.00  0.00     0.000 HD 
HETATM    8  O   UNL     1     -13.223  11.987  63.518  1.00  0.00    -0.724 OA 
HETATM    9  O   UNL     1     -12.547  14.127  63.319  1.00  0.00    -0.766 OA 
ENDROOT
BRANCH   3  10
HETATM   10  C   UNL     1     -10.189  11.708  66.762  1.00  0.00    -0.248 A  
HETATM   11  C   UNL     1      -9.963  10.378  67.165  1.00  0.00    -0.239 A  
HETATM   12  C   UNL     1      -9.038  10.072  68.173  1.00  0.00    -0.121 A  
HETATM   13  C   UNL     1      -8.331  11.103  68.778  1.00  0.00    -0.136 A  
HETATM   14  O   UNL     1      -7.457  10.879  69.805  1.00  0.00    -0.329 OA 
HETATM   15  C   UNL     1      -8.521  12.416  68.364  1.00  0.00    -0.131 A  
HETATM   16  C   UNL     1      -9.441  12.725  67.371  1.00  0.00    -0.190 A  
HETATM   17  O   UNL     1      -7.822  13.428  68.961  1.00  0.00    -0.326 OA 
HETATM   18  H   UNL     1      -6.973  11.584  70.219  1.00  0.00     0.000 HD 
HETATM   19  H   UNL     1      -7.951  14.325  68.678  1.00  0.00     0.000 HD 
ENDBRANCH   3  10
TORSDOF 1
ENDMDL
MODEL       42
REMARK 921   NORMALIZED FREE ENERGY PREDICTED BY IDOCK:   -5.29 KCAL/MOL
REMARK 922        TOTAL FREE ENERGY PREDICTED BY IDOCK:   -5.69 KCAL/MOL
REMARK 923 INTER-LIGAND FREE ENERGY PREDICTED BY IDOCK:   -5.50 KCAL/MOL
REMARK 924 INTRA-LIGAND FREE ENERGY PREDICTED BY IDOCK:   -0.19 KCAL/MOL
REMARK 927      BINDING AFFINITY PREDICTED BY RF-SCORE:    0.00 PKD
ROOT
HETATM    1  C   UNL     1      -9.047  15.093  68.233  1.00  0.00    -0.183 C  
HETATM    2  C   UNL     1     -10.298  15.851  67.780  1.00  0.00    -0.278 C  
HETATM    3  C   UNL     1     -11.585  14.987  67.900  1.00  0.00    -0.350 C  
HETATM    4  C   UNL     1     -10.129  16.152  66.264  1.00  0.00    -0.321 C  
HETATM    5  N   UNL     1     -10.378  17.110  68.547  1.00  0.00    -0.341 NA 
HETATM    6  H2  UNL     1      -9.530  17.671  68.472  1.00  0.00     0.000 HD 
HETATM    7  H1  UNL     1     -11.211  17.616  68.245  1.00  0.00     0.000 HD 
HETATM    8  O   UNL     1     -10.021  15.302  65.395  1.00  0.00    -0.347 OA 
HETATM    9  O   UNL     1     -10.118  17.477  65.974  1.00  0.00    -0.451 OA 
ENDROOT
BRANCH   3  10
HETATM   10  C   UNL     1     -12.075  14.550  69.270  1.00  0.00    -0.325 A  
HETATM   11  C   UNL     1     -11.888  13.219  69.692  1.00  0.00    -0.391 A  
HETATM   12  C   UNL     1     -12.470  12.745  70.876  1.00  0.00    -0.373 A  
HETATM   13  C   UNL     1     -13.239  13.608  71.646  1.00  0.00    -0.367 A  
HETATM   14  O   UNL     1     -13.880  13.194  72.780  1.00  0.00    -0.721 OA 
HETATM   15  C   UNL     1     -13.401  14.932  71.257  1.00  0.00    -0.421 A  
HETATM   16  C   UNL     1     -12.834  15.405  70.081  1.00  0.00    -0.196 A  
HETATM   17  O   UNL     1     -14.158  15.779  72.018  1.00  0.00    -0.435 OA 
HETATM   18  H   UNL     1     -14.406  13.785  73.307  1.00  0.00     0.000 HD 
HETATM   19  H   UNL     1     -14.269  16.684  71.752  1.00  0.00     0.000 HD 
ENDBRANCH   3  10
TORSDOF 1
ENDMDL
MODEL       43
REMARK 921   NORMALIZED FREE ENERGY PREDICTED BY IDOCK:   -5.25 KCAL/MOL
REMARK 922        TOTAL FREE ENERGY PREDICTED BY IDOCK:   -5.64 KCAL/MOL
REMARK 923 INTER-LIGAND FREE ENERGY PREDICTED BY IDOCK:   -5.49 KCAL/MOL
REMARK 924 INTRA-LIGAND FREE ENERGY PREDICTED BY IDOCK:   -0.16 KCAL/MOL
REMARK 927      BINDING AFFINITY PREDICTED BY RF-SCORE:    0.00 PKD
ROOT
HETATM    1  C   UNL     1      -9.352  13.200  66.723  1.00  0.00    -0.244 C  
HETATM    2  C   UNL     1     -10.609  13.681  65.993  1.00  0.00    -0.290 C  
HETATM    3  C   UNL     1     -11.419  14.710  66.831  1.00  0.00    -0.372 C  
HETATM    4  C   UNL     1     -11.540  12.447  65.821  1.00  0.00    -0.398 C  
HETATM    5  N   UNL     1     -10.204  14.206  64.673  1.00  0.00    -0.641 NA 
HETATM    6  H2  UNL     1      -9.667  13.531  64.130  1.00  0.00     0.000 HD 
HETATM    7  H1  UNL     1     -11.042  14.525  64.186  1.00  0.00     0.000 HD 
HETATM    8  O   UNL     1     -12.014  11.801  66.742  1.00  0.00    -0.584 OA 
HETATM    9  O   UNL     1     -11.796  12.140  64.525  1.00  0.00    -0.362 OA 
ENDROOT
BRANCH   3  10
HETATM   10  C   UNL     1     -10.815  16.067  67.148  1.00  0.00    -0.239 A  
HETATM   11  C   UNL     1     -10.422  16.372  68.465  1.00  0.00    -0.291 A  
HETATM   12  C   UNL     1     -10.016  17.666  68.820  1.00  0.00    -0.358 A  
HETATM   13  C   UNL     1      -9.995  18.659  67.851  1.00  0.00    -0.350 A  
HETATM   14  O   UNL     1      -9.663  19.953  68.143  1.00  0.00    -0.368 OA 
HETATM   15  C   UNL     1     -10.347  18.361  66.539  1.00  0.00    -0.400 A  
HETATM   16  C   UNL     1     -10.759  17.084  66.184  1.00  0.00    -0.099 A  
HETATM   17  O   UNL     1     -10.325  19.342  65.587  1.00  0.00    -0.489 OA 
HETATM   18  H   UNL     1      -9.649  20.633  67.479  1.00  0.00     0.000 HD 
HETATM   19  H   UNL     1     -10.566  19.138  64.691  1.00  0.00     0.000 HD 
ENDBRANCH   3  10
TORSDOF 1
ENDMDL
MODEL       44
REMARK 921   NORMALIZED FREE ENERGY PREDICTED BY IDOCK:   -5.25 KCAL/MOL
REMARK 922        TOTAL FREE ENERGY PREDICTED BY IDOCK:   -5.64 KCAL/MOL
REMARK 923 INTER-LIGAND FREE ENERGY PREDICTED BY IDOCK:   -5.92 KCAL/MOL
REMARK 924 INTRA-LIGAND FREE ENERGY PREDICTED BY IDOCK:    0.27 KCAL/MOL
REMARK 927      BINDING AFFINITY PREDICTED BY RF-SCORE:    0.00 PKD
ROOT
HETATM    1  C   UNL     1     -10.523  18.296  65.974  1.00  0.00    -0.380 C  
HETATM    2  C   UNL     1      -9.584  17.450  66.839  1.00  0.00    -0.277 C  
HETATM    3  C   UNL     1     -10.323  16.264  67.521  1.00  0.00    -0.288 C  
HETATM    4  C   UNL     1      -9.082  18.359  67.997  1.00  0.00    -0.294 C  
HETATM    5  N   UNL     1      -8.450  17.014  66.001  1.00  0.00    -0.517 NA 
HETATM    6  H2  UNL     1      -7.972  17.793  65.550  1.00  0.00     0.000 HD 
HETATM    7  H1  UNL     1      -7.825  16.450  66.578  1.00  0.00     0.000 HD 
HETATM    8  O   UNL     1      -9.803  18.876  68.837  1.00  0.00    -0.399 OA 
HETATM    9  O   UNL     1      -7.737  18.531  68.004  1.00  0.00    -0.253 OA 
ENDROOT
BRANCH   3  10
HETATM   10  C   UNL     1     -10.906  15.148  66.671  1.00  0.00    -0.318 A  
HETATM   11  C   UNL     1     -11.374  15.425  65.371  1.00  0.00    -0.197 A  
HETATM   12  C   UNL     1     -12.063  14.458  64.627  1.00  0.00    -0.485 A  
HETATM   13  C   UNL     1     -12.280  13.204  65.182  1.00  0.00    -0.450 A  
HETATM   14  O   UNL     1     -12.992  12.235  64.531  1.00  0.00    -0.738 OA 
HETATM   15  C   UNL     1     -11.792  12.908  66.449  1.00  0.00    -0.415 A  
HETATM   16  C   UNL     1     -11.116  13.865  67.194  1.00  0.00    -0.312 A  
HETATM   17  O   UNL     1     -12.006  11.672  66.991  1.00  0.00    -0.593 OA 
HETATM   18  H   UNL     1     -13.140  11.377  64.911  1.00  0.00     0.000 HD 
HETATM   19  H   UNL     1     -11.673  11.470  67.857  1.00  0.00     0.000 HD 
ENDBRANCH   3  10
TORSDOF 1
ENDMDL
MODEL       45
REMARK 921   NORMALIZED FREE ENERGY PREDICTED BY IDOCK:   -5.24 KCAL/MOL
REMARK 922        TOTAL FREE ENERGY PREDICTED BY IDOCK:   -5.64 KCAL/MOL
REMARK 923 INTER-LIGAND FREE ENERGY PREDICTED BY IDOCK:   -5.45 KCAL/MOL
REMARK 924 INTRA-LIGAND FREE ENERGY PREDICTED BY IDOCK:   -0.19 KCAL/MOL
REMARK 927      BINDING AFFINITY PREDICTED BY RF-SCORE:    0.00 PKD
ROOT
HETATM    1  C   UNL     1     -11.664  14.477  66.193  1.00  0.00    -0.355 C  
HETATM    2  C   UNL     1     -11.189  14.500  67.649  1.00  0.00    -0.322 C  
HETATM    3  C   UNL     1      -9.946  15.412  67.848  1.00  0.00    -0.221 C  
HETATM    4  C   UNL     1     -10.720  13.060  68.002  1.00  0.00    -0.232 C  
HETATM    5  N   UNL     1     -12.330  14.890  68.501  1.00  0.00    -0.586 NA 
HETATM    6  H2  UNL     1     -13.146  14.294  68.362  1.00  0.00     0.000 HD 
HETATM    7  H1  UNL     1     -12.014  14.905  69.471  1.00  0.00     0.000 HD 
HETATM    8  O   UNL     1      -9.805  12.472  67.447  1.00  0.00    -0.197 OA 
HETATM    9  O   UNL     1     -11.426  12.493  69.011  1.00  0.00    -0.264 OA 
ENDROOT
BRANCH   3  10
HETATM   10  C   UNL     1     -10.067  16.910  67.631  1.00  0.00    -0.278 A  
HETATM   11  C   UNL     1      -9.924  17.448  66.337  1.00  0.00    -0.322 A  
HETATM   12  C   UNL     1      -9.868  18.833  66.129  1.00  0.00    -0.327 A  
HETATM   13  C   UNL     1      -9.961  19.686  67.221  1.00  0.00    -0.395 A  
HETATM   14  O   UNL     1      -9.857  21.043  67.093  1.00  0.00    -0.602 OA 
HETATM   15  C   UNL     1     -10.137  19.168  68.498  1.00  0.00    -0.422 A  
HETATM   16  C   UNL     1     -10.185  17.796  68.711  1.00  0.00    -0.373 A  
HETATM   17  O   UNL     1     -10.229  20.011  69.570  1.00  0.00    -0.550 OA 
HETATM   18  H   UNL     1      -9.921  21.627  67.840  1.00  0.00     0.000 HD 
HETATM   19  H   UNL     1     -10.349  19.657  70.443  1.00  0.00     0.000 HD 
ENDBRANCH   3  10
TORSDOF 1
ENDMDL
MODEL       46
REMARK 921   NORMALIZED FREE ENERGY PREDICTED BY IDOCK:   -5.23 KCAL/MOL
REMARK 922        TOTAL FREE ENERGY PREDICTED BY IDOCK:   -5.62 KCAL/MOL
REMARK 923 INTER-LIGAND FREE ENERGY PREDICTED BY IDOCK:   -6.01 KCAL/MOL
REMARK 924 INTRA-LIGAND FREE ENERGY PREDICTED BY IDOCK:    0.39 KCAL/MOL
REMARK 927      BINDING AFFINITY PREDICTED BY RF-SCORE:    0.00 PKD
ROOT
HETATM    1  C   UNL     1      -9.977  10.389  66.240  1.00  0.00    -0.283 C  
HETATM    2  C   UNL     1     -10.362  11.037  67.573  1.00  0.00    -0.198 C  
HETATM    3  C   UNL     1      -9.868  12.508  67.677  1.00  0.00    -0.202 C  
HETATM    4  C   UNL     1      -9.615  10.259  68.694  1.00  0.00    -0.168 C  
HETATM    5  N   UNL     1     -11.823  10.909  67.745  1.00  0.00    -0.685 NA 
HETATM    6  H2  UNL     1     -12.144   9.944  67.670  1.00  0.00     0.000 HD 
HETATM    7  H1  UNL     1     -12.079  11.340  68.634  1.00  0.00     0.000 HD 
HETATM    8  O   UNL     1      -8.401  10.178  68.793  1.00  0.00    -0.109 OA 
HETATM    9  O   UNL     1     -10.447   9.664  69.584  1.00  0.00    -0.201 OA 
ENDROOT
BRANCH   3  10
HETATM   10  C   UNL     1     -10.439  13.563  66.745  1.00  0.00    -0.273 A  
HETATM   11  C   UNL     1     -11.505  13.238  65.883  1.00  0.00    -0.359 A  
HETATM   12  C   UNL     1     -11.944  14.138  64.902  1.00  0.00    -0.424 A  
HETATM   13  C   UNL     1     -11.318  15.371  64.785  1.00  0.00    -0.376 A  
HETATM   14  O   UNL     1     -11.660  16.270  63.814  1.00  0.00    -1.539 OA 
HETATM   15  C   UNL     1     -10.289  15.716  65.653  1.00  0.00    -0.385 A  
HETATM   16  C   UNL     1      -9.844  14.826  66.622  1.00  0.00    -0.270 A  
HETATM   17  O   UNL     1      -9.676  16.932  65.535  1.00  0.00    -0.541 OA 
HETATM   18  H   UNL     1     -11.232  17.115  63.733  1.00  0.00     0.000 HD 
HETATM   19  H   UNL     1      -8.972  17.168  66.128  1.00  0.00     0.000 HD 
ENDBRANCH   3  10
TORSDOF 1
ENDMDL
MODEL       47
REMARK 921   NORMALIZED FREE ENERGY PREDICTED BY IDOCK:   -5.21 KCAL/MOL
REMARK 922        TOTAL FREE ENERGY PREDICTED BY IDOCK:   -5.61 KCAL/MOL
REMARK 923 INTER-LIGAND FREE ENERGY PREDICTED BY IDOCK:   -5.39 KCAL/MOL
REMARK 924 INTRA-LIGAND FREE ENERGY PREDICTED BY IDOCK:   -0.21 KCAL/MOL
REMARK 927      BINDING AFFINITY PREDICTED BY RF-SCORE:    0.00 PKD
ROOT
HETATM    1  C   UNL     1      -9.998  13.616  67.074  1.00  0.00    -0.248 C  
HETATM    2  C   UNL     1     -11.438  13.101  66.991  1.00  0.00    -0.336 C  
HETATM    3  C   UNL     1     -11.531  11.570  67.244  1.00  0.00    -0.338 C  
HETATM    4  C   UNL     1     -11.921  13.319  65.528  1.00  0.00    -0.405 C  
HETATM    5  N   UNL     1     -12.265  13.889  67.926  1.00  0.00    -0.483 NA 
HETATM    6  H2  UNL     1     -12.196  14.893  67.762  1.00  0.00     0.000 HD 
HETATM    7  H1  UNL     1     -13.225  13.547  67.871  1.00  0.00     0.000 HD 
HETATM    8  O   UNL     1     -11.411  12.805  64.545  1.00  0.00    -0.314 OA 
HETATM    9  O   UNL     1     -12.990  14.148  65.430  1.00  0.00    -0.706 OA 
ENDROOT
BRANCH   3  10
HETATM   10  C   UNL     1     -11.173  11.008  68.609  1.00  0.00    -0.322 A  
HETATM   11  C   UNL     1      -9.902  10.443  68.826  1.00  0.00    -0.190 A  
HETATM   12  C   UNL     1      -9.600   9.772  70.020  1.00  0.00    -0.282 A  
HETATM   13  C   UNL     1     -10.574   9.671  71.005  1.00  0.00    -0.292 A  
HETATM   14  O   UNL     1     -10.362   8.984  72.167  1.00  0.00    -0.316 OA 
HETATM   15  C   UNL     1     -11.820  10.256  70.816  1.00  0.00    -0.365 A  
HETATM   16  C   UNL     1     -12.128  10.914  69.632  1.00  0.00    -0.400 A  
HETATM   17  O   UNL     1     -12.776  10.156  71.788  1.00  0.00    -0.396 OA 
HETATM   18  H   UNL     1     -11.028   8.915  72.841  1.00  0.00     0.000 HD 
HETATM   19  H   UNL     1     -13.628  10.555  71.659  1.00  0.00     0.000 HD 
ENDBRANCH   3  10
TORSDOF 1
ENDMDL
MODEL       48
REMARK 921   NORMALIZED FREE ENERGY PREDICTED BY IDOCK:   -5.19 KCAL/MOL
REMARK 922        TOTAL FREE ENERGY PREDICTED BY IDOCK:   -5.59 KCAL/MOL
REMARK 923 INTER-LIGAND FREE ENERGY PREDICTED BY IDOCK:   -5.70 KCAL/MOL
REMARK 924 INTRA-LIGAND FREE ENERGY PREDICTED BY IDOCK:    0.12 KCAL/MOL
REMARK 927      BINDING AFFINITY PREDICTED BY RF-SCORE:    0.00 PKD
ROOT
HETATM    1  C   UNL     1     -10.521  12.667  64.166  1.00  0.00    -0.438 C  
HETATM    2  C   UNL     1     -10.869  13.705  65.238  1.00  0.00    -0.322 C  
HETATM    3  C   UNL     1     -11.906  13.167  66.264  1.00  0.00    -0.455 C  
HETATM    4  C   UNL     1     -11.565  14.894  64.516  1.00  0.00    -0.352 C  
HETATM    5  N   UNL     1      -9.613  14.154  65.872  1.00  0.00    -0.495 NA 
HETATM    6  H2  UNL     1      -8.934  14.500  65.195  1.00  0.00     0.000 HD 
HETATM    7  H1  UNL     1      -9.845  14.846  66.585  1.00  0.00     0.000 HD 
HETATM    8  O   UNL     1     -12.612  14.812  63.893  1.00  0.00    -0.834 OA 
HETATM    9  O   UNL     1     -10.898  16.068  64.642  1.00  0.00    -0.608 OA 
ENDROOT
BRANCH   3  10
HETATM   10  C   UNL     1     -11.530  12.017  67.183  1.00  0.00    -0.401 A  
HETATM   11  C   UNL     1     -11.701  12.145  68.575  1.00  0.00    -0.382 A  
HETATM   12  C   UNL     1     -11.215  11.171  69.458  1.00  0.00    -0.341 A  
HETATM   13  C   UNL     1     -10.559  10.060  68.946  1.00  0.00    -0.218 A  
HETATM   14  O   UNL     1     -10.012   9.103  69.755  1.00  0.00    -0.178 OA 
HETATM   15  C   UNL     1     -10.415   9.906  67.573  1.00  0.00    -0.255 A  
HETATM   16  C   UNL     1     -10.888  10.871  66.693  1.00  0.00    -0.258 A  
HETATM   17  O   UNL     1      -9.770   8.810  67.072  1.00  0.00    -0.167 OA 
HETATM   18  H   UNL     1      -9.563   8.342  69.404  1.00  0.00     0.000 HD 
HETATM   19  H   UNL     1      -9.671   8.705  66.133  1.00  0.00     0.000 HD 
ENDBRANCH   3  10
TORSDOF 1
ENDMDL
MODEL       49
REMARK 921   NORMALIZED FREE ENERGY PREDICTED BY IDOCK:   -5.16 KCAL/MOL
REMARK 922        TOTAL FREE ENERGY PREDICTED BY IDOCK:   -5.55 KCAL/MOL
REMARK 923 INTER-LIGAND FREE ENERGY PREDICTED BY IDOCK:   -5.43 KCAL/MOL
REMARK 924 INTRA-LIGAND FREE ENERGY PREDICTED BY IDOCK:   -0.13 KCAL/MOL
REMARK 927      BINDING AFFINITY PREDICTED BY RF-SCORE:    0.00 PKD
ROOT
HETATM    1  C   UNL     1     -11.430  12.204  66.517  1.00  0.00    -0.430 C  
HETATM    2  C   UNL     1     -11.285  12.953  65.188  1.00  0.00    -0.288 C  
HETATM    3  C   UNL     1     -11.812  14.413  65.276  1.00  0.00    -0.373 C  
HETATM    4  C   UNL     1     -12.198  12.234  64.154  1.00  0.00    -0.446 C  
HETATM    5  N   UNL     1      -9.873  12.876  64.766  1.00  0.00    -0.548 NA 
HETATM    6  H2  UNL     1      -9.529  11.918  64.717  1.00  0.00     0.000 HD 
HETATM    7  H1  UNL     1      -9.776  13.374  63.881  1.00  0.00     0.000 HD 
HETATM    8  O   UNL     1     -13.410  12.127  64.254  1.00  0.00    -0.761 OA 
HETATM    9  O   UNL     1     -11.519  11.724  63.097  1.00  0.00    -0.290 OA 
ENDROOT
BRANCH   3  10
HETATM   10  C   UNL     1     -11.108  15.417  66.173  1.00  0.00    -0.230 A  
HETATM   11  C   UNL     1     -10.052  16.196  65.664  1.00  0.00    -0.366 A  
HETATM   12  C   UNL     1      -9.279  17.009  66.504  1.00  0.00    -0.296 A  
HETATM   13  C   UNL     1      -9.568  17.048  67.862  1.00  0.00    -0.249 A  
HETATM   14  O   UNL     1      -8.819  17.775  68.744  1.00  0.00    -0.279 OA 
HETATM   15  C   UNL     1     -10.630  16.310  68.370  1.00  0.00    -0.301 A  
HETATM   16  C   UNL     1     -11.394  15.497  67.543  1.00  0.00    -0.232 A  
HETATM   17  O   UNL     1     -10.913  16.351  69.706  1.00  0.00    -0.338 OA 
HETATM   18  H   UNL     1      -9.017  17.802  69.673  1.00  0.00     0.000 HD 
HETATM   19  H   UNL     1     -11.639  15.847  70.054  1.00  0.00     0.000 HD 
ENDBRANCH   3  10
TORSDOF 1
ENDMDL
MODEL       50
REMARK 921   NORMALIZED FREE ENERGY PREDICTED BY IDOCK:   -5.16 KCAL/MOL
REMARK 922        TOTAL FREE ENERGY PREDICTED BY IDOCK:   -5.55 KCAL/MOL
REMARK 923 INTER-LIGAND FREE ENERGY PREDICTED BY IDOCK:   -5.35 KCAL/MOL
REMARK 924 INTRA-LIGAND FREE ENERGY PREDICTED BY IDOCK:   -0.20 KCAL/MOL
REMARK 927      BINDING AFFINITY PREDICTED BY RF-SCORE:    0.00 PKD
ROOT
HETATM    1  C   UNL     1      -9.935   9.503  70.220  1.00  0.00    -0.310 C  
HETATM    2  C   UNL     1     -10.167  10.378  68.984  1.00  0.00    -0.217 C  
HETATM    3  C   UNL     1     -11.620  10.927  68.916  1.00  0.00    -0.378 C  
HETATM    4  C   UNL     1     -10.000   9.464  67.736  1.00  0.00    -0.184 C  
HETATM    5  N   UNL     1      -9.148  11.447  68.977  1.00  0.00    -0.393 NA 
HETATM    6  H2  UNL     1      -8.197  11.083  69.029  1.00  0.00     0.000 HD 
HETATM    7  H1  UNL     1      -9.302  12.029  68.153  1.00  0.00     0.000 HD 
HETATM    8  O   UNL     1     -10.694   8.490  67.491  1.00  0.00    -0.248 OA 
HETATM    9  O   UNL     1      -8.993   9.851  66.914  1.00  0.00    -0.137 OA 
ENDROOT
BRANCH   3  10
HETATM   10  C   UNL     1     -12.108  11.903  69.972  1.00  0.00    -0.366 A  
HETATM   11  C   UNL     1     -12.652  11.421  71.178  1.00  0.00    -0.490 A  
HETATM   12  C   UNL     1     -13.258  12.287  72.099  1.00  0.00    -0.466 A  
HETATM   13  C   UNL     1     -13.314  13.645  71.815  1.00  0.00    -0.388 A  
HETATM   14  O   UNL     1     -13.939  14.535  72.643  1.00  0.00    -0.511 OA 
HETATM   15  C   UNL     1     -12.749  14.137  70.644  1.00  0.00    -0.321 A  
HETATM   16  C   UNL     1     -12.155  13.283  69.725  1.00  0.00    -0.355 A  
HETATM   17  O   UNL     1     -12.806  15.475  70.368  1.00  0.00    -0.586 OA 
HETATM   18  H   UNL     1     -13.978  15.465  72.449  1.00  0.00     0.000 HD 
HETATM   19  H   UNL     1     -12.420  15.811  69.568  1.00  0.00     0.000 HD 
ENDBRANCH   3  10
TORSDOF 1
ENDMDL
MODEL       51
REMARK 921   NORMALIZED FREE ENERGY PREDICTED BY IDOCK:   -5.09 KCAL/MOL
REMARK 922        TOTAL FREE ENERGY PREDICTED BY IDOCK:   -5.48 KCAL/MOL
REMARK 923 INTER-LIGAND FREE ENERGY PREDICTED BY IDOCK:   -5.86 KCAL/MOL
REMARK 924 INTRA-LIGAND FREE ENERGY PREDICTED BY IDOCK:    0.38 KCAL/MOL
REMARK 927      BINDING AFFINITY PREDICTED BY RF-SCORE:    0.00 PKD
ROOT
HETATM    1  C   UNL     1      -8.334  16.478  68.150  1.00  0.00    -0.186 C  
HETATM    2  C   UNL     1      -9.233  17.570  67.563  1.00  0.00    -0.242 C  
HETATM    3  C   UNL     1      -9.743  17.210  66.140  1.00  0.00    -0.263 C  
HETATM    4  C   UNL     1      -8.355  18.843  67.390  1.00  0.00    -0.275 C  
HETATM    5  N   UNL     1     -10.329  17.829  68.518  1.00  0.00    -0.372 NA 
HETATM    6  H2  UNL     1      -9.990  18.057  69.452  1.00  0.00     0.000 HD 
HETATM    7  H1  UNL     1     -10.927  18.557  68.128  1.00  0.00     0.000 HD 
HETATM    8  O   UNL     1      -7.369  18.915  66.674  1.00  0.00    -0.212 OA 
HETATM    9  O   UNL     1      -8.790  19.902  68.117  1.00  0.00    -0.315 OA 
ENDROOT
BRANCH   3  10
HETATM   10  C   UNL     1     -10.679  16.029  65.950  1.00  0.00    -0.287 A  
HETATM   11  C   UNL     1     -10.874  15.110  66.999  1.00  0.00    -0.314 A  
HETATM   12  C   UNL     1     -11.599  13.927  66.802  1.00  0.00    -0.398 A  
HETATM   13  C   UNL     1     -12.138  13.663  65.550  1.00  0.00    -0.411 A  
HETATM   14  O   UNL     1     -12.806  12.503  65.276  1.00  0.00    -0.613 OA 
HETATM   15  C   UNL     1     -11.981  14.579  64.516  1.00  0.00    -0.468 A  
HETATM   16  C   UNL     1     -11.257  15.749  64.703  1.00  0.00    -0.373 A  
HETATM   17  O   UNL     1     -12.513  14.317  63.285  1.00  0.00    -1.133 OA 
HETATM   18  H   UNL     1     -13.175  12.322  64.419  1.00  0.00     0.000 HD 
HETATM   19  H   UNL     1     -12.407  14.942  62.579  1.00  0.00     0.000 HD 
ENDBRANCH   3  10
TORSDOF 1
ENDMDL
MODEL       52
REMARK 921   NORMALIZED FREE ENERGY PREDICTED BY IDOCK:   -5.08 KCAL/MOL
REMARK 922        TOTAL FREE ENERGY PREDICTED BY IDOCK:   -5.46 KCAL/MOL
REMARK 923 INTER-LIGAND FREE ENERGY PREDICTED BY IDOCK:   -5.84 KCAL/MOL
REMARK 924 INTRA-LIGAND FREE ENERGY PREDICTED BY IDOCK:    0.38 KCAL/MOL
REMARK 927      BINDING AFFINITY PREDICTED BY RF-SCORE:    0.00 PKD
ROOT
HETATM    1  C   UNL     1     -12.172  12.175  63.615  1.00  0.00    -0.663 C  
HETATM    2  C   UNL     1     -11.434  13.026  64.653  1.00  0.00    -0.336 C  
HETATM    3  C   UNL     1     -11.453  12.377  66.066  1.00  0.00    -0.431 C  
HETATM    4  C   UNL     1     -12.215  14.363  64.790  1.00  0.00    -0.446 C  
HETATM    5  N   UNL     1     -10.067  13.278  64.155  1.00  0.00    -0.767 NA 
HETATM    6  H2  UNL     1     -10.059  13.697  63.226  1.00  0.00     0.000 HD 
HETATM    7  H1  UNL     1      -9.575  13.845  64.846  1.00  0.00     0.000 HD 
HETATM    8  O   UNL     1     -13.373  14.457  65.165  1.00  0.00    -0.542 OA 
HETATM    9  O   UNL     1     -11.481  15.454  64.456  1.00  0.00    -0.394 OA 
ENDROOT
BRANCH   3  10
HETATM   10  C   UNL     1     -10.730  11.062  66.303  1.00  0.00    -0.273 A  
HETATM   11  C   UNL     1      -9.874  10.541  65.312  1.00  0.00    -0.345 A  
HETATM   12  C   UNL     1      -9.323   9.258  65.431  1.00  0.00    -0.292 A  
HETATM   13  C   UNL     1      -9.624   8.493  66.550  1.00  0.00    -0.236 A  
HETATM   14  O   UNL     1      -9.165   7.214  66.700  1.00  0.00    -0.148 OA 
HETATM   15  C   UNL     1     -10.439   9.010  67.550  1.00  0.00    -0.272 A  
HETATM   16  C   UNL     1     -10.994  10.277  67.434  1.00  0.00    -0.317 A  
HETATM   17  O   UNL     1     -10.732   8.254  68.650  1.00  0.00    -0.380 OA 
HETATM   18  H   UNL     1      -9.371   6.690  67.465  1.00  0.00     0.000 HD 
HETATM   19  H   UNL     1     -11.289   8.607  69.334  1.00  0.00     0.000 HD 
ENDBRANCH   3  10
TORSDOF 1
ENDMDL
MODEL       53
REMARK 921   NORMALIZED FREE ENERGY PREDICTED BY IDOCK:   -5.05 KCAL/MOL
REMARK 922        TOTAL FREE ENERGY PREDICTED BY IDOCK:   -5.44 KCAL/MOL
REMARK 923 INTER-LIGAND FREE ENERGY PREDICTED BY IDOCK:   -5.26 KCAL/MOL
REMARK 924 INTRA-LIGAND FREE ENERGY PREDICTED BY IDOCK:   -0.17 KCAL/MOL
REMARK 927      BINDING AFFINITY PREDICTED BY RF-SCORE:    0.00 PKD
ROOT
HETATM    1  C   UNL     1     -11.968  14.108  66.945  1.00  0.00    -0.479 C  
HETATM    2  C   UNL     1     -11.685  13.642  65.513  1.00  0.00    -0.337 C  
HETATM    3  C   UNL     1     -10.226  13.132  65.339  1.00  0.00    -0.301 C  
HETATM    4  C   UNL     1     -11.811  14.887  64.591  1.00  0.00    -0.407 C  
HETATM    5  N   UNL     1     -12.695  12.629  65.149  1.00  0.00    -0.732 NA 
HETATM    6  H2  UNL     1     -13.650  12.964  65.272  1.00  0.00     0.000 HD 
HETATM    7  H1  UNL     1     -12.507  12.318  64.196  1.00  0.00     0.000 HD 
HETATM    8  O   UNL     1     -11.115  15.887  64.674  1.00  0.00    -0.476 OA 
HETATM    9  O   UNL     1     -12.784  14.769  63.653  1.00  0.00    -0.713 OA 
ENDROOT
BRANCH   3  10
HETATM   10  C   UNL     1      -9.771  11.882  66.073  1.00  0.00    -0.257 A  
HETATM   11  C   UNL     1      -8.884  11.989  67.162  1.00  0.00    -0.188 A  
HETATM   12  C   UNL     1      -8.321  10.850  67.753  1.00  0.00    -0.117 A  
HETATM   13  C   UNL     1      -8.650   9.596  67.257  1.00  0.00    -0.132 A  
HETATM   14  O   UNL     1      -8.093   8.450  67.752  1.00  0.00    -0.119 OA 
HETATM   15  C   UNL     1      -9.551   9.476  66.206  1.00  0.00    -0.226 A  
HETATM   16  C   UNL     1     -10.107  10.602  65.611  1.00  0.00    -0.335 A  
HETATM   17  O   UNL     1      -9.874   8.240  65.721  1.00  0.00    -0.445 OA 
HETATM   18  H   UNL     1      -8.319   7.591  67.413  1.00  0.00     0.000 HD 
HETATM   19  H   UNL     1     -10.490   8.158  65.003  1.00  0.00     0.000 HD 
ENDBRANCH   3  10
TORSDOF 1
ENDMDL
MODEL       54
REMARK 921   NORMALIZED FREE ENERGY PREDICTED BY IDOCK:   -5.03 KCAL/MOL
REMARK 922        TOTAL FREE ENERGY PREDICTED BY IDOCK:   -5.41 KCAL/MOL
REMARK 923 INTER-LIGAND FREE ENERGY PREDICTED BY IDOCK:   -5.48 KCAL/MOL
REMARK 924 INTRA-LIGAND FREE ENERGY PREDICTED BY IDOCK:    0.07 KCAL/MOL
REMARK 927      BINDING AFFINITY PREDICTED BY RF-SCORE:    0.00 PKD
ROOT
HETATM    1  C   UNL     1      -9.342   9.321  70.865  1.00  0.00    -0.313 C  
HETATM    2  C   UNL     1     -10.778   8.880  70.568  1.00  0.00    -0.230 C  
HETATM    3  C   UNL     1     -11.802  10.031  70.779  1.00  0.00    -0.435 C  
HETATM    4  C   UNL     1     -11.148   7.787  71.610  1.00  0.00    -0.237 C  
HETATM    5  N   UNL     1     -10.816   8.321  69.202  1.00  0.00    -0.416 NA 
HETATM    6  H2  UNL     1     -10.138   7.572  69.065  1.00  0.00     0.000 HD 
HETATM    7  H1  UNL     1     -11.773   8.027  69.004  1.00  0.00     0.000 HD 
HETATM    8  O   UNL     1     -11.183   7.961  72.818  1.00  0.00    -0.372 OA 
HETATM    9  O   UNL     1     -11.445   6.587  71.051  1.00  0.00    -0.302 OA 
ENDROOT
BRANCH   3  10
HETATM   10  C   UNL     1     -11.756  11.256  69.882  1.00  0.00    -0.430 A  
HETATM   11  C   UNL     1     -11.852  12.544  70.444  1.00  0.00    -0.246 A  
HETATM   12  C   UNL     1     -11.977  13.682  69.635  1.00  0.00    -0.402 A  
HETATM   13  C   UNL     1     -11.999  13.532  68.254  1.00  0.00    -0.342 A  
HETATM   14  O   UNL     1     -12.174  14.593  67.411  1.00  0.00    -0.571 OA 
HETATM   15  C   UNL     1     -11.870  12.269  67.688  1.00  0.00    -0.264 A  
HETATM   16  C   UNL     1     -11.754  11.138  68.485  1.00  0.00    -0.368 A  
HETATM   17  O   UNL     1     -11.891  12.125  66.329  1.00  0.00    -0.553 OA 
HETATM   18  H   UNL     1     -12.189  14.490  66.467  1.00  0.00     0.000 HD 
HETATM   19  H   UNL     1     -11.803  11.263  65.941  1.00  0.00     0.000 HD 
ENDBRANCH   3  10
TORSDOF 1
ENDMDL
MODEL       55
REMARK 921   NORMALIZED FREE ENERGY PREDICTED BY IDOCK:   -5.02 KCAL/MOL
REMARK 922        TOTAL FREE ENERGY PREDICTED BY IDOCK:   -5.41 KCAL/MOL
REMARK 923 INTER-LIGAND FREE ENERGY PREDICTED BY IDOCK:   -5.44 KCAL/MOL
REMARK 924 INTRA-LIGAND FREE ENERGY PREDICTED BY IDOCK:    0.03 KCAL/MOL
REMARK 927      BINDING AFFINITY PREDICTED BY RF-SCORE:    0.00 PKD
ROOT
HETATM    1  C   UNL     1     -11.172  11.055  66.217  1.00  0.00    -0.008 C  
HETATM    2  C   UNL     1     -10.929  12.419  65.563  1.00  0.00    -0.293 C  
HETATM    3  C   UNL     1     -11.916  13.503  66.083  1.00  0.00    -0.454 C  
HETATM    4  C   UNL     1     -11.232  12.262  64.046  1.00  0.00    -0.392 C  
HETATM    5  N   UNL     1      -9.514  12.785  65.769  1.00  0.00    -0.460 NA 
HETATM    6  H2  UNL     1      -8.870  12.069  65.434  1.00  0.00     0.000 HD 
HETATM    7  H1  UNL     1      -9.352  13.693  65.333  1.00  0.00     0.000 HD 
HETATM    8  O   UNL     1     -12.318  11.949  63.583  1.00  0.00    -0.505 OA 
HETATM    9  O   UNL     1     -10.162  12.514  63.253  1.00  0.00    -0.370 OA 
ENDROOT
BRANCH   3  10
HETATM   10  C   UNL     1     -11.859  13.941  67.536  1.00  0.00    -0.431 A  
HETATM   11  C   UNL     1     -11.520  15.269  67.859  1.00  0.00    -0.325 A  
HETATM   12  C   UNL     1     -11.301  15.660  69.186  1.00  0.00    -0.341 A  
HETATM   13  C   UNL     1     -11.428  14.719  70.199  1.00  0.00    -0.266 A  
HETATM   14  O   UNL     1     -11.173  15.021  71.508  1.00  0.00    -0.535 OA 
HETATM   15  C   UNL     1     -11.796  13.413  69.896  1.00  0.00    -0.315 A  
HETATM   16  C   UNL     1     -12.006  13.018  68.582  1.00  0.00    -0.298 A  
HETATM   17  O   UNL     1     -11.920  12.490  70.896  1.00  0.00    -0.447 OA 
HETATM   18  H   UNL     1     -11.259  14.377  72.201  1.00  0.00     0.000 HD 
HETATM   19  H   UNL     1     -12.172  11.597  70.689  1.00  0.00     0.000 HD 
ENDBRANCH   3  10
TORSDOF 1
ENDMDL
MODEL       56
REMARK 921   NORMALIZED FREE ENERGY PREDICTED BY IDOCK:   -5.00 KCAL/MOL
REMARK 922        TOTAL FREE ENERGY PREDICTED BY IDOCK:   -5.38 KCAL/MOL
REMARK 923 INTER-LIGAND FREE ENERGY PREDICTED BY IDOCK:   -5.19 KCAL/MOL
REMARK 924 INTRA-LIGAND FREE ENERGY PREDICTED BY IDOCK:   -0.19 KCAL/MOL
REMARK 927      BINDING AFFINITY PREDICTED BY RF-SCORE:    0.00 PKD
ROOT
HETATM    1  C   UNL     1     -12.274  15.292  63.750  1.00  0.00     0.348 C  
HETATM    2  C   UNL     1     -12.251  14.197  64.820  1.00  0.00    -0.440 C  
HETATM    3  C   UNL     1     -11.046  14.348  65.790  1.00  0.00    -0.316 C  
HETATM    4  C   UNL     1     -12.038  12.842  64.087  1.00  0.00    -0.432 C  
HETATM    5  N   UNL     1     -13.553  14.204  65.517  1.00  0.00    -0.458 NA 
HETATM    6  H2  UNL     1     -14.342  14.112  64.877  1.00  0.00     0.000 HD 
HETATM    7  H1  UNL     1     -13.538  13.474  66.229  1.00  0.00     0.000 HD 
HETATM    8  O   UNL     1     -11.057  12.562  63.417  1.00  0.00    -0.459 OA 
HETATM    9  O   UNL     1     -13.060  11.967  64.261  1.00  0.00    -0.671 OA 
ENDROOT
BRANCH   3  10
HETATM   10  C   UNL     1     -10.962  15.556  66.708  1.00  0.00    -0.257 A  
HETATM   11  C   UNL     1     -10.398  16.758  66.239  1.00  0.00    -0.316 A  
HETATM   12  C   UNL     1     -10.158  17.834  67.105  1.00  0.00    -0.338 A  
HETATM   13  C   UNL     1     -10.491  17.709  68.447  1.00  0.00    -0.359 A  
HETATM   14  O   UNL     1     -10.232  18.699  69.355  1.00  0.00    -0.428 OA 
HETATM   15  C   UNL     1     -11.081  16.541  68.914  1.00  0.00    -0.300 A  
HETATM   16  C   UNL     1     -11.313  15.469  68.062  1.00  0.00    -0.332 A  
HETATM   17  O   UNL     1     -11.408  16.422  70.236  1.00  0.00    -0.436 OA 
HETATM   18  H   UNL     1     -10.460  18.613  70.273  1.00  0.00     0.000 HD 
HETATM   19  H   UNL     1     -11.810  15.623  70.556  1.00  0.00     0.000 HD 
ENDBRANCH   3  10
TORSDOF 1
ENDMDL
MODEL       57
REMARK 921   NORMALIZED FREE ENERGY PREDICTED BY IDOCK:   -4.99 KCAL/MOL
REMARK 922        TOTAL FREE ENERGY PREDICTED BY IDOCK:   -5.37 KCAL/MOL
REMARK 923 INTER-LIGAND FREE ENERGY PREDICTED BY IDOCK:   -5.16 KCAL/MOL
REMARK 924 INTRA-LIGAND FREE ENERGY PREDICTED BY IDOCK:   -0.21 KCAL/MOL
REMARK 927      BINDING AFFINITY PREDICTED BY RF-SCORE:    0.00 PKD
ROOT
HETATM    1  C   UNL     1      -8.153   7.876  70.125  1.00  0.00    -0.116 C  
HETATM    2  C   UNL     1      -8.682   9.154  69.468  1.00  0.00    -0.140 C  
HETATM    3  C   UNL     1     -10.215   9.094  69.215  1.00  0.00    -0.215 C  
HETATM    4  C   UNL     1      -8.024   9.254  68.062  1.00  0.00    -0.100 C  
HETATM    5  N   UNL     1      -8.282  10.303  70.304  1.00  0.00    -0.387 NA 
HETATM    6  H2  UNL     1      -7.277  10.335  70.473  1.00  0.00     0.000 HD 
HETATM    7  H1  UNL     1      -8.634  11.155  69.866  1.00  0.00     0.000 HD 
HETATM    8  O   UNL     1      -8.165   8.433  67.169  1.00  0.00    -0.107 OA 
HETATM    9  O   UNL     1      -7.262  10.364  67.900  1.00  0.00    -0.083 OA 
ENDROOT
BRANCH   3  10
HETATM   10  C   UNL     1     -11.172   9.038  70.393  1.00  0.00    -0.275 A  
HETATM   11  C   UNL     1     -11.573   7.793  70.916  1.00  0.00    -0.289 A  
HETATM   12  C   UNL     1     -12.576   7.705  71.891  1.00  0.00    -0.332 A  
HETATM   13  C   UNL     1     -13.178   8.868  72.351  1.00  0.00    -0.430 A  
HETATM   14  O   UNL     1     -14.200   8.847  73.259  1.00  0.00    -1.197 OA 
HETATM   15  C   UNL     1     -12.766  10.105  71.868  1.00  0.00    -0.396 A  
HETATM   16  C   UNL     1     -11.779  10.198  70.896  1.00  0.00    -0.468 A  
HETATM   17  O   UNL     1     -13.360  11.248  72.324  1.00  0.00    -0.625 OA 
HETATM   18  H   UNL     1     -14.612   9.644  73.574  1.00  0.00     0.000 HD 
HETATM   19  H   UNL     1     -13.079  12.093  71.994  1.00  0.00     0.000 HD 
ENDBRANCH   3  10
TORSDOF 1
ENDMDL
MODEL       58
REMARK 921   NORMALIZED FREE ENERGY PREDICTED BY IDOCK:   -4.98 KCAL/MOL
REMARK 922        TOTAL FREE ENERGY PREDICTED BY IDOCK:   -5.36 KCAL/MOL
REMARK 923 INTER-LIGAND FREE ENERGY PREDICTED BY IDOCK:   -5.49 KCAL/MOL
REMARK 924 INTRA-LIGAND FREE ENERGY PREDICTED BY IDOCK:    0.13 KCAL/MOL
REMARK 927      BINDING AFFINITY PREDICTED BY RF-SCORE:    0.00 PKD
ROOT
HETATM    1  C   UNL     1      -8.097  17.783  68.074  1.00  0.00    -0.243 C  
HETATM    2  C   UNL     1      -9.407  18.319  67.490  1.00  0.00    -0.261 C  
HETATM    3  C   UNL     1      -9.919  17.455  66.303  1.00  0.00    -0.306 C  
HETATM    4  C   UNL     1      -9.104  19.723  66.892  1.00  0.00    -0.347 C  
HETATM    5  N   UNL     1     -10.390  18.429  68.585  1.00  0.00    -0.410 NA 
HETATM    6  H2  UNL     1     -10.049  18.991  69.365  1.00  0.00     0.000 HD 
HETATM    7  H1  UNL     1     -11.263  18.787  68.197  1.00  0.00     0.000 HD 
HETATM    8  O   UNL     1      -8.316  19.936  65.984  1.00  0.00    -0.357 OA 
HETATM    9  O   UNL     1      -9.811  20.722  67.476  1.00  0.00    -0.439 OA 
ENDROOT
BRANCH   3  10
HETATM   10  C   UNL     1     -10.355  16.021  66.547  1.00  0.00    -0.303 A  
HETATM   11  C   UNL     1     -10.063  15.024  65.596  1.00  0.00    -0.390 A  
HETATM   12  C   UNL     1     -10.590  13.731  65.714  1.00  0.00    -0.294 A  
HETATM   13  C   UNL     1     -11.412  13.430  66.792  1.00  0.00    -0.343 A  
HETATM   14  O   UNL     1     -12.004  12.206  66.935  1.00  0.00    -0.603 OA 
HETATM   15  C   UNL     1     -11.680  14.396  67.755  1.00  0.00    -0.376 A  
HETATM   16  C   UNL     1     -11.166  15.681  67.640  1.00  0.00    -0.274 A  
HETATM   17  O   UNL     1     -12.488  14.096  68.816  1.00  0.00    -0.542 OA 
HETATM   18  H   UNL     1     -12.566  12.001  67.673  1.00  0.00     0.000 HD 
HETATM   19  H   UNL     1     -12.671  14.755  69.474  1.00  0.00     0.000 HD 
ENDBRANCH   3  10
TORSDOF 1
ENDMDL
MODEL       59
REMARK 921   NORMALIZED FREE ENERGY PREDICTED BY IDOCK:   -4.96 KCAL/MOL
REMARK 922        TOTAL FREE ENERGY PREDICTED BY IDOCK:   -5.34 KCAL/MOL
REMARK 923 INTER-LIGAND FREE ENERGY PREDICTED BY IDOCK:   -5.21 KCAL/MOL
REMARK 924 INTRA-LIGAND FREE ENERGY PREDICTED BY IDOCK:   -0.13 KCAL/MOL
REMARK 927      BINDING AFFINITY PREDICTED BY RF-SCORE:    0.00 PKD
ROOT
HETATM    1  C   UNL     1      -8.955  14.723  67.388  1.00  0.00    -0.200 C  
HETATM    2  C   UNL     1     -10.001  15.544  68.149  1.00  0.00    -0.217 C  
HETATM    3  C   UNL     1     -11.431  14.949  68.009  1.00  0.00    -0.355 C  
HETATM    4  C   UNL     1     -10.058  16.947  67.481  1.00  0.00    -0.282 C  
HETATM    5  N   UNL     1      -9.563  15.661  69.554  1.00  0.00    -0.275 NA 
HETATM    6  H2  UNL     1      -8.623  16.045  69.641  1.00  0.00     0.000 HD 
HETATM    7  H1  UNL     1     -10.259  16.208  70.061  1.00  0.00     0.000 HD 
HETATM    8  O   UNL     1     -10.373  17.152  66.319  1.00  0.00    -0.327 OA 
HETATM    9  O   UNL     1      -9.726  17.959  68.321  1.00  0.00    -0.295 OA 
ENDROOT
BRANCH   3  10
HETATM   10  C   UNL     1     -11.743  13.586  68.603  1.00  0.00    -0.389 A  
HETATM   11  C   UNL     1     -12.105  13.476  69.960  1.00  0.00    -0.411 A  
HETATM   12  C   UNL     1     -12.239  12.225  70.576  1.00  0.00    -0.387 A  
HETATM   13  C   UNL     1     -12.016  11.075  69.830  1.00  0.00    -0.356 A  
HETATM   14  O   UNL     1     -12.075   9.827  70.384  1.00  0.00    -0.419 OA 
HETATM   15  C   UNL     1     -11.692  11.170  68.482  1.00  0.00    -0.298 A  
HETATM   16  C   UNL     1     -11.550  12.408  67.868  1.00  0.00    -0.415 A  
HETATM   17  O   UNL     1     -11.474  10.037  67.750  1.00  0.00    -0.582 OA 
HETATM   18  H   UNL     1     -11.922   9.040  69.873  1.00  0.00     0.000 HD 
HETATM   19  H   UNL     1     -11.253  10.102  66.829  1.00  0.00     0.000 HD 
ENDBRANCH   3  10
TORSDOF 1
ENDMDL
MODEL       60
REMARK 921   NORMALIZED FREE ENERGY PREDICTED BY IDOCK:   -4.96 KCAL/MOL
REMARK 922        TOTAL FREE ENERGY PREDICTED BY IDOCK:   -5.34 KCAL/MOL
REMARK 923 INTER-LIGAND FREE ENERGY PREDICTED BY IDOCK:   -5.67 KCAL/MOL
REMARK 924 INTRA-LIGAND FREE ENERGY PREDICTED BY IDOCK:    0.33 KCAL/MOL
REMARK 927      BINDING AFFINITY PREDICTED BY RF-SCORE:    0.00 PKD
ROOT
HETATM    1  C   UNL     1     -11.625  10.752  69.293  1.00  0.00    -0.376 C  
HETATM    2  C   UNL     1     -10.200  10.419  68.840  1.00  0.00    -0.205 C  
HETATM    3  C   UNL     1     -10.153   9.907  67.373  1.00  0.00    -0.254 C  
HETATM    4  C   UNL     1      -9.703   9.236  69.719  1.00  0.00    -0.189 C  
HETATM    5  N   UNL     1      -9.356  11.611  69.059  1.00  0.00    -0.408 NA 
HETATM    6  H2  UNL     1      -9.395  11.948  70.021  1.00  0.00     0.000 HD 
HETATM    7  H1  UNL     1      -8.407  11.389  68.759  1.00  0.00     0.000 HD 
HETATM    8  O   UNL     1     -10.222   8.131  69.754  1.00  0.00    -0.194 OA 
HETATM    9  O   UNL     1      -8.610   9.537  70.462  1.00  0.00    -0.213 OA 
ENDROOT
BRANCH   3  10
HETATM   10  C   UNL     1     -10.535  10.838  66.236  1.00  0.00    -0.287 A  
HETATM   11  C   UNL     1     -11.349  11.960  66.487  1.00  0.00    -0.403 A  
HETATM   12  C   UNL     1     -11.850  12.743  65.439  1.00  0.00    -0.456 A  
HETATM   13  C   UNL     1     -11.531  12.406  64.130  1.00  0.00    -0.381 A  
HETATM   14  O   UNL     1     -12.033  13.094  63.060  1.00  0.00    -0.835 OA 
HETATM   15  C   UNL     1     -10.700  11.323  63.871  1.00  0.00    -0.384 A  
HETATM   16  C   UNL     1     -10.207  10.539  64.906  1.00  0.00    -0.371 A  
HETATM   17  O   UNL     1     -10.388  10.995  62.582  1.00  0.00    -0.713 OA 
HETATM   18  H   UNL     1     -11.814  12.864  62.164  1.00  0.00     0.000 HD 
HETATM   19  H   UNL     1      -9.820  10.254  62.405  1.00  0.00     0.000 HD 
ENDBRANCH   3  10
TORSDOF 1
ENDMDL
MODEL       61
REMARK 921   NORMALIZED FREE ENERGY PREDICTED BY IDOCK:   -4.94 KCAL/MOL
REMARK 922        TOTAL FREE ENERGY PREDICTED BY IDOCK:   -5.32 KCAL/MOL
REMARK 923 INTER-LIGAND FREE ENERGY PREDICTED BY IDOCK:   -5.10 KCAL/MOL
REMARK 924 INTRA-LIGAND FREE ENERGY PREDICTED BY IDOCK:   -0.21 KCAL/MOL
REMARK 927      BINDING AFFINITY PREDICTED BY RF-SCORE:    0.00 PKD
ROOT
HETATM    1  C   UNL     1      -9.059  11.538  67.844  1.00  0.00    -0.167 C  
HETATM    2  C   UNL     1     -10.248  12.504  67.856  1.00  0.00    -0.219 C  
HETATM    3  C   UNL     1     -11.594  11.775  68.128  1.00  0.00    -0.391 C  
HETATM    4  C   UNL     1     -10.370  13.100  66.425  1.00  0.00    -0.287 C  
HETATM    5  N   UNL     1      -9.965  13.573  68.834  1.00  0.00    -0.429 NA 
HETATM    6  H2  UNL     1      -9.078  14.043  68.657  1.00  0.00     0.000 HD 
HETATM    7  H1  UNL     1     -10.757  14.216  68.842  1.00  0.00     0.000 HD 
HETATM    8  O   UNL     1     -10.585  12.447  65.416  1.00  0.00    -0.269 OA 
HETATM    9  O   UNL     1     -10.219  14.447  66.386  1.00  0.00    -0.274 OA 
ENDROOT
BRANCH   3  10
HETATM   10  C   UNL     1     -11.835  11.111  69.472  1.00  0.00    -0.423 A  
HETATM   11  C   UNL     1     -11.484   9.761  69.663  1.00  0.00    -0.103 A  
HETATM   12  C   UNL     1     -11.841   9.077  70.834  1.00  0.00    -0.302 A  
HETATM   13  C   UNL     1     -12.548   9.749  71.822  1.00  0.00    -0.416 A  
HETATM   14  O   UNL     1     -12.974   9.125  72.961  1.00  0.00    -0.589 OA 
HETATM   15  C   UNL     1     -12.868  11.091  71.660  1.00  0.00    -0.435 A  
HETATM   16  C   UNL     1     -12.525  11.772  70.499  1.00  0.00    -0.317 A  
HETATM   17  O   UNL     1     -13.563  11.750  72.635  1.00  0.00    -0.481 OA 
HETATM   18  H   UNL     1     -13.458   9.585  73.638  1.00  0.00     0.000 HD 
HETATM   19  H   UNL     1     -13.782  12.667  72.525  1.00  0.00     0.000 HD 
ENDBRANCH   3  10
TORSDOF 1
ENDMDL
MODEL       62
REMARK 921   NORMALIZED FREE ENERGY PREDICTED BY IDOCK:   -4.88 KCAL/MOL
REMARK 922        TOTAL FREE ENERGY PREDICTED BY IDOCK:   -5.25 KCAL/MOL
REMARK 923 INTER-LIGAND FREE ENERGY PREDICTED BY IDOCK:   -5.22 KCAL/MOL
REMARK 924 INTRA-LIGAND FREE ENERGY PREDICTED BY IDOCK:   -0.04 KCAL/MOL
REMARK 927      BINDING AFFINITY PREDICTED BY RF-SCORE:    0.00 PKD
ROOT
HETATM    1  C   UNL     1      -7.048  10.323  64.995  1.00  0.00    -0.111 C  
HETATM    2  C   UNL     1      -8.244   9.638  65.664  1.00  0.00    -0.120 C  
HETATM    3  C   UNL     1      -9.258  10.662  66.247  1.00  0.00    -0.193 C  
HETATM    4  C   UNL     1      -7.695   8.844  66.883  1.00  0.00    -0.098 C  
HETATM    5  N   UNL     1      -8.856   8.717  64.686  1.00  0.00    -0.412 NA 
HETATM    6  H2  UNL     1      -8.186   8.052  64.300  1.00  0.00     0.000 HD 
HETATM    7  H1  UNL     1      -9.652   8.260  65.132  1.00  0.00     0.000 HD 
HETATM    8  O   UNL     1      -7.123   9.346  67.839  1.00  0.00    -0.079 OA 
HETATM    9  O   UNL     1      -7.913   7.508  66.801  1.00  0.00    -0.110 OA 
ENDROOT
BRANCH   3  10
HETATM   10  C   UNL     1     -10.025  11.581  65.311  1.00  0.00    -0.302 A  
HETATM   11  C   UNL     1      -9.945  12.978  65.474  1.00  0.00    -0.226 A  
HETATM   12  C   UNL     1     -10.764  13.842  64.736  1.00  0.00    -0.437 A  
HETATM   13  C   UNL     1     -11.664  13.308  63.823  1.00  0.00    -0.421 A  
HETATM   14  O   UNL     1     -12.530  14.092  63.113  1.00  0.00    -1.126 OA 
HETATM   15  C   UNL     1     -11.727  11.934  63.628  1.00  0.00    -0.474 A  
HETATM   16  C   UNL     1     -10.924  11.072  64.363  1.00  0.00    -0.157 A  
HETATM   17  O   UNL     1     -12.613  11.411  62.729  1.00  0.00    -0.952 OA 
HETATM   18  H   UNL     1     -13.146  13.727  62.488  1.00  0.00     0.000 HD 
HETATM   19  H   UNL     1     -12.656  10.472  62.596  1.00  0.00     0.000 HD 
ENDBRANCH   3  10
TORSDOF 1
ENDMDL
MODEL       63
REMARK 921   NORMALIZED FREE ENERGY PREDICTED BY IDOCK:   -4.88 KCAL/MOL
REMARK 922        TOTAL FREE ENERGY PREDICTED BY IDOCK:   -5.25 KCAL/MOL
REMARK 923 INTER-LIGAND FREE ENERGY PREDICTED BY IDOCK:   -5.38 KCAL/MOL
REMARK 924 INTRA-LIGAND FREE ENERGY PREDICTED BY IDOCK:    0.12 KCAL/MOL
REMARK 927      BINDING AFFINITY PREDICTED BY RF-SCORE:    0.00 PKD
ROOT
HETATM    1  C   UNL     1     -11.731  14.342  66.804  1.00  0.00    -0.424 C  
HETATM    2  C   UNL     1     -11.295  14.578  68.254  1.00  0.00    -0.297 C  
HETATM    3  C   UNL     1      -9.862  15.175  68.347  1.00  0.00    -0.223 C  
HETATM    4  C   UNL     1     -11.221  13.186  68.944  1.00  0.00    -0.277 C  
HETATM    5  N   UNL     1     -12.313  15.422  68.911  1.00  0.00    -0.608 NA 
HETATM    6  H2  UNL     1     -13.252  15.032  68.841  1.00  0.00     0.000 HD 
HETATM    7  H1  UNL     1     -12.023  15.579  69.876  1.00  0.00     0.000 HD 
HETATM    8  O   UNL     1     -10.478  12.280  68.601  1.00  0.00    -0.227 OA 
HETATM    9  O   UNL     1     -12.069  13.058  69.994  1.00  0.00    -0.326 OA 
ENDROOT
BRANCH   3  10
HETATM   10  C   UNL     1      -9.588  16.567  67.803  1.00  0.00    -0.232 A  
HETATM   11  C   UNL     1     -10.469  17.625  68.100  1.00  0.00    -0.386 A  
HETATM   12  C   UNL     1     -10.334  18.876  67.484  1.00  0.00    -0.496 A  
HETATM   13  C   UNL     1      -9.308  19.073  66.569  1.00  0.00    -0.340 A  
HETATM   14  O   UNL     1      -9.155  20.251  65.892  1.00  0.00    -0.584 OA 
HETATM   15  C   UNL     1      -8.411  18.047  66.295  1.00  0.00    -0.184 A  
HETATM   16  C   UNL     1      -8.545  16.803  66.896  1.00  0.00    -0.240 A  
HETATM   17  O   UNL     1      -7.402  18.245  65.395  1.00  0.00    -0.531 OA 
HETATM   18  H   UNL     1      -8.452  20.386  65.266  1.00  0.00     0.000 HD 
HETATM   19  H   UNL     1      -6.789  17.544  65.207  1.00  0.00     0.000 HD 
ENDBRANCH   3  10
TORSDOF 1
ENDMDL
MODEL       64
REMARK 921   NORMALIZED FREE ENERGY PREDICTED BY IDOCK:   -4.86 KCAL/MOL
REMARK 922        TOTAL FREE ENERGY PREDICTED BY IDOCK:   -5.23 KCAL/MOL
REMARK 923 INTER-LIGAND FREE ENERGY PREDICTED BY IDOCK:   -5.11 KCAL/MOL
REMARK 924 INTRA-LIGAND FREE ENERGY PREDICTED BY IDOCK:   -0.12 KCAL/MOL
REMARK 927      BINDING AFFINITY PREDICTED BY RF-SCORE:    0.00 PKD
ROOT
HETATM    1  C   UNL     1      -9.338   6.627  72.805  1.00  0.00    -0.149 C  
HETATM    2  C   UNL     1      -9.198   6.905  71.305  1.00  0.00    -0.157 C  
HETATM    3  C   UNL     1     -10.578   7.042  70.602  1.00  0.00    -0.246 C  
HETATM    4  C   UNL     1      -8.520   5.658  70.668  1.00  0.00    -0.126 C  
HETATM    5  N   UNL     1      -8.345   8.097  71.134  1.00  0.00    -0.112 NA 
HETATM    6  H2  UNL     1      -7.444   8.006  71.603  1.00  0.00     0.000 HD 
HETATM    7  H1  UNL     1      -8.251   8.282  70.135  1.00  0.00     0.000 HD 
HETATM    8  O   UNL     1      -8.992   4.532  70.674  1.00  0.00    -0.099 OA 
HETATM    9  O   UNL     1      -7.328   5.932  70.083  1.00  0.00    -0.073 OA 
ENDROOT
BRANCH   3  10
HETATM   10  C   UNL     1     -11.494   8.201  70.957  1.00  0.00    -0.301 A  
HETATM   11  C   UNL     1     -11.269   9.473  70.397  1.00  0.00    -0.323 A  
HETATM   12  C   UNL     1     -11.992  10.594  70.827  1.00  0.00    -0.477 A  
HETATM   13  C   UNL     1     -12.950  10.441  71.821  1.00  0.00    -0.475 A  
HETATM   14  O   UNL     1     -13.650  11.502  72.325  1.00  0.00    -0.535 OA 
HETATM   15  C   UNL     1     -13.205   9.184  72.356  1.00  0.00    -0.444 A  
HETATM   16  C   UNL     1     -12.486   8.072  71.939  1.00  0.00    -0.364 A  
HETATM   17  O   UNL     1     -14.150   9.037  73.333  1.00  0.00    -1.231 OA 
HETATM   18  H   UNL     1     -14.305  11.397  73.004  1.00  0.00     0.000 HD 
HETATM   19  H   UNL     1     -14.324   8.179  73.699  1.00  0.00     0.000 HD 
ENDBRANCH   3  10
TORSDOF 1
ENDMDL
MODEL       65
REMARK 921   NORMALIZED FREE ENERGY PREDICTED BY IDOCK:   -4.84 KCAL/MOL
REMARK 922        TOTAL FREE ENERGY PREDICTED BY IDOCK:   -5.21 KCAL/MOL
REMARK 923 INTER-LIGAND FREE ENERGY PREDICTED BY IDOCK:   -5.09 KCAL/MOL
REMARK 924 INTRA-LIGAND FREE ENERGY PREDICTED BY IDOCK:   -0.13 KCAL/MOL
REMARK 927      BINDING AFFINITY PREDICTED BY RF-SCORE:    0.00 PKD
ROOT
HETATM    1  C   UNL     1      -9.221  17.966  68.183  1.00  0.00    -0.278 C  
HETATM    2  C   UNL     1      -8.874  17.867  66.695  1.00  0.00    -0.268 C  
HETATM    3  C   UNL     1      -8.335  16.461  66.308  1.00  0.00    -0.362 C  
HETATM    4  C   UNL     1      -7.705  18.857  66.428  1.00  0.00    -0.273 C  
HETATM    5  N   UNL     1     -10.066  18.260  65.916  1.00  0.00    -0.574 NA 
HETATM    6  H2  UNL     1     -10.420  19.179  66.177  1.00  0.00     0.000 HD 
HETATM    7  H1  UNL     1      -9.835  18.194  64.924  1.00  0.00     0.000 HD 
HETATM    8  O   UNL     1      -6.603  18.787  66.950  1.00  0.00    -0.187 OA 
HETATM    9  O   UNL     1      -8.015  19.832  65.539  1.00  0.00    -0.370 OA 
ENDROOT
BRANCH   3  10
HETATM   10  C   UNL     1      -9.248  15.251  66.403  1.00  0.00    -0.342 A  
HETATM   11  C   UNL     1     -10.128  14.947  65.346  1.00  0.00    -0.400 A  
HETATM   12  C   UNL     1     -11.093  13.939  65.472  1.00  0.00    -0.304 A  
HETATM   13  C   UNL     1     -11.176  13.225  66.660  1.00  0.00    -0.306 A  
HETATM   14  O   UNL     1     -12.130  12.268  66.867  1.00  0.00    -0.583 OA 
HETATM   15  C   UNL     1     -10.290  13.491  67.697  1.00  0.00    -0.239 A  
HETATM   16  C   UNL     1      -9.337  14.495  67.581  1.00  0.00    -0.202 A  
HETATM   17  O   UNL     1     -10.373  12.785  68.864  1.00  0.00    -0.397 OA 
HETATM   18  H   UNL     1     -12.186  11.779  67.680  1.00  0.00     0.000 HD 
HETATM   19  H   UNL     1      -9.768  12.967  69.573  1.00  0.00     0.000 HD 
ENDBRANCH   3  10
TORSDOF 1
ENDMDL
MODEL       66
REMARK 921   NORMALIZED FREE ENERGY PREDICTED BY IDOCK:   -4.84 KCAL/MOL
REMARK 922        TOTAL FREE ENERGY PREDICTED BY IDOCK:   -5.21 KCAL/MOL
REMARK 923 INTER-LIGAND FREE ENERGY PREDICTED BY IDOCK:   -5.49 KCAL/MOL
REMARK 924 INTRA-LIGAND FREE ENERGY PREDICTED BY IDOCK:    0.27 KCAL/MOL
REMARK 927      BINDING AFFINITY PREDICTED BY RF-SCORE:    0.00 PKD
ROOT
HETATM    1  C   UNL     1     -10.798  10.926  67.438  1.00  0.00    -0.333 C  
HETATM    2  C   UNL     1     -10.636  11.991  68.526  1.00  0.00    -0.231 C  
HETATM    3  C   UNL     1     -11.719  11.868  69.635  1.00  0.00    -0.413 C  
HETATM    4  C   UNL     1     -10.872  13.374  67.855  1.00  0.00    -0.247 C  
HETATM    5  N   UNL     1      -9.260  11.906  69.055  1.00  0.00    -0.375 NA 
HETATM    6  H2  UNL     1      -8.553  11.979  68.324  1.00  0.00     0.000 HD 
HETATM    7  H1  UNL     1      -9.152  12.615  69.780  1.00  0.00     0.000 HD 
HETATM    8  O   UNL     1     -11.914  13.717  67.318  1.00  0.00    -0.385 OA 
HETATM    9  O   UNL     1      -9.796  14.196  67.920  1.00  0.00    -0.215 OA 
ENDROOT
BRANCH   3  10
HETATM   10  C   UNL     1     -11.748  10.641  70.529  1.00  0.00    -0.451 A  
HETATM   11  C   UNL     1     -12.922  10.310  71.234  1.00  0.00    -0.517 A  
HETATM   12  C   UNL     1     -12.931   9.283  72.188  1.00  0.00    -0.503 A  
HETATM   13  C   UNL     1     -11.760   8.578  72.435  1.00  0.00    -0.358 A  
HETATM   14  O   UNL     1     -11.688   7.604  73.391  1.00  0.00    -0.615 OA 
HETATM   15  C   UNL     1     -10.605   8.872  71.721  1.00  0.00    -0.362 A  
HETATM   16  C   UNL     1     -10.588   9.894  70.780  1.00  0.00    -0.309 A  
HETATM   17  O   UNL     1      -9.455   8.176  71.966  1.00  0.00    -0.174 OA 
HETATM   18  H   UNL     1     -10.887   7.122  73.560  1.00  0.00     0.000 HD 
HETATM   19  H   UNL     1      -8.665   8.376  71.478  1.00  0.00     0.000 HD 
ENDBRANCH   3  10
TORSDOF 1
ENDMDL
MODEL       67
REMARK 921   NORMALIZED FREE ENERGY PREDICTED BY IDOCK:   -4.84 KCAL/MOL
REMARK 922        TOTAL FREE ENERGY PREDICTED BY IDOCK:   -5.21 KCAL/MOL
REMARK 923 INTER-LIGAND FREE ENERGY PREDICTED BY IDOCK:   -4.99 KCAL/MOL
REMARK 924 INTRA-LIGAND FREE ENERGY PREDICTED BY IDOCK:   -0.22 KCAL/MOL
REMARK 927      BINDING AFFINITY PREDICTED BY RF-SCORE:    0.00 PKD
ROOT
HETATM    1  C   UNL     1     -11.343   6.156  70.138  1.00  0.00    -0.433 C  
HETATM    2  C   UNL     1     -11.499   6.623  71.588  1.00  0.00    -0.288 C  
HETATM    3  C   UNL     1     -10.760   7.965  71.856  1.00  0.00    -0.290 C  
HETATM    4  C   UNL     1     -10.798   5.566  72.488  1.00  0.00    -0.252 C  
HETATM    5  N   UNL     1     -12.940   6.688  71.901  1.00  0.00    -0.467 NA 
HETATM    6  H2  UNL     1     -13.422   5.809  71.717  1.00  0.00     0.000 HD 
HETATM    7  H1  UNL     1     -13.043   6.999  72.867  1.00  0.00     0.000 HD 
HETATM    8  O   UNL     1      -9.610   5.288  72.438  1.00  0.00    -0.149 OA 
HETATM    9  O   UNL     1     -11.637   4.963  73.366  1.00  0.00    -0.313 OA 
ENDROOT
BRANCH   3  10
HETATM   10  C   UNL     1     -11.226   9.234  71.164  1.00  0.00    -0.413 A  
HETATM   11  C   UNL     1     -10.595   9.663  69.981  1.00  0.00    -0.300 A  
HETATM   12  C   UNL     1     -10.891  10.909  69.411  1.00  0.00    -0.286 A  
HETATM   13  C   UNL     1     -11.829  11.728  70.024  1.00  0.00    -0.342 A  
HETATM   14  O   UNL     1     -12.122  12.977  69.551  1.00  0.00    -0.293 OA 
HETATM   15  C   UNL     1     -12.484  11.301  71.173  1.00  0.00    -0.373 A  
HETATM   16  C   UNL     1     -12.189  10.071  71.746  1.00  0.00    -0.383 A  
HETATM   17  O   UNL     1     -13.407  12.110  71.773  1.00  0.00    -0.407 OA 
HETATM   18  H   UNL     1     -12.764  13.538  69.971  1.00  0.00     0.000 HD 
HETATM   19  H   UNL     1     -13.855  11.818  72.558  1.00  0.00     0.000 HD 
ENDBRANCH   3  10
TORSDOF 1
ENDMDL
MODEL       68
REMARK 921   NORMALIZED FREE ENERGY PREDICTED BY IDOCK:   -4.82 KCAL/MOL
REMARK 922        TOTAL FREE ENERGY PREDICTED BY IDOCK:   -5.19 KCAL/MOL
REMARK 923 INTER-LIGAND FREE ENERGY PREDICTED BY IDOCK:   -5.36 KCAL/MOL
REMARK 924 INTRA-LIGAND FREE ENERGY PREDICTED BY IDOCK:    0.17 KCAL/MOL
REMARK 927      BINDING AFFINITY PREDICTED BY RF-SCORE:    0.00 PKD
ROOT
HETATM    1  C   UNL     1     -11.805  15.497  68.508  1.00  0.00    -0.276 C  
HETATM    2  C   UNL     1     -11.573  14.816  69.860  1.00  0.00    -0.286 C  
HETATM    3  C   UNL     1     -12.114  13.358  69.885  1.00  0.00    -0.389 C  
HETATM    4  C   UNL     1     -12.405  15.596  70.917  1.00  0.00    -0.429 C  
HETATM    5  N   UNL     1     -10.133  14.899  70.178  1.00  0.00    -0.475 NA 
HETATM    6  H2  UNL     1      -9.780  15.855  70.154  1.00  0.00     0.000 HD 
HETATM    7  H1  UNL     1      -9.978  14.445  71.078  1.00  0.00     0.000 HD 
HETATM    8  O   UNL     1     -13.621  15.710  70.898  1.00  0.00    -0.568 OA 
HETATM    9  O   UNL     1     -11.650  16.151  71.897  1.00  0.00    -0.458 OA 
ENDROOT
BRANCH   3  10
HETATM   10  C   UNL     1     -11.483  12.303  68.993  1.00  0.00    -0.349 A  
HETATM   11  C   UNL     1     -11.154  12.614  67.660  1.00  0.00    -0.303 A  
HETATM   12  C   UNL     1     -10.723  11.621  66.769  1.00  0.00    -0.299 A  
HETATM   13  C   UNL     1     -10.615  10.311  67.215  1.00  0.00    -0.267 A  
HETATM   14  O   UNL     1     -10.255   9.288  66.383  1.00  0.00    -0.273 OA 
HETATM   15  C   UNL     1     -10.903   9.999  68.538  1.00  0.00    -0.231 A  
HETATM   16  C   UNL     1     -11.338  10.977  69.423  1.00  0.00    -0.352 A  
HETATM   17  O   UNL     1     -10.794   8.708  68.974  1.00  0.00    -0.404 OA 
HETATM   18  H   UNL     1     -10.180   8.391  66.688  1.00  0.00     0.000 HD 
HETATM   19  H   UNL     1     -10.991   8.495  69.879  1.00  0.00     0.000 HD 
ENDBRANCH   3  10
TORSDOF 1
ENDMDL
MODEL       69
REMARK 921   NORMALIZED FREE ENERGY PREDICTED BY IDOCK:   -4.79 KCAL/MOL
REMARK 922        TOTAL FREE ENERGY PREDICTED BY IDOCK:   -5.16 KCAL/MOL
REMARK 923 INTER-LIGAND FREE ENERGY PREDICTED BY IDOCK:   -5.50 KCAL/MOL
REMARK 924 INTRA-LIGAND FREE ENERGY PREDICTED BY IDOCK:    0.34 KCAL/MOL
REMARK 927      BINDING AFFINITY PREDICTED BY RF-SCORE:    0.00 PKD
ROOT
HETATM    1  C   UNL     1      -9.528  11.045  68.624  1.00  0.00    -0.197 C  
HETATM    2  C   UNL     1     -10.719  10.133  68.934  1.00  0.00    -0.223 C  
HETATM    3  C   UNL     1     -11.403  10.497  70.283  1.00  0.00    -0.407 C  
HETATM    4  C   UNL     1     -10.161   8.693  69.116  1.00  0.00    -0.199 C  
HETATM    5  N   UNL     1     -11.648  10.182  67.788  1.00  0.00    -0.567 NA 
HETATM    6  H2  UNL     1     -11.195   9.951  66.904  1.00  0.00     0.000 HD 
HETATM    7  H1  UNL     1     -12.442   9.575  67.994  1.00  0.00     0.000 HD 
HETATM    8  O   UNL     1      -9.359   8.362  69.975  1.00  0.00    -0.157 OA 
HETATM    9  O   UNL     1     -10.655   7.805  68.219  1.00  0.00    -0.190 OA 
ENDROOT
BRANCH   3  10
HETATM   10  C   UNL     1     -12.102  11.836  70.437  1.00  0.00    -0.440 A  
HETATM   11  C   UNL     1     -11.771  12.906  69.584  1.00  0.00    -0.367 A  
HETATM   12  C   UNL     1     -12.278  14.194  69.804  1.00  0.00    -0.397 A  
HETATM   13  C   UNL     1     -13.126  14.413  70.882  1.00  0.00    -0.328 A  
HETATM   14  O   UNL     1     -13.609  15.655  71.185  1.00  0.00    -0.610 OA 
HETATM   15  C   UNL     1     -13.488  13.357  71.710  1.00  0.00    -0.370 A  
HETATM   16  C   UNL     1     -12.983  12.081  71.501  1.00  0.00    -0.407 A  
HETATM   17  O   UNL     1     -14.324  13.576  72.769  1.00  0.00    -0.640 OA 
HETATM   18  H   UNL     1     -14.190  15.805  71.922  1.00  0.00     0.000 HD 
HETATM   19  H   UNL     1     -14.571  12.855  73.335  1.00  0.00     0.000 HD 
ENDBRANCH   3  10
TORSDOF 1
ENDMDL
MODEL       70
REMARK 921   NORMALIZED FREE ENERGY PREDICTED BY IDOCK:   -4.78 KCAL/MOL
REMARK 922        TOTAL FREE ENERGY PREDICTED BY IDOCK:   -5.15 KCAL/MOL
REMARK 923 INTER-LIGAND FREE ENERGY PREDICTED BY IDOCK:   -5.44 KCAL/MOL
REMARK 924 INTRA-LIGAND FREE ENERGY PREDICTED BY IDOCK:    0.29 KCAL/MOL
REMARK 927      BINDING AFFINITY PREDICTED BY RF-SCORE:    0.00 PKD
ROOT
HETATM    1  C   UNL     1     -10.989  15.036  66.564  1.00  0.00    -0.327 C  
HETATM    2  C   UNL     1     -11.663  13.672  66.392  1.00  0.00    -0.373 C  
HETATM    3  C   UNL     1     -11.299  12.687  67.539  1.00  0.00    -0.361 C  
HETATM    4  C   UNL     1     -11.091  13.038  65.092  1.00  0.00    -0.292 C  
HETATM    5  N   UNL     1     -13.117  13.888  66.261  1.00  0.00    -0.290 NA 
HETATM    6  H2  UNL     1     -13.352  14.539  65.512  1.00  0.00     0.000 HD 
HETATM    7  H1  UNL     1     -13.566  12.979  66.146  1.00  0.00     0.000 HD 
HETATM    8  O   UNL     1      -9.915  12.763  64.912  1.00  0.00    -0.231 OA 
HETATM    9  O   UNL     1     -12.034  12.801  64.147  1.00  0.00    -0.369 OA 
ENDROOT
BRANCH   3  10
HETATM   10  C   UNL     1     -11.754  12.982  68.959  1.00  0.00    -0.376 A  
HETATM   11  C   UNL     1     -12.029  11.921  69.844  1.00  0.00    -0.398 A  
HETATM   12  C   UNL     1     -12.603  12.155  71.100  1.00  0.00    -0.360 A  
HETATM   13  C   UNL     1     -12.900  13.458  71.477  1.00  0.00    -0.337 A  
HETATM   14  O   UNL     1     -13.512  13.750  72.665  1.00  0.00    -0.541 OA 
HETATM   15  C   UNL     1     -12.601  14.516  70.627  1.00  0.00    -0.352 A  
HETATM   16  C   UNL     1     -12.039  14.289  69.377  1.00  0.00    -0.361 A  
HETATM   17  O   UNL     1     -12.893  15.797  71.001  1.00  0.00    -0.475 OA 
HETATM   18  H   UNL     1     -13.715  14.641  72.923  1.00  0.00     0.000 HD 
HETATM   19  H   UNL     1     -12.689  16.520  70.420  1.00  0.00     0.000 HD 
ENDBRANCH   3  10
TORSDOF 1
ENDMDL
MODEL       71
REMARK 921   NORMALIZED FREE ENERGY PREDICTED BY IDOCK:   -4.76 KCAL/MOL
REMARK 922        TOTAL FREE ENERGY PREDICTED BY IDOCK:   -5.12 KCAL/MOL
REMARK 923 INTER-LIGAND FREE ENERGY PREDICTED BY IDOCK:   -5.24 KCAL/MOL
REMARK 924 INTRA-LIGAND FREE ENERGY PREDICTED BY IDOCK:    0.12 KCAL/MOL
REMARK 927      BINDING AFFINITY PREDICTED BY RF-SCORE:    0.00 PKD
ROOT
HETATM    1  C   UNL     1      -8.670  16.746  67.601  1.00  0.00    -0.207 C  
HETATM    2  C   UNL     1     -10.072  17.201  67.186  1.00  0.00    -0.295 C  
HETATM    3  C   UNL     1     -10.499  16.611  65.812  1.00  0.00    -0.324 C  
HETATM    4  C   UNL     1     -10.014  18.742  66.986  1.00  0.00    -0.341 C  
HETATM    5  N   UNL     1     -11.010  16.860  68.274  1.00  0.00    -0.349 NA 
HETATM    6  H2  UNL     1     -10.722  17.243  69.175  1.00  0.00     0.000 HD 
HETATM    7  H1  UNL     1     -11.944  17.164  67.998  1.00  0.00     0.000 HD 
HETATM    8  O   UNL     1      -9.311  19.311  66.166  1.00  0.00    -0.361 OA 
HETATM    9  O   UNL     1     -10.838  19.426  67.818  1.00  0.00    -0.418 OA 
ENDROOT
BRANCH   3  10
HETATM   10  C   UNL     1     -10.700  15.113  65.664  1.00  0.00    -0.374 A  
HETATM   11  C   UNL     1      -9.714  14.221  66.129  1.00  0.00    -0.325 A  
HETATM   12  C   UNL     1      -9.794  12.848  65.862  1.00  0.00    -0.239 A  
HETATM   13  C   UNL     1     -10.869  12.361  65.131  1.00  0.00    -0.297 A  
HETATM   14  O   UNL     1     -10.978  11.042  64.789  1.00  0.00    -0.224 OA 
HETATM   15  C   UNL     1     -11.866  13.227  64.697  1.00  0.00    -0.378 A  
HETATM   16  C   UNL     1     -11.788  14.590  64.952  1.00  0.00    -0.417 A  
HETATM   17  O   UNL     1     -12.924  12.744  63.979  1.00  0.00    -0.690 OA 
HETATM   18  H   UNL     1     -11.714  10.709  64.288  1.00  0.00     0.000 HD 
HETATM   19  H   UNL     1     -13.606  13.335  63.682  1.00  0.00     0.000 HD 
ENDBRANCH   3  10
TORSDOF 1
ENDMDL
MODEL       72
REMARK 921   NORMALIZED FREE ENERGY PREDICTED BY IDOCK:   -4.75 KCAL/MOL
REMARK 922        TOTAL FREE ENERGY PREDICTED BY IDOCK:   -5.12 KCAL/MOL
REMARK 923 INTER-LIGAND FREE ENERGY PREDICTED BY IDOCK:   -5.52 KCAL/MOL
REMARK 924 INTRA-LIGAND FREE ENERGY PREDICTED BY IDOCK:    0.40 KCAL/MOL
REMARK 927      BINDING AFFINITY PREDICTED BY RF-SCORE:    0.00 PKD
ROOT
HETATM    1  C   UNL     1      -8.401  16.818  68.286  1.00  0.00    -0.213 C  
HETATM    2  C   UNL     1      -9.674  17.458  67.724  1.00  0.00    -0.268 C  
HETATM    3  C   UNL     1     -10.356  16.565  66.649  1.00  0.00    -0.298 C  
HETATM    4  C   UNL     1      -9.247  18.759  66.986  1.00  0.00    -0.294 C  
HETATM    5  N   UNL     1     -10.568  17.779  68.854  1.00  0.00    -0.370 NA 
HETATM    6  H2  UNL     1     -10.115  18.359  69.561  1.00  0.00     0.000 HD 
HETATM    7  H1  UNL     1     -11.415  18.206  68.480  1.00  0.00     0.000 HD 
HETATM    8  O   UNL     1      -8.498  18.797  66.023  1.00  0.00    -0.480 OA 
HETATM    9  O   UNL     1      -9.795  19.883  67.512  1.00  0.00    -0.357 OA 
ENDROOT
BRANCH   3  10
HETATM   10  C   UNL     1     -10.940  15.221  67.045  1.00  0.00    -0.324 A  
HETATM   11  C   UNL     1     -10.793  14.750  68.364  1.00  0.00    -0.248 A  
HETATM   12  C   UNL     1     -11.176  13.449  68.718  1.00  0.00    -0.315 A  
HETATM   13  C   UNL     1     -11.716  12.615  67.748  1.00  0.00    -0.356 A  
HETATM   14  O   UNL     1     -12.057  11.318  68.014  1.00  0.00    -0.638 OA 
HETATM   15  C   UNL     1     -11.898  13.080  66.451  1.00  0.00    -0.405 A  
HETATM   16  C   UNL     1     -11.513  14.365  66.093  1.00  0.00    -0.357 A  
HETATM   17  O   UNL     1     -12.431  12.256  65.499  1.00  0.00    -0.597 OA 
HETATM   18  H   UNL     1     -12.427  10.747  67.350  1.00  0.00     0.000 HD 
HETATM   19  H   UNL     1     -12.555  12.574  64.613  1.00  0.00     0.000 HD 
ENDBRANCH   3  10
TORSDOF 1
ENDMDL
MODEL       73
REMARK 921   NORMALIZED FREE ENERGY PREDICTED BY IDOCK:   -4.72 KCAL/MOL
REMARK 922        TOTAL FREE ENERGY PREDICTED BY IDOCK:   -5.09 KCAL/MOL
REMARK 923 INTER-LIGAND FREE ENERGY PREDICTED BY IDOCK:   -4.88 KCAL/MOL
REMARK 924 INTRA-LIGAND FREE ENERGY PREDICTED BY IDOCK:   -0.21 KCAL/MOL
REMARK 927      BINDING AFFINITY PREDICTED BY RF-SCORE:    0.00 PKD
ROOT
HETATM    1  C   UNL     1     -10.843  17.672  68.273  1.00  0.00    -0.195 C  
HETATM    2  C   UNL     1     -10.065  16.359  68.144  1.00  0.00    -0.251 C  
HETATM    3  C   UNL     1      -9.867  15.656  69.517  1.00  0.00    -0.289 C  
HETATM    4  C   UNL     1      -8.638  16.719  67.642  1.00  0.00    -0.206 C  
HETATM    5  N   UNL     1     -10.757  15.507  67.157  1.00  0.00    -0.312 NA 
HETATM    6  H2  UNL     1     -10.891  15.974  66.260  1.00  0.00     0.000 HD 
HETATM    7  H1  UNL     1     -10.238  14.633  67.070  1.00  0.00     0.000 HD 
HETATM    8  O   UNL     1      -7.846  17.424  68.247  1.00  0.00    -0.227 OA 
HETATM    9  O   UNL     1      -8.331  16.164  66.443  1.00  0.00    -0.286 OA 
ENDROOT
BRANCH   3  10
HETATM   10  C   UNL     1     -11.072  15.125  70.273  1.00  0.00    -0.289 A  
HETATM   11  C   UNL     1     -11.758  15.959  71.178  1.00  0.00    -0.490 A  
HETATM   12  C   UNL     1     -12.768  15.453  72.008  1.00  0.00    -0.455 A  
HETATM   13  C   UNL     1     -13.098  14.107  71.930  1.00  0.00    -0.375 A  
HETATM   14  O   UNL     1     -14.033  13.540  72.750  1.00  0.00    -0.733 OA 
HETATM   15  C   UNL     1     -12.452  13.282  71.017  1.00  0.00    -0.336 A  
HETATM   16  C   UNL     1     -11.445  13.776  70.197  1.00  0.00    -0.140 A  
HETATM   17  O   UNL     1     -12.780  11.958  70.942  1.00  0.00    -0.297 OA 
HETATM   18  H   UNL     1     -14.259  12.618  72.697  1.00  0.00     0.000 HD 
HETATM   19  H   UNL     1     -12.339  11.394  70.318  1.00  0.00     0.000 HD 
ENDBRANCH   3  10
TORSDOF 1
ENDMDL
MODEL       74
REMARK 921   NORMALIZED FREE ENERGY PREDICTED BY IDOCK:   -4.72 KCAL/MOL
REMARK 922        TOTAL FREE ENERGY PREDICTED BY IDOCK:   -5.09 KCAL/MOL
REMARK 923 INTER-LIGAND FREE ENERGY PREDICTED BY IDOCK:   -5.06 KCAL/MOL
REMARK 924 INTRA-LIGAND FREE ENERGY PREDICTED BY IDOCK:   -0.02 KCAL/MOL
REMARK 927      BINDING AFFINITY PREDICTED BY RF-SCORE:    0.00 PKD
ROOT
HETATM    1  C   UNL     1     -10.762  19.297  67.269  1.00  0.00    -0.594 C  
HETATM    2  C   UNL     1      -9.594  18.333  67.038  1.00  0.00    -0.291 C  
HETATM    3  C   UNL     1      -9.301  17.454  68.286  1.00  0.00    -0.278 C  
HETATM    4  C   UNL     1      -8.321  19.199  66.820  1.00  0.00    -0.293 C  
HETATM    5  N   UNL     1      -9.885  17.536  65.830  1.00  0.00    -0.551 NA 
HETATM    6  H2  UNL     1     -10.084  18.115  65.015  1.00  0.00     0.000 HD 
HETATM    7  H1  UNL     1      -9.107  16.894  65.676  1.00  0.00     0.000 HD 
HETATM    8  O   UNL     1      -7.854  19.968  67.645  1.00  0.00    -0.290 OA 
HETATM    9  O   UNL     1      -7.748  19.021  65.603  1.00  0.00    -0.465 OA 
ENDROOT
BRANCH   3  10
HETATM   10  C   UNL     1     -10.332  16.443  68.757  1.00  0.00    -0.275 A  
HETATM   11  C   UNL     1     -10.809  16.488  70.081  1.00  0.00    -0.208 A  
HETATM   12  C   UNL     1     -11.633  15.475  70.590  1.00  0.00    -0.378 A  
HETATM   13  C   UNL     1     -11.988  14.414  69.769  1.00  0.00    -0.332 A  
HETATM   14  O   UNL     1     -12.742  13.367  70.220  1.00  0.00    -0.160 OA 
HETATM   15  C   UNL     1     -11.552  14.377  68.449  1.00  0.00    -0.319 A  
HETATM   16  C   UNL     1     -10.729  15.373  67.942  1.00  0.00    -0.286 A  
HETATM   17  O   UNL     1     -11.905  13.331  67.643  1.00  0.00    -0.345 OA 
HETATM   18  H   UNL     1     -12.985  12.640  69.657  1.00  0.00     0.000 HD 
HETATM   19  H   UNL     1     -11.607  13.306  66.742  1.00  0.00     0.000 HD 
ENDBRANCH   3  10
TORSDOF 1
ENDMDL
MODEL       75
REMARK 921   NORMALIZED FREE ENERGY PREDICTED BY IDOCK:   -4.68 KCAL/MOL
REMARK 922        TOTAL FREE ENERGY PREDICTED BY IDOCK:   -5.04 KCAL/MOL
REMARK 923 INTER-LIGAND FREE ENERGY PREDICTED BY IDOCK:   -4.92 KCAL/MOL
REMARK 924 INTRA-LIGAND FREE ENERGY PREDICTED BY IDOCK:   -0.12 KCAL/MOL
REMARK 927      BINDING AFFINITY PREDICTED BY RF-SCORE:    0.00 PKD
ROOT
HETATM    1  C   UNL     1     -12.247  14.279  67.029  1.00  0.00    -0.338 C  
HETATM    2  C   UNL     1     -11.704  13.245  66.039  1.00  0.00    -0.368 C  
HETATM    3  C   UNL     1     -10.209  13.492  65.690  1.00  0.00    -0.306 C  
HETATM    4  C   UNL     1     -12.486  13.429  64.707  1.00  0.00    -0.365 C  
HETATM    5  N   UNL     1     -11.949  11.899  66.595  1.00  0.00    -0.564 NA 
HETATM    6  H2  UNL     1     -12.929  11.743  66.829  1.00  0.00     0.000 HD 
HETATM    7  H1  UNL     1     -11.587  11.210  65.936  1.00  0.00     0.000 HD 
HETATM    8  O   UNL     1     -12.482  14.448  64.035  1.00  0.00    -0.748 OA 
HETATM    9  O   UNL     1     -13.189  12.330  64.337  1.00  0.00    -0.806 OA 
ENDROOT
BRANCH   3  10
HETATM   10  C   UNL     1      -9.149  13.345  66.768  1.00  0.00    -0.221 A  
HETATM   11  C   UNL     1      -8.512  12.104  66.964  1.00  0.00    -0.183 A  
HETATM   12  C   UNL     1      -7.652  11.893  68.051  1.00  0.00    -0.122 A  
HETATM   13  C   UNL     1      -7.423  12.931  68.944  1.00  0.00     0.020 A  
HETATM   14  O   UNL     1      -6.641  12.775  70.055  1.00  0.00    -0.358 OA 
HETATM   15  C   UNL     1      -8.018  14.171  68.741  1.00  0.00    -0.102 A  
HETATM   16  C   UNL     1      -8.877  14.383  67.671  1.00  0.00    -0.193 A  
HETATM   17  O   UNL     1      -7.789  15.190  69.622  1.00  0.00    -0.268 OA 
HETATM   18  H   UNL     1      -6.484  13.485  70.666  1.00  0.00     0.000 HD 
HETATM   19  H   UNL     1      -8.196  16.037  69.484  1.00  0.00     0.000 HD 
ENDBRANCH   3  10
TORSDOF 1
ENDMDL
MODEL       76
REMARK 921   NORMALIZED FREE ENERGY PREDICTED BY IDOCK:   -4.67 KCAL/MOL
REMARK 922        TOTAL FREE ENERGY PREDICTED BY IDOCK:   -5.04 KCAL/MOL
REMARK 923 INTER-LIGAND FREE ENERGY PREDICTED BY IDOCK:   -4.91 KCAL/MOL
REMARK 924 INTRA-LIGAND FREE ENERGY PREDICTED BY IDOCK:   -0.13 KCAL/MOL
REMARK 927      BINDING AFFINITY PREDICTED BY RF-SCORE:    0.00 PKD
ROOT
HETATM    1  C   UNL     1      -9.315  15.427  66.261  1.00  0.00    -0.351 C  
HETATM    2  C   UNL     1      -8.947  14.335  67.270  1.00  0.00    -0.213 C  
HETATM    3  C   UNL     1      -9.970  13.164  67.268  1.00  0.00    -0.230 C  
HETATM    4  C   UNL     1      -9.031  14.970  68.686  1.00  0.00    -0.186 C  
HETATM    5  N   UNL     1      -7.567  13.892  66.987  1.00  0.00    -0.321 NA 
HETATM    6  H2  UNL     1      -6.900  14.663  66.982  1.00  0.00     0.000 HD 
HETATM    7  H1  UNL     1      -7.321  13.164  67.659  1.00  0.00     0.000 HD 
HETATM    8  O   UNL     1     -10.046  15.437  69.179  1.00  0.00    -0.209 OA 
HETATM    9  O   UNL     1      -7.851  14.958  69.355  1.00  0.00    -0.179 OA 
ENDROOT
BRANCH   3  10
HETATM   10  C   UNL     1     -10.113  12.289  66.035  1.00  0.00    -0.269 A  
HETATM   11  C   UNL     1      -9.200  11.241  65.806  1.00  0.00    -0.236 A  
HETATM   12  C   UNL     1      -9.207  10.523  64.603  1.00  0.00    -0.274 A  
HETATM   13  C   UNL     1     -10.136  10.850  63.624  1.00  0.00    -0.355 A  
HETATM   14  O   UNL     1     -10.159  10.227  62.407  1.00  0.00    -0.714 OA 
HETATM   15  C   UNL     1     -11.064  11.858  63.853  1.00  0.00    -0.412 A  
HETATM   16  C   UNL     1     -11.057  12.579  65.040  1.00  0.00    -0.335 A  
HETATM   17  O   UNL     1     -11.978  12.177  62.888  1.00  0.00    -0.630 OA 
HETATM   18  H   UNL     1     -10.795  10.451  61.738  1.00  0.00     0.000 HD 
HETATM   19  H   UNL     1     -12.612  12.866  63.044  1.00  0.00     0.000 HD 
ENDBRANCH   3  10
TORSDOF 1
ENDMDL
MODEL       77
REMARK 921   NORMALIZED FREE ENERGY PREDICTED BY IDOCK:   -4.67 KCAL/MOL
REMARK 922        TOTAL FREE ENERGY PREDICTED BY IDOCK:   -5.03 KCAL/MOL
REMARK 923 INTER-LIGAND FREE ENERGY PREDICTED BY IDOCK:   -4.96 KCAL/MOL
REMARK 924 INTRA-LIGAND FREE ENERGY PREDICTED BY IDOCK:   -0.08 KCAL/MOL
REMARK 927      BINDING AFFINITY PREDICTED BY RF-SCORE:    0.00 PKD
ROOT
HETATM    1  C   UNL     1     -11.156   6.167  69.282  1.00  0.00    -0.463 C  
HETATM    2  C   UNL     1     -11.420   6.857  70.624  1.00  0.00    -0.336 C  
HETATM    3  C   UNL     1     -10.573   8.149  70.797  1.00  0.00    -0.234 C  
HETATM    4  C   UNL     1     -10.945   5.885  71.741  1.00  0.00    -0.269 C  
HETATM    5  N   UNL     1     -12.871   7.101  70.740  1.00  0.00    -0.591 NA 
HETATM    6  H2  UNL     1     -13.424   6.253  70.618  1.00  0.00     0.000 HD 
HETATM    7  H1  UNL     1     -13.047   7.560  71.634  1.00  0.00     0.000 HD 
HETATM    8  O   UNL     1      -9.797   5.494  71.880  1.00  0.00    -0.162 OA 
HETATM    9  O   UNL     1     -11.938   5.499  72.580  1.00  0.00    -0.245 OA 
ENDROOT
BRANCH   3  10
HETATM   10  C   UNL     1     -10.816   9.339  69.885  1.00  0.00    -0.252 A  
HETATM   11  C   UNL     1     -11.544  10.449  70.355  1.00  0.00    -0.423 A  
HETATM   12  C   UNL     1     -11.924  11.486  69.492  1.00  0.00    -0.402 A  
HETATM   13  C   UNL     1     -11.569  11.416  68.151  1.00  0.00    -0.294 A  
HETATM   14  O   UNL     1     -11.956  12.365  67.247  1.00  0.00    -0.516 OA 
HETATM   15  C   UNL     1     -10.821  10.342  67.683  1.00  0.00    -0.306 A  
HETATM   16  C   UNL     1     -10.448   9.308  68.532  1.00  0.00    -0.240 A  
HETATM   17  O   UNL     1     -10.472  10.277  66.364  1.00  0.00    -0.224 OA 
HETATM   18  H   UNL     1     -11.712  12.317  66.329  1.00  0.00     0.000 HD 
HETATM   19  H   UNL     1      -9.960   9.543  66.043  1.00  0.00     0.000 HD 
ENDBRANCH   3  10
TORSDOF 1
ENDMDL
MODEL       78
REMARK 921   NORMALIZED FREE ENERGY PREDICTED BY IDOCK:   -4.62 KCAL/MOL
REMARK 922        TOTAL FREE ENERGY PREDICTED BY IDOCK:   -4.98 KCAL/MOL
REMARK 923 INTER-LIGAND FREE ENERGY PREDICTED BY IDOCK:   -5.07 KCAL/MOL
REMARK 924 INTRA-LIGAND FREE ENERGY PREDICTED BY IDOCK:    0.09 KCAL/MOL
REMARK 927      BINDING AFFINITY PREDICTED BY RF-SCORE:    0.00 PKD
ROOT
HETATM    1  C   UNL     1      -8.702  11.911  66.865  1.00  0.00    -0.191 C  
HETATM    2  C   UNL     1      -9.977  11.930  66.016  1.00  0.00    -0.232 C  
HETATM    3  C   UNL     1     -11.264  11.873  66.885  1.00  0.00    -0.382 C  
HETATM    4  C   UNL     1      -9.981  10.628  65.165  1.00  0.00    -0.303 C  
HETATM    5  N   UNL     1      -9.929  13.116  65.138  1.00  0.00    -0.503 NA 
HETATM    6  H2  UNL     1      -9.080  13.154  64.575  1.00  0.00     0.000 HD 
HETATM    7  H1  UNL     1     -10.777  13.129  64.571  1.00  0.00     0.000 HD 
HETATM    8  O   UNL     1     -10.001   9.497  65.625  1.00  0.00    -0.305 OA 
HETATM    9  O   UNL     1      -9.966  10.856  63.828  1.00  0.00    -0.293 OA 
ENDROOT
BRANCH   3  10
HETATM   10  C   UNL     1     -11.600  13.027  67.813  1.00  0.00    -0.385 A  
HETATM   11  C   UNL     1     -11.583  14.349  67.327  1.00  0.00    -0.401 A  
HETATM   12  C   UNL     1     -11.728  15.442  68.192  1.00  0.00    -0.276 A  
HETATM   13  C   UNL     1     -11.897  15.213  69.551  1.00  0.00    -0.332 A  
HETATM   14  O   UNL     1     -11.987  16.235  70.455  1.00  0.00    -0.417 OA 
HETATM   15  C   UNL     1     -11.950  13.912  70.038  1.00  0.00    -0.336 A  
HETATM   16  C   UNL     1     -11.800  12.825  69.186  1.00  0.00    -0.352 A  
HETATM   17  O   UNL     1     -12.118  13.690  71.376  1.00  0.00    -0.364 OA 
HETATM   18  H   UNL     1     -12.103  16.078  71.385  1.00  0.00     0.000 HD 
HETATM   19  H   UNL     1     -12.155  12.801  71.708  1.00  0.00     0.000 HD 
ENDBRANCH   3  10
TORSDOF 1
ENDMDL
MODEL       79
REMARK 921   NORMALIZED FREE ENERGY PREDICTED BY IDOCK:   -4.62 KCAL/MOL
REMARK 922        TOTAL FREE ENERGY PREDICTED BY IDOCK:   -4.98 KCAL/MOL
REMARK 923 INTER-LIGAND FREE ENERGY PREDICTED BY IDOCK:   -4.85 KCAL/MOL
REMARK 924 INTRA-LIGAND FREE ENERGY PREDICTED BY IDOCK:   -0.13 KCAL/MOL
REMARK 927      BINDING AFFINITY PREDICTED BY RF-SCORE:    0.00 PKD
ROOT
HETATM    1  C   UNL     1     -10.780  18.740  67.093  1.00  0.00    -0.469 C  
HETATM    2  C   UNL     1      -9.434  18.011  67.044  1.00  0.00    -0.273 C  
HETATM    3  C   UNL     1      -9.034  17.420  68.425  1.00  0.00    -0.277 C  
HETATM    4  C   UNL     1      -8.349  19.073  66.706  1.00  0.00    -0.288 C  
HETATM    5  N   UNL     1      -9.501  16.989  65.980  1.00  0.00    -0.488 NA 
HETATM    6  H2  UNL     1      -9.770  17.379  65.077  1.00  0.00     0.000 HD 
HETATM    7  H1  UNL     1      -8.604  16.504  65.947  1.00  0.00     0.000 HD 
HETATM    8  O   UNL     1      -8.086  20.042  67.400  1.00  0.00    -0.299 OA 
HETATM    9  O   UNL     1      -7.693  18.824  65.546  1.00  0.00    -0.446 OA 
ENDROOT
BRANCH   3  10
HETATM   10  C   UNL     1      -9.866  16.307  69.039  1.00  0.00    -0.257 A  
HETATM   11  C   UNL     1      -9.580  14.963  68.732  1.00  0.00    -0.214 A  
HETATM   12  C   UNL     1     -10.426  13.927  69.151  1.00  0.00    -0.074 A  
HETATM   13  C   UNL     1     -11.562  14.236  69.887  1.00  0.00    -0.276 A  
HETATM   14  O   UNL     1     -12.457  13.280  70.277  1.00  0.00    -0.270 OA 
HETATM   15  C   UNL     1     -11.836  15.556  70.226  1.00  0.00    -0.357 A  
HETATM   16  C   UNL     1     -11.006  16.587  69.807  1.00  0.00    -0.292 A  
HETATM   17  O   UNL     1     -12.955  15.856  70.951  1.00  0.00    -0.565 OA 
HETATM   18  H   UNL     1     -13.235  13.491  70.781  1.00  0.00     0.000 HD 
HETATM   19  H   UNL     1     -13.142  16.758  71.183  1.00  0.00     0.000 HD 
ENDBRANCH   3  10
TORSDOF 1
ENDMDL
MODEL       80
REMARK 921   NORMALIZED FREE ENERGY PREDICTED BY IDOCK:   -4.61 KCAL/MOL
REMARK 922        TOTAL FREE ENERGY PREDICTED BY IDOCK:   -4.97 KCAL/MOL
REMARK 923 INTER-LIGAND FREE ENERGY PREDICTED BY IDOCK:   -4.83 KCAL/MOL
REMARK 924 INTRA-LIGAND FREE ENERGY PREDICTED BY IDOCK:   -0.14 KCAL/MOL
REMARK 927      BINDING AFFINITY PREDICTED BY RF-SCORE:    0.00 PKD
ROOT
HETATM    1  C   UNL     1     -10.328   8.391  66.945  1.00  0.00    -0.378 C  
HETATM    2  C   UNL     1     -10.352   7.366  68.083  1.00  0.00    -0.192 C  
HETATM    3  C   UNL     1     -10.047   8.013  69.463  1.00  0.00    -0.196 C  
HETATM    4  C   UNL     1      -9.195   6.361  67.821  1.00  0.00    -0.112 C  
HETATM    5  N   UNL     1     -11.653   6.670  68.051  1.00  0.00    -0.488 NA 
HETATM    6  H2  UNL     1     -11.853   6.253  67.142  1.00  0.00     0.000 HD 
HETATM    7  H1  UNL     1     -11.669   5.987  68.808  1.00  0.00     0.000 HD 
HETATM    8  O   UNL     1      -8.012   6.660  67.774  1.00  0.00    -0.110 OA 
HETATM    9  O   UNL     1      -9.617   5.084  67.647  1.00  0.00    -0.133 OA 
ENDROOT
BRANCH   3  10
HETATM   10  C   UNL     1     -11.016   9.023  70.054  1.00  0.00    -0.230 A  
HETATM   11  C   UNL     1     -11.025  10.350  69.582  1.00  0.00    -0.325 A  
HETATM   12  C   UNL     1     -11.788  11.340  70.215  1.00  0.00    -0.446 A  
HETATM   13  C   UNL     1     -12.552  11.001  71.323  1.00  0.00    -0.412 A  
HETATM   14  O   UNL     1     -13.274  11.930  72.019  1.00  0.00    -0.495 OA 
HETATM   15  C   UNL     1     -12.578   9.688  71.777  1.00  0.00    -0.409 A  
HETATM   16  C   UNL     1     -11.818   8.704  71.159  1.00  0.00    -0.331 A  
HETATM   17  O   UNL     1     -13.332   9.358  72.868  1.00  0.00    -0.576 OA 
HETATM   18  H   UNL     1     -13.797  11.698  72.778  1.00  0.00     0.000 HD 
HETATM   19  H   UNL     1     -13.350   8.460  73.179  1.00  0.00     0.000 HD 
ENDBRANCH   3  10
TORSDOF 1
ENDMDL
MODEL       81
REMARK 921   NORMALIZED FREE ENERGY PREDICTED BY IDOCK:   -4.59 KCAL/MOL
REMARK 922        TOTAL FREE ENERGY PREDICTED BY IDOCK:   -4.95 KCAL/MOL
REMARK 923 INTER-LIGAND FREE ENERGY PREDICTED BY IDOCK:   -4.74 KCAL/MOL
REMARK 924 INTRA-LIGAND FREE ENERGY PREDICTED BY IDOCK:   -0.22 KCAL/MOL
REMARK 927      BINDING AFFINITY PREDICTED BY RF-SCORE:    0.00 PKD
ROOT
HETATM    1  C   UNL     1      -8.245  15.233  68.589  1.00  0.00    -0.159 C  
HETATM    2  C   UNL     1      -9.744  15.490  68.763  1.00  0.00    -0.213 C  
HETATM    3  C   UNL     1     -10.601  14.689  67.743  1.00  0.00    -0.251 C  
HETATM    4  C   UNL     1      -9.993  16.991  68.441  1.00  0.00    -0.289 C  
HETATM    5  N   UNL     1     -10.103  15.201  70.166  1.00  0.00    -0.510 NA 
HETATM    6  H2  UNL     1      -9.534  15.722  70.832  1.00  0.00     0.000 HD 
HETATM    7  H1  UNL     1     -11.101  15.373  70.283  1.00  0.00     0.000 HD 
HETATM    8  O   UNL     1      -9.771  17.516  67.361  1.00  0.00    -0.263 OA 
HETATM    9  O   UNL     1     -10.499  17.691  69.486  1.00  0.00    -0.172 OA 
ENDROOT
BRANCH   3  10
HETATM   10  C   UNL     1     -10.628  13.172  67.807  1.00  0.00    -0.242 A  
HETATM   11  C   UNL     1      -9.815  12.416  66.940  1.00  0.00    -0.219 A  
HETATM   12  C   UNL     1      -9.937  11.022  66.862  1.00  0.00    -0.231 A  
HETATM   13  C   UNL     1     -10.873  10.378  67.659  1.00  0.00    -0.306 A  
HETATM   14  O   UNL     1     -11.081   9.029  67.590  1.00  0.00    -0.484 OA 
HETATM   15  C   UNL     1     -11.657  11.110  68.543  1.00  0.00    -0.314 A  
HETATM   16  C   UNL     1     -11.547  12.492  68.619  1.00  0.00    -0.357 A  
HETATM   17  O   UNL     1     -12.578  10.473  69.327  1.00  0.00    -0.726 OA 
HETATM   18  H   UNL     1     -11.722   8.588  68.136  1.00  0.00     0.000 HD 
HETATM   19  H   UNL     1     -13.114  10.973  69.932  1.00  0.00     0.000 HD 
ENDBRANCH   3  10
TORSDOF 1
ENDMDL
MODEL       82
REMARK 921   NORMALIZED FREE ENERGY PREDICTED BY IDOCK:   -4.57 KCAL/MOL
REMARK 922        TOTAL FREE ENERGY PREDICTED BY IDOCK:   -4.92 KCAL/MOL
REMARK 923 INTER-LIGAND FREE ENERGY PREDICTED BY IDOCK:   -5.00 KCAL/MOL
REMARK 924 INTRA-LIGAND FREE ENERGY PREDICTED BY IDOCK:    0.08 KCAL/MOL
REMARK 927      BINDING AFFINITY PREDICTED BY RF-SCORE:    0.00 PKD
ROOT
HETATM    1  C   UNL     1     -11.944  14.207  67.489  1.00  0.00    -0.419 C  
HETATM    2  C   UNL     1     -11.296  13.985  66.119  1.00  0.00    -0.321 C  
HETATM    3  C   UNL     1     -10.012  13.113  66.210  1.00  0.00    -0.285 C  
HETATM    4  C   UNL     1     -10.829  15.375  65.600  1.00  0.00    -0.355 C  
HETATM    5  N   UNL     1     -12.314  13.415  65.213  1.00  0.00    -0.441 NA 
HETATM    6  H2  UNL     1     -13.157  13.986  65.162  1.00  0.00     0.000 HD 
HETATM    7  H1  UNL     1     -11.883  13.268  64.301  1.00  0.00     0.000 HD 
HETATM    8  O   UNL     1     -10.005  16.083  66.158  1.00  0.00    -0.282 OA 
HETATM    9  O   UNL     1     -11.424  15.746  64.440  1.00  0.00    -0.410 OA 
ENDROOT
BRANCH   3  10
HETATM   10  C   UNL     1     -10.115  11.661  66.644  1.00  0.00    -0.238 A  
HETATM   11  C   UNL     1      -9.646  10.638  65.798  1.00  0.00    -0.258 A  
HETATM   12  C   UNL     1      -9.873   9.288  66.096  1.00  0.00    -0.363 A  
HETATM   13  C   UNL     1     -10.570   8.957  67.251  1.00  0.00    -0.234 A  
HETATM   14  O   UNL     1     -10.874   7.663  67.571  1.00  0.00    -0.463 OA 
HETATM   15  C   UNL     1     -11.008   9.957  68.112  1.00  0.00    -0.207 A  
HETATM   16  C   UNL     1     -10.792  11.297  67.817  1.00  0.00    -0.284 A  
HETATM   17  O   UNL     1     -11.692   9.628  69.248  1.00  0.00    -0.437 OA 
HETATM   18  H   UNL     1     -11.351   7.437  68.361  1.00  0.00     0.000 HD 
HETATM   19  H   UNL     1     -11.991  10.311  69.836  1.00  0.00     0.000 HD 
ENDBRANCH   3  10
TORSDOF 1
ENDMDL
MODEL       83
REMARK 921   NORMALIZED FREE ENERGY PREDICTED BY IDOCK:   -4.50 KCAL/MOL
REMARK 922        TOTAL FREE ENERGY PREDICTED BY IDOCK:   -4.85 KCAL/MOL
REMARK 923 INTER-LIGAND FREE ENERGY PREDICTED BY IDOCK:   -4.82 KCAL/MOL
REMARK 924 INTRA-LIGAND FREE ENERGY PREDICTED BY IDOCK:   -0.03 KCAL/MOL
REMARK 927      BINDING AFFINITY PREDICTED BY RF-SCORE:    0.00 PKD
ROOT
HETATM    1  C   UNL     1     -10.068  13.362  65.965  1.00  0.00    -0.308 C  
HETATM    2  C   UNL     1     -11.099  12.248  65.761  1.00  0.00    -0.323 C  
HETATM    3  C   UNL     1     -10.475  10.833  65.913  1.00  0.00    -0.270 C  
HETATM    4  C   UNL     1     -11.588  12.340  64.287  1.00  0.00    -0.371 C  
HETATM    5  N   UNL     1     -12.223  12.483  66.689  1.00  0.00    -0.507 NA 
HETATM    6  H2  UNL     1     -12.625  13.415  66.591  1.00  0.00     0.000 HD 
HETATM    7  H1  UNL     1     -12.910  11.741  66.553  1.00  0.00     0.000 HD 
HETATM    8  O   UNL     1     -10.872  12.204  63.308  1.00  0.00    -0.415 OA 
HETATM    9  O   UNL     1     -12.917  12.584  64.173  1.00  0.00    -0.740 OA 
ENDROOT
BRANCH   3  10
HETATM   10  C   UNL     1      -9.933  10.388  67.260  1.00  0.00    -0.229 A  
HETATM   11  C   UNL     1     -10.620   9.412  68.008  1.00  0.00    -0.278 A  
HETATM   12  C   UNL     1     -10.237   9.100  69.320  1.00  0.00    -0.215 A  
HETATM   13  C   UNL     1      -9.158   9.764  69.886  1.00  0.00    -0.229 A  
HETATM   14  O   UNL     1      -8.769   9.548  71.179  1.00  0.00    -0.313 OA 
HETATM   15  C   UNL     1      -8.451  10.704  69.146  1.00  0.00    -0.128 A  
HETATM   16  C   UNL     1      -8.830  11.023  67.849  1.00  0.00    -0.134 A  
HETATM   17  O   UNL     1      -7.387  11.355  69.707  1.00  0.00    -0.362 OA 
HETATM   18  H   UNL     1      -8.030  10.002  71.567  1.00  0.00     0.000 HD 
HETATM   19  H   UNL     1      -6.904  11.998  69.201  1.00  0.00     0.000 HD 
ENDBRANCH   3  10
TORSDOF 1
ENDMDL
MODEL       84
REMARK 921   NORMALIZED FREE ENERGY PREDICTED BY IDOCK:   -4.43 KCAL/MOL
REMARK 922        TOTAL FREE ENERGY PREDICTED BY IDOCK:   -4.78 KCAL/MOL
REMARK 923 INTER-LIGAND FREE ENERGY PREDICTED BY IDOCK:   -4.62 KCAL/MOL
REMARK 924 INTRA-LIGAND FREE ENERGY PREDICTED BY IDOCK:   -0.16 KCAL/MOL
REMARK 927      BINDING AFFINITY PREDICTED BY RF-SCORE:    0.00 PKD
ROOT
HETATM    1  C   UNL     1      -9.102   9.488  69.936  1.00  0.00    -0.237 C  
HETATM    2  C   UNL     1     -10.587   9.359  69.585  1.00  0.00    -0.225 C  
HETATM    3  C   UNL     1     -11.239  10.736  69.272  1.00  0.00    -0.333 C  
HETATM    4  C   UNL     1     -11.314   8.825  70.852  1.00  0.00    -0.275 C  
HETATM    5  N   UNL     1     -10.718   8.396  68.474  1.00  0.00    -0.415 NA 
HETATM    6  H2  UNL     1     -10.283   7.497  68.681  1.00  0.00     0.000 HD 
HETATM    7  H1  UNL     1     -11.708   8.309  68.241  1.00  0.00     0.000 HD 
HETATM    8  O   UNL     1     -11.356   9.406  71.926  1.00  0.00    -0.370 OA 
HETATM    9  O   UNL     1     -11.920   7.627  70.663  1.00  0.00    -0.223 OA 
ENDROOT
BRANCH   3  10
HETATM   10  C   UNL     1     -10.791  11.522  68.052  1.00  0.00    -0.259 A  
HETATM   11  C   UNL     1      -9.620  12.302  68.108  1.00  0.00    -0.213 A  
HETATM   12  C   UNL     1      -9.271  13.163  67.059  1.00  0.00    -0.233 A  
HETATM   13  C   UNL     1     -10.094  13.241  65.944  1.00  0.00    -0.291 A  
HETATM   14  O   UNL     1      -9.840  14.101  64.912  1.00  0.00    -0.570 OA 
HETATM   15  C   UNL     1     -11.234  12.450  65.862  1.00  0.00    -0.336 A  
HETATM   16  C   UNL     1     -11.589  11.601  66.902  1.00  0.00    -0.246 A  
HETATM   17  O   UNL     1     -12.041  12.528  64.762  1.00  0.00    -0.394 OA 
HETATM   18  H   UNL     1     -10.403  14.154  64.149  1.00  0.00     0.000 HD 
HETATM   19  H   UNL     1     -12.820  11.988  64.706  1.00  0.00     0.000 HD 
ENDBRANCH   3  10
TORSDOF 1
ENDMDL
MODEL       85
REMARK 921   NORMALIZED FREE ENERGY PREDICTED BY IDOCK:   -4.42 KCAL/MOL
REMARK 922        TOTAL FREE ENERGY PREDICTED BY IDOCK:   -4.77 KCAL/MOL
REMARK 923 INTER-LIGAND FREE ENERGY PREDICTED BY IDOCK:   -5.08 KCAL/MOL
REMARK 924 INTRA-LIGAND FREE ENERGY PREDICTED BY IDOCK:    0.31 KCAL/MOL
REMARK 927      BINDING AFFINITY PREDICTED BY RF-SCORE:    0.00 PKD
ROOT
HETATM    1  C   UNL     1      -8.812   9.005  65.580  1.00  0.00    -0.224 C  
HETATM    2  C   UNL     1      -8.242   9.970  64.535  1.00  0.00    -0.164 C  
HETATM    3  C   UNL     1      -9.334  10.485  63.555  1.00  0.00    -0.326 C  
HETATM    4  C   UNL     1      -7.237   9.163  63.665  1.00  0.00    -0.093 C  
HETATM    5  N   UNL     1      -7.546  11.061  65.244  1.00  0.00    -0.345 NA 
HETATM    6  H2  UNL     1      -6.836  10.719  65.892  1.00  0.00     0.000 HD 
HETATM    7  H1  UNL     1      -7.166  11.703  64.548  1.00  0.00     0.000 HD 
HETATM    8  O   UNL     1      -7.531   8.194  62.981  1.00  0.00    -0.104 OA 
HETATM    9  O   UNL     1      -5.969   9.639  63.722  1.00  0.00    -0.090 OA 
ENDROOT
BRANCH   3  10
HETATM   10  C   UNL     1     -10.461  11.361  64.074  1.00  0.00    -0.435 A  
HETATM   11  C   UNL     1     -11.089  12.283  63.214  1.00  0.00    -0.389 A  
HETATM   12  C   UNL     1     -12.015  13.215  63.701  1.00  0.00    -0.580 A  
HETATM   13  C   UNL     1     -12.321  13.221  65.055  1.00  0.00    -0.448 A  
HETATM   14  O   UNL     1     -13.173  14.139  65.603  1.00  0.00    -0.651 OA 
HETATM   15  C   UNL     1     -11.734  12.294  65.907  1.00  0.00    -0.389 A  
HETATM   16  C   UNL     1     -10.809  11.373  65.432  1.00  0.00    -0.292 A  
HETATM   17  O   UNL     1     -12.039  12.302  67.240  1.00  0.00    -0.548 OA 
HETATM   18  H   UNL     1     -13.383  14.144  66.530  1.00  0.00     0.000 HD 
HETATM   19  H   UNL     1     -11.638  11.668  67.822  1.00  0.00     0.000 HD 
ENDBRANCH   3  10
TORSDOF 1
ENDMDL
MODEL       86
REMARK 921   NORMALIZED FREE ENERGY PREDICTED BY IDOCK:   -4.42 KCAL/MOL
REMARK 922        TOTAL FREE ENERGY PREDICTED BY IDOCK:   -4.76 KCAL/MOL
REMARK 923 INTER-LIGAND FREE ENERGY PREDICTED BY IDOCK:   -4.57 KCAL/MOL
REMARK 924 INTRA-LIGAND FREE ENERGY PREDICTED BY IDOCK:   -0.19 KCAL/MOL
REMARK 927      BINDING AFFINITY PREDICTED BY RF-SCORE:    0.00 PKD
ROOT
HETATM    1  C   UNL     1     -10.469   9.483  66.807  1.00  0.00    -0.263 C  
HETATM    2  C   UNL     1      -9.318  10.475  67.002  1.00  0.00    -0.155 C  
HETATM    3  C   UNL     1      -9.083  11.358  65.744  1.00  0.00    -0.195 C  
HETATM    4  C   UNL     1      -8.018   9.641  67.185  1.00  0.00    -0.106 C  
HETATM    5  N   UNL     1      -9.594  11.268  68.217  1.00  0.00    -0.186 NA 
HETATM    6  H2  UNL     1      -9.755  10.686  69.038  1.00  0.00     0.000 HD 
HETATM    7  H1  UNL     1      -8.828  11.929  68.347  1.00  0.00     0.000 HD 
HETATM    8  O   UNL     1      -7.557   8.881  66.348  1.00  0.00    -0.090 OA 
HETATM    9  O   UNL     1      -7.416   9.837  68.384  1.00  0.00    -0.081 OA 
ENDROOT
BRANCH   3  10
HETATM   10  C   UNL     1     -10.152  12.342  65.302  1.00  0.00    -0.295 A  
HETATM   11  C   UNL     1     -11.201  11.913  64.465  1.00  0.00    -0.380 A  
HETATM   12  C   UNL     1     -12.106  12.828  63.910  1.00  0.00    -0.562 A  
HETATM   13  C   UNL     1     -11.966  14.179  64.198  1.00  0.00    -0.393 A  
HETATM   14  O   UNL     1     -12.780  15.128  63.645  1.00  0.00    -0.797 OA 
HETATM   15  C   UNL     1     -10.956  14.610  65.050  1.00  0.00    -0.405 A  
HETATM   16  C   UNL     1     -10.051  13.709  65.596  1.00  0.00    -0.299 A  
HETATM   17  O   UNL     1     -10.822  15.940  65.331  1.00  0.00    -0.364 OA 
HETATM   18  H   UNL     1     -12.684  16.052  63.841  1.00  0.00     0.000 HD 
HETATM   19  H   UNL     1     -10.131  16.235  65.913  1.00  0.00     0.000 HD 
ENDBRANCH   3  10
TORSDOF 1
ENDMDL
MODEL       87
REMARK 921   NORMALIZED FREE ENERGY PREDICTED BY IDOCK:   -4.41 KCAL/MOL
REMARK 922        TOTAL FREE ENERGY PREDICTED BY IDOCK:   -4.76 KCAL/MOL
REMARK 923 INTER-LIGAND FREE ENERGY PREDICTED BY IDOCK:   -4.73 KCAL/MOL
REMARK 924 INTRA-LIGAND FREE ENERGY PREDICTED BY IDOCK:   -0.02 KCAL/MOL
REMARK 927      BINDING AFFINITY PREDICTED BY RF-SCORE:    0.00 PKD
ROOT
HETATM    1  C   UNL     1     -10.899  12.081  64.118  1.00  0.00    -0.405 C  
HETATM    2  C   UNL     1     -10.888  12.932  65.392  1.00  0.00    -0.283 C  
HETATM    3  C   UNL     1     -11.424  12.150  66.625  1.00  0.00    -0.426 C  
HETATM    4  C   UNL     1     -11.883  14.106  65.169  1.00  0.00    -0.372 C  
HETATM    5  N   UNL     1      -9.520  13.449  65.590  1.00  0.00    -0.485 NA 
HETATM    6  H2  UNL     1      -9.169  13.955  64.777  1.00  0.00     0.000 HD 
HETATM    7  H1  UNL     1      -9.513  14.016  66.438  1.00  0.00     0.000 HD 
HETATM    8  O   UNL     1     -13.079  13.973  64.963  1.00  0.00    -0.742 OA 
HETATM    9  O   UNL     1     -11.298  15.328  65.228  1.00  0.00    -0.338 OA 
ENDROOT
BRANCH   3  10
HETATM   10  C   UNL     1     -10.653  10.952  67.152  1.00  0.00    -0.302 A  
HETATM   11  C   UNL     1      -9.984  11.034  68.389  1.00  0.00    -0.194 A  
HETATM   12  C   UNL     1      -9.134  10.008  68.824  1.00  0.00    -0.148 A  
HETATM   13  C   UNL     1      -8.957   8.890  68.020  1.00  0.00    -0.140 A  
HETATM   14  O   UNL     1      -8.100   7.880  68.359  1.00  0.00    -0.120 OA 
HETATM   15  C   UNL     1      -9.639   8.782  66.814  1.00  0.00    -0.206 A  
HETATM   16  C   UNL     1     -10.476   9.799  66.375  1.00  0.00    -0.190 A  
HETATM   17  O   UNL     1      -9.463   7.679  66.026  1.00  0.00    -0.386 OA 
HETATM   18  H   UNL     1      -7.978   7.115  67.809  1.00  0.00     0.000 HD 
HETATM   19  H   UNL     1      -9.929   7.605  65.202  1.00  0.00     0.000 HD 
ENDBRANCH   3  10
TORSDOF 1
ENDMDL
MODEL       88
REMARK 921   NORMALIZED FREE ENERGY PREDICTED BY IDOCK:   -4.40 KCAL/MOL
REMARK 922        TOTAL FREE ENERGY PREDICTED BY IDOCK:   -4.75 KCAL/MOL
REMARK 923 INTER-LIGAND FREE ENERGY PREDICTED BY IDOCK:   -4.70 KCAL/MOL
REMARK 924 INTRA-LIGAND FREE ENERGY PREDICTED BY IDOCK:   -0.05 KCAL/MOL
REMARK 927      BINDING AFFINITY PREDICTED BY RF-SCORE:    0.00 PKD
ROOT
HETATM    1  C   UNL     1     -11.037   5.925  70.568  1.00  0.00    -0.347 C  
HETATM    2  C   UNL     1     -11.424   6.388  71.976  1.00  0.00    -0.305 C  
HETATM    3  C   UNL     1     -10.734   7.725  72.366  1.00  0.00    -0.347 C  
HETATM    4  C   UNL     1     -10.885   5.325  72.974  1.00  0.00    -0.280 C  
HETATM    5  N   UNL     1     -12.897   6.460  72.049  1.00  0.00    -0.413 NA 
HETATM    6  H2  UNL     1     -13.347   5.583  71.786  1.00  0.00     0.000 HD 
HETATM    7  H1  UNL     1     -13.156   6.768  72.987  1.00  0.00     0.000 HD 
HETATM    8  O   UNL     1      -9.706   5.042  73.117  1.00  0.00    -0.146 OA 
HETATM    9  O   UNL     1     -11.858   4.723  73.701  1.00  0.00    -0.060 OA 
ENDROOT
BRANCH   3  10
HETATM   10  C   UNL     1     -11.075   8.999  71.612  1.00  0.00    -0.433 A  
HETATM   11  C   UNL     1     -12.370   9.546  71.704  1.00  0.00    -0.480 A  
HETATM   12  C   UNL     1     -12.762  10.622  70.896  1.00  0.00    -0.498 A  
HETATM   13  C   UNL     1     -11.852  11.160  69.995  1.00  0.00    -0.361 A  
HETATM   14  O   UNL     1     -12.188  12.172  69.141  1.00  0.00    -0.202 OA 
HETATM   15  C   UNL     1     -10.561  10.651  69.921  1.00  0.00    -0.151 A  
HETATM   16  C   UNL     1     -10.170   9.579  70.713  1.00  0.00    -0.363 A  
HETATM   17  O   UNL     1      -9.668  11.183  69.034  1.00  0.00    -0.320 OA 
HETATM   18  H   UNL     1     -11.566  12.540  68.524  1.00  0.00     0.000 HD 
HETATM   19  H   UNL     1      -8.786  10.836  68.983  1.00  0.00     0.000 HD 
ENDBRANCH   3  10
TORSDOF 1
ENDMDL
MODEL       89
REMARK 921   NORMALIZED FREE ENERGY PREDICTED BY IDOCK:   -4.40 KCAL/MOL
REMARK 922        TOTAL FREE ENERGY PREDICTED BY IDOCK:   -4.75 KCAL/MOL
REMARK 923 INTER-LIGAND FREE ENERGY PREDICTED BY IDOCK:   -4.63 KCAL/MOL
REMARK 924 INTRA-LIGAND FREE ENERGY PREDICTED BY IDOCK:   -0.12 KCAL/MOL
REMARK 927      BINDING AFFINITY PREDICTED BY RF-SCORE:    0.00 PKD
ROOT
HETATM    1  C   UNL     1      -7.394  13.266  67.418  1.00  0.00    -0.125 C  
HETATM    2  C   UNL     1      -7.514  11.750  67.234  1.00  0.00    -0.151 C  
HETATM    3  C   UNL     1      -8.988  11.262  67.322  1.00  0.00    -0.149 C  
HETATM    4  C   UNL     1      -6.774  11.082  68.428  1.00  0.00    -0.060 C  
HETATM    5  N   UNL     1      -6.864  11.387  65.959  1.00  0.00    -0.367 NA 
HETATM    6  H2  UNL     1      -5.900  11.715  65.902  1.00  0.00     0.000 HD 
HETATM    7  H1  UNL     1      -6.943  10.377  65.837  1.00  0.00     0.000 HD 
HETATM    8  O   UNL     1      -7.083  11.220  69.601  1.00  0.00    -0.103 OA 
HETATM    9  O   UNL     1      -5.729  10.306  68.049  1.00  0.00    -0.041 OA 
ENDROOT
BRANCH   3  10
HETATM   10  C   UNL     1      -9.990  11.694  66.265  1.00  0.00    -0.247 A  
HETATM   11  C   UNL     1     -11.071  12.525  66.617  1.00  0.00    -0.327 A  
HETATM   12  C   UNL     1     -12.097  12.806  65.706  1.00  0.00    -0.505 A  
HETATM   13  C   UNL     1     -12.041  12.258  64.431  1.00  0.00    -0.399 A  
HETATM   14  O   UNL     1     -13.037  12.447  63.514  1.00  0.00    -0.724 OA 
HETATM   15  C   UNL     1     -10.962  11.464  64.061  1.00  0.00    -0.355 A  
HETATM   16  C   UNL     1      -9.946  11.176  64.963  1.00  0.00    -0.325 A  
HETATM   17  O   UNL     1     -10.908  10.927  62.806  1.00  0.00    -0.750 OA 
HETATM   18  H   UNL     1     -12.998  12.071  62.642  1.00  0.00     0.000 HD 
HETATM   19  H   UNL     1     -10.171  10.384  62.552  1.00  0.00     0.000 HD 
ENDBRANCH   3  10
TORSDOF 1
ENDMDL
MODEL       90
REMARK 921   NORMALIZED FREE ENERGY PREDICTED BY IDOCK:   -4.40 KCAL/MOL
REMARK 922        TOTAL FREE ENERGY PREDICTED BY IDOCK:   -4.75 KCAL/MOL
REMARK 923 INTER-LIGAND FREE ENERGY PREDICTED BY IDOCK:   -4.58 KCAL/MOL
REMARK 924 INTRA-LIGAND FREE ENERGY PREDICTED BY IDOCK:   -0.17 KCAL/MOL
REMARK 927      BINDING AFFINITY PREDICTED BY RF-SCORE:    0.00 PKD
ROOT
HETATM    1  C   UNL     1     -11.467  13.271  68.043  1.00  0.00    -0.344 C  
HETATM    2  C   UNL     1     -10.982  12.769  66.680  1.00  0.00    -0.270 C  
HETATM    3  C   UNL     1      -9.880  11.681  66.811  1.00  0.00    -0.222 C  
HETATM    4  C   UNL     1     -10.307  13.972  65.961  1.00  0.00    -0.306 C  
HETATM    5  N   UNL     1     -12.157  12.308  65.913  1.00  0.00    -0.620 NA 
HETATM    6  H2  UNL     1     -12.880  13.021  65.835  1.00  0.00     0.000 HD 
HETATM    7  H1  UNL     1     -11.834  11.974  65.005  1.00  0.00     0.000 HD 
HETATM    8  O   UNL     1      -9.324  14.567  66.376  1.00  0.00    -0.282 OA 
HETATM    9  O   UNL     1     -10.913  14.316  64.798  1.00  0.00    -0.378 OA 
ENDROOT
BRANCH   3  10
HETATM   10  C   UNL     1     -10.217  10.337  67.434  1.00  0.00    -0.265 A  
HETATM   11  C   UNL     1     -10.244  10.198  68.835  1.00  0.00    -0.213 A  
HETATM   12  C   UNL     1     -10.390   8.941  69.437  1.00  0.00    -0.217 A  
HETATM   13  C   UNL     1     -10.515   7.815  68.633  1.00  0.00    -0.172 A  
HETATM   14  O   UNL     1     -10.604   6.556  69.156  1.00  0.00    -0.200 OA 
HETATM   15  C   UNL     1     -10.524   7.945  67.249  1.00  0.00    -0.320 A  
HETATM   16  C   UNL     1     -10.372   9.187  66.648  1.00  0.00    -0.289 A  
HETATM   17  O   UNL     1     -10.649   6.835  66.461  1.00  0.00    -0.484 OA 
HETATM   18  H   UNL     1     -10.690   5.785  68.605  1.00  0.00     0.000 HD 
HETATM   19  H   UNL     1     -10.655   6.923  65.515  1.00  0.00     0.000 HD 
ENDBRANCH   3  10
TORSDOF 1
ENDMDL
MODEL       91
REMARK 921   NORMALIZED FREE ENERGY PREDICTED BY IDOCK:   -4.36 KCAL/MOL
REMARK 922        TOTAL FREE ENERGY PREDICTED BY IDOCK:   -4.71 KCAL/MOL
REMARK 923 INTER-LIGAND FREE ENERGY PREDICTED BY IDOCK:   -4.94 KCAL/MOL
REMARK 924 INTRA-LIGAND FREE ENERGY PREDICTED BY IDOCK:    0.24 KCAL/MOL
REMARK 927      BINDING AFFINITY PREDICTED BY RF-SCORE:    0.00 PKD
ROOT
HETATM    1  C   UNL     1      -8.298  16.532  66.430  1.00  0.00    -0.358 C  
HETATM    2  C   UNL     1      -9.796  16.469  66.742  1.00  0.00    -0.266 C  
HETATM    3  C   UNL     1     -10.579  15.621  65.700  1.00  0.00    -0.393 C  
HETATM    4  C   UNL     1     -10.352  17.916  66.617  1.00  0.00    -0.361 C  
HETATM    5  N   UNL     1      -9.960  15.975  68.124  1.00  0.00    -0.225 NA 
HETATM    6  H2  UNL     1      -9.439  16.528  68.804  1.00  0.00     0.000 HD 
HETATM    7  H1  UNL     1     -10.957  15.933  68.332  1.00  0.00     0.000 HD 
HETATM    8  O   UNL     1     -10.335  18.580  65.592  1.00  0.00    -0.594 OA 
HETATM    9  O   UNL     1     -10.880  18.394  67.771  1.00  0.00    -0.384 OA 
ENDROOT
BRANCH   3  10
HETATM   10  C   UNL     1     -10.314  14.130  65.588  1.00  0.00    -0.348 A  
HETATM   11  C   UNL     1     -10.580  13.457  64.380  1.00  0.00    -0.423 A  
HETATM   12  C   UNL     1     -10.501  12.060  64.295  1.00  0.00    -0.369 A  
HETATM   13  C   UNL     1     -10.147  11.332  65.423  1.00  0.00    -0.264 A  
HETATM   14  O   UNL     1     -10.106   9.965  65.422  1.00  0.00    -0.313 OA 
HETATM   15  C   UNL     1      -9.848  11.988  66.611  1.00  0.00    -0.204 A  
HETATM   16  C   UNL     1      -9.933  13.371  66.703  1.00  0.00    -0.277 A  
HETATM   17  O   UNL     1      -9.499  11.268  67.719  1.00  0.00    -0.164 OA 
HETATM   18  H   UNL     1      -9.864   9.467  66.194  1.00  0.00     0.000 HD 
HETATM   19  H   UNL     1      -9.295  11.716  68.531  1.00  0.00     0.000 HD 
ENDBRANCH   3  10
TORSDOF 1
ENDMDL
MODEL       92
REMARK 921   NORMALIZED FREE ENERGY PREDICTED BY IDOCK:   -4.31 KCAL/MOL
REMARK 922        TOTAL FREE ENERGY PREDICTED BY IDOCK:   -4.65 KCAL/MOL
REMARK 923 INTER-LIGAND FREE ENERGY PREDICTED BY IDOCK:   -5.04 KCAL/MOL
REMARK 924 INTRA-LIGAND FREE ENERGY PREDICTED BY IDOCK:    0.39 KCAL/MOL
REMARK 927      BINDING AFFINITY PREDICTED BY RF-SCORE:    0.00 PKD
ROOT
HETATM    1  C   UNL     1      -9.670  13.391  66.600  1.00  0.00    -0.275 C  
HETATM    2  C   UNL     1     -10.679  12.297  66.239  1.00  0.00    -0.259 C  
HETATM    3  C   UNL     1     -10.973  11.350  67.437  1.00  0.00    -0.326 C  
HETATM    4  C   UNL     1     -10.021  11.407  65.147  1.00  0.00    -0.264 C  
HETATM    5  N   UNL     1     -11.894  12.946  65.708  1.00  0.00    -0.396 NA 
HETATM    6  H2  UNL     1     -11.696  13.571  64.927  1.00  0.00     0.000 HD 
HETATM    7  H1  UNL     1     -12.566  12.217  65.468  1.00  0.00     0.000 HD 
HETATM    8  O   UNL     1      -8.994  10.763  65.301  1.00  0.00    -0.187 OA 
HETATM    9  O   UNL     1     -10.702  11.397  63.975  1.00  0.00    -0.341 OA 
ENDROOT
BRANCH   3  10
HETATM   10  C   UNL     1     -11.668  11.893  68.675  1.00  0.00    -0.380 A  
HETATM   11  C   UNL     1     -11.855  13.281  68.825  1.00  0.00    -0.371 A  
HETATM   12  C   UNL     1     -12.342  13.821  70.023  1.00  0.00    -0.364 A  
HETATM   13  C   UNL     1     -12.651  12.969  71.075  1.00  0.00    -0.299 A  
HETATM   14  O   UNL     1     -13.077  13.436  72.287  1.00  0.00    -0.396 OA 
HETATM   15  C   UNL     1     -12.503  11.595  70.925  1.00  0.00    -0.341 A  
HETATM   16  C   UNL     1     -12.013  11.054  69.744  1.00  0.00    -0.428 A  
HETATM   17  O   UNL     1     -12.809  10.759  71.962  1.00  0.00    -0.411 OA 
HETATM   18  H   UNL     1     -13.288  12.852  73.007  1.00  0.00     0.000 HD 
HETATM   19  H   UNL     1     -12.708   9.820  71.861  1.00  0.00     0.000 HD 
ENDBRANCH   3  10
TORSDOF 1
ENDMDL
MODEL       93
REMARK 921   NORMALIZED FREE ENERGY PREDICTED BY IDOCK:   -4.31 KCAL/MOL
REMARK 922        TOTAL FREE ENERGY PREDICTED BY IDOCK:   -4.65 KCAL/MOL
REMARK 923 INTER-LIGAND FREE ENERGY PREDICTED BY IDOCK:   -4.52 KCAL/MOL
REMARK 924 INTRA-LIGAND FREE ENERGY PREDICTED BY IDOCK:   -0.12 KCAL/MOL
REMARK 927      BINDING AFFINITY PREDICTED BY RF-SCORE:    0.00 PKD
ROOT
HETATM    1  C   UNL     1     -10.632  11.245  66.976  1.00  0.00    -0.287 C  
HETATM    2  C   UNL     1      -9.771  12.034  65.985  1.00  0.00    -0.239 C  
HETATM    3  C   UNL     1     -10.386  13.421  65.645  1.00  0.00    -0.295 C  
HETATM    4  C   UNL     1      -9.761  11.236  64.650  1.00  0.00    -0.253 C  
HETATM    5  N   UNL     1      -8.405  12.131  66.535  1.00  0.00    -0.388 NA 
HETATM    6  H2  UNL     1      -8.007  11.220  66.763  1.00  0.00     0.000 HD 
HETATM    7  H1  UNL     1      -7.831  12.656  65.874  1.00  0.00     0.000 HD 
HETATM    8  O   UNL     1     -10.752  10.987  63.981  1.00  0.00    -0.379 OA 
HETATM    9  O   UNL     1      -8.523  10.832  64.272  1.00  0.00    -0.114 OA 
ENDROOT
BRANCH   3  10
HETATM   10  C   UNL     1     -10.503  14.480  66.728  1.00  0.00    -0.270 A  
HETATM   11  C   UNL     1      -9.469  15.419  66.909  1.00  0.00    -0.246 A  
HETATM   12  C   UNL     1      -9.472  16.301  67.998  1.00  0.00    -0.223 A  
HETATM   13  C   UNL     1     -10.519  16.248  68.909  1.00  0.00    -0.273 A  
HETATM   14  O   UNL     1     -10.553  17.041  70.022  1.00  0.00    -0.200 OA 
HETATM   15  C   UNL     1     -11.562  15.350  68.722  1.00  0.00    -0.368 A  
HETATM   16  C   UNL     1     -11.560  14.468  67.649  1.00  0.00    -0.402 A  
HETATM   17  O   UNL     1     -12.591  15.302  69.620  1.00  0.00    -0.587 OA 
HETATM   18  H   UNL     1     -11.269  17.005  70.646  1.00  0.00     0.000 HD 
HETATM   19  H   UNL     1     -13.305  14.688  69.492  1.00  0.00     0.000 HD 
ENDBRANCH   3  10
TORSDOF 1
ENDMDL
MODEL       94
REMARK 921   NORMALIZED FREE ENERGY PREDICTED BY IDOCK:   -4.30 KCAL/MOL
REMARK 922        TOTAL FREE ENERGY PREDICTED BY IDOCK:   -4.64 KCAL/MOL
REMARK 923 INTER-LIGAND FREE ENERGY PREDICTED BY IDOCK:   -4.57 KCAL/MOL
REMARK 924 INTRA-LIGAND FREE ENERGY PREDICTED BY IDOCK:   -0.07 KCAL/MOL
REMARK 927      BINDING AFFINITY PREDICTED BY RF-SCORE:    0.00 PKD
ROOT
HETATM    1  C   UNL     1      -7.703  10.880  62.823  1.00  0.00     0.045 C  
HETATM    2  C   UNL     1      -8.652   9.849  63.440  1.00  0.00    -0.205 C  
HETATM    3  C   UNL     1      -9.330  10.376  64.736  1.00  0.00    -0.301 C  
HETATM    4  C   UNL     1      -7.787   8.633  63.879  1.00  0.00    -0.147 C  
HETATM    5  N   UNL     1      -9.625   9.440  62.408  1.00  0.00    -0.516 NA 
HETATM    6  H2  UNL     1      -9.176   9.101  61.557  1.00  0.00     0.000 HD 
HETATM    7  H1  UNL     1     -10.257   8.752  62.819  1.00  0.00     0.000 HD 
HETATM    8  O   UNL     1      -6.891   8.681  64.708  1.00  0.00    -0.072 OA 
HETATM    9  O   UNL     1      -8.121   7.478  63.252  1.00  0.00    -0.116 OA 
ENDROOT
BRANCH   3  10
HETATM   10  C   UNL     1     -10.295  11.546  64.660  1.00  0.00    -0.349 A  
HETATM   11  C   UNL     1     -11.549  11.386  64.039  1.00  0.00    -0.135 A  
HETATM   12  C   UNL     1     -12.390  12.483  63.809  1.00  0.00    -0.595 A  
HETATM   13  C   UNL     1     -11.979  13.748  64.208  1.00  0.00    -0.443 A  
HETATM   14  O   UNL     1     -12.726  14.866  63.963  1.00  0.00    -0.792 OA 
HETATM   15  C   UNL     1     -10.759  13.913  64.854  1.00  0.00    -0.410 A  
HETATM   16  C   UNL     1      -9.918  12.831  65.077  1.00  0.00    -0.171 A  
HETATM   17  O   UNL     1     -10.358  15.159  65.246  1.00  0.00    -0.360 OA 
HETATM   18  H   UNL     1     -12.445  15.731  64.237  1.00  0.00     0.000 HD 
HETATM   19  H   UNL     1      -9.525  15.272  65.688  1.00  0.00     0.000 HD 
ENDBRANCH   3  10
TORSDOF 1
ENDMDL
MODEL       95
REMARK 921   NORMALIZED FREE ENERGY PREDICTED BY IDOCK:   -4.29 KCAL/MOL
REMARK 922        TOTAL FREE ENERGY PREDICTED BY IDOCK:   -4.63 KCAL/MOL
REMARK 923 INTER-LIGAND FREE ENERGY PREDICTED BY IDOCK:   -4.57 KCAL/MOL
REMARK 924 INTRA-LIGAND FREE ENERGY PREDICTED BY IDOCK:   -0.06 KCAL/MOL
REMARK 927      BINDING AFFINITY PREDICTED BY RF-SCORE:    0.00 PKD
ROOT
HETATM    1  C   UNL     1     -12.060  14.002  69.995  1.00  0.00    -0.412 C  
HETATM    2  C   UNL     1     -11.324  14.392  68.709  1.00  0.00    -0.273 C  
HETATM    3  C   UNL     1     -10.159  13.416  68.379  1.00  0.00    -0.244 C  
HETATM    4  C   UNL     1     -10.659  15.775  68.962  1.00  0.00    -0.232 C  
HETATM    5  N   UNL     1     -12.316  14.490  67.621  1.00  0.00    -0.585 NA 
HETATM    6  H2  UNL     1     -13.082  15.126  67.844  1.00  0.00     0.000 HD 
HETATM    7  H1  UNL     1     -11.827  14.751  66.765  1.00  0.00     0.000 HD 
HETATM    8  O   UNL     1      -9.813  15.994  69.814  1.00  0.00    -0.246 OA 
HETATM    9  O   UNL     1     -11.105  16.748  68.130  1.00  0.00    -0.363 OA 
ENDROOT
BRANCH   3  10
HETATM   10  C   UNL     1     -10.463  11.969  68.031  1.00  0.00    -0.224 A  
HETATM   11  C   UNL     1     -10.946  11.092  69.022  1.00  0.00    -0.286 A  
HETATM   12  C   UNL     1     -11.080   9.719  68.773  1.00  0.00    -0.140 A  
HETATM   13  C   UNL     1     -10.736   9.220  67.524  1.00  0.00    -0.203 A  
HETATM   14  O   UNL     1     -10.790   7.885  67.235  1.00  0.00    -0.491 OA 
HETATM   15  C   UNL     1     -10.292  10.081  66.527  1.00  0.00    -0.198 A  
HETATM   16  C   UNL     1     -10.149  11.441  66.770  1.00  0.00    -0.250 A  
HETATM   17  O   UNL     1      -9.955   9.587  65.299  1.00  0.00    -0.427 OA 
HETATM   18  H   UNL     1     -10.554   7.544  66.380  1.00  0.00     0.000 HD 
HETATM   19  H   UNL     1      -9.651  10.175  64.617  1.00  0.00     0.000 HD 
ENDBRANCH   3  10
TORSDOF 1
ENDMDL
MODEL       96
REMARK 921   NORMALIZED FREE ENERGY PREDICTED BY IDOCK:   -4.29 KCAL/MOL
REMARK 922        TOTAL FREE ENERGY PREDICTED BY IDOCK:   -4.63 KCAL/MOL
REMARK 923 INTER-LIGAND FREE ENERGY PREDICTED BY IDOCK:   -4.53 KCAL/MOL
REMARK 924 INTRA-LIGAND FREE ENERGY PREDICTED BY IDOCK:   -0.10 KCAL/MOL
REMARK 927      BINDING AFFINITY PREDICTED BY RF-SCORE:    0.00 PKD
ROOT
HETATM    1  C   UNL     1      -9.533   4.827  70.199  1.00  0.00    -0.246 C  
HETATM    2  C   UNL     1      -8.989   6.151  69.654  1.00  0.00    -0.134 C  
HETATM    3  C   UNL     1     -10.123   7.092  69.156  1.00  0.00    -0.183 C  
HETATM    4  C   UNL     1      -8.135   5.815  68.399  1.00  0.00    -0.108 C  
HETATM    5  N   UNL     1      -8.147   6.769  70.697  1.00  0.00    -0.117 NA 
HETATM    6  H2  UNL     1      -7.410   6.147  71.027  1.00  0.00     0.000 HD 
HETATM    7  H1  UNL     1      -7.785   7.651  70.334  1.00  0.00     0.000 HD 
HETATM    8  O   UNL     1      -8.565   5.283  67.388  1.00  0.00    -0.106 OA 
HETATM    9  O   UNL     1      -6.833   6.177  68.519  1.00  0.00    -0.068 OA 
ENDROOT
BRANCH   3  10
HETATM   10  C   UNL     1     -11.126   7.656  70.147  1.00  0.00    -0.229 A  
HETATM   11  C   UNL     1     -10.951   8.954  70.664  1.00  0.00    -0.287 A  
HETATM   12  C   UNL     1     -11.763   9.439  71.698  1.00  0.00    -0.468 A  
HETATM   13  C   UNL     1     -12.761   8.624  72.215  1.00  0.00    -0.391 A  
HETATM   14  O   UNL     1     -13.550   9.015  73.260  1.00  0.00    -0.992 OA 
HETATM   15  C   UNL     1     -12.966   7.354  71.689  1.00  0.00    -0.366 A  
HETATM   16  C   UNL     1     -12.159   6.865  70.670  1.00  0.00    -0.363 A  
HETATM   17  O   UNL     1     -13.950   6.554  72.199  1.00  0.00    -0.472 OA 
HETATM   18  H   UNL     1     -14.233   8.456  73.614  1.00  0.00     0.000 HD 
HETATM   19  H   UNL     1     -14.090   5.686  71.840  1.00  0.00     0.000 HD 
ENDBRANCH   3  10
TORSDOF 1
ENDMDL
MODEL       97
REMARK 921   NORMALIZED FREE ENERGY PREDICTED BY IDOCK:   -4.20 KCAL/MOL
REMARK 922        TOTAL FREE ENERGY PREDICTED BY IDOCK:   -4.54 KCAL/MOL
REMARK 923 INTER-LIGAND FREE ENERGY PREDICTED BY IDOCK:   -4.84 KCAL/MOL
REMARK 924 INTRA-LIGAND FREE ENERGY PREDICTED BY IDOCK:    0.30 KCAL/MOL
REMARK 927      BINDING AFFINITY PREDICTED BY RF-SCORE:    0.00 PKD
ROOT
HETATM    1  C   UNL     1      -9.753  11.425  68.254  1.00  0.00    -0.202 C  
HETATM    2  C   UNL     1     -10.929  10.932  67.405  1.00  0.00    -0.293 C  
HETATM    3  C   UNL     1     -10.655   9.537  66.775  1.00  0.00    -0.208 C  
HETATM    4  C   UNL     1     -11.077  11.916  66.210  1.00  0.00    -0.314 C  
HETATM    5  N   UNL     1     -12.145  10.955  68.242  1.00  0.00    -0.810 NA 
HETATM    6  H2  UNL     1     -12.318  11.869  68.659  1.00  0.00     0.000 HD 
HETATM    7  H1  UNL     1     -12.928  10.627  67.676  1.00  0.00     0.000 HD 
HETATM    8  O   UNL     1     -10.220  12.115  65.363  1.00  0.00    -0.258 OA 
HETATM    9  O   UNL     1     -12.275  12.551  66.178  1.00  0.00    -0.609 OA 
ENDROOT
BRANCH   3  10
HETATM   10  C   UNL     1     -10.503   8.321  67.671  1.00  0.00    -0.303 A  
HETATM   11  C   UNL     1     -10.862   7.045  67.193  1.00  0.00    -0.427 A  
HETATM   12  C   UNL     1     -10.888   5.932  68.045  1.00  0.00    -0.321 A  
HETATM   13  C   UNL     1     -10.548   6.094  69.381  1.00  0.00    -0.286 A  
HETATM   14  O   UNL     1     -10.607   5.062  70.276  1.00  0.00    -0.229 OA 
HETATM   15  C   UNL     1     -10.159   7.341  69.856  1.00  0.00    -0.194 A  
HETATM   16  C   UNL     1     -10.139   8.448  69.019  1.00  0.00    -0.209 A  
HETATM   17  O   UNL     1      -9.824   7.496  71.172  1.00  0.00    -0.174 OA 
HETATM   18  H   UNL     1     -10.375   5.172  71.190  1.00  0.00     0.000 HD 
HETATM   19  H   UNL     1      -9.558   8.348  71.497  1.00  0.00     0.000 HD 
ENDBRANCH   3  10
TORSDOF 1
ENDMDL
MODEL       98
REMARK 921   NORMALIZED FREE ENERGY PREDICTED BY IDOCK:   -4.20 KCAL/MOL
REMARK 922        TOTAL FREE ENERGY PREDICTED BY IDOCK:   -4.53 KCAL/MOL
REMARK 923 INTER-LIGAND FREE ENERGY PREDICTED BY IDOCK:   -4.42 KCAL/MOL
REMARK 924 INTRA-LIGAND FREE ENERGY PREDICTED BY IDOCK:   -0.11 KCAL/MOL
REMARK 927      BINDING AFFINITY PREDICTED BY RF-SCORE:    0.00 PKD
ROOT
HETATM    1  C   UNL     1     -11.567  12.041  65.082  1.00  0.00    -0.330 C  
HETATM    2  C   UNL     1     -11.284  13.519  65.365  1.00  0.00    -0.289 C  
HETATM    3  C   UNL     1     -11.111  13.804  66.884  1.00  0.00    -0.311 C  
HETATM    4  C   UNL     1     -12.541  14.321  64.923  1.00  0.00    -0.324 C  
HETATM    5  N   UNL     1     -10.110  13.925  64.567  1.00  0.00    -0.718 NA 
HETATM    6  H2  UNL     1     -10.224  13.730  63.573  1.00  0.00     0.000 HD 
HETATM    7  H1  UNL     1      -9.921  14.910  64.755  1.00  0.00     0.000 HD 
HETATM    8  O   UNL     1     -13.657  14.182  65.400  1.00  0.00    -0.568 OA 
HETATM    9  O   UNL     1     -12.290  15.220  63.940  1.00  0.00    -0.655 OA 
ENDROOT
BRANCH   3  10
HETATM   10  C   UNL     1      -9.935  13.205  67.635  1.00  0.00    -0.219 A  
HETATM   11  C   UNL     1      -8.651  13.767  67.495  1.00  0.00    -0.194 A  
HETATM   12  C   UNL     1      -7.522  13.142  68.043  1.00  0.00    -0.132 A  
HETATM   13  C   UNL     1      -7.678  11.951  68.740  1.00  0.00    -0.074 A  
HETATM   14  O   UNL     1      -6.613  11.263  69.250  1.00  0.00    -0.078 OA 
HETATM   15  C   UNL     1      -8.944  11.406  68.914  1.00  0.00    -0.006 A  
HETATM   16  C   UNL     1     -10.065  12.017  68.367  1.00  0.00    -0.211 A  
HETATM   17  O   UNL     1      -9.094  10.235  69.602  1.00  0.00    -0.312 OA 
HETATM   18  H   UNL     1      -6.719  10.449  69.727  1.00  0.00     0.000 HD 
HETATM   19  H   UNL     1      -9.960   9.862  69.721  1.00  0.00     0.000 HD 
ENDBRANCH   3  10
TORSDOF 1
ENDMDL
MODEL       99
REMARK 921   NORMALIZED FREE ENERGY PREDICTED BY IDOCK:   -4.18 KCAL/MOL
REMARK 922        TOTAL FREE ENERGY PREDICTED BY IDOCK:   -4.52 KCAL/MOL
REMARK 923 INTER-LIGAND FREE ENERGY PREDICTED BY IDOCK:   -4.55 KCAL/MOL
REMARK 924 INTRA-LIGAND FREE ENERGY PREDICTED BY IDOCK:    0.03 KCAL/MOL
REMARK 927      BINDING AFFINITY PREDICTED BY RF-SCORE:    0.00 PKD
ROOT
HETATM    1  C   UNL     1      -9.401  11.244  64.873  1.00  0.00    -0.181 C  
HETATM    2  C   UNL     1     -10.180  12.332  65.619  1.00  0.00    -0.261 C  
HETATM    3  C   UNL     1     -11.360  11.748  66.445  1.00  0.00    -0.361 C  
HETATM    4  C   UNL     1     -10.828  13.251  64.544  1.00  0.00    -0.394 C  
HETATM    5  N   UNL     1      -9.227  13.100  66.443  1.00  0.00    -0.430 NA 
HETATM    6  H2  UNL     1      -8.450  13.475  65.899  1.00  0.00     0.000 HD 
HETATM    7  H1  UNL     1      -9.745  13.825  66.939  1.00  0.00     0.000 HD 
HETATM    8  O   UNL     1     -11.643  12.880  63.713  1.00  0.00    -0.417 OA 
HETATM    9  O   UNL     1     -10.408  14.538  64.610  1.00  0.00    -0.370 OA 
ENDROOT
BRANCH   3  10
HETATM   10  C   UNL     1     -11.076  10.832  67.623  1.00  0.00    -0.384 A  
HETATM   11  C   UNL     1     -11.441  11.226  68.925  1.00  0.00    -0.363 A  
HETATM   12  C   UNL     1     -11.049  10.481  70.046  1.00  0.00    -0.376 A  
HETATM   13  C   UNL     1     -10.292   9.332  69.864  1.00  0.00    -0.220 A  
HETATM   14  O   UNL     1      -9.829   8.592  70.916  1.00  0.00    -0.182 OA 
HETATM   15  C   UNL     1      -9.955   8.914  68.581  1.00  0.00    -0.177 A  
HETATM   16  C   UNL     1     -10.334   9.652  67.468  1.00  0.00    -0.297 A  
HETATM   17  O   UNL     1      -9.211   7.782  68.406  1.00  0.00    -0.138 OA 
HETATM   18  H   UNL     1      -9.311   7.806  70.792  1.00  0.00     0.000 HD 
HETATM   19  H   UNL     1      -8.980   7.496  67.530  1.00  0.00     0.000 HD 
ENDBRANCH   3  10
TORSDOF 1
ENDMDL
MODEL      100
REMARK 921   NORMALIZED FREE ENERGY PREDICTED BY IDOCK:   -4.16 KCAL/MOL
REMARK 922        TOTAL FREE ENERGY PREDICTED BY IDOCK:   -4.49 KCAL/MOL
REMARK 923 INTER-LIGAND FREE ENERGY PREDICTED BY IDOCK:   -4.47 KCAL/MOL
REMARK 924 INTRA-LIGAND FREE ENERGY PREDICTED BY IDOCK:   -0.02 KCAL/MOL
REMARK 927      BINDING AFFINITY PREDICTED BY RF-SCORE:    0.00 PKD
ROOT
HETATM    1  C   UNL     1      -9.451   9.299  67.845  1.00  0.00    -0.154 C  
HETATM    2  C   UNL     1      -9.197  10.325  68.953  1.00  0.00    -0.175 C  
HETATM    3  C   UNL     1      -8.834  11.727  68.386  1.00  0.00    -0.161 C  
HETATM    4  C   UNL     1      -7.944   9.849  69.742  1.00  0.00    -0.174 C  
HETATM    5  N   UNL     1     -10.379  10.353  69.837  1.00  0.00    -0.398 NA 
HETATM    6  H2  UNL     1     -10.619   9.431  70.202  1.00  0.00     0.000 HD 
HETATM    7  H1  UNL     1     -10.210  11.036  70.576  1.00  0.00     0.000 HD 
HETATM    8  O   UNL     1      -6.830   9.716  69.260  1.00  0.00    -0.048 OA 
HETATM    9  O   UNL     1      -8.194   9.592  71.049  1.00  0.00    -0.301 OA 
ENDROOT
BRANCH   3  10
HETATM   10  C   UNL     1      -9.865  12.509  67.591  1.00  0.00    -0.202 A  
HETATM   11  C   UNL     1     -11.069  12.910  68.203  1.00  0.00    -0.282 A  
HETATM   12  C   UNL     1     -12.105  13.488  67.457  1.00  0.00    -0.340 A  
HETATM   13  C   UNL     1     -11.935  13.672  66.091  1.00  0.00    -0.416 A  
HETATM   14  O   UNL     1     -12.926  14.178  65.297  1.00  0.00    -0.725 OA 
HETATM   15  C   UNL     1     -10.738  13.313  65.483  1.00  0.00    -0.289 A  
HETATM   16  C   UNL     1      -9.711  12.732  66.216  1.00  0.00    -0.262 A  
HETATM   17  O   UNL     1     -10.574  13.496  64.139  1.00  0.00    -0.546 OA 
HETATM   18  H   UNL     1     -12.810  14.304  64.363  1.00  0.00     0.000 HD 
HETATM   19  H   UNL     1      -9.756  13.251  63.723  1.00  0.00     0.000 HD 
ENDBRANCH   3  10
TORSDOF 1
ENDMDL
MODEL      101
REMARK 921   NORMALIZED FREE ENERGY PREDICTED BY IDOCK:   -4.15 KCAL/MOL
REMARK 922        TOTAL FREE ENERGY PREDICTED BY IDOCK:   -4.48 KCAL/MOL
REMARK 923 INTER-LIGAND FREE ENERGY PREDICTED BY IDOCK:   -4.42 KCAL/MOL
REMARK 924 INTRA-LIGAND FREE ENERGY PREDICTED BY IDOCK:   -0.06 KCAL/MOL
REMARK 927      BINDING AFFINITY PREDICTED BY RF-SCORE:    0.00 PKD
ROOT
HETATM    1  C   UNL     1      -7.589   9.938  66.226  1.00  0.00    -0.102 C  
HETATM    2  C   UNL     1      -8.860   9.202  65.790  1.00  0.00    -0.175 C  
HETATM    3  C   UNL     1     -10.149   9.900  66.307  1.00  0.00    -0.311 C  
HETATM    4  C   UNL     1      -8.835   7.802  66.467  1.00  0.00    -0.153 C  
HETATM    5  N   UNL     1      -8.832   9.062  64.321  1.00  0.00    -0.409 NA 
HETATM    6  H2  UNL     1      -7.982   8.611  63.985  1.00  0.00     0.000 HD 
HETATM    7  H1  UNL     1      -9.678   8.572  64.031  1.00  0.00     0.000 HD 
HETATM    8  O   UNL     1      -8.834   7.613  67.673  1.00  0.00    -0.125 OA 
HETATM    9  O   UNL     1      -8.819   6.775  65.582  1.00  0.00    -0.125 OA 
ENDROOT
BRANCH   3  10
HETATM   10  C   UNL     1     -10.512  11.286  65.802  1.00  0.00    -0.310 A  
HETATM   11  C   UNL     1     -10.884  11.469  64.456  1.00  0.00    -0.390 A  
HETATM   12  C   UNL     1     -11.065  12.752  63.922  1.00  0.00    -0.477 A  
HETATM   13  C   UNL     1     -10.878  13.859  64.739  1.00  0.00    -0.419 A  
HETATM   14  O   UNL     1     -10.984  15.137  64.266  1.00  0.00    -0.632 OA 
HETATM   15  C   UNL     1     -10.544  13.689  66.077  1.00  0.00    -0.290 A  
HETATM   16  C   UNL     1     -10.356  12.421  66.610  1.00  0.00    -0.245 A  
HETATM   17  O   UNL     1     -10.362  14.781  66.879  1.00  0.00    -0.262 OA 
HETATM   18  H   UNL     1     -10.856  15.895  64.825  1.00  0.00     0.000 HD 
HETATM   19  H   UNL     1     -10.134  14.665  67.794  1.00  0.00     0.000 HD 
ENDBRANCH   3  10
TORSDOF 1
ENDMDL
MODEL      102
REMARK 921   NORMALIZED FREE ENERGY PREDICTED BY IDOCK:   -4.11 KCAL/MOL
REMARK 922        TOTAL FREE ENERGY PREDICTED BY IDOCK:   -4.44 KCAL/MOL
REMARK 923 INTER-LIGAND FREE ENERGY PREDICTED BY IDOCK:   -4.49 KCAL/MOL
REMARK 924 INTRA-LIGAND FREE ENERGY PREDICTED BY IDOCK:    0.05 KCAL/MOL
REMARK 927      BINDING AFFINITY PREDICTED BY RF-SCORE:    0.00 PKD
ROOT
HETATM    1  C   UNL     1     -10.588   8.673  68.588  1.00  0.00    -0.165 C  
HETATM    2  C   UNL     1     -10.811   9.493  69.862  1.00  0.00    -0.246 C  
HETATM    3  C   UNL     1     -10.332  10.964  69.706  1.00  0.00     0.011 C  
HETATM    4  C   UNL     1      -9.918   8.871  70.973  1.00  0.00    -0.256 C  
HETATM    5  N   UNL     1     -12.237   9.390  70.234  1.00  0.00    -0.453 NA 
HETATM    6  H2  UNL     1     -12.549   8.425  70.328  1.00  0.00     0.000 HD 
HETATM    7  H1  UNL     1     -12.386   9.937  71.082  1.00  0.00     0.000 HD 
HETATM    8  O   UNL     1      -8.699   8.803  70.927  1.00  0.00    -0.157 OA 
HETATM    9  O   UNL     1     -10.621   8.401  72.032  1.00  0.00    -0.265 OA 
ENDROOT
BRANCH   3  10
HETATM   10  C   UNL     1     -11.032  11.886  68.723  1.00  0.00    -0.280 A  
HETATM   11  C   UNL     1     -11.114  11.532  67.362  1.00  0.00    -0.339 A  
HETATM   12  C   UNL     1     -11.607  12.432  66.407  1.00  0.00    -0.442 A  
HETATM   13  C   UNL     1     -12.027  13.691  66.816  1.00  0.00    -0.414 A  
HETATM   14  O   UNL     1     -12.465  14.634  65.928  1.00  0.00    -0.225 OA 
HETATM   15  C   UNL     1     -11.983  14.038  68.161  1.00  0.00    -0.347 A  
HETATM   16  C   UNL     1     -11.488  13.154  69.110  1.00  0.00    -0.358 A  
HETATM   17  O   UNL     1     -12.398  15.278  68.559  1.00  0.00    -0.557 OA 
HETATM   18  H   UNL     1     -12.752  15.495  66.208  1.00  0.00     0.000 HD 
HETATM   19  H   UNL     1     -12.368  15.516  69.478  1.00  0.00     0.000 HD 
ENDBRANCH   3  10
TORSDOF 1
ENDMDL
MODEL      103
REMARK 921   NORMALIZED FREE ENERGY PREDICTED BY IDOCK:   -4.07 KCAL/MOL
REMARK 922        TOTAL FREE ENERGY PREDICTED BY IDOCK:   -4.40 KCAL/MOL
REMARK 923 INTER-LIGAND FREE ENERGY PREDICTED BY IDOCK:   -4.19 KCAL/MOL
REMARK 924 INTRA-LIGAND FREE ENERGY PREDICTED BY IDOCK:   -0.21 KCAL/MOL
REMARK 927      BINDING AFFINITY PREDICTED BY RF-SCORE:    0.00 PKD
ROOT
HETATM    1  C   UNL     1      -9.994   9.232  70.380  1.00  0.00    -0.287 C  
HETATM    2  C   UNL     1      -9.836   8.708  68.949  1.00  0.00    -0.179 C  
HETATM    3  C   UNL     1     -10.910   9.289  67.988  1.00  0.00    -0.166 C  
HETATM    4  C   UNL     1     -10.089   7.174  68.991  1.00  0.00    -0.183 C  
HETATM    5  N   UNL     1      -8.456   8.987  68.505  1.00  0.00    -0.127 NA 
HETATM    6  H2  UNL     1      -7.754   8.611  69.142  1.00  0.00     0.000 HD 
HETATM    7  H1  UNL     1      -8.350   8.638  67.552  1.00  0.00     0.000 HD 
HETATM    8  O   UNL     1     -11.138   6.652  69.337  1.00  0.00    -0.288 OA 
HETATM    9  O   UNL     1      -9.021   6.439  68.595  1.00  0.00    -0.126 OA 
ENDROOT
BRANCH   3  10
HETATM   10  C   UNL     1     -10.921  10.776  67.679  1.00  0.00    -0.365 A  
HETATM   11  C   UNL     1     -11.700  11.652  68.460  1.00  0.00    -0.378 A  
HETATM   12  C   UNL     1     -11.859  12.998  68.102  1.00  0.00    -0.381 A  
HETATM   13  C   UNL     1     -11.230  13.473  66.959  1.00  0.00    -0.312 A  
HETATM   14  O   UNL     1     -11.389  14.759  66.523  1.00  0.00    -0.347 OA 
HETATM   15  C   UNL     1     -10.431  12.627  66.199  1.00  0.00    -0.258 A  
HETATM   16  C   UNL     1     -10.276  11.291  66.545  1.00  0.00    -0.269 A  
HETATM   17  O   UNL     1      -9.812  13.098  65.076  1.00  0.00    -0.520 OA 
HETATM   18  H   UNL     1     -10.959  15.084  65.741  1.00  0.00     0.000 HD 
HETATM   19  H   UNL     1      -9.266  12.520  64.556  1.00  0.00     0.000 HD 
ENDBRANCH   3  10
TORSDOF 1
ENDMDL
MODEL      104
REMARK 921   NORMALIZED FREE ENERGY PREDICTED BY IDOCK:   -4.05 KCAL/MOL
REMARK 922        TOTAL FREE ENERGY PREDICTED BY IDOCK:   -4.38 KCAL/MOL
REMARK 923 INTER-LIGAND FREE ENERGY PREDICTED BY IDOCK:   -4.38 KCAL/MOL
REMARK 924 INTRA-LIGAND FREE ENERGY PREDICTED BY IDOCK:    0.00 KCAL/MOL
REMARK 927      BINDING AFFINITY PREDICTED BY RF-SCORE:    0.00 PKD
ROOT
HETATM    1  C   UNL     1     -11.100  13.875  68.695  1.00  0.00    -0.290 C  
HETATM    2  C   UNL     1     -10.191  13.074  67.759  1.00  0.00    -0.228 C  
HETATM    3  C   UNL     1      -9.922  13.819  66.421  1.00  0.00    -0.301 C  
HETATM    4  C   UNL     1     -10.956  11.776  67.375  1.00  0.00    -0.262 C  
HETATM    5  N   UNL     1      -8.952  12.742  68.490  1.00  0.00    -0.369 NA 
HETATM    6  H2  UNL     1      -9.132  12.260  69.370  1.00  0.00     0.000 HD 
HETATM    7  H1  UNL     1      -8.346  12.208  67.867  1.00  0.00     0.000 HD 
HETATM    8  O   UNL     1     -12.021  11.747  66.779  1.00  0.00    -0.584 OA 
HETATM    9  O   UNL     1     -10.323  10.641  67.763  1.00  0.00    -0.185 OA 
ENDROOT
BRANCH   3  10
HETATM   10  C   UNL     1      -9.141  15.122  66.426  1.00  0.00    -0.331 A  
HETATM   11  C   UNL     1      -7.819  15.148  66.911  1.00  0.00    -0.110 A  
HETATM   12  C   UNL     1      -7.133  16.358  67.080  1.00  0.00    -0.235 A  
HETATM   13  C   UNL     1      -7.769  17.549  66.757  1.00  0.00    -0.230 A  
HETATM   14  O   UNL     1      -7.176  18.766  66.951  1.00  0.00    -0.207 OA 
HETATM   15  C   UNL     1      -9.061  17.533  66.244  1.00  0.00    -0.193 A  
HETATM   16  C   UNL     1      -9.749  16.338  66.082  1.00  0.00    -0.357 A  
HETATM   17  O   UNL     1      -9.684  18.707  65.926  1.00  0.00    -0.498 OA 
HETATM   18  H   UNL     1      -7.612  19.581  66.729  1.00  0.00     0.000 HD 
HETATM   19  H   UNL     1     -10.566  18.696  65.575  1.00  0.00     0.000 HD 
ENDBRANCH   3  10
TORSDOF 1
ENDMDL
MODEL      105
REMARK 921   NORMALIZED FREE ENERGY PREDICTED BY IDOCK:   -4.01 KCAL/MOL
REMARK 922        TOTAL FREE ENERGY PREDICTED BY IDOCK:   -4.33 KCAL/MOL
REMARK 923 INTER-LIGAND FREE ENERGY PREDICTED BY IDOCK:   -4.31 KCAL/MOL
REMARK 924 INTRA-LIGAND FREE ENERGY PREDICTED BY IDOCK:   -0.02 KCAL/MOL
REMARK 927      BINDING AFFINITY PREDICTED BY RF-SCORE:    0.00 PKD
ROOT
HETATM    1  C   UNL     1      -8.815  11.216  68.394  1.00  0.00    -0.157 C  
HETATM    2  C   UNL     1      -9.260  11.059  66.937  1.00  0.00    -0.155 C  
HETATM    3  C   UNL     1     -10.652  11.701  66.675  1.00  0.00    -0.281 C  
HETATM    4  C   UNL     1      -9.439   9.536  66.673  1.00  0.00    -0.170 C  
HETATM    5  N   UNL     1      -8.201  11.609  66.067  1.00  0.00    -0.378 NA 
HETATM    6  H2  UNL     1      -7.289  11.191  66.247  1.00  0.00     0.000 HD 
HETATM    7  H1  UNL     1      -8.498  11.504  65.097  1.00  0.00     0.000 HD 
HETATM    8  O   UNL     1     -10.234   8.818  67.259  1.00  0.00    -0.219 OA 
HETATM    9  O   UNL     1      -8.620   9.056  65.705  1.00  0.00    -0.146 OA 
ENDROOT
BRANCH   3  10
HETATM   10  C   UNL     1     -10.824  13.205  66.797  1.00  0.00    -0.289 A  
HETATM   11  C   UNL     1     -10.114  14.067  65.939  1.00  0.00    -0.336 A  
HETATM   12  C   UNL     1     -10.126  15.455  66.133  1.00  0.00    -0.325 A  
HETATM   13  C   UNL     1     -10.857  15.985  67.188  1.00  0.00    -0.239 A  
HETATM   14  O   UNL     1     -10.865  17.324  67.466  1.00  0.00    -0.314 OA 
HETATM   15  C   UNL     1     -11.589  15.147  68.020  1.00  0.00    -0.328 A  
HETATM   16  C   UNL     1     -11.575  13.771  67.838  1.00  0.00    -0.376 A  
HETATM   17  O   UNL     1     -12.309  15.673  69.056  1.00  0.00    -0.602 OA 
HETATM   18  H   UNL     1     -11.365  17.687  68.188  1.00  0.00     0.000 HD 
HETATM   19  H   UNL     1     -12.809  15.100  69.625  1.00  0.00     0.000 HD 
ENDBRANCH   3  10
TORSDOF 1
ENDMDL
MODEL      106
REMARK 921   NORMALIZED FREE ENERGY PREDICTED BY IDOCK:   -3.98 KCAL/MOL
REMARK 922        TOTAL FREE ENERGY PREDICTED BY IDOCK:   -4.30 KCAL/MOL
REMARK 923 INTER-LIGAND FREE ENERGY PREDICTED BY IDOCK:   -4.54 KCAL/MOL
REMARK 924 INTRA-LIGAND FREE ENERGY PREDICTED BY IDOCK:    0.24 KCAL/MOL
REMARK 927      BINDING AFFINITY PREDICTED BY RF-SCORE:    0.00 PKD
ROOT
HETATM    1  C   UNL     1     -10.426   7.986  67.021  1.00  0.00    -0.410 C  
HETATM    2  C   UNL     1      -9.094   8.612  66.599  1.00  0.00    -0.165 C  
HETATM    3  C   UNL     1      -9.246   9.536  65.358  1.00  0.00    -0.306 C  
HETATM    4  C   UNL     1      -8.161   7.451  66.151  1.00  0.00    -0.130 C  
HETATM    5  N   UNL     1      -8.520   9.309  67.767  1.00  0.00    -0.116 NA 
HETATM    6  H2  UNL     1      -8.428   8.702  68.581  1.00  0.00     0.000 HD 
HETATM    7  H1  UNL     1      -7.633   9.727  67.486  1.00  0.00     0.000 HD 
HETATM    8  O   UNL     1      -8.392   6.695  65.220  1.00  0.00    -0.139 OA 
HETATM    9  O   UNL     1      -7.034   7.346  66.896  1.00  0.00    -0.076 OA 
ENDROOT
BRANCH   3  10
HETATM   10  C   UNL     1     -10.067  10.810  65.462  1.00  0.00    -0.335 A  
HETATM   11  C   UNL     1     -10.114  11.520  66.677  1.00  0.00    -0.242 A  
HETATM   12  C   UNL     1     -10.987  12.603  66.852  1.00  0.00    -0.297 A  
HETATM   13  C   UNL     1     -11.814  12.982  65.803  1.00  0.00    -0.404 A  
HETATM   14  O   UNL     1     -12.727  13.992  65.927  1.00  0.00    -0.495 OA 
HETATM   15  C   UNL     1     -11.752  12.311  64.588  1.00  0.00    -0.356 A  
HETATM   16  C   UNL     1     -10.895  11.233  64.412  1.00  0.00    -0.373 A  
HETATM   17  O   UNL     1     -12.567  12.688  63.558  1.00  0.00    -0.696 OA 
HETATM   18  H   UNL     1     -13.293  14.251  65.210  1.00  0.00     0.000 HD 
HETATM   19  H   UNL     1     -12.525  12.229  62.727  1.00  0.00     0.000 HD 
ENDBRANCH   3  10
TORSDOF 1
ENDMDL
MODEL      107
REMARK 921   NORMALIZED FREE ENERGY PREDICTED BY IDOCK:   -3.97 KCAL/MOL
REMARK 922        TOTAL FREE ENERGY PREDICTED BY IDOCK:   -4.29 KCAL/MOL
REMARK 923 INTER-LIGAND FREE ENERGY PREDICTED BY IDOCK:   -4.09 KCAL/MOL
REMARK 924 INTRA-LIGAND FREE ENERGY PREDICTED BY IDOCK:   -0.20 KCAL/MOL
REMARK 927      BINDING AFFINITY PREDICTED BY RF-SCORE:    0.00 PKD
ROOT
HETATM    1  C   UNL     1      -9.714  11.048  65.533  1.00  0.00    -0.274 C  
HETATM    2  C   UNL     1     -10.362  11.812  66.692  1.00  0.00    -0.218 C  
HETATM    3  C   UNL     1     -11.206  10.884  67.609  1.00  0.00    -0.379 C  
HETATM    4  C   UNL     1     -11.367  12.823  66.070  1.00  0.00    -0.321 C  
HETATM    5  N   UNL     1      -9.299  12.530  67.423  1.00  0.00    -0.181 NA 
HETATM    6  H2  UNL     1      -8.743  13.132  66.817  1.00  0.00     0.000 HD 
HETATM    7  H1  UNL     1      -9.730  13.039  68.194  1.00  0.00     0.000 HD 
HETATM    8  O   UNL     1     -12.338  12.512  65.398  1.00  0.00    -0.579 OA 
HETATM    9  O   UNL     1     -11.074  14.117  66.349  1.00  0.00    -0.311 OA 
ENDROOT
BRANCH   3  10
HETATM   10  C   UNL     1     -10.521   9.796  68.418  1.00  0.00    -0.250 A  
HETATM   11  C   UNL     1     -10.303   8.526  67.847  1.00  0.00    -0.281 A  
HETATM   12  C   UNL     1      -9.823   7.458  68.617  1.00  0.00    -0.165 A  
HETATM   13  C   UNL     1      -9.554   7.660  69.964  1.00  0.00    -0.164 A  
HETATM   14  O   UNL     1      -9.138   6.646  70.781  1.00  0.00    -0.150 OA 
HETATM   15  C   UNL     1      -9.732   8.917  70.529  1.00  0.00    -0.203 A  
HETATM   16  C   UNL     1     -10.215   9.977  69.774  1.00  0.00    -0.286 A  
HETATM   17  O   UNL     1      -9.465   9.112  71.855  1.00  0.00    -0.332 OA 
HETATM   18  H   UNL     1      -8.954   6.785  71.703  1.00  0.00     0.000 HD 
HETATM   19  H   UNL     1      -9.587   9.971  72.242  1.00  0.00     0.000 HD 
ENDBRANCH   3  10
TORSDOF 1
ENDMDL
MODEL      108
REMARK 921   NORMALIZED FREE ENERGY PREDICTED BY IDOCK:   -3.94 KCAL/MOL
REMARK 922        TOTAL FREE ENERGY PREDICTED BY IDOCK:   -4.26 KCAL/MOL
REMARK 923 INTER-LIGAND FREE ENERGY PREDICTED BY IDOCK:   -4.14 KCAL/MOL
REMARK 924 INTRA-LIGAND FREE ENERGY PREDICTED BY IDOCK:   -0.11 KCAL/MOL
REMARK 927      BINDING AFFINITY PREDICTED BY RF-SCORE:    0.00 PKD
ROOT
HETATM    1  C   UNL     1      -8.774   8.098  68.215  1.00  0.00    -0.133 C  
HETATM    2  C   UNL     1      -7.874   8.211  69.449  1.00  0.00    -0.105 C  
HETATM    3  C   UNL     1      -8.341   9.335  70.416  1.00  0.00    -0.224 C  
HETATM    4  C   UNL     1      -6.464   8.639  68.951  1.00  0.00    -0.049 C  
HETATM    5  N   UNL     1      -7.809   6.886  70.097  1.00  0.00    -0.104 NA 
HETATM    6  H2  UNL     1      -7.510   6.151  69.457  1.00  0.00     0.000 HD 
HETATM    7  H1  UNL     1      -7.209   6.962  70.918  1.00  0.00     0.000 HD 
HETATM    8  O   UNL     1      -6.221   9.682  68.364  1.00  0.00    -0.047 OA 
HETATM    9  O   UNL     1      -5.494   7.735  69.235  1.00  0.00    -0.025 OA 
ENDROOT
BRANCH   3  10
HETATM   10  C   UNL     1      -9.677   9.211  71.128  1.00  0.00    -0.360 A  
HETATM   11  C   UNL     1      -9.803   8.365  72.247  1.00  0.00    -0.383 A  
HETATM   12  C   UNL     1     -11.054   8.104  72.822  1.00  0.00    -0.407 A  
HETATM   13  C   UNL     1     -12.186   8.699  72.281  1.00  0.00    -0.378 A  
HETATM   14  O   UNL     1     -13.440   8.442  72.759  1.00  0.00    -0.621 OA 
HETATM   15  C   UNL     1     -12.070   9.563  71.199  1.00  0.00    -0.347 A  
HETATM   16  C   UNL     1     -10.834   9.819  70.619  1.00  0.00    -0.396 A  
HETATM   17  O   UNL     1     -13.186  10.147  70.669  1.00  0.00    -0.565 OA 
HETATM   18  H   UNL     1     -14.215   8.849  72.388  1.00  0.00     0.000 HD 
HETATM   19  H   UNL     1     -13.107  10.738  69.929  1.00  0.00     0.000 HD 
ENDBRANCH   3  10
TORSDOF 1
ENDMDL
MODEL      109
REMARK 921   NORMALIZED FREE ENERGY PREDICTED BY IDOCK:   -3.94 KCAL/MOL
REMARK 922        TOTAL FREE ENERGY PREDICTED BY IDOCK:   -4.26 KCAL/MOL
REMARK 923 INTER-LIGAND FREE ENERGY PREDICTED BY IDOCK:   -4.65 KCAL/MOL
REMARK 924 INTRA-LIGAND FREE ENERGY PREDICTED BY IDOCK:    0.39 KCAL/MOL
REMARK 927      BINDING AFFINITY PREDICTED BY RF-SCORE:    0.00 PKD
ROOT
HETATM    1  C   UNL     1      -9.374  19.965  67.845  1.00  0.00    -0.448 C  
HETATM    2  C   UNL     1      -8.090  19.647  67.072  1.00  0.00    -0.285 C  
HETATM    3  C   UNL     1      -7.756  18.129  67.086  1.00  0.00    -0.232 C  
HETATM    4  C   UNL     1      -6.919  20.346  67.818  1.00  0.00    -0.311 C  
HETATM    5  N   UNL     1      -8.227  20.192  65.706  1.00  0.00    -0.502 NA 
HETATM    6  H2  UNL     1      -8.453  21.186  65.701  1.00  0.00     0.000 HD 
HETATM    7  H1  UNL     1      -7.372  19.980  65.191  1.00  0.00     0.000 HD 
HETATM    8  O   UNL     1      -6.586  20.107  68.968  1.00  0.00    -0.312 OA 
HETATM    9  O   UNL     1      -6.271  21.268  67.063  1.00  0.00    -0.293 OA 
ENDROOT
BRANCH   3  10
HETATM   10  C   UNL     1      -8.683  17.145  66.392  1.00  0.00    -0.291 A  
HETATM   11  C   UNL     1      -9.915  17.586  65.872  1.00  0.00    -0.155 A  
HETATM   12  C   UNL     1     -10.859  16.678  65.374  1.00  0.00    -0.182 A  
HETATM   13  C   UNL     1     -10.567  15.321  65.390  1.00  0.00    -0.394 A  
HETATM   14  O   UNL     1     -11.466  14.379  64.971  1.00  0.00    -0.340 OA 
HETATM   15  C   UNL     1      -9.340  14.877  65.868  1.00  0.00    -0.181 A  
HETATM   16  C   UNL     1      -8.404  15.771  66.371  1.00  0.00    -0.267 A  
HETATM   17  O   UNL     1      -9.056  13.540  65.882  1.00  0.00    -0.457 OA 
HETATM   18  H   UNL     1     -11.266  13.450  64.982  1.00  0.00     0.000 HD 
HETATM   19  H   UNL     1      -8.218  13.236  66.209  1.00  0.00     0.000 HD 
ENDBRANCH   3  10
TORSDOF 1
ENDMDL
MODEL      110
REMARK 921   NORMALIZED FREE ENERGY PREDICTED BY IDOCK:   -3.92 KCAL/MOL
REMARK 922        TOTAL FREE ENERGY PREDICTED BY IDOCK:   -4.24 KCAL/MOL
REMARK 923 INTER-LIGAND FREE ENERGY PREDICTED BY IDOCK:   -4.62 KCAL/MOL
REMARK 924 INTRA-LIGAND FREE ENERGY PREDICTED BY IDOCK:    0.39 KCAL/MOL
REMARK 927      BINDING AFFINITY PREDICTED BY RF-SCORE:    0.00 PKD
ROOT
HETATM    1  C   UNL     1      -6.716  17.828  66.664  1.00  0.00    -0.240 C  
HETATM    2  C   UNL     1      -7.531  18.905  67.387  1.00  0.00    -0.229 C  
HETATM    3  C   UNL     1      -9.048  18.569  67.426  1.00  0.00    -0.283 C  
HETATM    4  C   UNL     1      -7.407  20.212  66.553  1.00  0.00    -0.273 C  
HETATM    5  N   UNL     1      -6.951  19.098  68.731  1.00  0.00    -0.307 NA 
HETATM    6  H2  UNL     1      -5.954  19.312  68.702  1.00  0.00     0.000 HD 
HETATM    7  H1  UNL     1      -7.493  19.816  69.213  1.00  0.00     0.000 HD 
HETATM    8  O   UNL     1      -7.788  20.339  65.400  1.00  0.00    -0.109 OA 
HETATM    9  O   UNL     1      -6.830  21.234  67.232  1.00  0.00    -0.492 OA 
ENDROOT
BRANCH   3  10
HETATM   10  C   UNL     1      -9.533  17.361  68.209  1.00  0.00    -0.290 A  
HETATM   11  C   UNL     1      -8.604  16.439  68.728  1.00  0.00    -0.250 A  
HETATM   12  C   UNL     1      -9.024  15.236  69.311  1.00  0.00    -0.241 A  
HETATM   13  C   UNL     1     -10.382  14.955  69.381  1.00  0.00    -0.208 A  
HETATM   14  O   UNL     1     -10.855  13.776  69.886  1.00  0.00    -0.447 OA 
HETATM   15  C   UNL     1     -11.310  15.873  68.904  1.00  0.00    -0.377 A  
HETATM   16  C   UNL     1     -10.899  17.063  68.318  1.00  0.00    -0.341 A  
HETATM   17  O   UNL     1     -12.646  15.594  68.976  1.00  0.00    -0.538 OA 
HETATM   18  H   UNL     1     -11.784  13.583  69.934  1.00  0.00     0.000 HD 
HETATM   19  H   UNL     1     -13.280  16.221  68.650  1.00  0.00     0.000 HD 
ENDBRANCH   3  10
TORSDOF 1
ENDMDL
MODEL      111
REMARK 921   NORMALIZED FREE ENERGY PREDICTED BY IDOCK:   -3.91 KCAL/MOL
REMARK 922        TOTAL FREE ENERGY PREDICTED BY IDOCK:   -4.23 KCAL/MOL
REMARK 923 INTER-LIGAND FREE ENERGY PREDICTED BY IDOCK:   -4.26 KCAL/MOL
REMARK 924 INTRA-LIGAND FREE ENERGY PREDICTED BY IDOCK:    0.03 KCAL/MOL
REMARK 927      BINDING AFFINITY PREDICTED BY RF-SCORE:    0.00 PKD
ROOT
HETATM    1  C   UNL     1     -11.150  10.294  68.665  1.00  0.00    -0.290 C  
HETATM    2  C   UNL     1     -10.253   9.185  68.107  1.00  0.00    -0.207 C  
HETATM    3  C   UNL     1      -9.327   8.574  69.197  1.00  0.00    -0.153 C  
HETATM    4  C   UNL     1      -9.304   9.842  67.065  1.00  0.00    -0.147 C  
HETATM    5  N   UNL     1     -11.113   8.178  67.455  1.00  0.00    -0.389 NA 
HETATM    6  H2  UNL     1     -11.724   8.584  66.746  1.00  0.00     0.000 HD 
HETATM    7  H1  UNL     1     -10.515   7.440  67.083  1.00  0.00     0.000 HD 
HETATM    8  O   UNL     1      -8.494  10.720  67.319  1.00  0.00    -0.123 OA 
HETATM    9  O   UNL     1      -9.450   9.344  65.812  1.00  0.00    -0.221 OA 
ENDROOT
BRANCH   3  10
HETATM   10  C   UNL     1      -9.933   7.805  70.358  1.00  0.00    -0.188 A  
HETATM   11  C   UNL     1      -9.650   6.434  70.519  1.00  0.00    -0.179 A  
HETATM   12  C   UNL     1     -10.319   5.663  71.479  1.00  0.00    -0.279 A  
HETATM   13  C   UNL     1     -11.273   6.266  72.287  1.00  0.00    -0.283 A  
HETATM   14  O   UNL     1     -12.001   5.559  73.203  1.00  0.00    -0.526 OA 
HETATM   15  C   UNL     1     -11.536   7.625  72.161  1.00  0.00    -0.308 A  
HETATM   16  C   UNL     1     -10.882   8.392  71.206  1.00  0.00    -0.293 A  
HETATM   17  O   UNL     1     -12.475   8.216  72.959  1.00  0.00    -0.673 OA 
HETATM   18  H   UNL     1     -12.654   5.972  73.757  1.00  0.00     0.000 HD 
HETATM   19  H   UNL     1     -12.655   9.144  72.873  1.00  0.00     0.000 HD 
ENDBRANCH   3  10
TORSDOF 1
ENDMDL
MODEL      112
REMARK 921   NORMALIZED FREE ENERGY PREDICTED BY IDOCK:   -3.91 KCAL/MOL
REMARK 922        TOTAL FREE ENERGY PREDICTED BY IDOCK:   -4.22 KCAL/MOL
REMARK 923 INTER-LIGAND FREE ENERGY PREDICTED BY IDOCK:   -4.02 KCAL/MOL
REMARK 924 INTRA-LIGAND FREE ENERGY PREDICTED BY IDOCK:   -0.20 KCAL/MOL
REMARK 927      BINDING AFFINITY PREDICTED BY RF-SCORE:    0.00 PKD
ROOT
HETATM    1  C   UNL     1     -12.390  14.110  66.347  1.00  0.00    -0.431 C  
HETATM    2  C   UNL     1     -11.103  14.483  67.089  1.00  0.00    -0.321 C  
HETATM    3  C   UNL     1     -10.506  13.280  67.873  1.00  0.00    -0.244 C  
HETATM    4  C   UNL     1     -11.481  15.543  68.162  1.00  0.00    -0.326 C  
HETATM    5  N   UNL     1     -10.156  15.058  66.112  1.00  0.00    -0.277 NA 
HETATM    6  H2  UNL     1     -10.554  15.841  65.594  1.00  0.00     0.000 HD 
HETATM    7  H1  UNL     1      -9.299  15.307  66.606  1.00  0.00     0.000 HD 
HETATM    8  O   UNL     1     -12.258  15.351  69.084  1.00  0.00    -0.269 OA 
HETATM    9  O   UNL     1     -10.856  16.734  67.989  1.00  0.00    -0.355 OA 
ENDROOT
BRANCH   3  10
HETATM   10  C   UNL     1      -9.983  12.071  67.117  1.00  0.00    -0.208 A  
HETATM   11  C   UNL     1     -10.758  10.897  67.045  1.00  0.00    -0.323 A  
HETATM   12  C   UNL     1     -10.237   9.717  66.497  1.00  0.00    -0.294 A  
HETATM   13  C   UNL     1      -8.936   9.711  66.013  1.00  0.00    -0.162 A  
HETATM   14  O   UNL     1      -8.350   8.580  65.518  1.00  0.00    -0.137 OA 
HETATM   15  C   UNL     1      -8.174  10.873  66.046  1.00  0.00    -0.155 A  
HETATM   16  C   UNL     1      -8.682  12.044  66.595  1.00  0.00    -0.171 A  
HETATM   17  O   UNL     1      -6.894  10.865  65.567  1.00  0.00    -0.347 OA 
HETATM   18  H   UNL     1      -7.459   8.576  65.186  1.00  0.00     0.000 HD 
HETATM   19  H   UNL     1      -6.374  11.659  65.590  1.00  0.00     0.000 HD 
ENDBRANCH   3  10
TORSDOF 1
ENDMDL
MODEL      113
REMARK 921   NORMALIZED FREE ENERGY PREDICTED BY IDOCK:   -3.89 KCAL/MOL
REMARK 922        TOTAL FREE ENERGY PREDICTED BY IDOCK:   -4.20 KCAL/MOL
REMARK 923 INTER-LIGAND FREE ENERGY PREDICTED BY IDOCK:   -3.99 KCAL/MOL
REMARK 924 INTRA-LIGAND FREE ENERGY PREDICTED BY IDOCK:   -0.21 KCAL/MOL
REMARK 927      BINDING AFFINITY PREDICTED BY RF-SCORE:    0.00 PKD
ROOT
HETATM    1  C   UNL     1      -9.029  11.158  68.729  1.00  0.00    -0.136 C  
HETATM    2  C   UNL     1     -10.518  10.812  68.834  1.00  0.00    -0.205 C  
HETATM    3  C   UNL     1     -10.757   9.283  68.980  1.00  0.00    -0.189 C  
HETATM    4  C   UNL     1     -11.180  11.219  67.487  1.00  0.00    -0.291 C  
HETATM    5  N   UNL     1     -11.096  11.592  69.946  1.00  0.00    -0.481 NA 
HETATM    6  H2  UNL     1     -10.930  12.594  69.851  1.00  0.00     0.000 HD 
HETATM    7  H1  UNL     1     -12.087  11.362  70.016  1.00  0.00     0.000 HD 
HETATM    8  O   UNL     1     -10.887  10.749  66.399  1.00  0.00    -0.204 OA 
HETATM    9  O   UNL     1     -12.143  12.164  67.623  1.00  0.00    -0.522 OA 
ENDROOT
BRANCH   3  10
HETATM   10  C   UNL     1     -10.274   8.558  70.224  1.00  0.00    -0.206 A  
HETATM   11  C   UNL     1      -9.074   7.820  70.187  1.00  0.00    -0.153 A  
HETATM   12  C   UNL     1      -8.687   7.011  71.264  1.00  0.00    -0.130 A  
HETATM   13  C   UNL     1      -9.500   6.943  72.387  1.00  0.00    -0.139 A  
HETATM   14  O   UNL     1      -9.209   6.131  73.447  1.00  0.00    -0.132 OA 
HETATM   15  C   UNL     1     -10.668   7.694  72.449  1.00  0.00    -0.280 A  
HETATM   16  C   UNL     1     -11.061   8.491  71.382  1.00  0.00    -0.328 A  
HETATM   17  O   UNL     1     -11.466   7.626  73.556  1.00  0.00    -0.597 OA 
HETATM   18  H   UNL     1      -9.765   6.085  74.216  1.00  0.00     0.000 HD 
HETATM   19  H   UNL     1     -12.265   8.138  73.599  1.00  0.00     0.000 HD 
ENDBRANCH   3  10
TORSDOF 1
ENDMDL
MODEL      114
REMARK 921   NORMALIZED FREE ENERGY PREDICTED BY IDOCK:   -3.88 KCAL/MOL
REMARK 922        TOTAL FREE ENERGY PREDICTED BY IDOCK:   -4.20 KCAL/MOL
REMARK 923 INTER-LIGAND FREE ENERGY PREDICTED BY IDOCK:   -4.15 KCAL/MOL
REMARK 924 INTRA-LIGAND FREE ENERGY PREDICTED BY IDOCK:   -0.05 KCAL/MOL
REMARK 927      BINDING AFFINITY PREDICTED BY RF-SCORE:    0.00 PKD
ROOT
HETATM    1  C   UNL     1     -13.406   7.217  71.334  1.00  0.00    -0.380 C  
HETATM    2  C   UNL     1     -12.204   8.166  71.321  1.00  0.00    -0.279 C  
HETATM    3  C   UNL     1     -11.335   8.031  72.603  1.00  0.00    -0.469 C  
HETATM    4  C   UNL     1     -12.764   9.617  71.339  1.00  0.00    -0.374 C  
HETATM    5  N   UNL     1     -11.439   7.926  70.081  1.00  0.00    -0.466 NA 
HETATM    6  H2  UNL     1     -12.014   8.008  69.243  1.00  0.00     0.000 HD 
HETATM    7  H1  UNL     1     -10.639   8.559  70.072  1.00  0.00     0.000 HD 
HETATM    8  O   UNL     1     -13.448  10.087  72.234  1.00  0.00    -0.417 OA 
HETATM    9  O   UNL     1     -12.416  10.343  70.248  1.00  0.00    -0.282 OA 
ENDROOT
BRANCH   3  10
HETATM   10  C   UNL     1     -10.591   6.736  72.878  1.00  0.00    -0.278 A  
HETATM   11  C   UNL     1      -9.194   6.677  72.712  1.00  0.00    -0.146 A  
HETATM   12  C   UNL     1      -8.503   5.461  72.799  1.00  0.00    -0.116 A  
HETATM   13  C   UNL     1      -9.212   4.296  73.060  1.00  0.00    -0.111 A  
HETATM   14  O   UNL     1      -8.607   3.071  73.102  1.00  0.00    -0.079 OA 
HETATM   15  C   UNL     1     -10.586   4.347  73.261  1.00  0.00    -0.210 A  
HETATM   16  C   UNL     1     -11.277   5.548  73.168  1.00  0.00    -0.321 A  
HETATM   17  O   UNL     1     -11.281   3.199  73.519  1.00  0.00    -0.221 OA 
HETATM   18  H   UNL     1      -9.092   2.274  73.281  1.00  0.00     0.000 HD 
HETATM   19  H   UNL     1     -12.220   3.233  73.656  1.00  0.00     0.000 HD 
ENDBRANCH   3  10
TORSDOF 1
ENDMDL
MODEL      115
REMARK 921   NORMALIZED FREE ENERGY PREDICTED BY IDOCK:   -3.87 KCAL/MOL
REMARK 922        TOTAL FREE ENERGY PREDICTED BY IDOCK:   -4.19 KCAL/MOL
REMARK 923 INTER-LIGAND FREE ENERGY PREDICTED BY IDOCK:   -3.98 KCAL/MOL
REMARK 924 INTRA-LIGAND FREE ENERGY PREDICTED BY IDOCK:   -0.21 KCAL/MOL
REMARK 927      BINDING AFFINITY PREDICTED BY RF-SCORE:    0.00 PKD
ROOT
HETATM    1  C   UNL     1     -10.601   7.890  67.008  1.00  0.00    -0.381 C  
HETATM    2  C   UNL     1      -9.487   8.709  67.667  1.00  0.00    -0.141 C  
HETATM    3  C   UNL     1      -8.754   9.629  66.650  1.00  0.00    -0.146 C  
HETATM    4  C   UNL     1      -8.417   7.703  68.176  1.00  0.00    -0.124 C  
HETATM    5  N   UNL     1     -10.071   9.454  68.800  1.00  0.00    -0.186 NA 
HETATM    6  H2  UNL     1     -10.557   8.848  69.460  1.00  0.00     0.000 HD 
HETATM    7  H1  UNL     1      -9.329  10.000  69.239  1.00  0.00     0.000 HD 
HETATM    8  O   UNL     1      -7.782   6.942  67.462  1.00  0.00    -0.106 OA 
HETATM    9  O   UNL     1      -8.234   7.742  69.519  1.00  0.00    -0.124 OA 
ENDROOT
BRANCH   3  10
HETATM   10  C   UNL     1      -9.506  10.771  65.987  1.00  0.00    -0.230 A  
HETATM   11  C   UNL     1      -9.989  10.626  64.673  1.00  0.00    -0.401 A  
HETATM   12  C   UNL     1     -10.541  11.711  63.978  1.00  0.00    -0.426 A  
HETATM   13  C   UNL     1     -10.615  12.948  64.604  1.00  0.00    -0.363 A  
HETATM   14  O   UNL     1     -11.089  14.059  63.963  1.00  0.00    -0.570 OA 
HETATM   15  C   UNL     1     -10.173  13.095  65.913  1.00  0.00    -0.291 A  
HETATM   16  C   UNL     1      -9.619  12.025  66.603  1.00  0.00    -0.225 A  
HETATM   17  O   UNL     1     -10.249  14.314  66.526  1.00  0.00    -0.265 OA 
HETATM   18  H   UNL     1     -11.140  14.906  64.391  1.00  0.00     0.000 HD 
HETATM   19  H   UNL     1      -9.947  14.415  67.421  1.00  0.00     0.000 HD 
ENDBRANCH   3  10
TORSDOF 1
ENDMDL
MODEL      116
REMARK 921   NORMALIZED FREE ENERGY PREDICTED BY IDOCK:   -3.85 KCAL/MOL
REMARK 922        TOTAL FREE ENERGY PREDICTED BY IDOCK:   -4.17 KCAL/MOL
REMARK 923 INTER-LIGAND FREE ENERGY PREDICTED BY IDOCK:   -4.09 KCAL/MOL
REMARK 924 INTRA-LIGAND FREE ENERGY PREDICTED BY IDOCK:   -0.08 KCAL/MOL
REMARK 927      BINDING AFFINITY PREDICTED BY RF-SCORE:    0.00 PKD
ROOT
HETATM    1  C   UNL     1      -7.101  10.248  64.497  1.00  0.00    -0.072 C  
HETATM    2  C   UNL     1      -8.349   9.393  64.257  1.00  0.00    -0.173 C  
HETATM    3  C   UNL     1      -9.352   9.470  65.442  1.00  0.00    -0.324 C  
HETATM    4  C   UNL     1      -7.884   7.910  64.190  1.00  0.00    -0.136 C  
HETATM    5  N   UNL     1      -8.947   9.801  62.970  1.00  0.00    -0.246 NA 
HETATM    6  H2  UNL     1      -8.285   9.756  62.197  1.00  0.00     0.000 HD 
HETATM    7  H1  UNL     1      -9.778   9.231  62.810  1.00  0.00     0.000 HD 
HETATM    8  O   UNL     1      -7.339   7.311  65.104  1.00  0.00    -0.073 OA 
HETATM    9  O   UNL     1      -8.145   7.315  63.000  1.00  0.00    -0.118 OA 
ENDROOT
BRANCH   3  10
HETATM   10  C   UNL     1     -10.043  10.784  65.762  1.00  0.00    -0.320 A  
HETATM   11  C   UNL     1      -9.849  11.394  67.017  1.00  0.00    -0.214 A  
HETATM   12  C   UNL     1     -10.596  12.516  67.401  1.00  0.00    -0.242 A  
HETATM   13  C   UNL     1     -11.538  13.035  66.523  1.00  0.00    -0.356 A  
HETATM   14  O   UNL     1     -12.338  14.092  66.858  1.00  0.00    -0.537 OA 
HETATM   15  C   UNL     1     -11.713  12.463  65.269  1.00  0.00    -0.390 A  
HETATM   16  C   UNL     1     -10.982  11.347  64.886  1.00  0.00    -0.284 A  
HETATM   17  O   UNL     1     -12.640  12.978  64.407  1.00  0.00    -0.607 OA 
HETATM   18  H   UNL     1     -12.983  14.448  66.258  1.00  0.00     0.000 HD 
HETATM   19  H   UNL     1     -12.760  12.587  63.550  1.00  0.00     0.000 HD 
ENDBRANCH   3  10
TORSDOF 1
ENDMDL
MODEL      117
REMARK 921   NORMALIZED FREE ENERGY PREDICTED BY IDOCK:   -3.81 KCAL/MOL
REMARK 922        TOTAL FREE ENERGY PREDICTED BY IDOCK:   -4.12 KCAL/MOL
REMARK 923 INTER-LIGAND FREE ENERGY PREDICTED BY IDOCK:   -4.01 KCAL/MOL
REMARK 924 INTRA-LIGAND FREE ENERGY PREDICTED BY IDOCK:   -0.11 KCAL/MOL
REMARK 927      BINDING AFFINITY PREDICTED BY RF-SCORE:    0.00 PKD
ROOT
HETATM    1  C   UNL     1     -12.112   6.732  70.870  1.00  0.00    -0.421 C  
HETATM    2  C   UNL     1     -10.692   6.639  71.437  1.00  0.00    -0.229 C  
HETATM    3  C   UNL     1      -9.839   5.560  70.712  1.00  0.00    -0.247 C  
HETATM    4  C   UNL     1     -10.816   6.161  72.912  1.00  0.00    -0.260 C  
HETATM    5  N   UNL     1     -10.084   7.983  71.383  1.00  0.00    -0.182 NA 
HETATM    6  H2  UNL     1     -10.650   8.689  71.853  1.00  0.00     0.000 HD 
HETATM    7  H1  UNL     1      -9.139   7.921  71.761  1.00  0.00     0.000 HD 
HETATM    8  O   UNL     1     -11.297   5.093  73.258  1.00  0.00    -0.321 OA 
HETATM    9  O   UNL     1     -10.327   7.050  73.811  1.00  0.00    -0.339 OA 
ENDROOT
BRANCH   3  10
HETATM   10  C   UNL     1      -9.481   5.740  69.247  1.00  0.00    -0.159 A  
HETATM   11  C   UNL     1      -8.247   6.316  68.889  1.00  0.00    -0.113 A  
HETATM   12  C   UNL     1      -7.958   6.644  67.558  1.00  0.00    -0.115 A  
HETATM   13  C   UNL     1      -8.906   6.389  66.576  1.00  0.00    -0.136 A  
HETATM   14  O   UNL     1      -8.709   6.735  65.269  1.00  0.00    -0.334 OA 
HETATM   15  C   UNL     1     -10.113   5.788  66.912  1.00  0.00    -0.192 A  
HETATM   16  C   UNL     1     -10.409   5.468  68.231  1.00  0.00    -0.237 A  
HETATM   17  O   UNL     1     -11.044   5.537  65.943  1.00  0.00    -0.726 OA 
HETATM   18  H   UNL     1      -9.358   6.560  64.597  1.00  0.00     0.000 HD 
HETATM   19  H   UNL     1     -11.869   5.126  66.172  1.00  0.00     0.000 HD 
ENDBRANCH   3  10
TORSDOF 1
ENDMDL
MODEL      118
REMARK 921   NORMALIZED FREE ENERGY PREDICTED BY IDOCK:   -3.80 KCAL/MOL
REMARK 922        TOTAL FREE ENERGY PREDICTED BY IDOCK:   -4.11 KCAL/MOL
REMARK 923 INTER-LIGAND FREE ENERGY PREDICTED BY IDOCK:   -3.98 KCAL/MOL
REMARK 924 INTRA-LIGAND FREE ENERGY PREDICTED BY IDOCK:   -0.12 KCAL/MOL
REMARK 927      BINDING AFFINITY PREDICTED BY RF-SCORE:    0.00 PKD
ROOT
HETATM    1  C   UNL     1     -13.251  10.862  70.265  1.00  0.00     0.216 C  
HETATM    2  C   UNL     1     -11.930  11.124  69.535  1.00  0.00    -0.355 C  
HETATM    3  C   UNL     1     -10.698  10.661  70.363  1.00  0.00     0.053 C  
HETATM    4  C   UNL     1     -11.785  12.665  69.385  1.00  0.00    -0.325 C  
HETATM    5  N   UNL     1     -12.002  10.484  68.206  1.00  0.00    -0.784 NA 
HETATM    6  H2  UNL     1     -12.815  10.784  67.669  1.00  0.00     0.000 HD 
HETATM    7  H1  UNL     1     -11.123  10.658  67.720  1.00  0.00     0.000 HD 
HETATM    8  O   UNL     1     -11.718  13.450  70.317  1.00  0.00    -0.263 OA 
HETATM    9  O   UNL     1     -11.732  13.080  68.095  1.00  0.00    -0.313 OA 
ENDROOT
BRANCH   3  10
HETATM   10  C   UNL     1     -10.500   9.184  70.658  1.00  0.00    -0.305 A  
HETATM   11  C   UNL     1      -9.928   8.342  69.684  1.00  0.00    -0.193 A  
HETATM   12  C   UNL     1      -9.881   6.953  69.863  1.00  0.00    -0.172 A  
HETATM   13  C   UNL     1     -10.404   6.402  71.026  1.00  0.00    -0.206 A  
HETATM   14  O   UNL     1     -10.440   5.052  71.237  1.00  0.00    -0.208 OA 
HETATM   15  C   UNL     1     -10.939   7.226  72.009  1.00  0.00    -0.238 A  
HETATM   16  C   UNL     1     -10.995   8.602  71.834  1.00  0.00    -0.412 A  
HETATM   17  O   UNL     1     -11.451   6.680  73.152  1.00  0.00    -0.479 OA 
HETATM   18  H   UNL     1     -10.798   4.675  72.032  1.00  0.00     0.000 HD 
HETATM   19  H   UNL     1     -11.816   7.242  73.825  1.00  0.00     0.000 HD 
ENDBRANCH   3  10
TORSDOF 1
ENDMDL
MODEL      119
REMARK 921   NORMALIZED FREE ENERGY PREDICTED BY IDOCK:   -3.78 KCAL/MOL
REMARK 922        TOTAL FREE ENERGY PREDICTED BY IDOCK:   -4.09 KCAL/MOL
REMARK 923 INTER-LIGAND FREE ENERGY PREDICTED BY IDOCK:   -4.48 KCAL/MOL
REMARK 924 INTRA-LIGAND FREE ENERGY PREDICTED BY IDOCK:    0.40 KCAL/MOL
REMARK 927      BINDING AFFINITY PREDICTED BY RF-SCORE:    0.00 PKD
ROOT
HETATM    1  C   UNL     1      -8.808   7.942  68.194  1.00  0.00    -0.125 C  
HETATM    2  C   UNL     1     -10.301   8.203  68.414  1.00  0.00    -0.199 C  
HETATM    3  C   UNL     1     -10.669   9.702  68.228  1.00  0.00    -0.262 C  
HETATM    4  C   UNL     1     -10.612   7.871  69.901  1.00  0.00    -0.242 C  
HETATM    5  N   UNL     1     -11.063   7.310  67.519  1.00  0.00    -0.562 NA 
HETATM    6  H2  UNL     1     -10.814   6.328  67.638  1.00  0.00     0.000 HD 
HETATM    7  H1  UNL     1     -12.058   7.484  67.665  1.00  0.00     0.000 HD 
HETATM    8  O   UNL     1     -10.112   8.440  70.859  1.00  0.00    -0.186 OA 
HETATM    9  O   UNL     1     -11.516   6.872  70.054  1.00  0.00    -0.306 OA 
ENDROOT
BRANCH   3  10
HETATM   10  C   UNL     1     -10.530  10.350  66.862  1.00  0.00    -0.300 A  
HETATM   11  C   UNL     1     -10.143   9.575  65.751  1.00  0.00    -0.223 A  
HETATM   12  C   UNL     1      -9.849  10.170  64.517  1.00  0.00    -0.334 A  
HETATM   13  C   UNL     1      -9.947  11.549  64.390  1.00  0.00    -0.269 A  
HETATM   14  O   UNL     1      -9.620  12.197  63.232  1.00  0.00    -0.635 OA 
HETATM   15  C   UNL     1     -10.361  12.321  65.469  1.00  0.00    -0.267 A  
HETATM   16  C   UNL     1     -10.647  11.737  66.696  1.00  0.00    -0.275 A  
HETATM   17  O   UNL     1     -10.458  13.678  65.340  1.00  0.00    -0.299 OA 
HETATM   18  H   UNL     1      -9.688  13.141  63.145  1.00  0.00     0.000 HD 
HETATM   19  H   UNL     1     -10.741  14.206  66.077  1.00  0.00     0.000 HD 
ENDBRANCH   3  10
TORSDOF 1
ENDMDL
MODEL      120
REMARK 921   NORMALIZED FREE ENERGY PREDICTED BY IDOCK:   -3.77 KCAL/MOL
REMARK 922        TOTAL FREE ENERGY PREDICTED BY IDOCK:   -4.08 KCAL/MOL
REMARK 923 INTER-LIGAND FREE ENERGY PREDICTED BY IDOCK:   -4.29 KCAL/MOL
REMARK 924 INTRA-LIGAND FREE ENERGY PREDICTED BY IDOCK:    0.21 KCAL/MOL
REMARK 927      BINDING AFFINITY PREDICTED BY RF-SCORE:    0.00 PKD
ROOT
HETATM    1  C   UNL     1      -9.428  12.463  66.007  1.00  0.00    -0.168 C  
HETATM    2  C   UNL     1     -10.489  11.579  65.343  1.00  0.00    -0.281 C  
HETATM    3  C   UNL     1     -10.159  10.066  65.474  1.00  0.00    -0.325 C  
HETATM    4  C   UNL     1     -10.458  11.890  63.820  1.00  0.00    -0.423 C  
HETATM    5  N   UNL     1     -11.805  11.931  65.912  1.00  0.00    -0.448 NA 
HETATM    6  H2  UNL     1     -12.015  12.926  65.831  1.00  0.00     0.000 HD 
HETATM    7  H1  UNL     1     -12.512  11.343  65.469  1.00  0.00     0.000 HD 
HETATM    8  O   UNL     1      -9.492  11.713  63.094  1.00  0.00    -0.345 OA 
HETATM    9  O   UNL     1     -11.629  12.383  63.345  1.00  0.00    -0.464 OA 
ENDROOT
BRANCH   3  10
HETATM   10  C   UNL     1     -10.151   9.411  66.845  1.00  0.00    -0.314 A  
HETATM   11  C   UNL     1      -9.636  10.107  67.955  1.00  0.00    -0.166 A  
HETATM   12  C   UNL     1      -9.465   9.474  69.193  1.00  0.00    -0.163 A  
HETATM   13  C   UNL     1      -9.818   8.138  69.325  1.00  0.00    -0.182 A  
HETATM   14  O   UNL     1      -9.625   7.447  70.489  1.00  0.00    -0.172 OA 
HETATM   15  C   UNL     1     -10.360   7.450  68.246  1.00  0.00    -0.194 A  
HETATM   16  C   UNL     1     -10.524   8.070  67.014  1.00  0.00    -0.410 A  
HETATM   17  O   UNL     1     -10.707   6.135  68.380  1.00  0.00    -0.235 OA 
HETATM   18  H   UNL     1      -9.866   6.532  70.579  1.00  0.00     0.000 HD 
HETATM   19  H   UNL     1     -11.078   5.664  67.643  1.00  0.00     0.000 HD 
ENDBRANCH   3  10
TORSDOF 1
ENDMDL
MODEL      121
REMARK 921   NORMALIZED FREE ENERGY PREDICTED BY IDOCK:   -3.77 KCAL/MOL
REMARK 922        TOTAL FREE ENERGY PREDICTED BY IDOCK:   -4.08 KCAL/MOL
REMARK 923 INTER-LIGAND FREE ENERGY PREDICTED BY IDOCK:   -3.88 KCAL/MOL
REMARK 924 INTRA-LIGAND FREE ENERGY PREDICTED BY IDOCK:   -0.20 KCAL/MOL
REMARK 927      BINDING AFFINITY PREDICTED BY RF-SCORE:    0.00 PKD
ROOT
HETATM    1  C   UNL     1     -12.779   6.865  70.995  1.00  0.00    -0.269 C  
HETATM    2  C   UNL     1     -12.268   8.244  71.425  1.00  0.00    -0.299 C  
HETATM    3  C   UNL     1     -11.508   8.193  72.781  1.00  0.00    -0.397 C  
HETATM    4  C   UNL     1     -13.516   9.139  71.672  1.00  0.00    -0.391 C  
HETATM    5  N   UNL     1     -11.449   8.796  70.328  1.00  0.00    -0.444 NA 
HETATM    6  H2  UNL     1     -11.949   8.822  69.439  1.00  0.00     0.000 HD 
HETATM    7  H1  UNL     1     -11.110   9.715  70.614  1.00  0.00     0.000 HD 
HETATM    8  O   UNL     1     -14.376   8.916  72.509  1.00  0.00    -0.579 OA 
HETATM    9  O   UNL     1     -13.570  10.226  70.862  1.00  0.00    -0.221 OA 
ENDROOT
BRANCH   3  10
HETATM   10  C   UNL     1     -10.199   7.430  72.883  1.00  0.00    -0.310 A  
HETATM   11  C   UNL     1     -10.207   6.056  73.191  1.00  0.00    -0.212 A  
HETATM   12  C   UNL     1      -9.016   5.363  73.452  1.00  0.00    -0.129 A  
HETATM   13  C   UNL     1      -7.809   6.047  73.399  1.00  0.00    -0.100 A  
HETATM   14  O   UNL     1      -6.619   5.445  73.697  1.00  0.00    -0.069 OA 
HETATM   15  C   UNL     1      -7.786   7.395  73.061  1.00  0.00    -0.099 A  
HETATM   16  C   UNL     1      -8.963   8.088  72.809  1.00  0.00    -0.291 A  
HETATM   17  O   UNL     1      -6.596   8.065  73.008  1.00  0.00    -0.070 OA 
HETATM   18  H   UNL     1      -5.793   5.913  73.660  1.00  0.00     0.000 HD 
HETATM   19  H   UNL     1      -6.580   8.986  72.777  1.00  0.00     0.000 HD 
ENDBRANCH   3  10
TORSDOF 1
ENDMDL
MODEL      122
REMARK 921   NORMALIZED FREE ENERGY PREDICTED BY IDOCK:   -3.75 KCAL/MOL
REMARK 922        TOTAL FREE ENERGY PREDICTED BY IDOCK:   -4.06 KCAL/MOL
REMARK 923 INTER-LIGAND FREE ENERGY PREDICTED BY IDOCK:   -3.95 KCAL/MOL
REMARK 924 INTRA-LIGAND FREE ENERGY PREDICTED BY IDOCK:   -0.12 KCAL/MOL
REMARK 927      BINDING AFFINITY PREDICTED BY RF-SCORE:    0.00 PKD
ROOT
HETATM    1  C   UNL     1      -7.673  13.222  68.484  1.00  0.00    -0.120 C  
HETATM    2  C   UNL     1      -8.408  12.156  67.665  1.00  0.00    -0.163 C  
HETATM    3  C   UNL     1      -9.925  12.467  67.523  1.00  0.00    -0.196 C  
HETATM    4  C   UNL     1      -8.321  10.824  68.462  1.00  0.00    -0.138 C  
HETATM    5  N   UNL     1      -7.725  12.021  66.363  1.00  0.00    -0.370 NA 
HETATM    6  H2  UNL     1      -6.730  11.825  66.461  1.00  0.00     0.000 HD 
HETATM    7  H1  UNL     1      -8.215  11.311  65.818  1.00  0.00     0.000 HD 
HETATM    8  O   UNL     1      -8.785  10.650  69.578  1.00  0.00    -0.096 OA 
HETATM    9  O   UNL     1      -7.673   9.837  67.795  1.00  0.00    -0.090 OA 
ENDROOT
BRANCH   3  10
HETATM   10  C   UNL     1     -10.375  13.692  66.746  1.00  0.00    -0.268 A  
HETATM   11  C   UNL     1     -10.397  13.664  65.339  1.00  0.00    -0.345 A  
HETATM   12  C   UNL     1     -10.649  14.824  64.593  1.00  0.00    -0.234 A  
HETATM   13  C   UNL     1     -10.888  16.019  65.260  1.00  0.00    -0.362 A  
HETATM   14  O   UNL     1     -11.085  17.196  64.593  1.00  0.00    -1.036 OA 
HETATM   15  C   UNL     1     -10.904  16.051  66.649  1.00  0.00    -0.179 A  
HETATM   16  C   UNL     1     -10.646  14.906  67.393  1.00  0.00    -0.263 A  
HETATM   17  O   UNL     1     -11.140  17.228  67.302  1.00  0.00    -0.082 OA 
HETATM   18  H   UNL     1     -11.248  18.013  65.050  1.00  0.00     0.000 HD 
HETATM   19  H   UNL     1     -11.151  17.251  68.252  1.00  0.00     0.000 HD 
ENDBRANCH   3  10
TORSDOF 1
ENDMDL
MODEL      123
REMARK 921   NORMALIZED FREE ENERGY PREDICTED BY IDOCK:   -3.75 KCAL/MOL
REMARK 922        TOTAL FREE ENERGY PREDICTED BY IDOCK:   -4.06 KCAL/MOL
REMARK 923 INTER-LIGAND FREE ENERGY PREDICTED BY IDOCK:   -3.84 KCAL/MOL
REMARK 924 INTRA-LIGAND FREE ENERGY PREDICTED BY IDOCK:   -0.21 KCAL/MOL
REMARK 927      BINDING AFFINITY PREDICTED BY RF-SCORE:    0.00 PKD
ROOT
HETATM    1  C   UNL     1      -9.614   4.023  67.762  1.00  0.00    -0.204 C  
HETATM    2  C   UNL     1      -9.590   5.299  66.916  1.00  0.00    -0.145 C  
HETATM    3  C   UNL     1     -10.766   6.256  67.260  1.00  0.00    -0.424 C  
HETATM    4  C   UNL     1      -9.809   4.873  65.436  1.00  0.00    -0.048 C  
HETATM    5  N   UNL     1      -8.267   5.935  67.076  1.00  0.00    -0.105 NA 
HETATM    6  H2  UNL     1      -7.498   5.302  66.856  1.00  0.00     0.000 HD 
HETATM    7  H1  UNL     1      -8.250   6.785  66.512  1.00  0.00     0.000 HD 
HETATM    8  O   UNL     1     -10.807   4.311  65.016  1.00  0.00    -0.253 OA 
HETATM    9  O   UNL     1      -8.772   5.193  64.623  1.00  0.00    -0.152 OA 
ENDROOT
BRANCH   3  10
HETATM   10  C   UNL     1     -10.836   6.903  68.633  1.00  0.00    -0.236 A  
HETATM   11  C   UNL     1     -11.520   6.257  69.681  1.00  0.00    -0.425 A  
HETATM   12  C   UNL     1     -11.741   6.899  70.907  1.00  0.00    -0.408 A  
HETATM   13  C   UNL     1     -11.270   8.192  71.089  1.00  0.00    -0.257 A  
HETATM   14  O   UNL     1     -11.500   8.894  72.239  1.00  0.00    -0.348 OA 
HETATM   15  C   UNL     1     -10.563   8.826  70.075  1.00  0.00    -0.223 A  
HETATM   16  C   UNL     1     -10.348   8.198  68.855  1.00  0.00    -0.225 A  
HETATM   17  O   UNL     1     -10.100  10.099  70.258  1.00  0.00    -0.390 OA 
HETATM   18  H   UNL     1     -11.178   9.779  72.364  1.00  0.00     0.000 HD 
HETATM   19  H   UNL     1      -9.617  10.533  69.564  1.00  0.00     0.000 HD 
ENDBRANCH   3  10
TORSDOF 1
ENDMDL
MODEL      124
REMARK 921   NORMALIZED FREE ENERGY PREDICTED BY IDOCK:   -3.71 KCAL/MOL
REMARK 922        TOTAL FREE ENERGY PREDICTED BY IDOCK:   -4.02 KCAL/MOL
REMARK 923 INTER-LIGAND FREE ENERGY PREDICTED BY IDOCK:   -3.89 KCAL/MOL
REMARK 924 INTRA-LIGAND FREE ENERGY PREDICTED BY IDOCK:   -0.13 KCAL/MOL
REMARK 927      BINDING AFFINITY PREDICTED BY RF-SCORE:    0.00 PKD
ROOT
HETATM    1  C   UNL     1      -7.657   8.830  67.257  1.00  0.00    -0.089 C  
HETATM    2  C   UNL     1      -8.669   9.137  66.149  1.00  0.00    -0.148 C  
HETATM    3  C   UNL     1     -10.134   8.874  66.601  1.00  0.00    -0.357 C  
HETATM    4  C   UNL     1      -8.398   8.139  64.988  1.00  0.00    -0.136 C  
HETATM    5  N   UNL     1      -8.450  10.524  65.694  1.00  0.00    -0.172 NA 
HETATM    6  H2  UNL     1      -7.487  10.695  65.405  1.00  0.00     0.000 HD 
HETATM    7  H1  UNL     1      -9.124  10.729  64.956  1.00  0.00     0.000 HD 
HETATM    8  O   UNL     1      -8.486   6.924  65.082  1.00  0.00    -0.116 OA 
HETATM    9  O   UNL     1      -8.050   8.743  63.826  1.00  0.00    -0.151 OA 
ENDROOT
BRANCH   3  10
HETATM   10  C   UNL     1     -10.747   9.721  67.703  1.00  0.00    -0.334 A  
HETATM   11  C   UNL     1     -11.282  10.988  67.401  1.00  0.00    -0.355 A  
HETATM   12  C   UNL     1     -11.705  11.857  68.416  1.00  0.00    -0.387 A  
HETATM   13  C   UNL     1     -11.598  11.455  69.741  1.00  0.00    -0.332 A  
HETATM   14  O   UNL     1     -11.940  12.276  70.779  1.00  0.00    -0.473 OA 
HETATM   15  C   UNL     1     -11.104  10.193  70.049  1.00  0.00    -0.308 A  
HETATM   16  C   UNL     1     -10.676   9.331  69.048  1.00  0.00    -0.189 A  
HETATM   17  O   UNL     1     -11.002   9.800  71.353  1.00  0.00    -0.342 OA 
HETATM   18  H   UNL     1     -11.867  12.001  71.685  1.00  0.00     0.000 HD 
HETATM   19  H   UNL     1     -10.664   8.938  71.564  1.00  0.00     0.000 HD 
ENDBRANCH   3  10
TORSDOF 1
ENDMDL
MODEL      125
REMARK 921   NORMALIZED FREE ENERGY PREDICTED BY IDOCK:   -3.68 KCAL/MOL
REMARK 922        TOTAL FREE ENERGY PREDICTED BY IDOCK:   -3.99 KCAL/MOL
REMARK 923 INTER-LIGAND FREE ENERGY PREDICTED BY IDOCK:   -3.95 KCAL/MOL
REMARK 924 INTRA-LIGAND FREE ENERGY PREDICTED BY IDOCK:   -0.04 KCAL/MOL
REMARK 927      BINDING AFFINITY PREDICTED BY RF-SCORE:    0.00 PKD
ROOT
HETATM    1  C   UNL     1     -12.057   9.189  72.202  1.00  0.00    -0.389 C  
HETATM    2  C   UNL     1     -10.952   8.543  71.362  1.00  0.00    -0.264 C  
HETATM    3  C   UNL     1     -11.104   8.858  69.847  1.00  0.00    -0.146 C  
HETATM    4  C   UNL     1     -11.116   7.002  71.494  1.00  0.00    -0.243 C  
HETATM    5  N   UNL     1      -9.648   8.968  71.909  1.00  0.00    -0.319 NA 
HETATM    6  H2  UNL     1      -9.555   8.766  72.905  1.00  0.00     0.000 HD 
HETATM    7  H1  UNL     1      -8.911   8.537  71.350  1.00  0.00     0.000 HD 
HETATM    8  O   UNL     1     -12.102   6.376  71.138  1.00  0.00    -0.307 OA 
HETATM    9  O   UNL     1     -10.040   6.389  72.046  1.00  0.00    -0.178 OA 
ENDROOT
BRANCH   3  10
HETATM   10  C   UNL     1     -10.950  10.287  69.355  1.00  0.00    -0.289 A  
HETATM   11  C   UNL     1      -9.804  10.660  68.625  1.00  0.00    -0.183 A  
HETATM   12  C   UNL     1      -9.557  12.000  68.299  1.00  0.00    -0.204 A  
HETATM   13  C   UNL     1     -10.462  12.974  68.700  1.00  0.00    -0.219 A  
HETATM   14  O   UNL     1     -10.252  14.303  68.463  1.00  0.00    -0.234 OA 
HETATM   15  C   UNL     1     -11.613  12.613  69.390  1.00  0.00    -0.306 A  
HETATM   16  C   UNL     1     -11.860  11.287  69.723  1.00  0.00    -0.437 A  
HETATM   17  O   UNL     1     -12.503  13.573  69.782  1.00  0.00    -0.235 OA 
HETATM   18  H   UNL     1     -10.872  14.969  68.737  1.00  0.00     0.000 HD 
HETATM   19  H   UNL     1     -13.290  13.327  70.254  1.00  0.00     0.000 HD 
ENDBRANCH   3  10
TORSDOF 1
ENDMDL
MODEL      126
REMARK 921   NORMALIZED FREE ENERGY PREDICTED BY IDOCK:   -3.67 KCAL/MOL
REMARK 922        TOTAL FREE ENERGY PREDICTED BY IDOCK:   -3.97 KCAL/MOL
REMARK 923 INTER-LIGAND FREE ENERGY PREDICTED BY IDOCK:   -3.76 KCAL/MOL
REMARK 924 INTRA-LIGAND FREE ENERGY PREDICTED BY IDOCK:   -0.21 KCAL/MOL
REMARK 927      BINDING AFFINITY PREDICTED BY RF-SCORE:    0.00 PKD
ROOT
HETATM    1  C   UNL     1     -10.882   7.683  69.764  1.00  0.00    -0.222 C  
HETATM    2  C   UNL     1     -10.897   9.138  70.243  1.00  0.00    -0.246 C  
HETATM    3  C   UNL     1      -9.497   9.806  70.140  1.00  0.00    -0.277 C  
HETATM    4  C   UNL     1     -11.248   9.120  71.758  1.00  0.00    -0.381 C  
HETATM    5  N   UNL     1     -11.936   9.863  69.485  1.00  0.00    -0.435 NA 
HETATM    6  H2  UNL     1     -12.851   9.418  69.549  1.00  0.00     0.000 HD 
HETATM    7  H1  UNL     1     -11.947  10.832  69.804  1.00  0.00     0.000 HD 
HETATM    8  O   UNL     1     -10.574   8.577  72.620  1.00  0.00    -0.304 OA 
HETATM    9  O   UNL     1     -12.394   9.780  72.056  1.00  0.00    -0.354 OA 
ENDROOT
BRANCH   3  10
HETATM   10  C   UNL     1      -8.865  10.028  68.776  1.00  0.00    -0.137 A  
HETATM   11  C   UNL     1      -7.884   9.137  68.301  1.00  0.00    -0.102 A  
HETATM   12  C   UNL     1      -7.169   9.404  67.126  1.00  0.00    -0.087 A  
HETATM   13  C   UNL     1      -7.441  10.566  66.417  1.00  0.00    -0.133 A  
HETATM   14  O   UNL     1      -6.741  10.913  65.295  1.00  0.00    -0.357 OA 
HETATM   15  C   UNL     1      -8.431  11.436  66.857  1.00  0.00    -0.157 A  
HETATM   16  C   UNL     1      -9.137  11.181  68.026  1.00  0.00    -0.153 A  
HETATM   17  O   UNL     1      -8.697  12.579  66.157  1.00  0.00    -0.414 OA 
HETATM   18  H   UNL     1      -6.927  11.709  64.810  1.00  0.00     0.000 HD 
HETATM   19  H   UNL     1      -9.374  13.174  66.457  1.00  0.00     0.000 HD 
ENDBRANCH   3  10
TORSDOF 1
ENDMDL
MODEL      127
REMARK 921   NORMALIZED FREE ENERGY PREDICTED BY IDOCK:   -3.63 KCAL/MOL
REMARK 922        TOTAL FREE ENERGY PREDICTED BY IDOCK:   -3.93 KCAL/MOL
REMARK 923 INTER-LIGAND FREE ENERGY PREDICTED BY IDOCK:   -3.71 KCAL/MOL
REMARK 924 INTRA-LIGAND FREE ENERGY PREDICTED BY IDOCK:   -0.21 KCAL/MOL
REMARK 927      BINDING AFFINITY PREDICTED BY RF-SCORE:    0.00 PKD
ROOT
HETATM    1  C   UNL     1      -7.426   9.432  67.503  1.00  0.00    -0.091 C  
HETATM    2  C   UNL     1      -8.169  10.103  66.344  1.00  0.00    -0.122 C  
HETATM    3  C   UNL     1      -9.712  10.070  66.537  1.00  0.00    -0.254 C  
HETATM    4  C   UNL     1      -7.883   9.264  65.067  1.00  0.00    -0.111 C  
HETATM    5  N   UNL     1      -7.640  11.473  66.187  1.00  0.00    -0.369 NA 
HETATM    6  H2  UNL     1      -6.627  11.491  66.069  1.00  0.00     0.000 HD 
HETATM    7  H1  UNL     1      -8.134  11.920  65.415  1.00  0.00     0.000 HD 
HETATM    8  O   UNL     1      -8.194   8.092  64.921  1.00  0.00    -0.150 OA 
HETATM    9  O   UNL     1      -7.245   9.961  64.094  1.00  0.00    -0.125 OA 
ENDROOT
BRANCH   3  10
HETATM   10  C   UNL     1     -10.346  10.839  67.682  1.00  0.00    -0.236 A  
HETATM   11  C   UNL     1     -10.559  10.207  68.923  1.00  0.00    -0.237 A  
HETATM   12  C   UNL     1     -11.286  10.836  69.943  1.00  0.00    -0.371 A  
HETATM   13  C   UNL     1     -11.799  12.107  69.723  1.00  0.00    -0.327 A  
HETATM   14  O   UNL     1     -12.564  12.752  70.655  1.00  0.00    -0.267 OA 
HETATM   15  C   UNL     1     -11.566  12.755  68.516  1.00  0.00    -0.321 A  
HETATM   16  C   UNL     1     -10.853  12.134  67.499  1.00  0.00    -0.283 A  
HETATM   17  O   UNL     1     -12.072  14.007  68.304  1.00  0.00    -0.449 OA 
HETATM   18  H   UNL     1     -12.915  13.622  70.505  1.00  0.00     0.000 HD 
HETATM   19  H   UNL     1     -11.913  14.450  67.479  1.00  0.00     0.000 HD 
ENDBRANCH   3  10
TORSDOF 1
ENDMDL
MODEL      128
REMARK 921   NORMALIZED FREE ENERGY PREDICTED BY IDOCK:   -3.61 KCAL/MOL
REMARK 922        TOTAL FREE ENERGY PREDICTED BY IDOCK:   -3.91 KCAL/MOL
REMARK 923 INTER-LIGAND FREE ENERGY PREDICTED BY IDOCK:   -3.82 KCAL/MOL
REMARK 924 INTRA-LIGAND FREE ENERGY PREDICTED BY IDOCK:   -0.09 KCAL/MOL
REMARK 927      BINDING AFFINITY PREDICTED BY RF-SCORE:    0.00 PKD
ROOT
HETATM    1  C   UNL     1      -9.076   6.087  73.335  1.00  0.00    -0.131 C  
HETATM    2  C   UNL     1      -9.131   5.888  71.817  1.00  0.00    -0.142 C  
HETATM    3  C   UNL     1     -10.522   6.254  71.226  1.00  0.00    -0.264 C  
HETATM    4  C   UNL     1      -8.942   4.368  71.547  1.00  0.00    -0.123 C  
HETATM    5  N   UNL     1      -8.028   6.657  71.209  1.00  0.00    -0.106 NA 
HETATM    6  H2  UNL     1      -7.118   6.420  71.605  1.00  0.00     0.000 HD 
HETATM    7  H1  UNL     1      -8.064   6.524  70.199  1.00  0.00     0.000 HD 
HETATM    8  O   UNL     1      -9.695   3.492  71.944  1.00  0.00    -0.145 OA 
HETATM    9  O   UNL     1      -7.843   4.083  70.805  1.00  0.00    -0.051 OA 
ENDROOT
BRANCH   3  10
HETATM   10  C   UNL     1     -11.009   7.692  71.278  1.00  0.00    -0.260 A  
HETATM   11  C   UNL     1     -12.175   8.015  71.998  1.00  0.00    -0.374 A  
HETATM   12  C   UNL     1     -12.738   9.296  71.931  1.00  0.00    -0.474 A  
HETATM   13  C   UNL     1     -12.128  10.264  71.143  1.00  0.00    -0.395 A  
HETATM   14  O   UNL     1     -12.656  11.515  70.990  1.00  0.00    -0.383 OA 
HETATM   15  C   UNL     1     -10.957   9.967  70.456  1.00  0.00    -0.326 A  
HETATM   16  C   UNL     1     -10.399   8.696  70.512  1.00  0.00    -0.234 A  
HETATM   17  O   UNL     1     -10.359  10.922  69.683  1.00  0.00    -0.415 OA 
HETATM   18  H   UNL     1     -12.239  12.177  70.451  1.00  0.00     0.000 HD 
HETATM   19  H   UNL     1      -9.559  10.719  69.213  1.00  0.00     0.000 HD 
ENDBRANCH   3  10
TORSDOF 1
ENDMDL
MODEL      129
REMARK 921   NORMALIZED FREE ENERGY PREDICTED BY IDOCK:   -3.55 KCAL/MOL
REMARK 922        TOTAL FREE ENERGY PREDICTED BY IDOCK:   -3.85 KCAL/MOL
REMARK 923 INTER-LIGAND FREE ENERGY PREDICTED BY IDOCK:   -3.77 KCAL/MOL
REMARK 924 INTRA-LIGAND FREE ENERGY PREDICTED BY IDOCK:   -0.08 KCAL/MOL
REMARK 927      BINDING AFFINITY PREDICTED BY RF-SCORE:    0.00 PKD
ROOT
HETATM    1  C   UNL     1     -10.135   8.486  69.953  1.00  0.00    -0.195 C  
HETATM    2  C   UNL     1      -9.743   9.000  68.565  1.00  0.00    -0.159 C  
HETATM    3  C   UNL     1     -10.873   9.842  67.909  1.00  0.00    -0.312 C  
HETATM    4  C   UNL     1      -9.555   7.756  67.651  1.00  0.00    -0.146 C  
HETATM    5  N   UNL     1      -8.472   9.742  68.689  1.00  0.00    -0.113 NA 
HETATM    6  H2  UNL     1      -7.736   9.189  69.127  1.00  0.00     0.000 HD 
HETATM    7  H1  UNL     1      -8.210  10.084  67.765  1.00  0.00     0.000 HD 
HETATM    8  O   UNL     1     -10.433   6.952  67.383  1.00  0.00    -0.204 OA 
HETATM    9  O   UNL     1      -8.299   7.636  67.154  1.00  0.00    -0.118 OA 
ENDROOT
BRANCH   3  10
HETATM   10  C   UNL     1     -11.283  11.167  68.528  1.00  0.00    -0.318 A  
HETATM   11  C   UNL     1     -10.849  12.377  67.953  1.00  0.00    -0.253 A  
HETATM   12  C   UNL     1     -11.074  13.605  68.590  1.00  0.00    -0.299 A  
HETATM   13  C   UNL     1     -11.741  13.625  69.807  1.00  0.00    -0.297 A  
HETATM   14  O   UNL     1     -11.943  14.782  70.507  1.00  0.00    -0.274 OA 
HETATM   15  C   UNL     1     -12.205  12.440  70.367  1.00  0.00    -0.287 A  
HETATM   16  C   UNL     1     -11.979  11.220  69.744  1.00  0.00    -0.431 A  
HETATM   17  O   UNL     1     -12.863  12.463  71.564  1.00  0.00    -0.366 OA 
HETATM   18  H   UNL     1     -12.400  14.795  71.340  1.00  0.00     0.000 HD 
HETATM   19  H   UNL     1     -13.180  11.654  71.947  1.00  0.00     0.000 HD 
ENDBRANCH   3  10
TORSDOF 1
ENDMDL
MODEL      130
REMARK 921   NORMALIZED FREE ENERGY PREDICTED BY IDOCK:   -3.54 KCAL/MOL
REMARK 922        TOTAL FREE ENERGY PREDICTED BY IDOCK:   -3.84 KCAL/MOL
REMARK 923 INTER-LIGAND FREE ENERGY PREDICTED BY IDOCK:   -3.77 KCAL/MOL
REMARK 924 INTRA-LIGAND FREE ENERGY PREDICTED BY IDOCK:   -0.07 KCAL/MOL
REMARK 927      BINDING AFFINITY PREDICTED BY RF-SCORE:    0.00 PKD
ROOT
HETATM    1  C   UNL     1     -12.376   6.986  71.296  1.00  0.00    -0.426 C  
HETATM    2  C   UNL     1     -10.911   6.792  71.699  1.00  0.00    -0.235 C  
HETATM    3  C   UNL     1     -10.125   5.941  70.662  1.00  0.00    -0.252 C  
HETATM    4  C   UNL     1     -10.903   5.968  73.018  1.00  0.00    -0.260 C  
HETATM    5  N   UNL     1     -10.313   8.123  71.922  1.00  0.00    -0.217 NA 
HETATM    6  H2  UNL     1     -10.835   8.681  72.597  1.00  0.00     0.000 HD 
HETATM    7  H1  UNL     1      -9.337   7.993  72.191  1.00  0.00     0.000 HD 
HETATM    8  O   UNL     1     -11.349   4.837  73.134  1.00  0.00    -0.303 OA 
HETATM    9  O   UNL     1     -10.337   6.624  74.061  1.00  0.00    -0.333 OA 
ENDROOT
BRANCH   3  10
HETATM   10  C   UNL     1      -9.899   6.479  69.260  1.00  0.00    -0.161 A  
HETATM   11  C   UNL     1     -10.979   6.577  68.362  1.00  0.00    -0.358 A  
HETATM   12  C   UNL     1     -10.776   6.913  67.016  1.00  0.00    -0.432 A  
HETATM   13  C   UNL     1      -9.485   7.160  66.567  1.00  0.00    -0.156 A  
HETATM   14  O   UNL     1      -9.213   7.437  65.257  1.00  0.00    -0.307 OA 
HETATM   15  C   UNL     1      -8.416   7.100  67.453  1.00  0.00    -0.122 A  
HETATM   16  C   UNL     1      -8.610   6.759  68.785  1.00  0.00    -0.123 A  
HETATM   17  O   UNL     1      -7.147   7.344  67.008  1.00  0.00    -0.079 OA 
HETATM   18  H   UNL     1      -8.329   7.606  64.950  1.00  0.00     0.000 HD 
HETATM   19  H   UNL     1      -6.416   7.304  67.612  1.00  0.00     0.000 HD 
ENDBRANCH   3  10
TORSDOF 1
ENDMDL
MODEL      131
REMARK 921   NORMALIZED FREE ENERGY PREDICTED BY IDOCK:   -3.54 KCAL/MOL
REMARK 922        TOTAL FREE ENERGY PREDICTED BY IDOCK:   -3.84 KCAL/MOL
REMARK 923 INTER-LIGAND FREE ENERGY PREDICTED BY IDOCK:   -3.74 KCAL/MOL
REMARK 924 INTRA-LIGAND FREE ENERGY PREDICTED BY IDOCK:   -0.10 KCAL/MOL
REMARK 927      BINDING AFFINITY PREDICTED BY RF-SCORE:    0.00 PKD
ROOT
HETATM    1  C   UNL     1      -6.915  18.122  68.684  1.00  0.00    -0.262 C  
HETATM    2  C   UNL     1      -7.827  18.234  67.459  1.00  0.00    -0.227 C  
HETATM    3  C   UNL     1      -7.693  17.008  66.512  1.00  0.00    -0.327 C  
HETATM    4  C   UNL     1      -7.342  19.461  66.636  1.00  0.00    -0.228 C  
HETATM    5  N   UNL     1      -9.210  18.447  67.931  1.00  0.00    -0.278 NA 
HETATM    6  H2  UNL     1      -9.292  19.247  68.557  1.00  0.00     0.000 HD 
HETATM    7  H1  UNL     1      -9.817  18.523  67.115  1.00  0.00     0.000 HD 
HETATM    8  O   UNL     1      -6.233  19.567  66.136  1.00  0.00    -0.173 OA 
HETATM    9  O   UNL     1      -8.280  20.431  66.509  1.00  0.00    -0.238 OA 
ENDROOT
BRANCH   3  10
HETATM   10  C   UNL     1      -8.132  15.634  66.989  1.00  0.00    -0.276 A  
HETATM   11  C   UNL     1      -9.393  15.129  66.616  1.00  0.00    -0.291 A  
HETATM   12  C   UNL     1      -9.891  13.942  67.170  1.00  0.00    -0.241 A  
HETATM   13  C   UNL     1      -9.123  13.252  68.099  1.00  0.00    -0.207 A  
HETATM   14  O   UNL     1      -9.574  12.120  68.717  1.00  0.00    -0.384 OA 
HETATM   15  C   UNL     1      -7.863  13.723  68.448  1.00  0.00    -0.143 A  
HETATM   16  C   UNL     1      -7.367  14.903  67.908  1.00  0.00    -0.159 A  
HETATM   17  O   UNL     1      -7.108  13.041  69.361  1.00  0.00    -0.308 OA 
HETATM   18  H   UNL     1      -9.048  11.648  69.353  1.00  0.00     0.000 HD 
HETATM   19  H   UNL     1      -6.247  13.363  69.600  1.00  0.00     0.000 HD 
ENDBRANCH   3  10
TORSDOF 1
ENDMDL
MODEL      132
REMARK 921   NORMALIZED FREE ENERGY PREDICTED BY IDOCK:   -3.51 KCAL/MOL
REMARK 922        TOTAL FREE ENERGY PREDICTED BY IDOCK:   -3.81 KCAL/MOL
REMARK 923 INTER-LIGAND FREE ENERGY PREDICTED BY IDOCK:   -3.59 KCAL/MOL
REMARK 924 INTRA-LIGAND FREE ENERGY PREDICTED BY IDOCK:   -0.22 KCAL/MOL
REMARK 927      BINDING AFFINITY PREDICTED BY RF-SCORE:    0.00 PKD
ROOT
HETATM    1  C   UNL     1      -8.177   6.119  71.132  1.00  0.00    -0.123 C  
HETATM    2  C   UNL     1      -9.056   6.074  72.385  1.00  0.00    -0.136 C  
HETATM    3  C   UNL     1      -9.480   7.493  72.858  1.00  0.00    -0.239 C  
HETATM    4  C   UNL     1      -8.188   5.486  73.534  1.00  0.00    -0.113 C  
HETATM    5  N   UNL     1     -10.208   5.192  72.110  1.00  0.00    -0.196 NA 
HETATM    6  H2  UNL     1      -9.926   4.265  71.793  1.00  0.00     0.000 HD 
HETATM    7  H1  UNL     1     -10.793   5.161  72.945  1.00  0.00     0.000 HD 
HETATM    8  O   UNL     1      -7.164   5.995  73.962  1.00  0.00    -0.087 OA 
HETATM    9  O   UNL     1      -8.678   4.328  74.043  1.00  0.00    -0.097 OA 
ENDROOT
BRANCH   3  10
HETATM   10  C   UNL     1     -10.387   8.340  71.983  1.00  0.00    -0.350 A  
HETATM   11  C   UNL     1      -9.829   9.263  71.077  1.00  0.00    -0.355 A  
HETATM   12  C   UNL     1     -10.635  10.171  70.376  1.00  0.00    -0.287 A  
HETATM   13  C   UNL     1     -12.009  10.151  70.578  1.00  0.00    -0.311 A  
HETATM   14  O   UNL     1     -12.845  11.045  69.969  1.00  0.00    -0.170 OA 
HETATM   15  C   UNL     1     -12.574   9.222  71.442  1.00  0.00    -0.336 A  
HETATM   16  C   UNL     1     -11.779   8.326  72.145  1.00  0.00    -0.429 A  
HETATM   17  O   UNL     1     -13.927   9.205  71.637  1.00  0.00    -0.360 OA 
HETATM   18  H   UNL     1     -13.785  11.032  70.107  1.00  0.00     0.000 HD 
HETATM   19  H   UNL     1     -14.313   8.570  72.228  1.00  0.00     0.000 HD 
ENDBRANCH   3  10
TORSDOF 1
ENDMDL
MODEL      133
REMARK 921   NORMALIZED FREE ENERGY PREDICTED BY IDOCK:   -3.49 KCAL/MOL
REMARK 922        TOTAL FREE ENERGY PREDICTED BY IDOCK:   -3.79 KCAL/MOL
REMARK 923 INTER-LIGAND FREE ENERGY PREDICTED BY IDOCK:   -3.86 KCAL/MOL
REMARK 924 INTRA-LIGAND FREE ENERGY PREDICTED BY IDOCK:    0.08 KCAL/MOL
REMARK 927      BINDING AFFINITY PREDICTED BY RF-SCORE:    0.00 PKD
ROOT
HETATM    1  C   UNL     1      -9.012   9.278  67.094  1.00  0.00    -0.141 C  
HETATM    2  C   UNL     1      -8.536  10.402  68.019  1.00  0.00    -0.123 C  
HETATM    3  C   UNL     1      -9.656  10.884  68.984  1.00  0.00    -0.170 C  
HETATM    4  C   UNL     1      -8.197  11.624  67.119  1.00  0.00    -0.165 C  
HETATM    5  N   UNL     1      -7.328   9.936  68.728  1.00  0.00    -0.076 NA 
HETATM    6  H2  UNL     1      -6.599   9.614  68.093  1.00  0.00     0.000 HD 
HETATM    7  H1  UNL     1      -7.011  10.685  69.344  1.00  0.00     0.000 HD 
HETATM    8  O   UNL     1      -8.999  12.206  66.406  1.00  0.00    -0.200 OA 
HETATM    9  O   UNL     1      -6.898  12.008  67.197  1.00  0.00    -0.139 OA 
ENDROOT
BRANCH   3  10
HETATM   10  C   UNL     1     -10.197   9.939  70.043  1.00  0.00    -0.319 A  
HETATM   11  C   UNL     1     -11.585   9.846  70.260  1.00  0.00    -0.319 A  
HETATM   12  C   UNL     1     -12.104   9.110  71.335  1.00  0.00    -0.409 A  
HETATM   13  C   UNL     1     -11.230   8.459  72.195  1.00  0.00    -0.361 A  
HETATM   14  O   UNL     1     -11.667   7.772  73.293  1.00  0.00    -0.659 OA 
HETATM   15  C   UNL     1      -9.859   8.516  71.970  1.00  0.00    -0.312 A  
HETATM   16  C   UNL     1      -9.340   9.249  70.912  1.00  0.00    -0.313 A  
HETATM   17  O   UNL     1      -9.002   7.872  72.818  1.00  0.00    -0.157 OA 
HETATM   18  H   UNL     1     -11.069   7.327  73.881  1.00  0.00     0.000 HD 
HETATM   19  H   UNL     1      -8.065   7.911  72.665  1.00  0.00     0.000 HD 
ENDBRANCH   3  10
TORSDOF 1
ENDMDL
MODEL      134
REMARK 921   NORMALIZED FREE ENERGY PREDICTED BY IDOCK:   -3.47 KCAL/MOL
REMARK 922        TOTAL FREE ENERGY PREDICTED BY IDOCK:   -3.76 KCAL/MOL
REMARK 923 INTER-LIGAND FREE ENERGY PREDICTED BY IDOCK:   -4.13 KCAL/MOL
REMARK 924 INTRA-LIGAND FREE ENERGY PREDICTED BY IDOCK:    0.37 KCAL/MOL
REMARK 927      BINDING AFFINITY PREDICTED BY RF-SCORE:    0.00 PKD
ROOT
HETATM    1  C   UNL     1      -9.893  12.341  68.015  1.00  0.00    -0.204 C  
HETATM    2  C   UNL     1     -10.967  11.425  67.420  1.00  0.00    -0.273 C  
HETATM    3  C   UNL     1     -10.544   9.930  67.443  1.00  0.00    -0.338 C  
HETATM    4  C   UNL     1     -11.111  11.802  65.918  1.00  0.00    -0.302 C  
HETATM    5  N   UNL     1     -12.235  11.674  68.135  1.00  0.00    -0.455 NA 
HETATM    6  H2  UNL     1     -12.505  12.657  68.124  1.00  0.00     0.000 HD 
HETATM    7  H1  UNL     1     -12.950  11.065  67.738  1.00  0.00     0.000 HD 
HETATM    8  O   UNL     1     -10.218  11.714  65.090  1.00  0.00    -0.250 OA 
HETATM    9  O   UNL     1     -12.350  12.245  65.588  1.00  0.00    -0.619 OA 
ENDROOT
BRANCH   3  10
HETATM   10  C   UNL     1     -10.359   9.218  68.772  1.00  0.00    -0.231 A  
HETATM   11  C   UNL     1     -10.254   9.965  69.961  1.00  0.00    -0.319 A  
HETATM   12  C   UNL     1      -9.921   9.351  71.177  1.00  0.00    -0.311 A  
HETATM   13  C   UNL     1      -9.697   7.981  71.205  1.00  0.00    -0.160 A  
HETATM   14  O   UNL     1      -9.314   7.331  72.344  1.00  0.00    -0.137 OA 
HETATM   15  C   UNL     1      -9.831   7.229  70.044  1.00  0.00    -0.175 A  
HETATM   16  C   UNL     1     -10.153   7.833  68.835  1.00  0.00    -0.201 A  
HETATM   17  O   UNL     1      -9.611   5.880  70.075  1.00  0.00    -0.157 OA 
HETATM   18  H   UNL     1      -9.161   6.393  72.363  1.00  0.00     0.000 HD 
HETATM   19  H   UNL     1      -9.703   5.366  69.282  1.00  0.00     0.000 HD 
ENDBRANCH   3  10
TORSDOF 1
ENDMDL
MODEL      135
REMARK 921   NORMALIZED FREE ENERGY PREDICTED BY IDOCK:   -3.46 KCAL/MOL
REMARK 922        TOTAL FREE ENERGY PREDICTED BY IDOCK:   -3.76 KCAL/MOL
REMARK 923 INTER-LIGAND FREE ENERGY PREDICTED BY IDOCK:   -3.64 KCAL/MOL
REMARK 924 INTRA-LIGAND FREE ENERGY PREDICTED BY IDOCK:   -0.11 KCAL/MOL
REMARK 927      BINDING AFFINITY PREDICTED BY RF-SCORE:    0.00 PKD
ROOT
HETATM    1  C   UNL     1     -10.955   6.208  67.907  1.00  0.00    -0.399 C  
HETATM    2  C   UNL     1      -9.890   7.256  68.245  1.00  0.00    -0.154 C  
HETATM    3  C   UNL     1     -10.346   8.212  69.384  1.00  0.00    -0.219 C  
HETATM    4  C   UNL     1      -9.710   8.151  66.987  1.00  0.00    -0.212 C  
HETATM    5  N   UNL     1      -8.631   6.551  68.557  1.00  0.00    -0.123 NA 
HETATM    6  H2  UNL     1      -8.339   5.920  67.811  1.00  0.00     0.000 HD 
HETATM    7  H1  UNL     1      -7.921   7.249  68.782  1.00  0.00     0.000 HD 
HETATM    8  O   UNL     1     -10.591   8.837  66.490  1.00  0.00    -0.196 OA 
HETATM    9  O   UNL     1      -8.457   8.114  66.471  1.00  0.00    -0.121 OA 
ENDROOT
BRANCH   3  10
HETATM   10  C   UNL     1     -10.571   7.665  70.783  1.00  0.00    -0.224 A  
HETATM   11  C   UNL     1      -9.545   7.748  71.745  1.00  0.00    -0.204 A  
HETATM   12  C   UNL     1      -9.662   7.111  72.987  1.00  0.00    -0.216 A  
HETATM   13  C   UNL     1     -10.814   6.390  73.274  1.00  0.00    -0.244 A  
HETATM   14  O   UNL     1     -10.967   5.700  74.443  1.00  0.00    -0.376 OA 
HETATM   15  C   UNL     1     -11.847   6.331  72.347  1.00  0.00    -0.226 A  
HETATM   16  C   UNL     1     -11.734   6.953  71.110  1.00  0.00    -0.381 A  
HETATM   17  O   UNL     1     -12.980   5.622  72.632  1.00  0.00    -0.349 OA 
HETATM   18  H   UNL     1     -11.756   5.207  74.639  1.00  0.00     0.000 HD 
HETATM   19  H   UNL     1     -13.687   5.581  71.999  1.00  0.00     0.000 HD 
ENDBRANCH   3  10
TORSDOF 1
ENDMDL
MODEL      136
REMARK 921   NORMALIZED FREE ENERGY PREDICTED BY IDOCK:   -3.45 KCAL/MOL
REMARK 922        TOTAL FREE ENERGY PREDICTED BY IDOCK:   -3.74 KCAL/MOL
REMARK 923 INTER-LIGAND FREE ENERGY PREDICTED BY IDOCK:   -3.69 KCAL/MOL
REMARK 924 INTRA-LIGAND FREE ENERGY PREDICTED BY IDOCK:   -0.06 KCAL/MOL
REMARK 927      BINDING AFFINITY PREDICTED BY RF-SCORE:    0.00 PKD
ROOT
HETATM    1  C   UNL     1     -10.746  13.060  68.396  1.00  0.00    -0.273 C  
HETATM    2  C   UNL     1     -10.771  12.867  66.877  1.00  0.00    -0.257 C  
HETATM    3  C   UNL     1      -9.508  12.124  66.358  1.00  0.00    -0.238 C  
HETATM    4  C   UNL     1     -10.725  14.282  66.233  1.00  0.00    -0.297 C  
HETATM    5  N   UNL     1     -12.029  12.181  66.519  1.00  0.00    -0.631 NA 
HETATM    6  H2  UNL     1     -12.854  12.668  66.867  1.00  0.00     0.000 HD 
HETATM    7  H1  UNL     1     -12.045  12.053  65.507  1.00  0.00     0.000 HD 
HETATM    8  O   UNL     1      -9.810  15.079  66.372  1.00  0.00    -0.245 OA 
HETATM    9  O   UNL     1     -11.813  14.567  65.477  1.00  0.00    -0.351 OA 
ENDROOT
BRANCH   3  10
HETATM   10  C   UNL     1      -9.264  10.680  66.761  1.00  0.00    -0.174 A  
HETATM   11  C   UNL     1      -9.473   9.644  65.830  1.00  0.00    -0.308 A  
HETATM   12  C   UNL     1      -9.414   8.298  66.216  1.00  0.00    -0.271 A  
HETATM   13  C   UNL     1      -9.138   7.985  67.540  1.00  0.00    -0.137 A  
HETATM   14  O   UNL     1      -9.122   6.695  67.993  1.00  0.00    -0.118 OA 
HETATM   15  C   UNL     1      -8.896   8.997  68.460  1.00  0.00    -0.134 A  
HETATM   16  C   UNL     1      -8.961  10.333  68.085  1.00  0.00    -0.130 A  
HETATM   17  O   UNL     1      -8.624   8.686  69.763  1.00  0.00    -0.125 OA 
HETATM   18  H   UNL     1      -8.934   6.481  68.900  1.00  0.00     0.000 HD 
HETATM   19  H   UNL     1      -8.458   9.377  70.392  1.00  0.00     0.000 HD 
ENDBRANCH   3  10
TORSDOF 1
ENDMDL
MODEL      137
REMARK 921   NORMALIZED FREE ENERGY PREDICTED BY IDOCK:   -3.44 KCAL/MOL
REMARK 922        TOTAL FREE ENERGY PREDICTED BY IDOCK:   -3.73 KCAL/MOL
REMARK 923 INTER-LIGAND FREE ENERGY PREDICTED BY IDOCK:   -3.84 KCAL/MOL
REMARK 924 INTRA-LIGAND FREE ENERGY PREDICTED BY IDOCK:    0.11 KCAL/MOL
REMARK 927      BINDING AFFINITY PREDICTED BY RF-SCORE:    0.00 PKD
ROOT
HETATM    1  C   UNL     1      -7.722   9.166  67.104  1.00  0.00    -0.098 C  
HETATM    2  C   UNL     1      -9.119   9.657  66.712  1.00  0.00    -0.146 C  
HETATM    3  C   UNL     1     -10.206   8.563  66.918  1.00  0.00    -0.375 C  
HETATM    4  C   UNL     1      -9.093   9.947  65.185  1.00  0.00    -0.211 C  
HETATM    5  N   UNL     1      -9.402  10.895  67.465  1.00  0.00    -0.154 NA 
HETATM    6  H2  UNL     1      -8.684  11.607  67.334  1.00  0.00     0.000 HD 
HETATM    7  H1  UNL     1     -10.332  11.222  67.204  1.00  0.00     0.000 HD 
HETATM    8  O   UNL     1      -8.867   9.112  64.323  1.00  0.00    -0.186 OA 
HETATM    9  O   UNL     1      -9.355  11.241  64.876  1.00  0.00    -0.214 OA 
ENDROOT
BRANCH   3  10
HETATM   10  C   UNL     1     -10.528   8.073  68.319  1.00  0.00    -0.210 A  
HETATM   11  C   UNL     1     -10.758   6.703  68.550  1.00  0.00    -0.308 A  
HETATM   12  C   UNL     1     -11.215   6.243  69.792  1.00  0.00    -0.499 A  
HETATM   13  C   UNL     1     -11.438   7.158  70.813  1.00  0.00    -0.305 A  
HETATM   14  O   UNL     1     -11.936   6.783  72.029  1.00  0.00    -0.307 OA 
HETATM   15  C   UNL     1     -11.181   8.508  70.607  1.00  0.00    -0.252 A  
HETATM   16  C   UNL     1     -10.735   8.970  69.376  1.00  0.00    -0.202 A  
HETATM   17  O   UNL     1     -11.400   9.406  71.614  1.00  0.00    -0.372 OA 
HETATM   18  H   UNL     1     -12.089   7.409  72.727  1.00  0.00     0.000 HD 
HETATM   19  H   UNL     1     -11.224  10.329  71.474  1.00  0.00     0.000 HD 
ENDBRANCH   3  10
TORSDOF 1
ENDMDL
MODEL      138
REMARK 921   NORMALIZED FREE ENERGY PREDICTED BY IDOCK:   -3.43 KCAL/MOL
REMARK 922        TOTAL FREE ENERGY PREDICTED BY IDOCK:   -3.72 KCAL/MOL
REMARK 923 INTER-LIGAND FREE ENERGY PREDICTED BY IDOCK:   -3.50 KCAL/MOL
REMARK 924 INTRA-LIGAND FREE ENERGY PREDICTED BY IDOCK:   -0.21 KCAL/MOL
REMARK 927      BINDING AFFINITY PREDICTED BY RF-SCORE:    0.00 PKD
ROOT
HETATM    1  C   UNL     1      -9.484  16.025  66.385  1.00  0.00    -0.322 C  
HETATM    2  C   UNL     1      -8.576  15.400  67.449  1.00  0.00    -0.179 C  
HETATM    3  C   UNL     1      -9.178  14.096  68.044  1.00  0.00    -0.195 C  
HETATM    4  C   UNL     1      -8.495  16.407  68.632  1.00  0.00    -0.229 C  
HETATM    5  N   UNL     1      -7.240  15.197  66.855  1.00  0.00    -0.306 NA 
HETATM    6  H2  UNL     1      -6.852  16.053  66.460  1.00  0.00     0.000 HD 
HETATM    7  H1  UNL     1      -6.635  14.782  67.564  1.00  0.00     0.000 HD 
HETATM    8  O   UNL     1      -9.449  16.775  69.298  1.00  0.00    -0.211 OA 
HETATM    9  O   UNL     1      -7.237  16.853  68.875  1.00  0.00    -0.209 OA 
ENDROOT
BRANCH   3  10
HETATM   10  C   UNL     1      -9.354  12.874  67.159  1.00  0.00    -0.229 A  
HETATM   11  C   UNL     1     -10.615  12.585  66.600  1.00  0.00    -0.259 A  
HETATM   12  C   UNL     1     -10.847  11.384  65.917  1.00  0.00    -0.292 A  
HETATM   13  C   UNL     1      -9.812  10.468  65.785  1.00  0.00    -0.237 A  
HETATM   14  O   UNL     1      -9.988   9.255  65.180  1.00  0.00    -0.395 OA 
HETATM   15  C   UNL     1      -8.555  10.758  66.301  1.00  0.00    -0.162 A  
HETATM   16  C   UNL     1      -8.320  11.943  66.986  1.00  0.00    -0.178 A  
HETATM   17  O   UNL     1      -7.538   9.854  66.169  1.00  0.00    -0.099 OA 
HETATM   18  H   UNL     1      -9.279   8.628  65.089  1.00  0.00     0.000 HD 
HETATM   19  H   UNL     1      -6.678  10.052  66.521  1.00  0.00     0.000 HD 
ENDBRANCH   3  10
TORSDOF 1
ENDMDL
MODEL      139
REMARK 921   NORMALIZED FREE ENERGY PREDICTED BY IDOCK:   -3.40 KCAL/MOL
REMARK 922        TOTAL FREE ENERGY PREDICTED BY IDOCK:   -3.69 KCAL/MOL
REMARK 923 INTER-LIGAND FREE ENERGY PREDICTED BY IDOCK:   -3.54 KCAL/MOL
REMARK 924 INTRA-LIGAND FREE ENERGY PREDICTED BY IDOCK:   -0.15 KCAL/MOL
REMARK 927      BINDING AFFINITY PREDICTED BY RF-SCORE:    0.00 PKD
ROOT
HETATM    1  C   UNL     1      -9.154   9.409  70.564  1.00  0.00    -0.308 C  
HETATM    2  C   UNL     1     -10.649   9.092  70.471  1.00  0.00    -0.227 C  
HETATM    3  C   UNL     1     -10.915   7.679  69.877  1.00  0.00    -0.208 C  
HETATM    4  C   UNL     1     -11.271  10.100  69.464  1.00  0.00    -0.238 C  
HETATM    5  N   UNL     1     -11.243   9.272  71.811  1.00  0.00    -0.374 NA 
HETATM    6  H2  UNL     1     -11.061  10.197  72.200  1.00  0.00     0.000 HD 
HETATM    7  H1  UNL     1     -12.240   9.062  71.749  1.00  0.00     0.000 HD 
HETATM    8  O   UNL     1     -10.958  10.188  68.287  1.00  0.00    -0.245 OA 
HETATM    9  O   UNL     1     -12.223  10.894  70.012  1.00  0.00    -0.315 OA 
ENDROOT
BRANCH   3  10
HETATM   10  C   UNL     1     -10.474   6.444  70.642  1.00  0.00    -0.269 A  
HETATM   11  C   UNL     1      -9.416   5.653  70.153  1.00  0.00    -0.200 A  
HETATM   12  C   UNL     1      -9.094   4.424  70.744  1.00  0.00    -0.182 A  
HETATM   13  C   UNL     1      -9.830   3.985  71.837  1.00  0.00    -0.177 A  
HETATM   14  O   UNL     1      -9.605   2.772  72.424  1.00  0.00    -0.105 OA 
HETATM   15  C   UNL     1     -10.853   4.773  72.350  1.00  0.00    -0.102 A  
HETATM   16  C   UNL     1     -11.182   5.988  71.763  1.00  0.00    -0.333 A  
HETATM   17  O   UNL     1     -11.575   4.338  73.426  1.00  0.00    -0.257 OA 
HETATM   18  H   UNL     1     -10.108   2.471  73.172  1.00  0.00     0.000 HD 
HETATM   19  H   UNL     1     -12.275   4.876  73.778  1.00  0.00     0.000 HD 
ENDBRANCH   3  10
TORSDOF 1
ENDMDL
MODEL      140
REMARK 921   NORMALIZED FREE ENERGY PREDICTED BY IDOCK:   -3.39 KCAL/MOL
REMARK 922        TOTAL FREE ENERGY PREDICTED BY IDOCK:   -3.67 KCAL/MOL
REMARK 923 INTER-LIGAND FREE ENERGY PREDICTED BY IDOCK:   -3.65 KCAL/MOL
REMARK 924 INTRA-LIGAND FREE ENERGY PREDICTED BY IDOCK:   -0.02 KCAL/MOL
REMARK 927      BINDING AFFINITY PREDICTED BY RF-SCORE:    0.00 PKD
ROOT
HETATM    1  C   UNL     1      -7.923   7.904  68.525  1.00  0.00    -0.121 C  
HETATM    2  C   UNL     1      -9.420   7.941  68.201  1.00  0.00    -0.147 C  
HETATM    3  C   UNL     1     -10.140   6.620  68.595  1.00  0.00    -0.169 C  
HETATM    4  C   UNL     1      -9.552   8.051  66.655  1.00  0.00    -0.230 C  
HETATM    5  N   UNL     1     -10.004   9.130  68.852  1.00  0.00    -0.175 NA 
HETATM    6  H2  UNL     1      -9.525   9.993  68.596  1.00  0.00     0.000 HD 
HETATM    7  H1  UNL     1     -11.001   9.155  68.635  1.00  0.00     0.000 HD 
HETATM    8  O   UNL     1      -9.142   7.219  65.861  1.00  0.00    -0.128 OA 
HETATM    9  O   UNL     1     -10.185   9.178  66.246  1.00  0.00    -0.276 OA 
ENDROOT
BRANCH   3  10
HETATM   10  C   UNL     1     -10.240   6.223  70.057  1.00  0.00    -0.237 A  
HETATM   11  C   UNL     1      -9.759   4.969  70.481  1.00  0.00    -0.273 A  
HETATM   12  C   UNL     1      -9.983   4.509  71.786  1.00  0.00    -0.264 A  
HETATM   13  C   UNL     1     -10.688   5.309  72.675  1.00  0.00    -0.239 A  
HETATM   14  O   UNL     1     -10.989   4.896  73.942  1.00  0.00    -0.303 OA 
HETATM   15  C   UNL     1     -11.137   6.563  72.278  1.00  0.00    -0.263 A  
HETATM   16  C   UNL     1     -10.925   7.021  70.985  1.00  0.00    -0.279 A  
HETATM   17  O   UNL     1     -11.830   7.349  73.156  1.00  0.00    -0.548 OA 
HETATM   18  H   UNL     1     -11.471   5.444  74.551  1.00  0.00     0.000 HD 
HETATM   19  H   UNL     1     -12.138   8.206  72.886  1.00  0.00     0.000 HD 
ENDBRANCH   3  10
TORSDOF 1
ENDMDL
MODEL      141
REMARK 921   NORMALIZED FREE ENERGY PREDICTED BY IDOCK:   -3.35 KCAL/MOL
REMARK 922        TOTAL FREE ENERGY PREDICTED BY IDOCK:   -3.64 KCAL/MOL
REMARK 923 INTER-LIGAND FREE ENERGY PREDICTED BY IDOCK:   -3.65 KCAL/MOL
REMARK 924 INTRA-LIGAND FREE ENERGY PREDICTED BY IDOCK:    0.01 KCAL/MOL
REMARK 927      BINDING AFFINITY PREDICTED BY RF-SCORE:    0.00 PKD
ROOT
HETATM    1  C   UNL     1     -12.699   8.994  71.423  1.00  0.00    -0.361 C  
HETATM    2  C   UNL     1     -11.451   9.248  70.572  1.00  0.00    -0.248 C  
HETATM    3  C   UNL     1     -10.159   9.325  71.433  1.00  0.00    -0.348 C  
HETATM    4  C   UNL     1     -11.614  10.654  69.926  1.00  0.00    -0.316 C  
HETATM    5  N   UNL     1     -11.385   8.208  69.527  1.00  0.00    -0.420 NA 
HETATM    6  H2  UNL     1     -12.237   8.156  68.969  1.00  0.00     0.000 HD 
HETATM    7  H1  UNL     1     -10.554   8.378  68.960  1.00  0.00     0.000 HD 
HETATM    8  O   UNL     1     -11.712  11.698  70.551  1.00  0.00    -0.292 OA 
HETATM    9  O   UNL     1     -11.634  10.626  68.571  1.00  0.00    -0.289 OA 
ENDROOT
BRANCH   3  10
HETATM   10  C   UNL     1      -9.673   8.092  72.175  1.00  0.00    -0.311 A  
HETATM   11  C   UNL     1      -9.381   8.169  73.551  1.00  0.00    -0.210 A  
HETATM   12  C   UNL     1      -8.779   7.098  74.226  1.00  0.00    -0.242 A  
HETATM   13  C   UNL     1      -8.472   5.941  73.523  1.00  0.00    -0.120 A  
HETATM   14  O   UNL     1      -7.834   4.883  74.108  1.00  0.00    -0.096 OA 
HETATM   15  C   UNL     1      -8.787   5.841  72.173  1.00  0.00    -0.137 A  
HETATM   16  C   UNL     1      -9.376   6.901  71.497  1.00  0.00    -0.155 A  
HETATM   17  O   UNL     1      -8.484   4.700  71.484  1.00  0.00    -0.107 OA 
HETATM   18  H   UNL     1      -7.624   4.091  73.626  1.00  0.00     0.000 HD 
HETATM   19  H   UNL     1      -8.700   4.631  70.561  1.00  0.00     0.000 HD 
ENDBRANCH   3  10
TORSDOF 1
ENDMDL
MODEL      142
REMARK 921   NORMALIZED FREE ENERGY PREDICTED BY IDOCK:   -3.34 KCAL/MOL
REMARK 922        TOTAL FREE ENERGY PREDICTED BY IDOCK:   -3.63 KCAL/MOL
REMARK 923 INTER-LIGAND FREE ENERGY PREDICTED BY IDOCK:   -3.50 KCAL/MOL
REMARK 924 INTRA-LIGAND FREE ENERGY PREDICTED BY IDOCK:   -0.13 KCAL/MOL
REMARK 927      BINDING AFFINITY PREDICTED BY RF-SCORE:    0.00 PKD
ROOT
HETATM    1  C   UNL     1     -10.326   6.849  66.957  1.00  0.00    -0.348 C  
HETATM    2  C   UNL     1      -9.316   6.170  67.887  1.00  0.00    -0.113 C  
HETATM    3  C   UNL     1      -8.958   7.056  69.113  1.00  0.00    -0.134 C  
HETATM    4  C   UNL     1      -7.994   6.000  67.086  1.00  0.00    -0.102 C  
HETATM    5  N   UNL     1      -9.856   4.850  68.270  1.00  0.00    -0.150 NA 
HETATM    6  H2  UNL     1     -10.097   4.275  67.464  1.00  0.00     0.000 HD 
HETATM    7  H1  UNL     1      -9.184   4.397  68.890  1.00  0.00     0.000 HD 
HETATM    8  O   UNL     1      -7.336   6.922  66.628  1.00  0.00    -0.074 OA 
HETATM    9  O   UNL     1      -7.615   4.707  66.936  1.00  0.00    -0.085 OA 
ENDROOT
BRANCH   3  10
HETATM   10  C   UNL     1     -10.024   7.384  70.144  1.00  0.00    -0.184 A  
HETATM   11  C   UNL     1     -10.253   6.508  71.224  1.00  0.00    -0.223 A  
HETATM   12  C   UNL     1     -11.333   6.698  72.096  1.00  0.00    -0.309 A  
HETATM   13  C   UNL     1     -12.187   7.773  71.893  1.00  0.00    -0.306 A  
HETATM   14  O   UNL     1     -13.290   7.983  72.673  1.00  0.00    -0.525 OA 
HETATM   15  C   UNL     1     -11.951   8.664  70.852  1.00  0.00    -0.191 A  
HETATM   16  C   UNL     1     -10.887   8.476  69.980  1.00  0.00    -0.225 A  
HETATM   17  O   UNL     1     -12.793   9.722  70.656  1.00  0.00    -0.526 OA 
HETATM   18  H   UNL     1     -13.874   8.719  72.533  1.00  0.00     0.000 HD 
HETATM   19  H   UNL     1     -12.632  10.331  69.945  1.00  0.00     0.000 HD 
ENDBRANCH   3  10
TORSDOF 1
ENDMDL
MODEL      143
REMARK 921   NORMALIZED FREE ENERGY PREDICTED BY IDOCK:   -3.34 KCAL/MOL
REMARK 922        TOTAL FREE ENERGY PREDICTED BY IDOCK:   -3.62 KCAL/MOL
REMARK 923 INTER-LIGAND FREE ENERGY PREDICTED BY IDOCK:   -3.60 KCAL/MOL
REMARK 924 INTRA-LIGAND FREE ENERGY PREDICTED BY IDOCK:   -0.02 KCAL/MOL
REMARK 927      BINDING AFFINITY PREDICTED BY RF-SCORE:    0.00 PKD
ROOT
HETATM    1  C   UNL     1     -11.571  14.838  67.210  1.00  0.00    -0.385 C  
HETATM    2  C   UNL     1     -10.255  15.453  66.725  1.00  0.00    -0.271 C  
HETATM    3  C   UNL     1      -9.077  15.162  67.696  1.00  0.00    -0.181 C  
HETATM    4  C   UNL     1     -10.439  16.997  66.732  1.00  0.00    -0.257 C  
HETATM    5  N   UNL     1      -9.999  14.974  65.352  1.00  0.00    -0.347 NA 
HETATM    6  H2  UNL     1     -10.777  15.160  64.720  1.00  0.00     0.000 HD 
HETATM    7  H1  UNL     1      -9.123  15.384  65.028  1.00  0.00     0.000 HD 
HETATM    8  O   UNL     1     -10.678  17.664  67.727  1.00  0.00    -0.388 OA 
HETATM    9  O   UNL     1     -10.303  17.564  65.508  1.00  0.00    -0.620 OA 
ENDROOT
BRANCH   3  10
HETATM   10  C   UNL     1      -8.595  13.735  67.892  1.00  0.00    -0.183 A  
HETATM   11  C   UNL     1      -7.341  13.339  67.388  1.00  0.00    -0.125 A  
HETATM   12  C   UNL     1      -6.941  11.996  67.408  1.00  0.00    -0.139 A  
HETATM   13  C   UNL     1      -7.798  11.042  67.942  1.00  0.00    -0.110 A  
HETATM   14  O   UNL     1      -7.493   9.710  67.942  1.00  0.00    -0.082 OA 
HETATM   15  C   UNL     1      -9.023  11.426  68.475  1.00  0.00    -0.158 A  
HETATM   16  C   UNL     1      -9.428  12.754  68.449  1.00  0.00    -0.162 A  
HETATM   17  O   UNL     1      -9.863  10.485  69.000  1.00  0.00    -0.194 OA 
HETATM   18  H   UNL     1      -8.079   9.057  68.307  1.00  0.00     0.000 HD 
HETATM   19  H   UNL     1     -10.701  10.746  69.364  1.00  0.00     0.000 HD 
ENDBRANCH   3  10
TORSDOF 1
ENDMDL
MODEL      144
REMARK 921   NORMALIZED FREE ENERGY PREDICTED BY IDOCK:   -3.32 KCAL/MOL
REMARK 922        TOTAL FREE ENERGY PREDICTED BY IDOCK:   -3.60 KCAL/MOL
REMARK 923 INTER-LIGAND FREE ENERGY PREDICTED BY IDOCK:   -3.65 KCAL/MOL
REMARK 924 INTRA-LIGAND FREE ENERGY PREDICTED BY IDOCK:    0.04 KCAL/MOL
REMARK 927      BINDING AFFINITY PREDICTED BY RF-SCORE:    0.00 PKD
ROOT
HETATM    1  C   UNL     1      -8.512   7.035  71.862  1.00  0.00    -0.109 C  
HETATM    2  C   UNL     1      -9.926   6.535  71.552  1.00  0.00    -0.175 C  
HETATM    3  C   UNL     1     -10.881   7.690  71.135  1.00  0.00    -0.251 C  
HETATM    4  C   UNL     1     -10.510   5.959  72.873  1.00  0.00    -0.222 C  
HETATM    5  N   UNL     1      -9.828   5.474  70.529  1.00  0.00    -0.182 NA 
HETATM    6  H2  UNL     1      -9.196   4.723  70.803  1.00  0.00     0.000 HD 
HETATM    7  H1  UNL     1     -10.769   5.141  70.323  1.00  0.00     0.000 HD 
HETATM    8  O   UNL     1     -10.688   6.605  73.894  1.00  0.00    -0.288 OA 
HETATM    9  O   UNL     1     -10.820   4.641  72.797  1.00  0.00    -0.209 OA 
ENDROOT
BRANCH   3  10
HETATM   10  C   UNL     1     -10.627   8.450  69.845  1.00  0.00    -0.228 A  
HETATM   11  C   UNL     1     -10.635   9.858  69.844  1.00  0.00    -0.312 A  
HETATM   12  C   UNL     1     -10.567  10.583  68.646  1.00  0.00    -0.226 A  
HETATM   13  C   UNL     1     -10.484   9.897  67.442  1.00  0.00    -0.267 A  
HETATM   14  O   UNL     1     -10.471  10.542  66.238  1.00  0.00    -0.235 OA 
HETATM   15  C   UNL     1     -10.439   8.508  67.433  1.00  0.00    -0.280 A  
HETATM   16  C   UNL     1     -10.515   7.784  68.616  1.00  0.00    -0.199 A  
HETATM   17  O   UNL     1     -10.356   7.835  66.246  1.00  0.00    -0.462 OA 
HETATM   18  H   UNL     1     -10.414  10.073  65.414  1.00  0.00     0.000 HD 
HETATM   19  H   UNL     1     -10.326   6.886  66.240  1.00  0.00     0.000 HD 
ENDBRANCH   3  10
TORSDOF 1
ENDMDL
MODEL      145
REMARK 921   NORMALIZED FREE ENERGY PREDICTED BY IDOCK:   -3.31 KCAL/MOL
REMARK 922        TOTAL FREE ENERGY PREDICTED BY IDOCK:   -3.60 KCAL/MOL
REMARK 923 INTER-LIGAND FREE ENERGY PREDICTED BY IDOCK:   -3.72 KCAL/MOL
REMARK 924 INTRA-LIGAND FREE ENERGY PREDICTED BY IDOCK:    0.12 KCAL/MOL
REMARK 927      BINDING AFFINITY PREDICTED BY RF-SCORE:    0.00 PKD
ROOT
HETATM    1  C   UNL     1      -7.461  10.473  68.212  1.00  0.00    -0.090 C  
HETATM    2  C   UNL     1      -8.496   9.355  68.051  1.00  0.00    -0.120 C  
HETATM    3  C   UNL     1      -9.859   9.718  68.705  1.00  0.00    -0.176 C  
HETATM    4  C   UNL     1      -7.965   8.121  68.833  1.00  0.00    -0.114 C  
HETATM    5  N   UNL     1      -8.615   9.040  66.614  1.00  0.00    -0.125 NA 
HETATM    6  H2  UNL     1      -7.719   8.810  66.186  1.00  0.00     0.000 HD 
HETATM    7  H1  UNL     1      -9.304   8.295  66.506  1.00  0.00     0.000 HD 
HETATM    8  O   UNL     1      -7.754   8.098  70.036  1.00  0.00    -0.082 OA 
HETATM    9  O   UNL     1      -7.754   7.035  68.049  1.00  0.00    -0.108 OA 
ENDROOT
BRANCH   3  10
HETATM   10  C   UNL     1     -10.683  10.865  68.147  1.00  0.00    -0.256 A  
HETATM   11  C   UNL     1     -10.884  10.977  66.757  1.00  0.00    -0.307 A  
HETATM   12  C   UNL     1     -11.498  12.107  66.201  1.00  0.00    -0.429 A  
HETATM   13  C   UNL     1     -11.920  13.130  67.040  1.00  0.00    -0.355 A  
HETATM   14  O   UNL     1     -12.474  14.283  66.558  1.00  0.00    -0.529 OA 
HETATM   15  C   UNL     1     -11.759  13.016  68.416  1.00  0.00    -0.351 A  
HETATM   16  C   UNL     1     -11.144  11.901  68.971  1.00  0.00    -0.300 A  
HETATM   17  O   UNL     1     -12.176  14.024  69.238  1.00  0.00    -0.376 OA 
HETATM   18  H   UNL     1     -12.763  14.983  67.131  1.00  0.00     0.000 HD 
HETATM   19  H   UNL     1     -12.067  13.946  70.178  1.00  0.00     0.000 HD 
ENDBRANCH   3  10
TORSDOF 1
ENDMDL
MODEL      146
REMARK 921   NORMALIZED FREE ENERGY PREDICTED BY IDOCK:   -3.30 KCAL/MOL
REMARK 922        TOTAL FREE ENERGY PREDICTED BY IDOCK:   -3.59 KCAL/MOL
REMARK 923 INTER-LIGAND FREE ENERGY PREDICTED BY IDOCK:   -3.63 KCAL/MOL
REMARK 924 INTRA-LIGAND FREE ENERGY PREDICTED BY IDOCK:    0.04 KCAL/MOL
REMARK 927      BINDING AFFINITY PREDICTED BY RF-SCORE:    0.00 PKD
ROOT
HETATM    1  C   UNL     1      -6.352  14.132  68.683  1.00  0.00    -0.089 C  
HETATM    2  C   UNL     1      -6.796  12.700  68.370  1.00  0.00    -0.090 C  
HETATM    3  C   UNL     1      -8.328  12.506  68.552  1.00  0.00    -0.069 C  
HETATM    4  C   UNL     1      -6.124  11.770  69.420  1.00  0.00    -0.090 C  
HETATM    5  N   UNL     1      -6.331  12.359  67.011  1.00  0.00    -0.408 NA 
HETATM    6  H2  UNL     1      -5.327  12.494  66.894  1.00  0.00     0.000 HD 
HETATM    7  H1  UNL     1      -6.627  11.405  66.802  1.00  0.00     0.000 HD 
HETATM    8  O   UNL     1      -6.310  11.835  70.625  1.00  0.00    -0.228 OA 
HETATM    9  O   UNL     1      -5.293  10.849  68.873  1.00  0.00    -0.041 OA 
ENDROOT
BRANCH   3  10
HETATM   10  C   UNL     1      -9.295  13.243  67.640  1.00  0.00    -0.212 A  
HETATM   11  C   UNL     1     -10.388  13.940  68.189  1.00  0.00    -0.247 A  
HETATM   12  C   UNL     1     -11.384  14.489  67.371  1.00  0.00    -0.370 A  
HETATM   13  C   UNL     1     -11.284  14.346  65.993  1.00  0.00    -0.333 A  
HETATM   14  O   UNL     1     -12.248  14.809  65.143  1.00  0.00    -0.308 OA 
HETATM   15  C   UNL     1     -10.191  13.690  65.438  1.00  0.00    -0.313 A  
HETATM   16  C   UNL     1      -9.206  13.137  66.245  1.00  0.00    -0.074 A  
HETATM   17  O   UNL     1     -10.095  13.552  64.082  1.00  0.00    -0.760 OA 
HETATM   18  H   UNL     1     -12.180  14.711  64.200  1.00  0.00     0.000 HD 
HETATM   19  H   UNL     1      -9.349  13.104  63.702  1.00  0.00     0.000 HD 
ENDBRANCH   3  10
TORSDOF 1
ENDMDL
MODEL      147
REMARK 921   NORMALIZED FREE ENERGY PREDICTED BY IDOCK:   -3.26 KCAL/MOL
REMARK 922        TOTAL FREE ENERGY PREDICTED BY IDOCK:   -3.54 KCAL/MOL
REMARK 923 INTER-LIGAND FREE ENERGY PREDICTED BY IDOCK:   -3.90 KCAL/MOL
REMARK 924 INTRA-LIGAND FREE ENERGY PREDICTED BY IDOCK:    0.36 KCAL/MOL
REMARK 927      BINDING AFFINITY PREDICTED BY RF-SCORE:    0.00 PKD
ROOT
HETATM    1  C   UNL     1     -10.361   4.255  72.054  1.00  0.00    -0.169 C  
HETATM    2  C   UNL     1      -9.594   5.191  72.992  1.00  0.00    -0.142 C  
HETATM    3  C   UNL     1      -9.370   6.597  72.366  1.00  0.00    -0.147 C  
HETATM    4  C   UNL     1      -8.176   4.584  73.189  1.00  0.00    -0.099 C  
HETATM    5  N   UNL     1     -10.312   5.245  74.281  1.00  0.00    -0.265 NA 
HETATM    6  H2  UNL     1     -10.464   4.321  74.685  1.00  0.00     0.000 HD 
HETATM    7  H1  UNL     1      -9.801   5.868  74.906  1.00  0.00     0.000 HD 
HETATM    8  O   UNL     1      -7.366   4.405  72.293  1.00  0.00    -0.064 OA 
HETATM    9  O   UNL     1      -7.899   4.264  74.477  1.00  0.00    -0.085 OA 
ENDROOT
BRANCH   3  10
HETATM   10  C   UNL     1     -10.561   7.495  72.083  1.00  0.00    -0.262 A  
HETATM   11  C   UNL     1     -11.861   6.953  72.056  1.00  0.00    -0.345 A  
HETATM   12  C   UNL     1     -12.958   7.719  71.639  1.00  0.00    -0.374 A  
HETATM   13  C   UNL     1     -12.757   9.037  71.251  1.00  0.00    -0.262 A  
HETATM   14  O   UNL     1     -13.774   9.820  70.781  1.00  0.00    -0.546 OA 
HETATM   15  C   UNL     1     -11.484   9.593  71.307  1.00  0.00    -0.392 A  
HETATM   16  C   UNL     1     -10.392   8.837  71.711  1.00  0.00    -0.413 A  
HETATM   17  O   UNL     1     -11.289  10.891  70.925  1.00  0.00    -0.335 OA 
HETATM   18  H   UNL     1     -13.636  10.722  70.516  1.00  0.00     0.000 HD 
HETATM   19  H   UNL     1     -10.420  11.271  70.963  1.00  0.00     0.000 HD 
ENDBRANCH   3  10
TORSDOF 1
ENDMDL
MODEL      148
REMARK 921   NORMALIZED FREE ENERGY PREDICTED BY IDOCK:   -3.23 KCAL/MOL
REMARK 922        TOTAL FREE ENERGY PREDICTED BY IDOCK:   -3.51 KCAL/MOL
REMARK 923 INTER-LIGAND FREE ENERGY PREDICTED BY IDOCK:   -3.32 KCAL/MOL
REMARK 924 INTRA-LIGAND FREE ENERGY PREDICTED BY IDOCK:   -0.20 KCAL/MOL
REMARK 927      BINDING AFFINITY PREDICTED BY RF-SCORE:    0.00 PKD
ROOT
HETATM    1  C   UNL     1     -10.603  10.341  68.414  1.00  0.00    -0.247 C  
HETATM    2  C   UNL     1      -9.176  10.799  68.099  1.00  0.00    -0.151 C  
HETATM    3  C   UNL     1      -9.150  12.118  67.275  1.00  0.00    -0.181 C  
HETATM    4  C   UNL     1      -8.536   9.715  67.186  1.00  0.00    -0.132 C  
HETATM    5  N   UNL     1      -8.433  10.902  69.370  1.00  0.00    -0.381 NA 
HETATM    6  H2  UNL     1      -8.459  10.038  69.911  1.00  0.00     0.000 HD 
HETATM    7  H1  UNL     1      -7.482  11.207  69.161  1.00  0.00     0.000 HD 
HETATM    8  O   UNL     1      -8.952   9.405  66.080  1.00  0.00    -0.149 OA 
HETATM    9  O   UNL     1      -7.442   9.128  67.730  1.00  0.00    -0.084 OA 
ENDROOT
BRANCH   3  10
HETATM   10  C   UNL     1      -9.664  13.405  67.894  1.00  0.00    -0.226 A  
HETATM   11  C   UNL     1     -11.035  13.720  67.828  1.00  0.00    -0.272 A  
HETATM   12  C   UNL     1     -11.514  14.970  68.244  1.00  0.00    -0.349 A  
HETATM   13  C   UNL     1     -10.618  15.909  68.735  1.00  0.00    -0.245 A  
HETATM   14  O   UNL     1     -11.011  17.165  69.104  1.00  0.00    -0.292 OA 
HETATM   15  C   UNL     1      -9.267  15.597  68.838  1.00  0.00    -0.226 A  
HETATM   16  C   UNL     1      -8.786  14.364  68.420  1.00  0.00    -0.182 A  
HETATM   17  O   UNL     1      -8.388  16.524  69.323  1.00  0.00    -0.201 OA 
HETATM   18  H   UNL     1     -10.397  17.808  69.440  1.00  0.00     0.000 HD 
HETATM   19  H   UNL     1      -7.465  16.311  69.394  1.00  0.00     0.000 HD 
ENDBRANCH   3  10
TORSDOF 1
ENDMDL
MODEL      149
REMARK 921   NORMALIZED FREE ENERGY PREDICTED BY IDOCK:   -3.22 KCAL/MOL
REMARK 922        TOTAL FREE ENERGY PREDICTED BY IDOCK:   -3.50 KCAL/MOL
REMARK 923 INTER-LIGAND FREE ENERGY PREDICTED BY IDOCK:   -3.39 KCAL/MOL
REMARK 924 INTRA-LIGAND FREE ENERGY PREDICTED BY IDOCK:   -0.11 KCAL/MOL
REMARK 927      BINDING AFFINITY PREDICTED BY RF-SCORE:    0.00 PKD
ROOT
HETATM    1  C   UNL     1      -8.381   8.210  68.286  1.00  0.00    -0.126 C  
HETATM    2  C   UNL     1      -9.910   8.125  68.294  1.00  0.00    -0.171 C  
HETATM    3  C   UNL     1     -10.562   9.321  69.045  1.00  0.00    -0.225 C  
HETATM    4  C   UNL     1     -10.295   6.855  69.105  1.00  0.00    -0.195 C  
HETATM    5  N   UNL     1     -10.373   8.002  66.898  1.00  0.00    -0.333 NA 
HETATM    6  H2  UNL     1      -9.938   7.222  66.407  1.00  0.00     0.000 HD 
HETATM    7  H1  UNL     1     -11.392   7.945  66.903  1.00  0.00     0.000 HD 
HETATM    8  O   UNL     1     -10.026   6.674  70.282  1.00  0.00    -0.174 OA 
HETATM    9  O   UNL     1     -10.981   5.938  68.379  1.00  0.00    -0.274 OA 
ENDROOT
BRANCH   3  10
HETATM   10  C   UNL     1     -10.421  10.728  68.489  1.00  0.00    -0.208 A  
HETATM   11  C   UNL     1     -11.432  11.265  67.669  1.00  0.00    -0.341 A  
HETATM   12  C   UNL     1     -11.259  12.490  67.011  1.00  0.00    -0.353 A  
HETATM   13  C   UNL     1     -10.069  13.186  67.178  1.00  0.00    -0.242 A  
HETATM   14  O   UNL     1      -9.814  14.358  66.521  1.00  0.00    -0.265 OA 
HETATM   15  C   UNL     1      -9.078  12.683  68.012  1.00  0.00    -0.207 A  
HETATM   16  C   UNL     1      -9.241  11.465  68.660  1.00  0.00    -0.149 A  
HETATM   17  O   UNL     1      -7.908  13.371  68.175  1.00  0.00    -0.123 OA 
HETATM   18  H   UNL     1      -9.000  14.834  66.635  1.00  0.00     0.000 HD 
HETATM   19  H   UNL     1      -7.231  13.027  68.745  1.00  0.00     0.000 HD 
ENDBRANCH   3  10
TORSDOF 1
ENDMDL
MODEL      150
REMARK 921   NORMALIZED FREE ENERGY PREDICTED BY IDOCK:   -3.20 KCAL/MOL
REMARK 922        TOTAL FREE ENERGY PREDICTED BY IDOCK:   -3.47 KCAL/MOL
REMARK 923 INTER-LIGAND FREE ENERGY PREDICTED BY IDOCK:   -3.59 KCAL/MOL
REMARK 924 INTRA-LIGAND FREE ENERGY PREDICTED BY IDOCK:    0.12 KCAL/MOL
REMARK 927      BINDING AFFINITY PREDICTED BY RF-SCORE:    0.00 PKD
ROOT
HETATM    1  C   UNL     1      -9.637   3.958  71.968  1.00  0.00    -0.210 C  
HETATM    2  C   UNL     1      -8.634   5.100  72.164  1.00  0.00    -0.126 C  
HETATM    3  C   UNL     1      -8.952   6.323  71.259  1.00  0.00    -0.139 C  
HETATM    4  C   UNL     1      -7.246   4.577  71.698  1.00  0.00    -0.063 C  
HETATM    5  N   UNL     1      -8.598   5.441  73.600  1.00  0.00    -0.111 NA 
HETATM    6  H2  UNL     1      -8.396   4.635  74.191  1.00  0.00     0.000 HD 
HETATM    7  H1  UNL     1      -7.930   6.201  73.730  1.00  0.00     0.000 HD 
HETATM    8  O   UNL     1      -6.988   4.206  70.563  1.00  0.00    -0.033 OA 
HETATM    9  O   UNL     1      -6.312   4.571  72.681  1.00  0.00    -0.023 OA 
ENDROOT
BRANCH   3  10
HETATM   10  C   UNL     1     -10.232   7.112  71.479  1.00  0.00    -0.210 A  
HETATM   11  C   UNL     1     -10.178   8.510  71.638  1.00  0.00    -0.336 A  
HETATM   12  C   UNL     1     -11.315   9.243  72.003  1.00  0.00    -0.235 A  
HETATM   13  C   UNL     1     -12.516   8.575  72.205  1.00  0.00    -0.387 A  
HETATM   14  O   UNL     1     -13.647   9.223  72.617  1.00  0.00    -0.649 OA 
HETATM   15  C   UNL     1     -12.589   7.200  72.017  1.00  0.00    -0.218 A  
HETATM   16  C   UNL     1     -11.463   6.468  71.663  1.00  0.00    -0.345 A  
HETATM   17  O   UNL     1     -13.772   6.546  72.215  1.00  0.00    -0.509 OA 
HETATM   18  H   UNL     1     -14.469   8.766  72.755  1.00  0.00     0.000 HD 
HETATM   19  H   UNL     1     -13.823   5.606  72.087  1.00  0.00     0.000 HD 
ENDBRANCH   3  10
TORSDOF 1
ENDMDL
MODEL      151
REMARK 921   NORMALIZED FREE ENERGY PREDICTED BY IDOCK:   -3.20 KCAL/MOL
REMARK 922        TOTAL FREE ENERGY PREDICTED BY IDOCK:   -3.47 KCAL/MOL
REMARK 923 INTER-LIGAND FREE ENERGY PREDICTED BY IDOCK:   -3.35 KCAL/MOL
REMARK 924 INTRA-LIGAND FREE ENERGY PREDICTED BY IDOCK:   -0.12 KCAL/MOL
REMARK 927      BINDING AFFINITY PREDICTED BY RF-SCORE:    0.00 PKD
ROOT
HETATM    1  C   UNL     1      -8.734   9.470  65.859  1.00  0.00    -0.168 C  
HETATM    2  C   UNL     1      -9.378   9.929  67.171  1.00  0.00    -0.146 C  
HETATM    3  C   UNL     1     -10.644   9.098  67.526  1.00  0.00    -0.317 C  
HETATM    4  C   UNL     1      -9.875  11.386  66.954  1.00  0.00    -0.193 C  
HETATM    5  N   UNL     1      -8.350   9.889  68.229  1.00  0.00    -0.109 NA 
HETATM    6  H2  UNL     1      -7.519  10.428  67.990  1.00  0.00     0.000 HD 
HETATM    7  H1  UNL     1      -8.779  10.195  69.103  1.00  0.00     0.000 HD 
HETATM    8  O   UNL     1     -10.713  11.720  66.131  1.00  0.00    -0.257 OA 
HETATM    9  O   UNL     1      -9.288  12.285  67.783  1.00  0.00    -0.181 OA 
ENDROOT
BRANCH   3  10
HETATM   10  C   UNL     1     -10.511   7.620  67.850  1.00  0.00    -0.270 A  
HETATM   11  C   UNL     1     -10.083   7.216  69.130  1.00  0.00    -0.183 A  
HETATM   12  C   UNL     1      -9.795   5.873  69.407  1.00  0.00    -0.207 A  
HETATM   13  C   UNL     1      -9.940   4.927  68.401  1.00  0.00    -0.115 A  
HETATM   14  O   UNL     1      -9.622   3.611  68.590  1.00  0.00    -0.161 OA 
HETATM   15  C   UNL     1     -10.394   5.309  67.145  1.00  0.00    -0.216 A  
HETATM   16  C   UNL     1     -10.674   6.639  66.862  1.00  0.00    -0.401 A  
HETATM   17  O   UNL     1     -10.537   4.375  66.157  1.00  0.00    -0.427 OA 
HETATM   18  H   UNL     1      -9.721   2.963  67.902  1.00  0.00     0.000 HD 
HETATM   19  H   UNL     1     -10.848   4.636  65.299  1.00  0.00     0.000 HD 
ENDBRANCH   3  10
TORSDOF 1
ENDMDL
MODEL      152
REMARK 921   NORMALIZED FREE ENERGY PREDICTED BY IDOCK:   -3.19 KCAL/MOL
REMARK 922        TOTAL FREE ENERGY PREDICTED BY IDOCK:   -3.47 KCAL/MOL
REMARK 923 INTER-LIGAND FREE ENERGY PREDICTED BY IDOCK:   -3.80 KCAL/MOL
REMARK 924 INTRA-LIGAND FREE ENERGY PREDICTED BY IDOCK:    0.33 KCAL/MOL
REMARK 927      BINDING AFFINITY PREDICTED BY RF-SCORE:    0.00 PKD
ROOT
HETATM    1  C   UNL     1      -8.493   8.276  68.128  1.00  0.00    -0.132 C  
HETATM    2  C   UNL     1      -9.951   8.080  67.699  1.00  0.00    -0.180 C  
HETATM    3  C   UNL     1     -10.632   9.421  67.304  1.00  0.00    -0.314 C  
HETATM    4  C   UNL     1     -10.729   7.559  68.940  1.00  0.00    -0.115 C  
HETATM    5  N   UNL     1      -9.983   7.078  66.615  1.00  0.00    -0.343 NA 
HETATM    6  H2  UNL     1      -9.528   6.203  66.875  1.00  0.00     0.000 HD 
HETATM    7  H1  UNL     1     -10.953   6.948  66.329  1.00  0.00     0.000 HD 
HETATM    8  O   UNL     1     -10.855   8.171  69.989  1.00  0.00    -0.247 OA 
HETATM    9  O   UNL     1     -11.280   6.333  68.756  1.00  0.00    -0.363 OA 
ENDROOT
BRANCH   3  10
HETATM   10  C   UNL     1     -10.143  10.185  66.086  1.00  0.00    -0.314 A  
HETATM   11  C   UNL     1     -10.614  11.489  65.837  1.00  0.00    -0.318 A  
HETATM   12  C   UNL     1     -10.310  12.155  64.642  1.00  0.00    -0.328 A  
HETATM   13  C   UNL     1      -9.525  11.516  63.692  1.00  0.00    -0.173 A  
HETATM   14  O   UNL     1      -9.238  12.088  62.483  1.00  0.00    -0.291 OA 
HETATM   15  C   UNL     1      -9.025  10.243  63.941  1.00  0.00    -0.237 A  
HETATM   16  C   UNL     1      -9.330   9.576  65.119  1.00  0.00    -0.316 A  
HETATM   17  O   UNL     1      -8.252   9.618  63.003  1.00  0.00    -0.133 OA 
HETATM   18  H   UNL     1      -8.701  11.650  61.833  1.00  0.00     0.000 HD 
HETATM   19  H   UNL     1      -7.911   8.748  63.173  1.00  0.00     0.000 HD 
ENDBRANCH   3  10
TORSDOF 1
ENDMDL
MODEL      153
REMARK 921   NORMALIZED FREE ENERGY PREDICTED BY IDOCK:   -3.17 KCAL/MOL
REMARK 922        TOTAL FREE ENERGY PREDICTED BY IDOCK:   -3.44 KCAL/MOL
REMARK 923 INTER-LIGAND FREE ENERGY PREDICTED BY IDOCK:   -3.24 KCAL/MOL
REMARK 924 INTRA-LIGAND FREE ENERGY PREDICTED BY IDOCK:   -0.20 KCAL/MOL
REMARK 927      BINDING AFFINITY PREDICTED BY RF-SCORE:    0.00 PKD
ROOT
HETATM    1  C   UNL     1      -8.276   5.223  73.803  1.00  0.00    -0.112 C  
HETATM    2  C   UNL     1      -9.148   4.444  72.815  1.00  0.00    -0.120 C  
HETATM    3  C   UNL     1     -10.452   5.209  72.450  1.00  0.00    -0.272 C  
HETATM    4  C   UNL     1      -9.608   3.144  73.535  1.00  0.00    -0.099 C  
HETATM    5  N   UNL     1      -8.327   4.113  71.634  1.00  0.00    -0.090 NA 
HETATM    6  H2  UNL     1      -7.470   3.618  71.877  1.00  0.00     0.000 HD 
HETATM    7  H1  UNL     1      -8.908   3.593  70.976  1.00  0.00     0.000 HD 
HETATM    8  O   UNL     1     -10.286   3.114  74.549  1.00  0.00    -0.146 OA 
HETATM    9  O   UNL     1      -9.186   2.009  72.922  1.00  0.00    -0.072 OA 
ENDROOT
BRANCH   3  10
HETATM   10  C   UNL     1     -10.369   6.519  71.686  1.00  0.00    -0.232 A  
HETATM   11  C   UNL     1     -10.204   7.732  72.383  1.00  0.00    -0.305 A  
HETATM   12  C   UNL     1     -10.287   8.965  71.723  1.00  0.00    -0.426 A  
HETATM   13  C   UNL     1     -10.530   8.987  70.356  1.00  0.00    -0.213 A  
HETATM   14  O   UNL     1     -10.678  10.156  69.664  1.00  0.00    -0.227 OA 
HETATM   15  C   UNL     1     -10.660   7.796  69.652  1.00  0.00    -0.242 A  
HETATM   16  C   UNL     1     -10.586   6.571  70.302  1.00  0.00    -0.278 A  
HETATM   17  O   UNL     1     -10.898   7.821  68.307  1.00  0.00    -0.411 OA 
HETATM   18  H   UNL     1     -10.845  10.171  68.728  1.00  0.00     0.000 HD 
HETATM   19  H   UNL     1     -10.987   7.008  67.825  1.00  0.00     0.000 HD 
ENDBRANCH   3  10
TORSDOF 1
ENDMDL
MODEL      154
REMARK 921   NORMALIZED FREE ENERGY PREDICTED BY IDOCK:   -3.16 KCAL/MOL
REMARK 922        TOTAL FREE ENERGY PREDICTED BY IDOCK:   -3.43 KCAL/MOL
REMARK 923 INTER-LIGAND FREE ENERGY PREDICTED BY IDOCK:   -3.37 KCAL/MOL
REMARK 924 INTRA-LIGAND FREE ENERGY PREDICTED BY IDOCK:   -0.07 KCAL/MOL
REMARK 927      BINDING AFFINITY PREDICTED BY RF-SCORE:    0.00 PKD
ROOT
HETATM    1  C   UNL     1      -8.091   7.107  69.672  1.00  0.00    -0.129 C  
HETATM    2  C   UNL     1      -9.266   6.566  68.852  1.00  0.00    -0.129 C  
HETATM    3  C   UNL     1     -10.403   7.614  68.692  1.00  0.00    -0.220 C  
HETATM    4  C   UNL     1      -9.885   5.389  69.658  1.00  0.00    -0.193 C  
HETATM    5  N   UNL     1      -8.744   6.083  67.558  1.00  0.00    -0.109 NA 
HETATM    6  H2  UNL     1      -7.994   5.401  67.667  1.00  0.00     0.000 HD 
HETATM    7  H1  UNL     1      -9.527   5.722  67.012  1.00  0.00     0.000 HD 
HETATM    8  O   UNL     1     -10.379   5.492  70.770  1.00  0.00    -0.222 OA 
HETATM    9  O   UNL     1      -9.837   4.202  69.004  1.00  0.00    -0.154 OA 
ENDROOT
BRANCH   3  10
HETATM   10  C   UNL     1     -10.150   8.887  67.902  1.00  0.00    -0.255 A  
HETATM   11  C   UNL     1      -9.958   8.825  66.509  1.00  0.00    -0.360 A  
HETATM   12  C   UNL     1      -9.563   9.954  65.779  1.00  0.00    -0.312 A  
HETATM   13  C   UNL     1      -9.364  11.156  66.446  1.00  0.00    -0.188 A  
HETATM   14  O   UNL     1      -8.925  12.279  65.804  1.00  0.00    -0.426 OA 
HETATM   15  C   UNL     1      -9.584  11.238  67.816  1.00  0.00    -0.174 A  
HETATM   16  C   UNL     1      -9.968  10.120  68.545  1.00  0.00    -0.177 A  
HETATM   17  O   UNL     1      -9.389  12.422  68.469  1.00  0.00    -0.320 OA 
HETATM   18  H   UNL     1      -8.789  13.102  66.260  1.00  0.00     0.000 HD 
HETATM   19  H   UNL     1      -9.540  12.479  69.405  1.00  0.00     0.000 HD 
ENDBRANCH   3  10
TORSDOF 1
ENDMDL
MODEL      155
REMARK 921   NORMALIZED FREE ENERGY PREDICTED BY IDOCK:   -3.14 KCAL/MOL
REMARK 922        TOTAL FREE ENERGY PREDICTED BY IDOCK:   -3.41 KCAL/MOL
REMARK 923 INTER-LIGAND FREE ENERGY PREDICTED BY IDOCK:   -3.20 KCAL/MOL
REMARK 924 INTRA-LIGAND FREE ENERGY PREDICTED BY IDOCK:   -0.22 KCAL/MOL
REMARK 927      BINDING AFFINITY PREDICTED BY RF-SCORE:    0.00 PKD
ROOT
HETATM    1  C   UNL     1     -10.734   4.878  66.204  1.00  0.00    -0.243 C  
HETATM    2  C   UNL     1      -9.347   4.973  66.847  1.00  0.00    -0.131 C  
HETATM    3  C   UNL     1      -9.265   6.112  67.901  1.00  0.00    -0.115 C  
HETATM    4  C   UNL     1      -8.345   5.362  65.723  1.00  0.00    -0.126 C  
HETATM    5  N   UNL     1      -9.005   3.649  67.403  1.00  0.00    -0.128 NA 
HETATM    6  H2  UNL     1      -9.068   2.903  66.711  1.00  0.00     0.000 HD 
HETATM    7  H1  UNL     1      -8.081   3.712  67.831  1.00  0.00     0.000 HD 
HETATM    8  O   UNL     1      -8.395   6.396  65.075  1.00  0.00    -0.140 OA 
HETATM    9  O   UNL     1      -7.378   4.434  65.517  1.00  0.00    -0.074 OA 
ENDROOT
BRANCH   3  10
HETATM   10  C   UNL     1     -10.092   6.026  69.172  1.00  0.00    -0.229 A  
HETATM   11  C   UNL     1     -11.331   6.692  69.252  1.00  0.00    -0.301 A  
HETATM   12  C   UNL     1     -12.038   6.766  70.460  1.00  0.00    -0.332 A  
HETATM   13  C   UNL     1     -11.507   6.166  71.594  1.00  0.00    -0.272 A  
HETATM   14  O   UNL     1     -12.118   6.250  72.814  1.00  0.00    -0.502 OA 
HETATM   15  C   UNL     1     -10.303   5.477  71.519  1.00  0.00    -0.222 A  
HETATM   16  C   UNL     1      -9.594   5.406  70.327  1.00  0.00    -0.236 A  
HETATM   17  O   UNL     1      -9.784   4.886  72.637  1.00  0.00    -0.145 OA 
HETATM   18  H   UNL     1     -11.755   5.839  73.590  1.00  0.00     0.000 HD 
HETATM   19  H   UNL     1      -8.961   4.415  72.586  1.00  0.00     0.000 HD 
ENDBRANCH   3  10
TORSDOF 1
ENDMDL
MODEL      156
REMARK 921   NORMALIZED FREE ENERGY PREDICTED BY IDOCK:   -3.06 KCAL/MOL
REMARK 922        TOTAL FREE ENERGY PREDICTED BY IDOCK:   -3.33 KCAL/MOL
REMARK 923 INTER-LIGAND FREE ENERGY PREDICTED BY IDOCK:   -3.21 KCAL/MOL
REMARK 924 INTRA-LIGAND FREE ENERGY PREDICTED BY IDOCK:   -0.13 KCAL/MOL
REMARK 927      BINDING AFFINITY PREDICTED BY RF-SCORE:    0.00 PKD
ROOT
HETATM    1  C   UNL     1     -11.911   7.532  70.924  1.00  0.00    -0.293 C  
HETATM    2  C   UNL     1     -10.555   7.455  71.632  1.00  0.00    -0.205 C  
HETATM    3  C   UNL     1      -9.431   6.928  70.695  1.00  0.00    -0.165 C  
HETATM    4  C   UNL     1     -10.688   6.402  72.768  1.00  0.00    -0.239 C  
HETATM    5  N   UNL     1     -10.253   8.785  72.198  1.00  0.00    -0.326 NA 
HETATM    6  H2  UNL     1     -10.996   9.131  72.806  1.00  0.00     0.000 HD 
HETATM    7  H1  UNL     1      -9.350   8.734  72.670  1.00  0.00     0.000 HD 
HETATM    8  O   UNL     1     -10.950   5.222  72.595  1.00  0.00    -0.238 OA 
HETATM    9  O   UNL     1     -10.479   6.914  74.006  1.00  0.00    -0.374 OA 
ENDROOT
BRANCH   3  10
HETATM   10  C   UNL     1      -9.006   7.750  69.490  1.00  0.00    -0.142 A  
HETATM   11  C   UNL     1      -7.983   8.709  69.618  1.00  0.00    -0.096 A  
HETATM   12  C   UNL     1      -7.682   9.592  68.572  1.00  0.00    -0.081 A  
HETATM   13  C   UNL     1      -8.403   9.512  67.389  1.00  0.00    -0.125 A  
HETATM   14  O   UNL     1      -8.198  10.379  66.352  1.00  0.00    -0.132 OA 
HETATM   15  C   UNL     1      -9.391   8.546  67.238  1.00  0.00    -0.149 A  
HETATM   16  C   UNL     1      -9.700   7.674  68.274  1.00  0.00    -0.166 A  
HETATM   17  O   UNL     1     -10.099   8.468  66.072  1.00  0.00    -0.473 OA 
HETATM   18  H   UNL     1      -8.691  10.323  65.542  1.00  0.00     0.000 HD 
HETATM   19  H   UNL     1     -10.774   7.808  65.969  1.00  0.00     0.000 HD 
ENDBRANCH   3  10
TORSDOF 1
ENDMDL
MODEL      157
REMARK 921   NORMALIZED FREE ENERGY PREDICTED BY IDOCK:   -3.04 KCAL/MOL
REMARK 922        TOTAL FREE ENERGY PREDICTED BY IDOCK:   -3.30 KCAL/MOL
REMARK 923 INTER-LIGAND FREE ENERGY PREDICTED BY IDOCK:   -3.09 KCAL/MOL
REMARK 924 INTRA-LIGAND FREE ENERGY PREDICTED BY IDOCK:   -0.22 KCAL/MOL
REMARK 927      BINDING AFFINITY PREDICTED BY RF-SCORE:    0.00 PKD
ROOT
HETATM    1  C   UNL     1      -7.826   9.137  65.456  1.00  0.00    -0.095 C  
HETATM    2  C   UNL     1      -9.058   9.797  66.083  1.00  0.00    -0.161 C  
HETATM    3  C   UNL     1     -10.221   8.787  66.295  1.00  0.00    -0.157 C  
HETATM    4  C   UNL     1      -9.587  10.845  65.063  1.00  0.00    -0.251 C  
HETATM    5  N   UNL     1      -8.640  10.462  67.333  1.00  0.00    -0.125 NA 
HETATM    6  H2  UNL     1      -7.873  11.118  67.191  1.00  0.00     0.000 HD 
HETATM    7  H1  UNL     1      -9.461  10.902  67.750  1.00  0.00     0.000 HD 
HETATM    8  O   UNL     1      -9.985  10.581  63.939  1.00  0.00    -0.325 OA 
HETATM    9  O   UNL     1      -9.575  12.115  65.538  1.00  0.00    -0.218 OA 
ENDROOT
BRANCH   3  10
HETATM   10  C   UNL     1     -10.057   7.643  67.280  1.00  0.00    -0.306 A  
HETATM   11  C   UNL     1      -9.674   6.368  66.821  1.00  0.00    -0.199 A  
HETATM   12  C   UNL     1      -9.673   5.258  67.677  1.00  0.00    -0.168 A  
HETATM   13  C   UNL     1     -10.051   5.425  69.003  1.00  0.00    -0.213 A  
HETATM   14  O   UNL     1     -10.125   4.375  69.875  1.00  0.00    -0.222 OA 
HETATM   15  C   UNL     1     -10.398   6.685  69.476  1.00  0.00    -0.202 A  
HETATM   16  C   UNL     1     -10.409   7.787  68.630  1.00  0.00    -0.221 A  
HETATM   17  O   UNL     1     -10.769   6.846  70.781  1.00  0.00    -0.223 OA 
HETATM   18  H   UNL     1     -10.384   4.489  70.782  1.00  0.00     0.000 HD 
HETATM   19  H   UNL     1     -11.006   7.707  71.105  1.00  0.00     0.000 HD 
ENDBRANCH   3  10
TORSDOF 1
ENDMDL
MODEL      158
REMARK 921   NORMALIZED FREE ENERGY PREDICTED BY IDOCK:   -3.00 KCAL/MOL
REMARK 922        TOTAL FREE ENERGY PREDICTED BY IDOCK:   -3.26 KCAL/MOL
REMARK 923 INTER-LIGAND FREE ENERGY PREDICTED BY IDOCK:   -3.19 KCAL/MOL
REMARK 924 INTRA-LIGAND FREE ENERGY PREDICTED BY IDOCK:   -0.07 KCAL/MOL
REMARK 927      BINDING AFFINITY PREDICTED BY RF-SCORE:    0.00 PKD
ROOT
HETATM    1  C   UNL     1     -11.245   5.083  72.712  1.00  0.00    -0.295 C  
HETATM    2  C   UNL     1      -9.729   4.882  72.622  1.00  0.00    -0.150 C  
HETATM    3  C   UNL     1      -9.264   4.551  71.176  1.00  0.00    -0.198 C  
HETATM    4  C   UNL     1      -9.380   3.630  73.476  1.00  0.00    -0.103 C  
HETATM    5  N   UNL     1      -9.070   6.081  73.177  1.00  0.00    -0.131 NA 
HETATM    6  H2  UNL     1      -9.382   6.298  74.123  1.00  0.00     0.000 HD 
HETATM    7  H1  UNL     1      -8.060   5.947  73.118  1.00  0.00     0.000 HD 
HETATM    8  O   UNL     1      -9.798   2.503  73.260  1.00  0.00    -0.095 OA 
HETATM    9  O   UNL     1      -8.543   3.896  74.509  1.00  0.00    -0.091 OA 
ENDROOT
BRANCH   3  10
HETATM   10  C   UNL     1      -9.416   5.591  70.079  1.00  0.00    -0.205 A  
HETATM   11  C   UNL     1      -8.619   6.753  70.095  1.00  0.00    -0.140 A  
HETATM   12  C   UNL     1      -8.847   7.802  69.194  1.00  0.00    -0.138 A  
HETATM   13  C   UNL     1      -9.874   7.686  68.266  1.00  0.00    -0.166 A  
HETATM   14  O   UNL     1     -10.184   8.695  67.398  1.00  0.00    -0.220 OA 
HETATM   15  C   UNL     1     -10.643   6.530  68.218  1.00  0.00    -0.249 A  
HETATM   16  C   UNL     1     -10.427   5.491  69.113  1.00  0.00    -0.315 A  
HETATM   17  O   UNL     1     -11.652   6.420  67.302  1.00  0.00    -0.695 OA 
HETATM   18  H   UNL     1     -10.887   8.616  66.763  1.00  0.00     0.000 HD 
HETATM   19  H   UNL     1     -12.178   5.630  67.269  1.00  0.00     0.000 HD 
ENDBRANCH   3  10
TORSDOF 1
ENDMDL
MODEL      159
REMARK 921   NORMALIZED FREE ENERGY PREDICTED BY IDOCK:   -2.98 KCAL/MOL
REMARK 922        TOTAL FREE ENERGY PREDICTED BY IDOCK:   -3.24 KCAL/MOL
REMARK 923 INTER-LIGAND FREE ENERGY PREDICTED BY IDOCK:   -3.11 KCAL/MOL
REMARK 924 INTRA-LIGAND FREE ENERGY PREDICTED BY IDOCK:   -0.13 KCAL/MOL
REMARK 927      BINDING AFFINITY PREDICTED BY RF-SCORE:    0.00 PKD
ROOT
HETATM    1  C   UNL     1      -8.167   6.254  71.904  1.00  0.00    -0.110 C  
HETATM    2  C   UNL     1      -9.096   5.256  71.208  1.00  0.00    -0.144 C  
HETATM    3  C   UNL     1     -10.472   5.885  70.849  1.00  0.00    -0.305 C  
HETATM    4  C   UNL     1      -9.402   4.123  72.229  1.00  0.00    -0.125 C  
HETATM    5  N   UNL     1      -8.390   4.709  70.032  1.00  0.00    -0.067 NA 
HETATM    6  H2  UNL     1      -7.486   4.304  70.271  1.00  0.00     0.000 HD 
HETATM    7  H1  UNL     1      -9.009   4.044  69.569  1.00  0.00     0.000 HD 
HETATM    8  O   UNL     1      -9.964   4.287  73.301  1.00  0.00    -0.131 OA 
HETATM    9  O   UNL     1      -8.987   2.900  71.819  1.00  0.00    -0.076 OA 
ENDROOT
BRANCH   3  10
HETATM   10  C   UNL     1     -10.545   7.006  69.826  1.00  0.00    -0.253 A  
HETATM   11  C   UNL     1     -10.689   6.703  68.459  1.00  0.00    -0.308 A  
HETATM   12  C   UNL     1     -10.596   7.702  67.480  1.00  0.00    -0.323 A  
HETATM   13  C   UNL     1     -10.363   9.014  67.871  1.00  0.00    -0.235 A  
HETATM   14  O   UNL     1     -10.206  10.025  66.965  1.00  0.00    -0.213 OA 
HETATM   15  C   UNL     1     -10.254   9.330  69.220  1.00  0.00    -0.206 A  
HETATM   16  C   UNL     1     -10.338   8.343  70.193  1.00  0.00    -0.214 A  
HETATM   17  O   UNL     1     -10.027  10.623  69.602  1.00  0.00    -0.402 OA 
HETATM   18  H   UNL     1     -10.047  10.923  67.233  1.00  0.00     0.000 HD 
HETATM   19  H   UNL     1      -9.952  10.839  70.523  1.00  0.00     0.000 HD 
ENDBRANCH   3  10
TORSDOF 1
ENDMDL
MODEL      160
REMARK 921   NORMALIZED FREE ENERGY PREDICTED BY IDOCK:   -2.96 KCAL/MOL
REMARK 922        TOTAL FREE ENERGY PREDICTED BY IDOCK:   -3.22 KCAL/MOL
REMARK 923 INTER-LIGAND FREE ENERGY PREDICTED BY IDOCK:   -3.32 KCAL/MOL
REMARK 924 INTRA-LIGAND FREE ENERGY PREDICTED BY IDOCK:    0.09 KCAL/MOL
REMARK 927      BINDING AFFINITY PREDICTED BY RF-SCORE:    0.00 PKD
ROOT
HETATM    1  C   UNL     1      -9.212   2.880  65.502  1.00  0.00    -0.123 C  
HETATM    2  C   UNL     1      -9.794   4.148  64.870  1.00  0.00    -0.197 C  
HETATM    3  C   UNL     1     -10.865   4.818  65.776  1.00  0.00    -0.123 C  
HETATM    4  C   UNL     1     -10.544   3.714  63.578  1.00  0.00    -0.260 C  
HETATM    5  N   UNL     1      -8.677   5.052  64.535  1.00  0.00    -0.191 NA 
HETATM    6  H2  UNL     1      -7.973   4.607  63.946  1.00  0.00     0.000 HD 
HETATM    7  H1  UNL     1      -9.065   5.897  64.113  1.00  0.00     0.000 HD 
HETATM    8  O   UNL     1     -11.501   2.956  63.551  1.00  0.00    -0.170 OA 
HETATM    9  O   UNL     1     -10.038   4.267  62.448  1.00  0.00    -0.159 OA 
ENDROOT
BRANCH   3  10
HETATM   10  C   UNL     1     -10.458   5.407  67.116  1.00  0.00    -0.298 A  
HETATM   11  C   UNL     1      -9.728   4.627  68.035  1.00  0.00    -0.197 A  
HETATM   12  C   UNL     1      -9.480   5.082  69.337  1.00  0.00    -0.206 A  
HETATM   13  C   UNL     1      -9.958   6.327  69.722  1.00  0.00    -0.168 A  
HETATM   14  O   UNL     1      -9.799   6.806  70.992  1.00  0.00    -0.182 OA 
HETATM   15  C   UNL     1     -10.649   7.120  68.813  1.00  0.00    -0.196 A  
HETATM   16  C   UNL     1     -10.905   6.671  67.524  1.00  0.00    -0.417 A  
HETATM   17  O   UNL     1     -11.118   8.346  69.195  1.00  0.00    -0.429 OA 
HETATM   18  H   UNL     1     -10.127   7.658  71.256  1.00  0.00     0.000 HD 
HETATM   19  H   UNL     1     -11.590   8.888  68.575  1.00  0.00     0.000 HD 
ENDBRANCH   3  10
TORSDOF 1
ENDMDL
MODEL      161
REMARK 921   NORMALIZED FREE ENERGY PREDICTED BY IDOCK:   -2.91 KCAL/MOL
REMARK 922        TOTAL FREE ENERGY PREDICTED BY IDOCK:   -3.17 KCAL/MOL
REMARK 923 INTER-LIGAND FREE ENERGY PREDICTED BY IDOCK:   -2.98 KCAL/MOL
REMARK 924 INTRA-LIGAND FREE ENERGY PREDICTED BY IDOCK:   -0.20 KCAL/MOL
REMARK 927      BINDING AFFINITY PREDICTED BY RF-SCORE:    0.00 PKD
ROOT
HETATM    1  C   UNL     1      -6.859   5.453  71.316  1.00  0.00    -0.053 C  
HETATM    2  C   UNL     1      -8.168   4.663  71.232  1.00  0.00    -0.100 C  
HETATM    3  C   UNL     1      -9.388   5.577  70.924  1.00  0.00    -0.191 C  
HETATM    4  C   UNL     1      -8.434   4.063  72.642  1.00  0.00    -0.100 C  
HETATM    5  N   UNL     1      -7.994   3.584  70.240  1.00  0.00    -0.046 NA 
HETATM    6  H2  UNL     1      -7.190   2.991  70.441  1.00  0.00     0.000 HD 
HETATM    7  H1  UNL     1      -8.866   3.057  70.184  1.00  0.00     0.000 HD 
HETATM    8  O   UNL     1      -8.600   4.720  73.657  1.00  0.00    -0.105 OA 
HETATM    9  O   UNL     1      -8.473   2.707  72.653  1.00  0.00    -0.068 OA 
ENDROOT
BRANCH   3  10
HETATM   10  C   UNL     1      -9.475   6.293  69.587  1.00  0.00    -0.157 A  
HETATM   11  C   UNL     1      -8.850   7.544  69.417  1.00  0.00    -0.136 A  
HETATM   12  C   UNL     1      -9.048   8.302  68.254  1.00  0.00    -0.135 A  
HETATM   13  C   UNL     1      -9.872   7.803  67.253  1.00  0.00    -0.189 A  
HETATM   14  O   UNL     1     -10.151   8.516  66.121  1.00  0.00    -0.456 OA 
HETATM   15  C   UNL     1     -10.465   6.555  67.395  1.00  0.00    -0.252 A  
HETATM   16  C   UNL     1     -10.279   5.803  68.548  1.00  0.00    -0.246 A  
HETATM   17  O   UNL     1     -11.274   6.067  66.408  1.00  0.00    -0.742 OA 
HETATM   18  H   UNL     1     -10.714   8.175  65.435  1.00  0.00     0.000 HD 
HETATM   19  H   UNL     1     -11.680   5.214  66.505  1.00  0.00     0.000 HD 
ENDBRANCH   3  10
TORSDOF 1
ENDMDL
MODEL      162
REMARK 921   NORMALIZED FREE ENERGY PREDICTED BY IDOCK:   -2.91 KCAL/MOL
REMARK 922        TOTAL FREE ENERGY PREDICTED BY IDOCK:   -3.17 KCAL/MOL
REMARK 923 INTER-LIGAND FREE ENERGY PREDICTED BY IDOCK:   -3.36 KCAL/MOL
REMARK 924 INTRA-LIGAND FREE ENERGY PREDICTED BY IDOCK:    0.19 KCAL/MOL
REMARK 927      BINDING AFFINITY PREDICTED BY RF-SCORE:    0.00 PKD
ROOT
HETATM    1  C   UNL     1     -13.016   9.337  72.220  1.00  0.00    -0.488 C  
HETATM    2  C   UNL     1     -11.776   8.521  71.842  1.00  0.00    -0.341 C  
HETATM    3  C   UNL     1     -11.561   8.457  70.303  1.00  0.00     0.016 C  
HETATM    4  C   UNL     1     -12.034   7.056  72.295  1.00  0.00    -0.211 C  
HETATM    5  N   UNL     1     -10.616   9.084  72.561  1.00  0.00     0.141 NA 
HETATM    6  H2  UNL     1     -10.763   9.131  73.569  1.00  0.00     0.000 HD 
HETATM    7  H1  UNL     1      -9.790   8.540  72.310  1.00  0.00     0.000 HD 
HETATM    8  O   UNL     1     -12.938   6.349  71.879  1.00  0.00    -0.198 OA 
HETATM    9  O   UNL     1     -11.143   6.610  73.215  1.00  0.00    -0.234 OA 
ENDROOT
BRANCH   3  10
HETATM   10  C   UNL     1     -11.234   9.725  69.533  1.00  0.00    -0.181 A  
HETATM   11  C   UNL     1     -11.894  10.929  69.848  1.00  0.00    -0.427 A  
HETATM   12  C   UNL     1     -11.736  12.072  69.053  1.00  0.00    -0.382 A  
HETATM   13  C   UNL     1     -10.908  12.014  67.940  1.00  0.00    -0.215 A  
HETATM   14  O   UNL     1     -10.754  13.075  67.092  1.00  0.00    -0.251 OA 
HETATM   15  C   UNL     1     -10.224  10.842  67.640  1.00  0.00    -0.189 A  
HETATM   16  C   UNL     1     -10.384   9.703  68.419  1.00  0.00    -0.233 A  
HETATM   17  O   UNL     1      -9.409  10.788  66.544  1.00  0.00    -0.163 OA 
HETATM   18  H   UNL     1     -10.188  13.035  66.331  1.00  0.00     0.000 HD 
HETATM   19  H   UNL     1      -8.942   9.987  66.339  1.00  0.00     0.000 HD 
ENDBRANCH   3  10
TORSDOF 1
ENDMDL
MODEL      163
REMARK 921   NORMALIZED FREE ENERGY PREDICTED BY IDOCK:   -2.89 KCAL/MOL
REMARK 922        TOTAL FREE ENERGY PREDICTED BY IDOCK:   -3.15 KCAL/MOL
REMARK 923 INTER-LIGAND FREE ENERGY PREDICTED BY IDOCK:   -2.94 KCAL/MOL
REMARK 924 INTRA-LIGAND FREE ENERGY PREDICTED BY IDOCK:   -0.21 KCAL/MOL
REMARK 927      BINDING AFFINITY PREDICTED BY RF-SCORE:    0.00 PKD
ROOT
HETATM    1  C   UNL     1      -8.397   6.009  65.100  1.00  0.00    -0.140 C  
HETATM    2  C   UNL     1      -9.008   5.238  66.274  1.00  0.00    -0.133 C  
HETATM    3  C   UNL     1      -8.629   5.861  67.647  1.00  0.00    -0.102 C  
HETATM    4  C   UNL     1      -8.380   3.815  66.266  1.00  0.00    -0.105 C  
HETATM    5  N   UNL     1     -10.467   5.156  66.064  1.00  0.00    -0.446 NA 
HETATM    6  H2  UNL     1     -10.712   4.753  65.160  1.00  0.00     0.000 HD 
HETATM    7  H1  UNL     1     -10.874   4.642  66.846  1.00  0.00     0.000 HD 
HETATM    8  O   UNL     1      -7.189   3.580  66.401  1.00  0.00    -0.062 OA 
HETATM    9  O   UNL     1      -9.290   2.824  66.097  1.00  0.00    -0.113 OA 
ENDROOT
BRANCH   3  10
HETATM   10  C   UNL     1      -9.128   7.249  68.010  1.00  0.00    -0.133 A  
HETATM   11  C   UNL     1      -8.354   8.381  67.691  1.00  0.00    -0.130 A  
HETATM   12  C   UNL     1      -8.707   9.656  68.155  1.00  0.00    -0.119 A  
HETATM   13  C   UNL     1      -9.845   9.801  68.937  1.00  0.00    -0.173 A  
HETATM   14  O   UNL     1     -10.213  11.006  69.467  1.00  0.00    -0.418 OA 
HETATM   15  C   UNL     1     -10.636   8.696  69.229  1.00  0.00    -0.192 A  
HETATM   16  C   UNL     1     -10.286   7.429  68.779  1.00  0.00    -0.209 A  
HETATM   17  O   UNL     1     -11.756   8.842  69.998  1.00  0.00    -0.462 OA 
HETATM   18  H   UNL     1     -10.992  11.105  70.002  1.00  0.00     0.000 HD 
HETATM   19  H   UNL     1     -12.297   8.088  70.197  1.00  0.00     0.000 HD 
ENDBRANCH   3  10
TORSDOF 1
ENDMDL
MODEL      164
REMARK 921   NORMALIZED FREE ENERGY PREDICTED BY IDOCK:   -2.88 KCAL/MOL
REMARK 922        TOTAL FREE ENERGY PREDICTED BY IDOCK:   -3.14 KCAL/MOL
REMARK 923 INTER-LIGAND FREE ENERGY PREDICTED BY IDOCK:   -3.01 KCAL/MOL
REMARK 924 INTRA-LIGAND FREE ENERGY PREDICTED BY IDOCK:   -0.13 KCAL/MOL
REMARK 927      BINDING AFFINITY PREDICTED BY RF-SCORE:    0.00 PKD
ROOT
HETATM    1  C   UNL     1     -11.389   8.305  69.045  1.00  0.00     0.563 C  
HETATM    2  C   UNL     1     -11.536   9.638  69.785  1.00  0.00    -0.052 C  
HETATM    3  C   UNL     1     -10.318  10.576  69.553  1.00  0.00    -0.251 C  
HETATM    4  C   UNL     1     -11.543   9.320  71.307  1.00  0.00    -0.349 C  
HETATM    5  N   UNL     1     -12.818  10.251  69.383  1.00  0.00    -0.252 NA 
HETATM    6  H2  UNL     1     -13.613   9.630  69.530  1.00  0.00     0.000 HD 
HETATM    7  H1  UNL     1     -12.916  11.138  69.876  1.00  0.00     0.000 HD 
HETATM    8  O   UNL     1     -10.621   8.796  71.912  1.00  0.00    -0.309 OA 
HETATM    9  O   UNL     1     -12.689   9.689  71.931  1.00  0.00    -0.374 OA 
ENDROOT
BRANCH   3  10
HETATM   10  C   UNL     1     -10.041  11.123  68.164  1.00  0.00    -0.193 A  
HETATM   11  C   UNL     1     -10.668  12.309  67.736  1.00  0.00    -0.246 A  
HETATM   12  C   UNL     1     -10.561  12.750  66.410  1.00  0.00    -0.273 A  
HETATM   13  C   UNL     1      -9.817  12.003  65.506  1.00  0.00    -0.229 A  
HETATM   14  O   UNL     1      -9.718  12.347  64.187  1.00  0.00    -0.547 OA 
HETATM   15  C   UNL     1      -9.164  10.849  65.925  1.00  0.00    -0.191 A  
HETATM   16  C   UNL     1      -9.274  10.404  67.236  1.00  0.00    -0.157 A  
HETATM   17  O   UNL     1      -8.432  10.117  65.034  1.00  0.00    -0.148 OA 
HETATM   18  H   UNL     1      -9.209  11.835  63.569  1.00  0.00     0.000 HD 
HETATM   19  H   UNL     1      -7.986   9.329  65.319  1.00  0.00     0.000 HD 
ENDBRANCH   3  10
TORSDOF 1
ENDMDL
MODEL      165
REMARK 921   NORMALIZED FREE ENERGY PREDICTED BY IDOCK:   -2.88 KCAL/MOL
REMARK 922        TOTAL FREE ENERGY PREDICTED BY IDOCK:   -3.14 KCAL/MOL
REMARK 923 INTER-LIGAND FREE ENERGY PREDICTED BY IDOCK:   -3.10 KCAL/MOL
REMARK 924 INTRA-LIGAND FREE ENERGY PREDICTED BY IDOCK:   -0.04 KCAL/MOL
REMARK 927      BINDING AFFINITY PREDICTED BY RF-SCORE:    0.00 PKD
ROOT
HETATM    1  C   UNL     1      -6.199  10.099  68.543  1.00  0.00    -0.044 C  
HETATM    2  C   UNL     1      -7.413   9.255  68.942  1.00  0.00    -0.075 C  
HETATM    3  C   UNL     1      -8.736  10.069  68.895  1.00  0.00    -0.146 C  
HETATM    4  C   UNL     1      -7.219   8.846  70.430  1.00  0.00    -0.060 C  
HETATM    5  N   UNL     1      -7.445   8.056  68.081  1.00  0.00    -0.099 NA 
HETATM    6  H2  UNL     1      -6.573   7.529  68.109  1.00  0.00     0.000 HD 
HETATM    7  H1  UNL     1      -8.253   7.493  68.347  1.00  0.00     0.000 HD 
HETATM    8  O   UNL     1      -7.140   9.631  71.362  1.00  0.00    -0.324 OA 
HETATM    9  O   UNL     1      -7.148   7.505  70.617  1.00  0.00    -0.057 OA 
ENDROOT
BRANCH   3  10
HETATM   10  C   UNL     1      -9.256  10.589  67.566  1.00  0.00    -0.152 A  
HETATM   11  C   UNL     1      -9.653   9.684  66.563  1.00  0.00    -0.252 A  
HETATM   12  C   UNL     1      -9.981  10.126  65.274  1.00  0.00    -0.381 A  
HETATM   13  C   UNL     1      -9.916  11.483  64.987  1.00  0.00    -0.263 A  
HETATM   14  O   UNL     1     -10.168  11.974  63.737  1.00  0.00    -0.357 OA 
HETATM   15  C   UNL     1      -9.559  12.389  65.979  1.00  0.00    -0.209 A  
HETATM   16  C   UNL     1      -9.225  11.956  67.255  1.00  0.00    -0.179 A  
HETATM   17  O   UNL     1      -9.497  13.724  65.693  1.00  0.00    -0.504 OA 
HETATM   18  H   UNL     1     -10.124  12.903  63.540  1.00  0.00     0.000 HD 
HETATM   19  H   UNL     1      -9.253  14.344  66.370  1.00  0.00     0.000 HD 
ENDBRANCH   3  10
TORSDOF 1
ENDMDL
MODEL      166
REMARK 921   NORMALIZED FREE ENERGY PREDICTED BY IDOCK:   -2.82 KCAL/MOL
REMARK 922        TOTAL FREE ENERGY PREDICTED BY IDOCK:   -3.08 KCAL/MOL
REMARK 923 INTER-LIGAND FREE ENERGY PREDICTED BY IDOCK:   -3.40 KCAL/MOL
REMARK 924 INTRA-LIGAND FREE ENERGY PREDICTED BY IDOCK:    0.33 KCAL/MOL
REMARK 927      BINDING AFFINITY PREDICTED BY RF-SCORE:    0.00 PKD
ROOT
HETATM    1  C   UNL     1     -10.527   9.679  67.306  1.00  0.00    -0.323 C  
HETATM    2  C   UNL     1     -10.321  10.493  68.587  1.00  0.00    -0.185 C  
HETATM    3  C   UNL     1     -11.092   9.893  69.796  1.00  0.00    -0.294 C  
HETATM    4  C   UNL     1     -10.941  11.898  68.343  1.00  0.00    -0.232 C  
HETATM    5  N   UNL     1      -8.869  10.610  68.832  1.00  0.00    -0.155 NA 
HETATM    6  H2  UNL     1      -8.366  10.997  68.034  1.00  0.00     0.000 HD 
HETATM    7  H1  UNL     1      -8.732  11.152  69.684  1.00  0.00     0.000 HD 
HETATM    8  O   UNL     1     -12.120  12.104  68.100  1.00  0.00    -0.447 OA 
HETATM    9  O   UNL     1     -10.042  12.909  68.431  1.00  0.00    -0.233 OA 
ENDROOT
BRANCH   3  10
HETATM   10  C   UNL     1     -10.703   8.528  70.336  1.00  0.00    -0.246 A  
HETATM   11  C   UNL     1     -10.990   8.192  71.673  1.00  0.00    -0.306 A  
HETATM   12  C   UNL     1     -10.501   7.009  72.246  1.00  0.00    -0.234 A  
HETATM   13  C   UNL     1      -9.725   6.154  71.475  1.00  0.00    -0.162 A  
HETATM   14  O   UNL     1      -9.172   5.014  71.988  1.00  0.00    -0.134 OA 
HETATM   15  C   UNL     1      -9.465   6.458  70.144  1.00  0.00    -0.160 A  
HETATM   16  C   UNL     1      -9.940   7.632  69.574  1.00  0.00    -0.182 A  
HETATM   17  O   UNL     1      -8.702   5.613  69.388  1.00  0.00    -0.108 OA 
HETATM   18  H   UNL     1      -8.641   4.429  71.460  1.00  0.00     0.000 HD 
HETATM   19  H   UNL     1      -8.524   5.820  68.478  1.00  0.00     0.000 HD 
ENDBRANCH   3  10
TORSDOF 1
ENDMDL
MODEL      167
REMARK 921   NORMALIZED FREE ENERGY PREDICTED BY IDOCK:   -2.79 KCAL/MOL
REMARK 922        TOTAL FREE ENERGY PREDICTED BY IDOCK:   -3.04 KCAL/MOL
REMARK 923 INTER-LIGAND FREE ENERGY PREDICTED BY IDOCK:   -2.82 KCAL/MOL
REMARK 924 INTRA-LIGAND FREE ENERGY PREDICTED BY IDOCK:   -0.22 KCAL/MOL
REMARK 927      BINDING AFFINITY PREDICTED BY RF-SCORE:    0.00 PKD
ROOT
HETATM    1  C   UNL     1     -10.450   8.502  70.552  1.00  0.00    -0.230 C  
HETATM    2  C   UNL     1      -9.144   7.747  70.282  1.00  0.00    -0.152 C  
HETATM    3  C   UNL     1      -8.682   6.913  71.510  1.00  0.00    -0.122 C  
HETATM    4  C   UNL     1      -8.036   8.814  70.053  1.00  0.00    -0.111 C  
HETATM    5  N   UNL     1      -9.327   6.928  69.067  1.00  0.00    -0.136 NA 
HETATM    6  H2  UNL     1      -9.637   7.477  68.266  1.00  0.00     0.000 HD 
HETATM    7  H1  UNL     1      -8.457   6.426  68.887  1.00  0.00     0.000 HD 
HETATM    8  O   UNL     1      -7.685   9.640  70.881  1.00  0.00    -0.314 OA 
HETATM    9  O   UNL     1      -7.470   8.749  68.822  1.00  0.00    -0.081 OA 
ENDROOT
BRANCH   3  10
HETATM   10  C   UNL     1      -9.521   5.740  71.985  1.00  0.00    -0.166 A  
HETATM   11  C   UNL     1     -10.481   5.925  72.998  1.00  0.00    -0.247 A  
HETATM   12  C   UNL     1     -11.154   4.836  73.569  1.00  0.00    -0.412 A  
HETATM   13  C   UNL     1     -10.869   3.553  73.120  1.00  0.00    -0.149 A  
HETATM   14  O   UNL     1     -11.448   2.445  73.672  1.00  0.00    -0.223 OA 
HETATM   15  C   UNL     1      -9.950   3.361  72.096  1.00  0.00    -0.160 A  
HETATM   16  C   UNL     1      -9.275   4.436  71.532  1.00  0.00    -0.190 A  
HETATM   17  O   UNL     1      -9.673   2.097  71.655  1.00  0.00    -0.130 OA 
HETATM   18  H   UNL     1     -11.253   1.567  73.365  1.00  0.00     0.000 HD 
HETATM   19  H   UNL     1      -9.045   1.966  70.955  1.00  0.00     0.000 HD 
ENDBRANCH   3  10
TORSDOF 1
ENDMDL
MODEL      168
REMARK 921   NORMALIZED FREE ENERGY PREDICTED BY IDOCK:   -2.78 KCAL/MOL
REMARK 922        TOTAL FREE ENERGY PREDICTED BY IDOCK:   -3.03 KCAL/MOL
REMARK 923 INTER-LIGAND FREE ENERGY PREDICTED BY IDOCK:   -3.04 KCAL/MOL
REMARK 924 INTRA-LIGAND FREE ENERGY PREDICTED BY IDOCK:    0.01 KCAL/MOL
REMARK 927      BINDING AFFINITY PREDICTED BY RF-SCORE:    0.00 PKD
ROOT
HETATM    1  C   UNL     1      -7.896   4.098  69.112  1.00  0.00    -0.057 C  
HETATM    2  C   UNL     1      -8.362   5.311  68.301  1.00  0.00    -0.097 C  
HETATM    3  C   UNL     1      -9.833   5.701  68.619  1.00  0.00    -0.190 C  
HETATM    4  C   UNL     1      -8.348   4.895  66.803  1.00  0.00    -0.107 C  
HETATM    5  N   UNL     1      -7.411   6.416  68.536  1.00  0.00    -0.086 NA 
HETATM    6  H2  UNL     1      -6.447   6.155  68.333  1.00  0.00     0.000 HD 
HETATM    7  H1  UNL     1      -7.721   7.224  67.995  1.00  0.00     0.000 HD 
HETATM    8  O   UNL     1      -9.023   3.997  66.325  1.00  0.00    -0.117 OA 
HETATM    9  O   UNL     1      -7.504   5.637  66.044  1.00  0.00    -0.079 OA 
ENDROOT
BRANCH   3  10
HETATM   10  C   UNL     1     -10.197   6.208  70.004  1.00  0.00    -0.250 A  
HETATM   11  C   UNL     1      -9.581   7.367  70.514  1.00  0.00    -0.172 A  
HETATM   12  C   UNL     1      -9.772   7.765  71.844  1.00  0.00    -0.216 A  
HETATM   13  C   UNL     1     -10.590   7.004  72.668  1.00  0.00    -0.245 A  
HETATM   14  O   UNL     1     -10.774   7.305  73.989  1.00  0.00    -0.545 OA 
HETATM   15  C   UNL     1     -11.231   5.877  72.167  1.00  0.00    -0.287 A  
HETATM   16  C   UNL     1     -11.038   5.473  70.852  1.00  0.00    -0.107 A  
HETATM   17  O   UNL     1     -12.036   5.130  72.980  1.00  0.00    -0.484 OA 
HETATM   18  H   UNL     1     -11.333   6.784  74.553  1.00  0.00     0.000 HD 
HETATM   19  H   UNL     1     -12.474   4.361  72.638  1.00  0.00     0.000 HD 
ENDBRANCH   3  10
TORSDOF 1
ENDMDL
MODEL      169
REMARK 921   NORMALIZED FREE ENERGY PREDICTED BY IDOCK:   -2.75 KCAL/MOL
REMARK 922        TOTAL FREE ENERGY PREDICTED BY IDOCK:   -3.00 KCAL/MOL
REMARK 923 INTER-LIGAND FREE ENERGY PREDICTED BY IDOCK:   -3.01 KCAL/MOL
REMARK 924 INTRA-LIGAND FREE ENERGY PREDICTED BY IDOCK:    0.01 KCAL/MOL
REMARK 927      BINDING AFFINITY PREDICTED BY RF-SCORE:    0.00 PKD
ROOT
HETATM    1  C   UNL     1      -6.922  13.152  67.413  1.00  0.00    -0.117 C  
HETATM    2  C   UNL     1      -7.441  13.080  68.852  1.00  0.00     0.014 C  
HETATM    3  C   UNL     1      -7.419  14.467  69.555  1.00  0.00    -0.027 C  
HETATM    4  C   UNL     1      -6.453  12.184  69.653  1.00  0.00    -0.082 C  
HETATM    5  N   UNL     1      -8.785  12.469  68.829  1.00  0.00    -0.380 NA 
HETATM    6  H2  UNL     1      -8.796  11.563  68.362  1.00  0.00     0.000 HD 
HETATM    7  H1  UNL     1      -9.130  12.421  69.788  1.00  0.00     0.000 HD 
HETATM    8  O   UNL     1      -5.270  12.433  69.823  1.00  0.00    -0.072 OA 
HETATM    9  O   UNL     1      -7.031  11.071  70.169  1.00  0.00    -0.159 OA 
ENDROOT
BRANCH   3  10
HETATM   10  C   UNL     1      -8.318  15.583  69.050  1.00  0.00    -0.227 A  
HETATM   11  C   UNL     1      -9.715  15.404  69.025  1.00  0.00    -0.239 A  
HETATM   12  C   UNL     1     -10.556  16.346  68.417  1.00  0.00    -0.311 A  
HETATM   13  C   UNL     1      -9.998  17.476  67.835  1.00  0.00    -0.312 A  
HETATM   14  O   UNL     1     -10.756  18.404  67.177  1.00  0.00    -0.399 OA 
HETATM   15  C   UNL     1      -8.624  17.680  67.885  1.00  0.00    -0.238 A  
HETATM   16  C   UNL     1      -7.785  16.747  68.479  1.00  0.00    -0.223 A  
HETATM   17  O   UNL     1      -8.079  18.795  67.312  1.00  0.00    -0.241 OA 
HETATM   18  H   UNL     1     -10.375  19.178  66.779  1.00  0.00     0.000 HD 
HETATM   19  H   UNL     1      -7.140  18.935  67.345  1.00  0.00     0.000 HD 
ENDBRANCH   3  10
TORSDOF 1
ENDMDL
MODEL      170
REMARK 921   NORMALIZED FREE ENERGY PREDICTED BY IDOCK:   -2.75 KCAL/MOL
REMARK 922        TOTAL FREE ENERGY PREDICTED BY IDOCK:   -3.00 KCAL/MOL
REMARK 923 INTER-LIGAND FREE ENERGY PREDICTED BY IDOCK:   -2.88 KCAL/MOL
REMARK 924 INTRA-LIGAND FREE ENERGY PREDICTED BY IDOCK:   -0.11 KCAL/MOL
REMARK 927      BINDING AFFINITY PREDICTED BY RF-SCORE:    0.00 PKD
ROOT
HETATM    1  C   UNL     1      -6.906   9.312  67.033  1.00  0.00    -0.080 C  
HETATM    2  C   UNL     1      -7.018   9.982  65.660  1.00  0.00    -0.115 C  
HETATM    3  C   UNL     1      -8.492  10.090  65.177  1.00  0.00    -0.160 C  
HETATM    4  C   UNL     1      -6.303   9.055  64.637  1.00  0.00    -0.070 C  
HETATM    5  N   UNL     1      -6.339  11.291  65.729  1.00  0.00    -0.365 NA 
HETATM    6  H2  UNL     1      -5.375  11.217  66.053  1.00  0.00     0.000 HD 
HETATM    7  H1  UNL     1      -6.413  11.738  64.814  1.00  0.00     0.000 HD 
HETATM    8  O   UNL     1      -6.638   7.908  64.386  1.00  0.00    -0.055 OA 
HETATM    9  O   UNL     1      -5.248   9.644  64.020  1.00  0.00    -0.058 OA 
ENDROOT
BRANCH   3  10
HETATM   10  C   UNL     1      -9.472  10.970  65.934  1.00  0.00    -0.244 A  
HETATM   11  C   UNL     1      -9.710  12.290  65.504  1.00  0.00    -0.174 A  
HETATM   12  C   UNL     1     -10.480  13.175  66.271  1.00  0.00    -0.291 A  
HETATM   13  C   UNL     1     -11.019  12.738  67.473  1.00  0.00    -0.249 A  
HETATM   14  O   UNL     1     -11.731  13.566  68.295  1.00  0.00    -0.318 OA 
HETATM   15  C   UNL     1     -10.819  11.427  67.891  1.00  0.00    -0.225 A  
HETATM   16  C   UNL     1     -10.051  10.548  67.139  1.00  0.00    -0.253 A  
HETATM   17  O   UNL     1     -11.353  10.999  69.074  1.00  0.00    -0.228 OA 
HETATM   18  H   UNL     1     -12.100  13.267  69.117  1.00  0.00     0.000 HD 
HETATM   19  H   UNL     1     -11.216  10.104  69.360  1.00  0.00     0.000 HD 
ENDBRANCH   3  10
TORSDOF 1
ENDMDL
MODEL      171
REMARK 921   NORMALIZED FREE ENERGY PREDICTED BY IDOCK:   -2.72 KCAL/MOL
REMARK 922        TOTAL FREE ENERGY PREDICTED BY IDOCK:   -2.97 KCAL/MOL
REMARK 923 INTER-LIGAND FREE ENERGY PREDICTED BY IDOCK:   -3.34 KCAL/MOL
REMARK 924 INTRA-LIGAND FREE ENERGY PREDICTED BY IDOCK:    0.36 KCAL/MOL
REMARK 927      BINDING AFFINITY PREDICTED BY RF-SCORE:    0.00 PKD
ROOT
HETATM    1  C   UNL     1      -7.431  11.391  66.903  1.00  0.00    -0.147 C  
HETATM    2  C   UNL     1      -8.266  11.779  68.126  1.00  0.00    -0.153 C  
HETATM    3  C   UNL     1      -8.160  13.295  68.454  1.00  0.00    -0.134 C  
HETATM    4  C   UNL     1      -7.660  11.037  69.351  1.00  0.00    -0.054 C  
HETATM    5  N   UNL     1      -9.656  11.337  67.896  1.00  0.00    -0.173 NA 
HETATM    6  H2  UNL     1      -9.721  10.344  67.674  1.00  0.00     0.000 HD 
HETATM    7  H1  UNL     1     -10.213  11.595  68.711  1.00  0.00     0.000 HD 
HETATM    8  O   UNL     1      -6.521  11.192  69.763  1.00  0.00    -0.110 OA 
HETATM    9  O   UNL     1      -8.526  10.181  69.947  1.00  0.00    -0.176 OA 
ENDROOT
BRANCH   3  10
HETATM   10  C   UNL     1      -8.711  14.319  67.477  1.00  0.00    -0.204 A  
HETATM   11  C   UNL     1      -8.896  15.654  67.885  1.00  0.00    -0.171 A  
HETATM   12  C   UNL     1      -9.551  16.581  67.063  1.00  0.00    -0.249 A  
HETATM   13  C   UNL     1     -10.019  16.172  65.821  1.00  0.00    -0.340 A  
HETATM   14  O   UNL     1     -10.714  17.010  64.995  1.00  0.00    -0.713 OA 
HETATM   15  C   UNL     1      -9.811  14.866  65.393  1.00  0.00    -0.268 A  
HETATM   16  C   UNL     1      -9.170  13.942  66.207  1.00  0.00    -0.114 A  
HETATM   17  O   UNL     1     -10.273  14.468  64.170  1.00  0.00    -0.331 OA 
HETATM   18  H   UNL     1     -11.035  16.731  64.145  1.00  0.00     0.000 HD 
HETATM   19  H   UNL     1     -10.131  13.575  63.877  1.00  0.00     0.000 HD 
ENDBRANCH   3  10
TORSDOF 1
ENDMDL
MODEL      172
REMARK 921   NORMALIZED FREE ENERGY PREDICTED BY IDOCK:   -2.71 KCAL/MOL
REMARK 922        TOTAL FREE ENERGY PREDICTED BY IDOCK:   -2.95 KCAL/MOL
REMARK 923 INTER-LIGAND FREE ENERGY PREDICTED BY IDOCK:   -3.18 KCAL/MOL
REMARK 924 INTRA-LIGAND FREE ENERGY PREDICTED BY IDOCK:    0.23 KCAL/MOL
REMARK 927      BINDING AFFINITY PREDICTED BY RF-SCORE:    0.00 PKD
ROOT
HETATM    1  C   UNL     1      -8.883  17.413  65.996  1.00  0.00    -0.091 C  
HETATM    2  C   UNL     1      -8.085  18.114  67.100  1.00  0.00    -0.221 C  
HETATM    3  C   UNL     1      -8.169  17.359  68.456  1.00  0.00    -0.268 C  
HETATM    4  C   UNL     1      -8.754  19.497  67.342  1.00  0.00    -0.308 C  
HETATM    5  N   UNL     1      -6.698  18.291  66.626  1.00  0.00    -0.188 NA 
HETATM    6  H2  UNL     1      -6.648  18.780  65.733  1.00  0.00     0.000 HD 
HETATM    7  H1  UNL     1      -6.167  18.758  67.361  1.00  0.00     0.000 HD 
HETATM    8  O   UNL     1      -9.904  19.656  67.722  1.00  0.00    -0.341 OA 
HETATM    9  O   UNL     1      -7.930  20.546  67.097  1.00  0.00    -0.333 OA 
ENDROOT
BRANCH   3  10
HETATM   10  C   UNL     1      -7.560  15.974  68.587  1.00  0.00    -0.173 A  
HETATM   11  C   UNL     1      -7.618  15.073  67.506  1.00  0.00    -0.216 A  
HETATM   12  C   UNL     1      -7.212  13.740  67.649  1.00  0.00    -0.183 A  
HETATM   13  C   UNL     1      -6.739  13.304  68.880  1.00  0.00    -0.110 A  
HETATM   14  O   UNL     1      -6.381  12.004  69.102  1.00  0.00    -0.078 OA 
HETATM   15  C   UNL     1      -6.644  14.192  69.945  1.00  0.00    -0.082 A  
HETATM   16  C   UNL     1      -7.053  15.513  69.811  1.00  0.00    -0.119 A  
HETATM   17  O   UNL     1      -6.178  13.760  71.155  1.00  0.00    -0.472 OA 
HETATM   18  H   UNL     1      -6.057  11.706  69.944  1.00  0.00     0.000 HD 
HETATM   19  H   UNL     1      -6.113  14.367  71.882  1.00  0.00     0.000 HD 
ENDBRANCH   3  10
TORSDOF 1
ENDMDL
MODEL      173
REMARK 921   NORMALIZED FREE ENERGY PREDICTED BY IDOCK:   -2.69 KCAL/MOL
REMARK 922        TOTAL FREE ENERGY PREDICTED BY IDOCK:   -2.94 KCAL/MOL
REMARK 923 INTER-LIGAND FREE ENERGY PREDICTED BY IDOCK:   -2.84 KCAL/MOL
REMARK 924 INTRA-LIGAND FREE ENERGY PREDICTED BY IDOCK:   -0.10 KCAL/MOL
REMARK 927      BINDING AFFINITY PREDICTED BY RF-SCORE:    0.00 PKD
ROOT
HETATM    1  C   UNL     1     -10.126  10.136  67.276  1.00  0.00    -0.254 C  
HETATM    2  C   UNL     1     -10.096  10.812  68.650  1.00  0.00    -0.183 C  
HETATM    3  C   UNL     1     -10.197   9.784  69.813  1.00  0.00    -0.271 C  
HETATM    4  C   UNL     1     -11.370  11.697  68.755  1.00  0.00    -0.264 C  
HETATM    5  N   UNL     1      -8.882  11.649  68.727  1.00  0.00    -0.361 NA 
HETATM    6  H2  UNL     1      -8.816  12.316  67.960  1.00  0.00     0.000 HD 
HETATM    7  H1  UNL     1      -8.862  12.099  69.643  1.00  0.00     0.000 HD 
HETATM    8  O   UNL     1     -12.515  11.275  68.706  1.00  0.00    -0.444 OA 
HETATM    9  O   UNL     1     -11.100  13.016  68.917  1.00  0.00    -0.252 OA 
ENDROOT
BRANCH   3  10
HETATM   10  C   UNL     1      -9.076   8.782  70.034  1.00  0.00    -0.164 A  
HETATM   11  C   UNL     1      -7.857   9.203  70.600  1.00  0.00    -0.165 A  
HETATM   12  C   UNL     1      -6.753   8.343  70.666  1.00  0.00    -0.038 A  
HETATM   13  C   UNL     1      -6.869   7.052  70.168  1.00  0.00    -0.060 A  
HETATM   14  O   UNL     1      -5.814   6.183  70.151  1.00  0.00    -0.016 OA 
HETATM   15  C   UNL     1      -8.077   6.615  69.639  1.00  0.00    -0.126 A  
HETATM   16  C   UNL     1      -9.172   7.465  69.564  1.00  0.00    -0.146 A  
HETATM   17  O   UNL     1      -8.188   5.343  69.152  1.00  0.00    -0.092 OA 
HETATM   18  H   UNL     1      -5.893   5.299  69.811  1.00  0.00     0.000 HD 
HETATM   19  H   UNL     1      -9.014   5.044  68.790  1.00  0.00     0.000 HD 
ENDBRANCH   3  10
TORSDOF 1
ENDMDL
MODEL      174
REMARK 921   NORMALIZED FREE ENERGY PREDICTED BY IDOCK:   -2.63 KCAL/MOL
REMARK 922        TOTAL FREE ENERGY PREDICTED BY IDOCK:   -2.87 KCAL/MOL
REMARK 923 INTER-LIGAND FREE ENERGY PREDICTED BY IDOCK:   -3.23 KCAL/MOL
REMARK 924 INTRA-LIGAND FREE ENERGY PREDICTED BY IDOCK:    0.36 KCAL/MOL
REMARK 927      BINDING AFFINITY PREDICTED BY RF-SCORE:    0.00 PKD
ROOT
HETATM    1  C   UNL     1     -11.589   9.054  70.934  1.00  0.00    -0.344 C  
HETATM    2  C   UNL     1     -10.751   8.187  69.988  1.00  0.00    -0.243 C  
HETATM    3  C   UNL     1      -9.500   7.589  70.693  1.00  0.00    -0.164 C  
HETATM    4  C   UNL     1     -10.202   9.122  68.873  1.00  0.00    -0.207 C  
HETATM    5  N   UNL     1     -11.631   7.155  69.406  1.00  0.00    -0.471 NA 
HETATM    6  H2  UNL     1     -12.453   7.551  68.951  1.00  0.00     0.000 HD 
HETATM    7  H1  UNL     1     -11.073   6.578  68.776  1.00  0.00     0.000 HD 
HETATM    8  O   UNL     1      -9.462  10.074  69.066  1.00  0.00    -0.167 OA 
HETATM    9  O   UNL     1     -10.620   8.781  67.629  1.00  0.00    -0.253 OA 
ENDROOT
BRANCH   3  10
HETATM   10  C   UNL     1      -9.677   6.583  71.817  1.00  0.00    -0.168 A  
HETATM   11  C   UNL     1      -8.551   6.096  72.510  1.00  0.00    -0.121 A  
HETATM   12  C   UNL     1      -8.665   5.052  73.437  1.00  0.00    -0.111 A  
HETATM   13  C   UNL     1      -9.913   4.493  73.678  1.00  0.00    -0.149 A  
HETATM   14  O   UNL     1     -10.084   3.435  74.527  1.00  0.00    -0.136 OA 
HETATM   15  C   UNL     1     -11.036   4.988  73.026  1.00  0.00    -0.308 A  
HETATM   16  C   UNL     1     -10.928   6.018  72.100  1.00  0.00    -0.314 A  
HETATM   17  O   UNL     1     -12.263   4.436  73.266  1.00  0.00    -0.075 OA 
HETATM   18  H   UNL     1     -10.938   3.053  74.692  1.00  0.00     0.000 HD 
HETATM   19  H   UNL     1     -13.031   4.774  72.821  1.00  0.00     0.000 HD 
ENDBRANCH   3  10
TORSDOF 1
ENDMDL
MODEL      175
REMARK 921   NORMALIZED FREE ENERGY PREDICTED BY IDOCK:   -2.62 KCAL/MOL
REMARK 922        TOTAL FREE ENERGY PREDICTED BY IDOCK:   -2.86 KCAL/MOL
REMARK 923 INTER-LIGAND FREE ENERGY PREDICTED BY IDOCK:   -2.76 KCAL/MOL
REMARK 924 INTRA-LIGAND FREE ENERGY PREDICTED BY IDOCK:   -0.10 KCAL/MOL
REMARK 927      BINDING AFFINITY PREDICTED BY RF-SCORE:    0.00 PKD
ROOT
HETATM    1  C   UNL     1     -10.910   9.650  67.232  1.00  0.00    -0.212 C  
HETATM    2  C   UNL     1     -10.237   8.654  68.181  1.00  0.00    -0.205 C  
HETATM    3  C   UNL     1      -8.687   8.784  68.166  1.00  0.00    -0.134 C  
HETATM    4  C   UNL     1     -10.548   7.227  67.647  1.00  0.00    -0.246 C  
HETATM    5  N   UNL     1     -10.815   8.836  69.528  1.00  0.00    -0.372 NA 
HETATM    6  H2  UNL     1     -11.831   8.757  69.532  1.00  0.00     0.000 HD 
HETATM    7  H1  UNL     1     -10.366   8.173  70.160  1.00  0.00     0.000 HD 
HETATM    8  O   UNL     1     -10.207   6.804  66.554  1.00  0.00    -0.155 OA 
HETATM    9  O   UNL     1     -11.247   6.463  68.524  1.00  0.00    -0.328 OA 
ENDROOT
BRANCH   3  10
HETATM   10  C   UNL     1      -8.031  10.055  68.676  1.00  0.00    -0.097 A  
HETATM   11  C   UNL     1      -8.092  11.235  67.910  1.00  0.00    -0.121 A  
HETATM   12  C   UNL     1      -7.362  12.375  68.274  1.00  0.00    -0.113 A  
HETATM   13  C   UNL     1      -6.571  12.337  69.414  1.00  0.00    -0.081 A  
HETATM   14  O   UNL     1      -5.791  13.395  69.792  1.00  0.00    -0.103 OA 
HETATM   15  C   UNL     1      -6.530  11.190  70.197  1.00  0.00    -0.103 A  
HETATM   16  C   UNL     1      -7.245  10.055  69.837  1.00  0.00    -0.145 A  
HETATM   17  O   UNL     1      -5.750  11.157  71.319  1.00  0.00    -0.348 OA 
HETATM   18  H   UNL     1      -5.249  13.369  70.572  1.00  0.00     0.000 HD 
HETATM   19  H   UNL     1      -5.722  10.373  71.854  1.00  0.00     0.000 HD 
ENDBRANCH   3  10
TORSDOF 1
ENDMDL
MODEL      176
REMARK 921   NORMALIZED FREE ENERGY PREDICTED BY IDOCK:   -2.56 KCAL/MOL
REMARK 922        TOTAL FREE ENERGY PREDICTED BY IDOCK:   -2.80 KCAL/MOL
REMARK 923 INTER-LIGAND FREE ENERGY PREDICTED BY IDOCK:   -2.59 KCAL/MOL
REMARK 924 INTRA-LIGAND FREE ENERGY PREDICTED BY IDOCK:   -0.21 KCAL/MOL
REMARK 927      BINDING AFFINITY PREDICTED BY RF-SCORE:    0.00 PKD
ROOT
HETATM    1  C   UNL     1     -10.771   9.409  70.287  1.00  0.00    -0.299 C  
HETATM    2  C   UNL     1      -9.766   8.908  69.245  1.00  0.00    -0.165 C  
HETATM    3  C   UNL     1      -8.708   7.950  69.862  1.00  0.00    -0.140 C  
HETATM    4  C   UNL     1      -8.973  10.146  68.738  1.00  0.00    -0.147 C  
HETATM    5  N   UNL     1     -10.520   8.292  68.135  1.00  0.00    -0.329 NA 
HETATM    6  H2  UNL     1     -11.218   8.920  67.738  1.00  0.00     0.000 HD 
HETATM    7  H1  UNL     1      -9.851   7.958  67.441  1.00  0.00     0.000 HD 
HETATM    8  O   UNL     1      -8.274  10.859  69.441  1.00  0.00    -0.091 OA 
HETATM    9  O   UNL     1      -9.120  10.375  67.410  1.00  0.00    -0.135 OA 
ENDROOT
BRANCH   3  10
HETATM   10  C   UNL     1      -9.140   6.605  70.418  1.00  0.00    -0.152 A  
HETATM   11  C   UNL     1      -9.289   6.432  71.808  1.00  0.00    -0.152 A  
HETATM   12  C   UNL     1      -9.527   5.166  72.361  1.00  0.00    -0.166 A  
HETATM   13  C   UNL     1      -9.623   4.067  71.518  1.00  0.00    -0.167 A  
HETATM   14  O   UNL     1      -9.798   2.798  71.997  1.00  0.00    -0.152 OA 
HETATM   15  C   UNL     1      -9.513   4.230  70.142  1.00  0.00    -0.182 A  
HETATM   16  C   UNL     1      -9.269   5.481  69.590  1.00  0.00    -0.163 A  
HETATM   17  O   UNL     1      -9.609   3.146  69.316  1.00  0.00    -0.153 OA 
HETATM   18  H   UNL     1      -9.864   2.046  71.420  1.00  0.00     0.000 HD 
HETATM   19  H   UNL     1      -9.534   3.257  68.376  1.00  0.00     0.000 HD 
ENDBRANCH   3  10
TORSDOF 1
ENDMDL
MODEL      177
REMARK 921   NORMALIZED FREE ENERGY PREDICTED BY IDOCK:   -2.52 KCAL/MOL
REMARK 922        TOTAL FREE ENERGY PREDICTED BY IDOCK:   -2.76 KCAL/MOL
REMARK 923 INTER-LIGAND FREE ENERGY PREDICTED BY IDOCK:   -2.59 KCAL/MOL
REMARK 924 INTRA-LIGAND FREE ENERGY PREDICTED BY IDOCK:   -0.16 KCAL/MOL
REMARK 927      BINDING AFFINITY PREDICTED BY RF-SCORE:    0.00 PKD
ROOT
HETATM    1  C   UNL     1      -5.641   9.409  68.622  1.00  0.00    -0.040 C  
HETATM    2  C   UNL     1      -6.666   9.410  69.759  1.00  0.00    -0.053 C  
HETATM    3  C   UNL     1      -7.560  10.682  69.744  1.00  0.00    -0.054 C  
HETATM    4  C   UNL     1      -5.871   9.467  71.095  1.00  0.00    -0.075 C  
HETATM    5  N   UNL     1      -7.446   8.159  69.680  1.00  0.00    -0.084 NA 
HETATM    6  H2  UNL     1      -6.856   7.328  69.683  1.00  0.00     0.000 HD 
HETATM    7  H1  UNL     1      -8.129   8.160  70.438  1.00  0.00     0.000 HD 
HETATM    8  O   UNL     1      -5.128  10.379  71.423  1.00  0.00    -0.077 OA 
HETATM    9  O   UNL     1      -6.079   8.392  71.894  1.00  0.00    -0.045 OA 
ENDROOT
BRANCH   3  10
HETATM   10  C   UNL     1      -8.514  10.920  68.586  1.00  0.00    -0.152 A  
HETATM   11  C   UNL     1      -8.036  11.472  67.382  1.00  0.00    -0.143 A  
HETATM   12  C   UNL     1      -8.915  11.853  66.359  1.00  0.00    -0.180 A  
HETATM   13  C   UNL     1     -10.280  11.676  66.538  1.00  0.00    -0.214 A  
HETATM   14  O   UNL     1     -11.193  12.077  65.603  1.00  0.00    -0.315 OA 
HETATM   15  C   UNL     1     -10.761  11.100  67.707  1.00  0.00    -0.222 A  
HETATM   16  C   UNL     1      -9.896  10.728  68.728  1.00  0.00    -0.200 A  
HETATM   17  O   UNL     1     -12.106  10.925  67.879  1.00  0.00    -0.736 OA 
HETATM   18  H   UNL     1     -12.128  11.956  65.725  1.00  0.00     0.000 HD 
HETATM   19  H   UNL     1     -12.435  10.532  68.679  1.00  0.00     0.000 HD 
ENDBRANCH   3  10
TORSDOF 1
ENDMDL
MODEL      178
REMARK 921   NORMALIZED FREE ENERGY PREDICTED BY IDOCK:   -2.51 KCAL/MOL
REMARK 922        TOTAL FREE ENERGY PREDICTED BY IDOCK:   -2.75 KCAL/MOL
REMARK 923 INTER-LIGAND FREE ENERGY PREDICTED BY IDOCK:   -2.81 KCAL/MOL
REMARK 924 INTRA-LIGAND FREE ENERGY PREDICTED BY IDOCK:    0.06 KCAL/MOL
REMARK 927      BINDING AFFINITY PREDICTED BY RF-SCORE:    0.00 PKD
ROOT
HETATM    1  C   UNL     1      -7.320   6.629  67.037  1.00  0.00    -0.082 C  
HETATM    2  C   UNL     1      -8.383   7.123  66.051  1.00  0.00    -0.134 C  
HETATM    3  C   UNL     1      -9.815   6.674  66.455  1.00  0.00    -0.165 C  
HETATM    4  C   UNL     1      -8.095   6.440  64.684  1.00  0.00    -0.100 C  
HETATM    5  N   UNL     1      -8.253   8.589  65.929  1.00  0.00    -0.118 NA 
HETATM    6  H2  UNL     1      -7.311   8.880  65.671  1.00  0.00     0.000 HD 
HETATM    7  H1  UNL     1      -8.961   8.919  65.272  1.00  0.00     0.000 HD 
HETATM    8  O   UNL     1      -8.114   5.235  64.492  1.00  0.00    -0.107 OA 
HETATM    9  O   UNL     1      -7.817   7.319  63.689  1.00  0.00    -0.122 OA 
ENDROOT
BRANCH   3  10
HETATM   10  C   UNL     1     -10.438   7.203  67.736  1.00  0.00    -0.284 A  
HETATM   11  C   UNL     1     -10.505   8.591  67.965  1.00  0.00    -0.249 A  
HETATM   12  C   UNL     1     -10.923   9.103  69.201  1.00  0.00    -0.057 A  
HETATM   13  C   UNL     1     -11.282   8.222  70.213  1.00  0.00    -0.176 A  
HETATM   14  O   UNL     1     -11.645   8.655  71.458  1.00  0.00    -0.267 OA 
HETATM   15  C   UNL     1     -11.254   6.851  69.986  1.00  0.00    -0.299 A  
HETATM   16  C   UNL     1     -10.833   6.338  68.766  1.00  0.00    -0.398 A  
HETATM   17  O   UNL     1     -11.609   5.987  70.984  1.00  0.00    -0.253 OA 
HETATM   18  H   UNL     1     -11.890   8.052  72.150  1.00  0.00     0.000 HD 
HETATM   19  H   UNL     1     -11.590   5.050  70.829  1.00  0.00     0.000 HD 
ENDBRANCH   3  10
TORSDOF 1
ENDMDL
MODEL      179
REMARK 921   NORMALIZED FREE ENERGY PREDICTED BY IDOCK:   -2.50 KCAL/MOL
REMARK 922        TOTAL FREE ENERGY PREDICTED BY IDOCK:   -2.73 KCAL/MOL
REMARK 923 INTER-LIGAND FREE ENERGY PREDICTED BY IDOCK:   -2.61 KCAL/MOL
REMARK 924 INTRA-LIGAND FREE ENERGY PREDICTED BY IDOCK:   -0.12 KCAL/MOL
REMARK 927      BINDING AFFINITY PREDICTED BY RF-SCORE:    0.00 PKD
ROOT
HETATM    1  C   UNL     1      -9.399   7.676  67.894  1.00  0.00    -0.146 C  
HETATM    2  C   UNL     1      -9.167   6.173  67.710  1.00  0.00    -0.111 C  
HETATM    3  C   UNL     1      -8.395   5.546  68.905  1.00  0.00    -0.102 C  
HETATM    4  C   UNL     1      -8.243   5.999  66.471  1.00  0.00    -0.107 C  
HETATM    5  N   UNL     1     -10.474   5.530  67.469  1.00  0.00    -0.217 NA 
HETATM    6  H2  UNL     1     -10.980   5.948  66.689  1.00  0.00     0.000 HD 
HETATM    7  H1  UNL     1     -10.319   4.529  67.346  1.00  0.00     0.000 HD 
HETATM    8  O   UNL     1      -7.109   6.443  66.382  1.00  0.00    -0.065 OA 
HETATM    9  O   UNL     1      -8.813   5.288  65.467  1.00  0.00    -0.148 OA 
ENDROOT
BRANCH   3  10
HETATM   10  C   UNL     1      -9.039   5.503  70.280  1.00  0.00    -0.163 A  
HETATM   11  C   UNL     1      -9.778   4.371  70.677  1.00  0.00    -0.283 A  
HETATM   12  C   UNL     1     -10.517   4.368  71.868  1.00  0.00    -0.101 A  
HETATM   13  C   UNL     1     -10.513   5.501  72.670  1.00  0.00    -0.215 A  
HETATM   14  O   UNL     1     -11.256   5.583  73.815  1.00  0.00    -0.423 OA 
HETATM   15  C   UNL     1      -9.760   6.611  72.307  1.00  0.00    -0.148 A  
HETATM   16  C   UNL     1      -9.032   6.623  71.124  1.00  0.00    -0.145 A  
HETATM   17  O   UNL     1      -9.757   7.724  73.100  1.00  0.00    -0.236 OA 
HETATM   18  H   UNL     1     -11.254   6.358  74.364  1.00  0.00     0.000 HD 
HETATM   19  H   UNL     1      -9.243   8.482  72.852  1.00  0.00     0.000 HD 
ENDBRANCH   3  10
TORSDOF 1
ENDMDL
MODEL      180
REMARK 921   NORMALIZED FREE ENERGY PREDICTED BY IDOCK:   -2.42 KCAL/MOL
REMARK 922        TOTAL FREE ENERGY PREDICTED BY IDOCK:   -2.66 KCAL/MOL
REMARK 923 INTER-LIGAND FREE ENERGY PREDICTED BY IDOCK:   -2.45 KCAL/MOL
REMARK 924 INTRA-LIGAND FREE ENERGY PREDICTED BY IDOCK:   -0.20 KCAL/MOL
REMARK 927      BINDING AFFINITY PREDICTED BY RF-SCORE:    0.00 PKD
ROOT
HETATM    1  C   UNL     1      -7.384  11.177  67.187  1.00  0.00    -0.121 C  
HETATM    2  C   UNL     1      -8.808  11.125  67.750  1.00  0.00    -0.135 C  
HETATM    3  C   UNL     1      -9.475   9.738  67.532  1.00  0.00    -0.170 C  
HETATM    4  C   UNL     1      -9.661  12.139  66.936  1.00  0.00    -0.206 C  
HETATM    5  N   UNL     1      -8.758  11.522  69.171  1.00  0.00    -0.364 NA 
HETATM    6  H2  UNL     1      -8.312  12.428  69.311  1.00  0.00     0.000 HD 
HETATM    7  H1  UNL     1      -9.706  11.487  69.546  1.00  0.00     0.000 HD 
HETATM    8  O   UNL     1      -9.862  12.070  65.734  1.00  0.00    -0.236 OA 
HETATM    9  O   UNL     1     -10.186  13.134  67.694  1.00  0.00    -0.218 OA 
ENDROOT
BRANCH   3  10
HETATM   10  C   UNL     1      -8.915   8.513  68.233  1.00  0.00    -0.139 A  
HETATM   11  C   UNL     1      -7.894   7.758  67.623  1.00  0.00    -0.123 A  
HETATM   12  C   UNL     1      -7.472   6.536  68.166  1.00  0.00    -0.095 A  
HETATM   13  C   UNL     1      -8.070   6.069  69.328  1.00  0.00    -0.108 A  
HETATM   14  O   UNL     1      -7.744   4.860  69.877  1.00  0.00    -0.055 OA 
HETATM   15  C   UNL     1      -9.054   6.821  69.958  1.00  0.00    -0.148 A  
HETATM   16  C   UNL     1      -9.482   8.029  69.421  1.00  0.00    -0.159 A  
HETATM   17  O   UNL     1      -9.639   6.359  71.103  1.00  0.00    -0.173 OA 
HETATM   18  H   UNL     1      -8.154   4.540  70.673  1.00  0.00     0.000 HD 
HETATM   19  H   UNL     1     -10.312   6.873  71.534  1.00  0.00     0.000 HD 
ENDBRANCH   3  10
TORSDOF 1
ENDMDL
MODEL      181
REMARK 921   NORMALIZED FREE ENERGY PREDICTED BY IDOCK:   -2.41 KCAL/MOL
REMARK 922        TOTAL FREE ENERGY PREDICTED BY IDOCK:   -2.64 KCAL/MOL
REMARK 923 INTER-LIGAND FREE ENERGY PREDICTED BY IDOCK:   -2.54 KCAL/MOL
REMARK 924 INTRA-LIGAND FREE ENERGY PREDICTED BY IDOCK:   -0.10 KCAL/MOL
REMARK 927      BINDING AFFINITY PREDICTED BY RF-SCORE:    0.00 PKD
ROOT
HETATM    1  C   UNL     1      -5.290   9.311  68.684  1.00  0.00    -0.034 C  
HETATM    2  C   UNL     1      -6.696   9.467  69.270  1.00  0.00    -0.049 C  
HETATM    3  C   UNL     1      -7.589  10.409  68.414  1.00  0.00    -0.093 C  
HETATM    4  C   UNL     1      -6.544  10.166  70.651  1.00  0.00    -0.064 C  
HETATM    5  N   UNL     1      -7.278   8.120  69.439  1.00  0.00    -0.066 NA 
HETATM    6  H2  UNL     1      -6.686   7.503  69.994  1.00  0.00     0.000 HD 
HETATM    7  H1  UNL     1      -8.215   8.224  69.830  1.00  0.00     0.000 HD 
HETATM    8  O   UNL     1      -6.076  11.281  70.817  1.00  0.00    -0.344 OA 
HETATM    9  O   UNL     1      -6.992   9.416  71.689  1.00  0.00    -0.316 OA 
ENDROOT
BRANCH   3  10
HETATM   10  C   UNL     1      -7.981  10.002  67.004  1.00  0.00    -0.106 A  
HETATM   11  C   UNL     1      -8.944   8.994  66.804  1.00  0.00    -0.160 A  
HETATM   12  C   UNL     1      -9.206   8.484  65.525  1.00  0.00    -0.109 A  
HETATM   13  C   UNL     1      -8.506   8.989  64.438  1.00  0.00    -0.174 A  
HETATM   14  O   UNL     1      -8.674   8.498  63.174  1.00  0.00    -0.424 OA 
HETATM   15  C   UNL     1      -7.578  10.008  64.619  1.00  0.00    -0.143 A  
HETATM   16  C   UNL     1      -7.308  10.511  65.885  1.00  0.00    -0.142 A  
HETATM   17  O   UNL     1      -6.891  10.504  63.546  1.00  0.00    -0.317 OA 
HETATM   18  H   UNL     1      -8.194   8.843  62.430  1.00  0.00     0.000 HD 
HETATM   19  H   UNL     1      -6.257  11.200  63.669  1.00  0.00     0.000 HD 
ENDBRANCH   3  10
TORSDOF 1
ENDMDL
MODEL      182
REMARK 921   NORMALIZED FREE ENERGY PREDICTED BY IDOCK:   -2.38 KCAL/MOL
REMARK 922        TOTAL FREE ENERGY PREDICTED BY IDOCK:   -2.61 KCAL/MOL
REMARK 923 INTER-LIGAND FREE ENERGY PREDICTED BY IDOCK:   -2.47 KCAL/MOL
REMARK 924 INTRA-LIGAND FREE ENERGY PREDICTED BY IDOCK:   -0.14 KCAL/MOL
REMARK 927      BINDING AFFINITY PREDICTED BY RF-SCORE:    0.00 PKD
ROOT
HETATM    1  C   UNL     1     -11.186   6.570  68.130  1.00  0.00    -0.250 C  
HETATM    2  C   UNL     1      -9.905   7.402  68.246  1.00  0.00    -0.160 C  
HETATM    3  C   UNL     1      -9.607   7.820  69.714  1.00  0.00    -0.167 C  
HETATM    4  C   UNL     1     -10.145   8.727  67.468  1.00  0.00    -0.222 C  
HETATM    5  N   UNL     1      -8.801   6.639  67.632  1.00  0.00    -0.118 NA 
HETATM    6  H2  UNL     1      -9.003   6.360  66.672  1.00  0.00     0.000 HD 
HETATM    7  H1  UNL     1      -7.948   7.193  67.709  1.00  0.00     0.000 HD 
HETATM    8  O   UNL     1     -11.005   9.548  67.743  1.00  0.00    -0.244 OA 
HETATM    9  O   UNL     1      -9.291   8.906  66.430  1.00  0.00    -0.170 OA 
ENDROOT
BRANCH   3  10
HETATM   10  C   UNL     1      -9.276   6.759  70.749  1.00  0.00    -0.158 A  
HETATM   11  C   UNL     1     -10.307   5.985  71.318  1.00  0.00    -0.266 A  
HETATM   12  C   UNL     1     -10.056   5.116  72.388  1.00  0.00    -0.233 A  
HETATM   13  C   UNL     1      -8.765   5.014  72.889  1.00  0.00    -0.118 A  
HETATM   14  O   UNL     1      -8.464   4.228  73.966  1.00  0.00    -0.095 OA 
HETATM   15  C   UNL     1      -7.733   5.746  72.313  1.00  0.00    -0.102 A  
HETATM   16  C   UNL     1      -7.978   6.616  71.258  1.00  0.00    -0.107 A  
HETATM   17  O   UNL     1      -6.464   5.643  72.809  1.00  0.00    -0.061 OA 
HETATM   18  H   UNL     1      -7.580   4.159  74.309  1.00  0.00     0.000 HD 
HETATM   19  H   UNL     1      -5.759   6.144  72.416  1.00  0.00     0.000 HD 
ENDBRANCH   3  10
TORSDOF 1
ENDMDL
MODEL      183
REMARK 921   NORMALIZED FREE ENERGY PREDICTED BY IDOCK:   -2.32 KCAL/MOL
REMARK 922        TOTAL FREE ENERGY PREDICTED BY IDOCK:   -2.55 KCAL/MOL
REMARK 923 INTER-LIGAND FREE ENERGY PREDICTED BY IDOCK:   -2.46 KCAL/MOL
REMARK 924 INTRA-LIGAND FREE ENERGY PREDICTED BY IDOCK:   -0.09 KCAL/MOL
REMARK 927      BINDING AFFINITY PREDICTED BY RF-SCORE:    0.00 PKD
ROOT
HETATM    1  C   UNL     1      -7.126  11.476  69.304  1.00  0.00    -0.077 C  
HETATM    2  C   UNL     1      -8.117  10.645  68.482  1.00  0.00    -0.125 C  
HETATM    3  C   UNL     1      -8.052   9.133  68.836  1.00  0.00    -0.100 C  
HETATM    4  C   UNL     1      -7.682  10.752  66.993  1.00  0.00    -0.121 C  
HETATM    5  N   UNL     1      -9.465  11.220  68.666  1.00  0.00    -0.228 NA 
HETATM    6  H2  UNL     1      -9.502  12.214  68.440  1.00  0.00     0.000 HD 
HETATM    7  H1  UNL     1     -10.125  10.667  68.118  1.00  0.00     0.000 HD 
HETATM    8  O   UNL     1      -6.609  10.372  66.554  1.00  0.00    -0.081 OA 
HETATM    9  O   UNL     1      -8.623  11.314  66.194  1.00  0.00    -0.176 OA 
ENDROOT
BRANCH   3  10
HETATM   10  C   UNL     1      -8.463   8.663  70.220  1.00  0.00    -0.133 A  
HETATM   11  C   UNL     1      -9.823   8.660  70.587  1.00  0.00    -0.220 A  
HETATM   12  C   UNL     1     -10.218   8.389  71.904  1.00  0.00    -0.340 A  
HETATM   13  C   UNL     1      -9.249   8.113  72.859  1.00  0.00    -0.273 A  
HETATM   14  O   UNL     1      -9.564   7.895  74.172  1.00  0.00    -0.293 OA 
HETATM   15  C   UNL     1      -7.907   8.078  72.501  1.00  0.00    -0.123 A  
HETATM   16  C   UNL     1      -7.509   8.354  71.199  1.00  0.00    -0.084 A  
HETATM   17  O   UNL     1      -6.956   7.805  73.443  1.00  0.00    -0.079 OA 
HETATM   18  H   UNL     1      -8.900   7.706  74.825  1.00  0.00     0.000 HD 
HETATM   19  H   UNL     1      -6.038   7.781  73.199  1.00  0.00     0.000 HD 
ENDBRANCH   3  10
TORSDOF 1
ENDMDL
MODEL      184
REMARK 921   NORMALIZED FREE ENERGY PREDICTED BY IDOCK:   -2.27 KCAL/MOL
REMARK 922        TOTAL FREE ENERGY PREDICTED BY IDOCK:   -2.49 KCAL/MOL
REMARK 923 INTER-LIGAND FREE ENERGY PREDICTED BY IDOCK:   -2.29 KCAL/MOL
REMARK 924 INTRA-LIGAND FREE ENERGY PREDICTED BY IDOCK:   -0.20 KCAL/MOL
REMARK 927      BINDING AFFINITY PREDICTED BY RF-SCORE:    0.00 PKD
ROOT
HETATM    1  C   UNL     1      -9.862   7.535  68.887  1.00  0.00    -0.159 C  
HETATM    2  C   UNL     1      -9.209   6.222  68.444  1.00  0.00    -0.112 C  
HETATM    3  C   UNL     1      -8.440   5.527  69.603  1.00  0.00    -0.101 C  
HETATM    4  C   UNL     1      -8.135   6.580  67.377  1.00  0.00    -0.121 C  
HETATM    5  N   UNL     1     -10.254   5.364  67.852  1.00  0.00    -0.174 NA 
HETATM    6  H2  UNL     1     -10.761   5.825  67.097  1.00  0.00     0.000 HD 
HETATM    7  H1  UNL     1      -9.819   4.489  67.556  1.00  0.00     0.000 HD 
HETATM    8  O   UNL     1      -7.163   7.290  67.581  1.00  0.00    -0.085 OA 
HETATM    9  O   UNL     1      -8.369   6.018  66.165  1.00  0.00    -0.116 OA 
ENDROOT
BRANCH   3  10
HETATM   10  C   UNL     1      -9.204   5.000  70.805  1.00  0.00    -0.192 A  
HETATM   11  C   UNL     1      -9.474   5.850  71.895  1.00  0.00    -0.166 A  
HETATM   12  C   UNL     1     -10.030   5.354  73.082  1.00  0.00    -0.189 A  
HETATM   13  C   UNL     1     -10.323   4.000  73.179  1.00  0.00    -0.167 A  
HETATM   14  O   UNL     1     -10.813   3.443  74.326  1.00  0.00    -0.189 OA 
HETATM   15  C   UNL     1     -10.093   3.158  72.097  1.00  0.00    -0.130 A  
HETATM   16  C   UNL     1      -9.535   3.643  70.921  1.00  0.00    -0.235 A  
HETATM   17  O   UNL     1     -10.384   1.826  72.195  1.00  0.00    -0.157 OA 
HETATM   18  H   UNL     1     -11.014   2.516  74.392  1.00  0.00     0.000 HD 
HETATM   19  H   UNL     1     -10.227   1.251  71.456  1.00  0.00     0.000 HD 
ENDBRANCH   3  10
TORSDOF 1
ENDMDL
MODEL      185
REMARK 921   NORMALIZED FREE ENERGY PREDICTED BY IDOCK:   -2.27 KCAL/MOL
REMARK 922        TOTAL FREE ENERGY PREDICTED BY IDOCK:   -2.49 KCAL/MOL
REMARK 923 INTER-LIGAND FREE ENERGY PREDICTED BY IDOCK:   -2.27 KCAL/MOL
REMARK 924 INTRA-LIGAND FREE ENERGY PREDICTED BY IDOCK:   -0.22 KCAL/MOL
REMARK 927      BINDING AFFINITY PREDICTED BY RF-SCORE:    0.00 PKD
ROOT
HETATM    1  C   UNL     1     -10.025   8.844  66.848  1.00  0.00    -0.315 C  
HETATM    2  C   UNL     1      -8.879   7.828  66.820  1.00  0.00    -0.139 C  
HETATM    3  C   UNL     1      -8.050   7.840  68.136  1.00  0.00    -0.123 C  
HETATM    4  C   UNL     1      -7.899   8.272  65.698  1.00  0.00    -0.104 C  
HETATM    5  N   UNL     1      -9.446   6.500  66.511  1.00  0.00    -0.177 NA 
HETATM    6  H2  UNL     1      -9.995   6.498  65.651  1.00  0.00     0.000 HD 
HETATM    7  H1  UNL     1      -8.683   5.824  66.492  1.00  0.00     0.000 HD 
HETATM    8  O   UNL     1      -7.296   9.333  65.682  1.00  0.00    -0.091 OA 
HETATM    9  O   UNL     1      -7.758   7.354  64.709  1.00  0.00    -0.100 OA 
ENDROOT
BRANCH   3  10
HETATM   10  C   UNL     1      -8.698   7.407  69.440  1.00  0.00    -0.137 A  
HETATM   11  C   UNL     1      -9.243   8.371  70.309  1.00  0.00    -0.154 A  
HETATM   12  C   UNL     1      -9.699   8.021  71.587  1.00  0.00    -0.222 A  
HETATM   13  C   UNL     1      -9.616   6.697  71.997  1.00  0.00    -0.148 A  
HETATM   14  O   UNL     1      -9.991   6.299  73.250  1.00  0.00    -0.165 OA 
HETATM   15  C   UNL     1      -9.112   5.731  71.135  1.00  0.00    -0.146 A  
HETATM   16  C   UNL     1      -8.652   6.073  69.870  1.00  0.00    -0.131 A  
HETATM   17  O   UNL     1      -9.032   4.428  71.541  1.00  0.00    -0.117 OA 
HETATM   18  H   UNL     1      -9.933   5.393  73.531  1.00  0.00     0.000 HD 
HETATM   19  H   UNL     1      -8.688   3.767  70.952  1.00  0.00     0.000 HD 
ENDBRANCH   3  10
TORSDOF 1
ENDMDL
MODEL      186
REMARK 921   NORMALIZED FREE ENERGY PREDICTED BY IDOCK:   -2.21 KCAL/MOL
REMARK 922        TOTAL FREE ENERGY PREDICTED BY IDOCK:   -2.43 KCAL/MOL
REMARK 923 INTER-LIGAND FREE ENERGY PREDICTED BY IDOCK:   -2.76 KCAL/MOL
REMARK 924 INTRA-LIGAND FREE ENERGY PREDICTED BY IDOCK:    0.34 KCAL/MOL
REMARK 927      BINDING AFFINITY PREDICTED BY RF-SCORE:    0.00 PKD
ROOT
HETATM    1  C   UNL     1      -9.019  14.260  66.379  1.00  0.00    -0.093 C  
HETATM    2  C   UNL     1      -9.920  14.187  67.615  1.00  0.00    -0.233 C  
HETATM    3  C   UNL     1     -10.400  12.737  67.909  1.00  0.00    -0.228 C  
HETATM    4  C   UNL     1     -11.206  15.002  67.295  1.00  0.00    -0.338 C  
HETATM    5  N   UNL     1      -9.198  14.794  68.751  1.00  0.00    -0.197 NA 
HETATM    6  H2  UNL     1      -8.879  15.742  68.552  1.00  0.00     0.000 HD 
HETATM    7  H1  UNL     1      -9.799  14.746  69.574  1.00  0.00     0.000 HD 
HETATM    8  O   UNL     1     -11.988  14.740  66.395  1.00  0.00    -0.299 OA 
HETATM    9  O   UNL     1     -11.397  16.057  68.125  1.00  0.00    -0.342 OA 
ENDROOT
BRANCH   3  10
HETATM   10  C   UNL     1      -9.390  11.675  68.308  1.00  0.00    -0.191 A  
HETATM   11  C   UNL     1      -9.812  10.534  69.016  1.00  0.00    -0.224 A  
HETATM   12  C   UNL     1      -8.887   9.620  69.539  1.00  0.00    -0.197 A  
HETATM   13  C   UNL     1      -7.530   9.846  69.347  1.00  0.00    -0.108 A  
HETATM   14  O   UNL     1      -6.575   9.025  69.879  1.00  0.00    -0.040 OA 
HETATM   15  C   UNL     1      -7.103  10.950  68.620  1.00  0.00    -0.080 A  
HETATM   16  C   UNL     1      -8.015  11.863  68.107  1.00  0.00    -0.151 A  
HETATM   17  O   UNL     1      -5.767  11.169  68.432  1.00  0.00    -0.043 OA 
HETATM   18  H   UNL     1      -5.647   9.180  69.747  1.00  0.00     0.000 HD 
HETATM   19  H   UNL     1      -5.475  11.924  67.935  1.00  0.00     0.000 HD 
ENDBRANCH   3  10
TORSDOF 1
ENDMDL
MODEL      187
REMARK 921   NORMALIZED FREE ENERGY PREDICTED BY IDOCK:   -2.07 KCAL/MOL
REMARK 922        TOTAL FREE ENERGY PREDICTED BY IDOCK:   -2.29 KCAL/MOL
REMARK 923 INTER-LIGAND FREE ENERGY PREDICTED BY IDOCK:   -2.39 KCAL/MOL
REMARK 924 INTRA-LIGAND FREE ENERGY PREDICTED BY IDOCK:    0.10 KCAL/MOL
REMARK 927      BINDING AFFINITY PREDICTED BY RF-SCORE:    0.00 PKD
ROOT
HETATM    1  C   UNL     1      -8.763   2.845  65.137  1.00  0.00    -0.113 C  
HETATM    2  C   UNL     1      -9.466   4.134  64.703  1.00  0.00    -0.168 C  
HETATM    3  C   UNL     1     -10.461   4.653  65.779  1.00  0.00    -0.290 C  
HETATM    4  C   UNL     1     -10.331   3.789  63.457  1.00  0.00    -0.220 C  
HETATM    5  N   UNL     1      -8.433   5.128  64.350  1.00  0.00    -0.141 NA 
HETATM    6  H2  UNL     1      -7.778   4.782  63.649  1.00  0.00     0.000 HD 
HETATM    7  H1  UNL     1      -8.901   5.987  64.060  1.00  0.00     0.000 HD 
HETATM    8  O   UNL     1     -11.251   2.986  63.451  1.00  0.00    -0.272 OA 
HETATM    9  O   UNL     1      -9.976   4.478  62.345  1.00  0.00    -0.114 OA 
ENDROOT
BRANCH   3  10
HETATM   10  C   UNL     1      -9.937   5.128  67.124  1.00  0.00    -0.221 A  
HETATM   11  C   UNL     1     -10.258   6.418  67.588  1.00  0.00    -0.206 A  
HETATM   12  C   UNL     1      -9.661   6.944  68.742  1.00  0.00    -0.134 A  
HETATM   13  C   UNL     1      -8.741   6.172  69.440  1.00  0.00    -0.123 A  
HETATM   14  O   UNL     1      -8.081   6.646  70.539  1.00  0.00    -0.113 OA 
HETATM   15  C   UNL     1      -8.443   4.885  69.011  1.00  0.00    -0.081 A  
HETATM   16  C   UNL     1      -9.025   4.362  67.864  1.00  0.00    -0.138 A  
HETATM   17  O   UNL     1      -7.538   4.128  69.700  1.00  0.00    -0.053 OA 
HETATM   18  H   UNL     1      -7.452   6.118  71.017  1.00  0.00     0.000 HD 
HETATM   19  H   UNL     1      -7.333   3.248  69.407  1.00  0.00     0.000 HD 
ENDBRANCH   3  10
TORSDOF 1
ENDMDL
MODEL      188
REMARK 921   NORMALIZED FREE ENERGY PREDICTED BY IDOCK:   -2.05 KCAL/MOL
REMARK 922        TOTAL FREE ENERGY PREDICTED BY IDOCK:   -2.26 KCAL/MOL
REMARK 923 INTER-LIGAND FREE ENERGY PREDICTED BY IDOCK:   -2.24 KCAL/MOL
REMARK 924 INTRA-LIGAND FREE ENERGY PREDICTED BY IDOCK:   -0.02 KCAL/MOL
REMARK 927      BINDING AFFINITY PREDICTED BY RF-SCORE:    0.00 PKD
ROOT
HETATM    1  C   UNL     1      -8.762   6.030  66.525  1.00  0.00    -0.128 C  
HETATM    2  C   UNL     1      -8.634   5.921  68.048  1.00  0.00    -0.113 C  
HETATM    3  C   UNL     1      -7.597   6.926  68.624  1.00  0.00    -0.105 C  
HETATM    4  C   UNL     1      -8.073   4.505  68.362  1.00  0.00    -0.082 C  
HETATM    5  N   UNL     1      -9.978   6.082  68.637  1.00  0.00    -0.140 NA 
HETATM    6  H2  UNL     1     -10.657   5.426  68.252  1.00  0.00     0.000 HD 
HETATM    7  H1  UNL     1      -9.893   6.009  69.651  1.00  0.00     0.000 HD 
HETATM    8  O   UNL     1      -6.988   4.089  67.987  1.00  0.00    -0.050 OA 
HETATM    9  O   UNL     1      -8.908   3.748  69.115  1.00  0.00    -0.084 OA 
ENDROOT
BRANCH   3  10
HETATM   10  C   UNL     1      -7.860   8.419  68.530  1.00  0.00    -0.120 A  
HETATM   11  C   UNL     1      -6.909   9.265  67.927  1.00  0.00    -0.072 A  
HETATM   12  C   UNL     1      -7.047  10.659  67.970  1.00  0.00    -0.085 A  
HETATM   13  C   UNL     1      -8.146  11.212  68.614  1.00  0.00    -0.150 A  
HETATM   14  O   UNL     1      -8.311  12.563  68.741  1.00  0.00    -0.337 OA 
HETATM   15  C   UNL     1      -9.109  10.386  69.182  1.00  0.00    -0.187 A  
HETATM   16  C   UNL     1      -8.973   9.004  69.150  1.00  0.00    -0.140 A  
HETATM   17  O   UNL     1     -10.190  10.933  69.815  1.00  0.00    -0.446 OA 
HETATM   18  H   UNL     1      -9.063  12.941  69.182  1.00  0.00     0.000 HD 
HETATM   19  H   UNL     1     -10.848  10.369  70.203  1.00  0.00     0.000 HD 
ENDBRANCH   3  10
TORSDOF 1
ENDMDL
MODEL      189
REMARK 921   NORMALIZED FREE ENERGY PREDICTED BY IDOCK:   -1.92 KCAL/MOL
REMARK 922        TOTAL FREE ENERGY PREDICTED BY IDOCK:   -2.13 KCAL/MOL
REMARK 923 INTER-LIGAND FREE ENERGY PREDICTED BY IDOCK:   -1.98 KCAL/MOL
REMARK 924 INTRA-LIGAND FREE ENERGY PREDICTED BY IDOCK:   -0.15 KCAL/MOL
REMARK 927      BINDING AFFINITY PREDICTED BY RF-SCORE:    0.00 PKD
ROOT
HETATM    1  C   UNL     1      -8.398   2.254  65.876  1.00  0.00    -0.094 C  
HETATM    2  C   UNL     1      -7.867   3.453  65.084  1.00  0.00    -0.082 C  
HETATM    3  C   UNL     1      -8.851   4.656  65.109  1.00  0.00    -0.147 C  
HETATM    4  C   UNL     1      -7.771   3.014  63.595  1.00  0.00    -0.068 C  
HETATM    5  N   UNL     1      -6.528   3.794  65.605  1.00  0.00    -0.032 NA 
HETATM    6  H2  UNL     1      -5.888   3.001  65.594  1.00  0.00     0.000 HD 
HETATM    7  H1  UNL     1      -6.174   4.592  65.077  1.00  0.00     0.000 HD 
HETATM    8  O   UNL     1      -8.720   2.660  62.913  1.00  0.00    -0.084 OA 
HETATM    9  O   UNL     1      -6.511   3.062  63.098  1.00  0.00    -0.021 OA 
ENDROOT
BRANCH   3  10
HETATM   10  C   UNL     1      -9.140   5.367  66.420  1.00  0.00    -0.141 A  
HETATM   11  C   UNL     1     -10.413   5.261  67.012  1.00  0.00    -0.290 A  
HETATM   12  C   UNL     1     -10.760   6.033  68.129  1.00  0.00    -0.353 A  
HETATM   13  C   UNL     1      -9.827   6.912  68.662  1.00  0.00    -0.145 A  
HETATM   14  O   UNL     1     -10.120   7.733  69.715  1.00  0.00    -0.187 OA 
HETATM   15  C   UNL     1      -8.555   6.999  68.107  1.00  0.00    -0.128 A  
HETATM   16  C   UNL     1      -8.209   6.243  66.995  1.00  0.00    -0.109 A  
HETATM   17  O   UNL     1      -7.639   7.865  68.635  1.00  0.00    -0.097 OA 
HETATM   18  H   UNL     1      -9.481   8.334  70.080  1.00  0.00     0.000 HD 
HETATM   19  H   UNL     1      -6.770   7.925  68.256  1.00  0.00     0.000 HD 
ENDBRANCH   3  10
TORSDOF 1
ENDMDL
MODEL      190
REMARK 921   NORMALIZED FREE ENERGY PREDICTED BY IDOCK:   -1.77 KCAL/MOL
REMARK 922        TOTAL FREE ENERGY PREDICTED BY IDOCK:   -1.96 KCAL/MOL
REMARK 923 INTER-LIGAND FREE ENERGY PREDICTED BY IDOCK:   -2.35 KCAL/MOL
REMARK 924 INTRA-LIGAND FREE ENERGY PREDICTED BY IDOCK:    0.39 KCAL/MOL
REMARK 927      BINDING AFFINITY PREDICTED BY RF-SCORE:    0.00 PKD
ROOT
HETATM    1  C   UNL     1      -8.381   5.528  72.927  1.00  0.00    -0.116 C  
HETATM    2  C   UNL     1      -9.372   4.778  72.032  1.00  0.00    -0.138 C  
HETATM    3  C   UNL     1     -10.184   5.739  71.118  1.00  0.00    -0.275 C  
HETATM    4  C   UNL     1     -10.414   4.101  72.968  1.00  0.00    -0.174 C  
HETATM    5  N   UNL     1      -8.626   3.756  71.272  1.00  0.00    -0.078 NA 
HETATM    6  H2  UNL     1      -8.089   3.132  71.874  1.00  0.00     0.000 HD 
HETATM    7  H1  UNL     1      -9.286   3.255  70.676  1.00  0.00     0.000 HD 
HETATM    8  O   UNL     1     -11.161   4.701  73.725  1.00  0.00    -0.287 OA 
HETATM    9  O   UNL     1     -10.432   2.749  72.868  1.00  0.00    -0.152 OA 
ENDROOT
BRANCH   3  10
HETATM   10  C   UNL     1      -9.471   6.535  70.039  1.00  0.00    -0.163 A  
HETATM   11  C   UNL     1      -8.064   6.570  70.003  1.00  0.00    -0.121 A  
HETATM   12  C   UNL     1      -7.381   7.422  69.125  1.00  0.00    -0.090 A  
HETATM   13  C   UNL     1      -8.109   8.241  68.273  1.00  0.00    -0.124 A  
HETATM   14  O   UNL     1      -7.506   9.135  67.432  1.00  0.00    -0.084 OA 
HETATM   15  C   UNL     1      -9.498   8.190  68.275  1.00  0.00    -0.141 A  
HETATM   16  C   UNL     1     -10.180   7.354  69.148  1.00  0.00    -0.196 A  
HETATM   17  O   UNL     1     -10.212   8.997  67.433  1.00  0.00    -0.209 OA 
HETATM   18  H   UNL     1      -8.004   9.695  66.849  1.00  0.00     0.000 HD 
HETATM   19  H   UNL     1     -11.161   8.963  67.435  1.00  0.00     0.000 HD 
ENDBRANCH   3  10
TORSDOF 1
ENDMDL
MODEL      191
REMARK 921   NORMALIZED FREE ENERGY PREDICTED BY IDOCK:   -1.72 KCAL/MOL
REMARK 922        TOTAL FREE ENERGY PREDICTED BY IDOCK:   -1.91 KCAL/MOL
REMARK 923 INTER-LIGAND FREE ENERGY PREDICTED BY IDOCK:   -2.27 KCAL/MOL
REMARK 924 INTRA-LIGAND FREE ENERGY PREDICTED BY IDOCK:    0.36 KCAL/MOL
REMARK 927      BINDING AFFINITY PREDICTED BY RF-SCORE:    0.00 PKD
ROOT
HETATM    1  C   UNL     1      -8.721  11.155  68.756  1.00  0.00    -0.130 C  
HETATM    2  C   UNL     1      -7.259  10.760  68.532  1.00  0.00    -0.088 C  
HETATM    3  C   UNL     1      -7.114   9.288  68.054  1.00  0.00    -0.078 C  
HETATM    4  C   UNL     1      -6.548  10.829  69.914  1.00  0.00    -0.149 C  
HETATM    5  N   UNL     1      -6.656  11.731  67.597  1.00  0.00    -0.076 NA 
HETATM    6  H2  UNL     1      -6.760  12.695  67.910  1.00  0.00     0.000 HD 
HETATM    7  H1  UNL     1      -5.682  11.468  67.448  1.00  0.00     0.000 HD 
HETATM    8  O   UNL     1      -6.847  10.150  70.884  1.00  0.00    -0.338 OA 
HETATM    9  O   UNL     1      -5.532  11.727  69.955  1.00  0.00    -0.075 OA 
ENDROOT
BRANCH   3  10
HETATM   10  C   UNL     1      -7.664   8.878  66.699  1.00  0.00    -0.100 A  
HETATM   11  C   UNL     1      -7.233   7.679  66.098  1.00  0.00    -0.070 A  
HETATM   12  C   UNL     1      -7.596   7.355  64.783  1.00  0.00    -0.103 A  
HETATM   13  C   UNL     1      -8.398   8.232  64.066  1.00  0.00    -0.031 A  
HETATM   14  O   UNL     1      -8.741   8.003  62.763  1.00  0.00    -0.413 OA 
HETATM   15  C   UNL     1      -8.857   9.402  64.660  1.00  0.00    -0.200 A  
HETATM   16  C   UNL     1      -8.495   9.732  65.960  1.00  0.00    -0.131 A  
HETATM   17  O   UNL     1      -9.648  10.262  63.952  1.00  0.00    -0.287 OA 
HETATM   18  H   UNL     1      -9.290   8.603  62.272  1.00  0.00     0.000 HD 
HETATM   19  H   UNL     1      -9.962  11.062  64.358  1.00  0.00     0.000 HD 
ENDBRANCH   3  10
TORSDOF 1
ENDMDL
MODEL      192
REMARK 921   NORMALIZED FREE ENERGY PREDICTED BY IDOCK:   -1.53 KCAL/MOL
REMARK 922        TOTAL FREE ENERGY PREDICTED BY IDOCK:   -1.71 KCAL/MOL
REMARK 923 INTER-LIGAND FREE ENERGY PREDICTED BY IDOCK:   -1.91 KCAL/MOL
REMARK 924 INTRA-LIGAND FREE ENERGY PREDICTED BY IDOCK:    0.20 KCAL/MOL
REMARK 927      BINDING AFFINITY PREDICTED BY RF-SCORE:    0.00 PKD
ROOT
HETATM    1  C   UNL     1     -10.000   6.469  66.911  1.00  0.00    -0.227 C  
HETATM    2  C   UNL     1      -9.053   5.265  66.879  1.00  0.00    -0.113 C  
HETATM    3  C   UNL     1      -7.822   5.461  67.810  1.00  0.00    -0.096 C  
HETATM    4  C   UNL     1      -8.482   5.168  65.436  1.00  0.00    -0.141 C  
HETATM    5  N   UNL     1      -9.833   4.055  67.205  1.00  0.00    -0.196 NA 
HETATM    6  H2  UNL     1     -10.642   3.934  66.598  1.00  0.00     0.000 HD 
HETATM    7  H1  UNL     1      -9.202   3.253  67.183  1.00  0.00     0.000 HD 
HETATM    8  O   UNL     1      -7.810   6.033  64.895  1.00  0.00    -0.093 OA 
HETATM    9  O   UNL     1      -8.794   4.007  64.809  1.00  0.00    -0.121 OA 
ENDROOT
BRANCH   3  10
HETATM   10  C   UNL     1      -8.020   5.548  69.313  1.00  0.00    -0.095 A  
HETATM   11  C   UNL     1      -7.124   6.299  70.099  1.00  0.00    -0.074 A  
HETATM   12  C   UNL     1      -7.182   6.266  71.499  1.00  0.00    -0.083 A  
HETATM   13  C   UNL     1      -8.146   5.481  72.118  1.00  0.00    -0.111 A  
HETATM   14  O   UNL     1      -8.222   5.361  73.477  1.00  0.00    -0.113 OA 
HETATM   15  C   UNL     1      -9.058   4.763  71.353  1.00  0.00    -0.135 A  
HETATM   16  C   UNL     1      -9.000   4.786  69.966  1.00  0.00    -0.139 A  
HETATM   17  O   UNL     1     -10.006   3.993  71.966  1.00  0.00    -0.168 OA 
HETATM   18  H   UNL     1      -8.881   4.824  73.901  1.00  0.00     0.000 HD 
HETATM   19  H   UNL     1     -10.629   3.502  71.443  1.00  0.00     0.000 HD 
ENDBRANCH   3  10
TORSDOF 1
ENDMDL
MODEL      193
REMARK 921   NORMALIZED FREE ENERGY PREDICTED BY IDOCK:   -1.04 KCAL/MOL
REMARK 922        TOTAL FREE ENERGY PREDICTED BY IDOCK:   -1.19 KCAL/MOL
REMARK 923 INTER-LIGAND FREE ENERGY PREDICTED BY IDOCK:   -1.21 KCAL/MOL
REMARK 924 INTRA-LIGAND FREE ENERGY PREDICTED BY IDOCK:    0.03 KCAL/MOL
REMARK 927      BINDING AFFINITY PREDICTED BY RF-SCORE:    0.00 PKD
ROOT
HETATM    1  C   UNL     1      -9.329   6.261  66.050  1.00  0.00    -0.068 C  
HETATM    2  C   UNL     1      -8.475   4.997  65.913  1.00  0.00    -0.121 C  
HETATM    3  C   UNL     1      -7.048   5.185  66.501  1.00  0.00    -0.069 C  
HETATM    4  C   UNL     1      -8.277   4.739  64.392  1.00  0.00    -0.116 C  
HETATM    5  N   UNL     1      -9.208   3.875  66.532  1.00  0.00    -0.154 NA 
HETATM    6  H2  UNL     1     -10.146   3.759  66.149  1.00  0.00     0.000 HD 
HETATM    7  H1  UNL     1      -8.640   3.033  66.440  1.00  0.00     0.000 HD 
HETATM    8  O   UNL     1      -7.717   5.507  63.624  1.00  0.00    -0.075 OA 
HETATM    9  O   UNL     1      -8.785   3.554  63.974  1.00  0.00    -0.093 OA 
ENDROOT
BRANCH   3  10
HETATM   10  C   UNL     1      -6.870   5.411  67.992  1.00  0.00    -0.060 A  
HETATM   11  C   UNL     1      -6.182   4.461  68.772  1.00  0.00    -0.032 A  
HETATM   12  C   UNL     1      -6.143   4.560  70.169  1.00  0.00    -0.018 A  
HETATM   13  C   UNL     1      -6.791   5.619  70.791  1.00  0.00    -0.053 A  
HETATM   14  O   UNL     1      -6.838   5.743  72.152  1.00  0.00    -0.068 OA 
HETATM   15  C   UNL     1      -7.443   6.582  70.031  1.00  0.00    -0.094 A  
HETATM   16  C   UNL     1      -7.492   6.485  68.646  1.00  0.00    -0.088 A  
HETATM   17  O   UNL     1      -8.078   7.623  70.646  1.00  0.00    -0.104 OA 
HETATM   18  H   UNL     1      -7.281   6.467  72.578  1.00  0.00     0.000 HD 
HETATM   19  H   UNL     1      -8.524   8.282  70.127  1.00  0.00     0.000 HD 
ENDBRANCH   3  10
TORSDOF 1
ENDMDL
MODEL      194
REMARK 921   NORMALIZED FREE ENERGY PREDICTED BY IDOCK:   -0.81 KCAL/MOL
REMARK 922        TOTAL FREE ENERGY PREDICTED BY IDOCK:   -0.95 KCAL/MOL
REMARK 923 INTER-LIGAND FREE ENERGY PREDICTED BY IDOCK:   -0.78 KCAL/MOL
REMARK 924 INTRA-LIGAND FREE ENERGY PREDICTED BY IDOCK:   -0.17 KCAL/MOL
REMARK 927      BINDING AFFINITY PREDICTED BY RF-SCORE:    0.00 PKD
ROOT
HETATM    1  C   UNL     1      -7.350  11.299  63.676  1.00  0.00     1.273 C  
HETATM    2  C   UNL     1      -8.829  11.047  63.985  1.00  0.00     0.029 C  
HETATM    3  C   UNL     1      -9.079  10.801  65.500  1.00  0.00    -0.220 C  
HETATM    4  C   UNL     1      -9.229   9.726  63.269  1.00  0.00    -0.181 C  
HETATM    5  N   UNL     1      -9.612  12.178  63.449  1.00  0.00    -0.671 NA 
HETATM    6  H2  UNL     1      -9.439  12.341  62.458  1.00  0.00     0.000 HD 
HETATM    7  H1  UNL     1     -10.597  12.010  63.655  1.00  0.00     0.000 HD 
HETATM    8  O   UNL     1      -8.733   8.634  63.498  1.00  0.00    -0.067 OA 
HETATM    9  O   UNL     1     -10.208   9.887  62.345  1.00  0.00     0.646 OA 
ENDROOT
BRANCH   3  10
HETATM   10  C   UNL     1      -8.832  11.921  66.496  1.00  0.00    -0.178 A  
HETATM   11  C   UNL     1      -7.527  12.174  66.961  1.00  0.00    -0.086 A  
HETATM   12  C   UNL     1      -7.290  13.087  67.998  1.00  0.00    -0.123 A  
HETATM   13  C   UNL     1      -8.364  13.755  68.571  1.00  0.00    -0.120 A  
HETATM   14  O   UNL     1      -8.208  14.615  69.622  1.00  0.00    -0.397 OA 
HETATM   15  C   UNL     1      -9.653  13.539  68.097  1.00  0.00    -0.215 A  
HETATM   16  C   UNL     1      -9.894  12.630  67.075  1.00  0.00    -0.225 A  
HETATM   17  O   UNL     1     -10.708  14.200  68.661  1.00  0.00    -0.241 OA 
HETATM   18  H   UNL     1      -8.943  15.072  70.013  1.00  0.00     0.000 HD 
HETATM   19  H   UNL     1     -11.588  14.052  68.338  1.00  0.00     0.000 HD 
ENDBRANCH   3  10
TORSDOF 1
ENDMDL
MODEL      195
REMARK 921   NORMALIZED FREE ENERGY PREDICTED BY IDOCK:   -0.65 KCAL/MOL
REMARK 922        TOTAL FREE ENERGY PREDICTED BY IDOCK:   -0.78 KCAL/MOL
REMARK 923 INTER-LIGAND FREE ENERGY PREDICTED BY IDOCK:   -0.85 KCAL/MOL
REMARK 924 INTRA-LIGAND FREE ENERGY PREDICTED BY IDOCK:    0.07 KCAL/MOL
REMARK 927      BINDING AFFINITY PREDICTED BY RF-SCORE:    0.00 PKD
ROOT
HETATM    1  C   UNL     1      -5.265  10.992  69.085  1.00  0.00    -0.041 C  
HETATM    2  C   UNL     1      -6.471  10.787  70.008  1.00  0.00    -0.151 C  
HETATM    3  C   UNL     1      -7.660  11.718  69.637  1.00  0.00     0.598 C  
HETATM    4  C   UNL     1      -6.031  11.211  71.438  1.00  0.00     0.604 C  
HETATM    5  N   UNL     1      -6.833   9.356  69.985  1.00  0.00    -0.058 NA 
HETATM    6  H2  UNL     1      -6.049   8.749  70.222  1.00  0.00     0.000 HD 
HETATM    7  H1  UNL     1      -7.635   9.220  70.600  1.00  0.00     0.000 HD 
HETATM    8  O   UNL     1      -5.663  12.333  71.748  1.00  0.00    -0.250 OA 
HETATM    9  O   UNL     1      -6.098  10.204  72.344  1.00  0.00     0.009 OA 
ENDROOT
BRANCH   3  10
HETATM   10  C   UNL     1      -8.368  11.542  68.305  1.00  0.00    -0.154 A  
HETATM   11  C   UNL     1      -9.750  11.268  68.273  1.00  0.00    -0.199 A  
HETATM   12  C   UNL     1     -10.397  10.941  67.074  1.00  0.00    -0.276 A  
HETATM   13  C   UNL     1      -9.661  10.892  65.898  1.00  0.00    -0.216 A  
HETATM   14  O   UNL     1     -10.219  10.525  64.705  1.00  0.00    -0.341 OA 
HETATM   15  C   UNL     1      -8.304  11.194  65.911  1.00  0.00    -0.076 A  
HETATM   16  C   UNL     1      -7.656  11.512  67.098  1.00  0.00    -0.149 A  
HETATM   17  O   UNL     1      -7.582  11.147  64.752  1.00  0.00    -0.156 OA 
HETATM   18  H   UNL     1      -9.715  10.492  63.900  1.00  0.00     0.000 HD 
HETATM   19  H   UNL     1      -6.655  11.353  64.761  1.00  0.00     0.000 HD 
ENDBRANCH   3  10
TORSDOF 1
ENDMDL
