MODEL        1
REMARK 921   NORMALIZED FREE ENERGY PREDICTED BY IDOCK:   -4.29 KCAL/MOL
REMARK 922        TOTAL FREE ENERGY PREDICTED BY IDOCK:   -5.99 KCAL/MOL
REMARK 923 INTER-LIGAND FREE ENERGY PREDICTED BY IDOCK:   -5.55 KCAL/MOL
REMARK 924 INTRA-LIGAND FREE ENERGY PREDICTED BY IDOCK:   -0.44 KCAL/MOL
REMARK 927      BINDING AFFINITY PREDICTED BY RF-SCORE:    0.00 PKD
ROOT
HETATM    1  C   UNL     1     -10.502  11.114  64.235  1.00  0.00    -0.362 C  
HETATM    2  O   UNL     1     -11.556  11.508  63.355  1.00  0.00    -0.363 OA 
ENDROOT
BRANCH   2   3
HETATM    3  C   UNL     1     -12.189  12.655  63.728  1.00  0.00    -0.514 C  
HETATM    4  O   UNL     1     -12.630  13.499  62.960  1.00  0.00    -0.716 OA 
BRANCH   3   5
HETATM    5  C   UNL     1     -12.274  12.725  65.231  1.00  0.00    -0.535 C  
BRANCH   5   6
HETATM    6  C   UNL     1     -12.626  14.135  65.689  1.00  0.00    -0.495 C  
BRANCH   6   7
HETATM    7  C   UNL     1     -11.406  14.920  66.129  1.00  0.00    -0.307 C  
HETATM    8  O   UNL     1     -11.062  14.989  67.311  1.00  0.00    -0.318 OA 
BRANCH   7   9
HETATM    9  C   UNL     1     -10.676  15.688  65.027  1.00  0.00    -0.436 C  
HETATM   10  N   UNL     1     -11.635  16.227  64.062  1.00  0.00    -1.504 NA 
HETATM   11  H1  UNL     1     -11.148  16.739  63.326  1.00  0.00     0.000 HD 
HETATM   12  H2  UNL     1     -12.350  16.797  64.513  1.00  0.00     0.000 HD 
ENDBRANCH   7   9
ENDBRANCH   6   7
ENDBRANCH   5   6
ENDBRANCH   3   5
ENDBRANCH   2   3
TORSDOF 5
ENDMDL
MODEL        2
REMARK 921   NORMALIZED FREE ENERGY PREDICTED BY IDOCK:   -4.01 KCAL/MOL
REMARK 922        TOTAL FREE ENERGY PREDICTED BY IDOCK:   -5.62 KCAL/MOL
REMARK 923 INTER-LIGAND FREE ENERGY PREDICTED BY IDOCK:   -5.47 KCAL/MOL
REMARK 924 INTRA-LIGAND FREE ENERGY PREDICTED BY IDOCK:   -0.15 KCAL/MOL
REMARK 927      BINDING AFFINITY PREDICTED BY RF-SCORE:    0.00 PKD
ROOT
HETATM    1  C   UNL     1     -10.504  11.195  67.082  1.00  0.00    -0.231 C  
HETATM    2  O   UNL     1     -11.774  11.826  67.256  1.00  0.00    -0.546 OA 
ENDROOT
BRANCH   2   3
HETATM    3  C   UNL     1     -11.733  12.952  68.022  1.00  0.00    -0.356 C  
HETATM    4  O   UNL     1     -11.496  12.979  69.222  1.00  0.00    -0.274 OA 
BRANCH   3   5
HETATM    5  C   UNL     1     -12.016  14.161  67.170  1.00  0.00    -0.460 C  
BRANCH   5   6
HETATM    6  C   UNL     1     -12.784  13.771  65.913  1.00  0.00    -0.452 C  
BRANCH   6   7
HETATM    7  C   UNL     1     -12.200  14.396  64.662  1.00  0.00    -0.464 C  
HETATM    8  O   UNL     1     -12.521  14.023  63.531  1.00  0.00    -0.826 OA 
BRANCH   7   9
HETATM    9  C   UNL     1     -11.126  15.460  64.889  1.00  0.00    -0.423 C  
HETATM   10  N   UNL     1     -11.428  16.661  64.109  1.00  0.00    -1.440 NA 
HETATM   11  H1  UNL     1     -10.711  17.372  64.260  1.00  0.00     0.000 HD 
HETATM   12  H2  UNL     1     -12.364  17.017  64.306  1.00  0.00     0.000 HD 
ENDBRANCH   7   9
ENDBRANCH   6   7
ENDBRANCH   5   6
ENDBRANCH   3   5
ENDBRANCH   2   3
TORSDOF 5
ENDMDL
MODEL        3
REMARK 921   NORMALIZED FREE ENERGY PREDICTED BY IDOCK:   -3.99 KCAL/MOL
REMARK 922        TOTAL FREE ENERGY PREDICTED BY IDOCK:   -5.59 KCAL/MOL
REMARK 923 INTER-LIGAND FREE ENERGY PREDICTED BY IDOCK:   -5.47 KCAL/MOL
REMARK 924 INTRA-LIGAND FREE ENERGY PREDICTED BY IDOCK:   -0.12 KCAL/MOL
REMARK 927      BINDING AFFINITY PREDICTED BY RF-SCORE:    0.00 PKD
ROOT
HETATM    1  C   UNL     1      -9.738  17.735  66.694  1.00  0.00    -0.313 C  
HETATM    2  O   UNL     1      -9.528  16.802  65.632  1.00  0.00    -0.523 OA 
ENDROOT
BRANCH   2   3
HETATM    3  C   UNL     1     -10.678  16.347  65.060  1.00  0.00    -0.259 C  
HETATM    4  O   UNL     1     -11.319  16.937  64.201  1.00  0.00    -1.208 OA 
BRANCH   3   5
HETATM    5  C   UNL     1     -11.039  15.003  65.638  1.00  0.00    -0.349 C  
BRANCH   5   6
HETATM    6  C   UNL     1     -10.600  13.878  64.709  1.00  0.00    -0.444 C  
BRANCH   6   7
HETATM    7  C   UNL     1     -11.751  13.318  63.897  1.00  0.00    -0.431 C  
HETATM    8  O   UNL     1     -12.686  14.024  63.510  1.00  0.00    -0.805 OA 
BRANCH   7   9
HETATM    9  C   UNL     1     -11.724  11.809  63.657  1.00  0.00    -0.415 C  
HETATM   10  N   UNL     1     -12.777  11.424  62.716  1.00  0.00    -0.722 NA 
HETATM   11  H1  UNL     1     -12.759  10.416  62.556  1.00  0.00     0.000 HD 
HETATM   12  H2  UNL     1     -12.718  11.949  61.844  1.00  0.00     0.000 HD 
ENDBRANCH   7   9
ENDBRANCH   6   7
ENDBRANCH   5   6
ENDBRANCH   3   5
ENDBRANCH   2   3
TORSDOF 5
ENDMDL
MODEL        4
REMARK 921   NORMALIZED FREE ENERGY PREDICTED BY IDOCK:   -3.92 KCAL/MOL
REMARK 922        TOTAL FREE ENERGY PREDICTED BY IDOCK:   -5.51 KCAL/MOL
REMARK 923 INTER-LIGAND FREE ENERGY PREDICTED BY IDOCK:   -5.33 KCAL/MOL
REMARK 924 INTRA-LIGAND FREE ENERGY PREDICTED BY IDOCK:   -0.18 KCAL/MOL
REMARK 927      BINDING AFFINITY PREDICTED BY RF-SCORE:    0.00 PKD
ROOT
HETATM    1  C   UNL     1      -9.358  13.638  67.832  1.00  0.00    -0.206 C  
HETATM    2  O   UNL     1     -10.460  12.926  68.399  1.00  0.00    -0.241 OA 
ENDROOT
BRANCH   2   3
HETATM    3  C   UNL     1     -11.227  12.273  67.482  1.00  0.00    -0.297 C  
HETATM    4  O   UNL     1     -12.137  11.500  67.747  1.00  0.00    -0.626 OA 
BRANCH   3   5
HETATM    5  C   UNL     1     -10.793  12.653  66.090  1.00  0.00    -0.301 C  
BRANCH   5   6
HETATM    6  C   UNL     1     -11.970  12.605  65.123  1.00  0.00    -0.474 C  
BRANCH   6   7
HETATM    7  C   UNL     1     -12.072  13.858  64.276  1.00  0.00    -0.440 C  
HETATM    8  O   UNL     1     -12.627  13.861  63.174  1.00  0.00    -0.775 OA 
BRANCH   7   9
HETATM    9  C   UNL     1     -11.372  15.098  64.833  1.00  0.00    -0.399 C  
HETATM   10  N   UNL     1     -11.559  16.236  63.932  1.00  0.00    -1.573 NA 
HETATM   11  H1  UNL     1     -11.091  17.063  64.304  1.00  0.00     0.000 HD 
HETATM   12  H2  UNL     1     -12.545  16.410  63.739  1.00  0.00     0.000 HD 
ENDBRANCH   7   9
ENDBRANCH   6   7
ENDBRANCH   5   6
ENDBRANCH   3   5
ENDBRANCH   2   3
TORSDOF 5
ENDMDL
MODEL        5
REMARK 921   NORMALIZED FREE ENERGY PREDICTED BY IDOCK:   -3.91 KCAL/MOL
REMARK 922        TOTAL FREE ENERGY PREDICTED BY IDOCK:   -5.49 KCAL/MOL
REMARK 923 INTER-LIGAND FREE ENERGY PREDICTED BY IDOCK:   -5.09 KCAL/MOL
REMARK 924 INTRA-LIGAND FREE ENERGY PREDICTED BY IDOCK:   -0.40 KCAL/MOL
REMARK 927      BINDING AFFINITY PREDICTED BY RF-SCORE:    0.00 PKD
ROOT
HETATM    1  C   UNL     1     -10.761  18.918  67.115  1.00  0.00    -0.432 C  
HETATM    2  O   UNL     1      -9.998  18.433  66.009  1.00  0.00    -0.493 OA 
ENDROOT
BRANCH   2   3
HETATM    3  C   UNL     1     -10.462  17.264  65.486  1.00  0.00    -0.122 C  
HETATM    4  O   UNL     1     -11.132  17.163  64.468  1.00  0.00    -1.105 OA 
BRANCH   3   5
HETATM    5  C   UNL     1     -10.017  16.109  66.347  1.00  0.00    -0.315 C  
BRANCH   5   6
HETATM    6  C   UNL     1     -10.424  14.780  65.724  1.00  0.00    -0.348 C  
BRANCH   6   7
HETATM    7  C   UNL     1     -11.792  14.320  66.186  1.00  0.00    -0.402 C  
HETATM    8  O   UNL     1     -12.108  14.296  67.378  1.00  0.00    -0.400 OA 
BRANCH   7   9
HETATM    9  C   UNL     1     -12.729  13.810  65.091  1.00  0.00    -0.397 C  
HETATM   10  N   UNL     1     -12.368  14.396  63.799  1.00  0.00    -1.079 NA 
HETATM   11  H1  UNL     1     -12.993  14.056  63.068  1.00  0.00     0.000 HD 
HETATM   12  H2  UNL     1     -11.388  14.234  63.568  1.00  0.00     0.000 HD 
ENDBRANCH   7   9
ENDBRANCH   6   7
ENDBRANCH   5   6
ENDBRANCH   3   5
ENDBRANCH   2   3
TORSDOF 5
ENDMDL
MODEL        6
REMARK 921   NORMALIZED FREE ENERGY PREDICTED BY IDOCK:   -3.90 KCAL/MOL
REMARK 922        TOTAL FREE ENERGY PREDICTED BY IDOCK:   -5.47 KCAL/MOL
REMARK 923 INTER-LIGAND FREE ENERGY PREDICTED BY IDOCK:   -5.09 KCAL/MOL
REMARK 924 INTRA-LIGAND FREE ENERGY PREDICTED BY IDOCK:   -0.39 KCAL/MOL
REMARK 927      BINDING AFFINITY PREDICTED BY RF-SCORE:    0.00 PKD
ROOT
HETATM    1  C   UNL     1     -12.236  12.079  63.473  1.00  0.00    -0.547 C  
HETATM    2  O   UNL     1     -12.457  12.037  64.884  1.00  0.00    -0.400 OA 
ENDROOT
BRANCH   2   3
HETATM    3  C   UNL     1     -12.428  13.258  65.486  1.00  0.00    -0.474 C  
HETATM    4  O   UNL     1     -13.231  14.160  65.288  1.00  0.00    -0.760 OA 
BRANCH   3   5
HETATM    5  C   UNL     1     -11.264  13.331  66.439  1.00  0.00    -0.325 C  
BRANCH   5   6
HETATM    6  C   UNL     1     -10.213  14.315  65.938  1.00  0.00    -0.338 C  
BRANCH   6   7
HETATM    7  C   UNL     1     -10.564  15.751  66.270  1.00  0.00    -0.310 C  
HETATM    8  O   UNL     1     -10.967  16.087  67.387  1.00  0.00    -0.315 OA 
BRANCH   7   9
HETATM    9  C   UNL     1     -10.465  16.745  65.113  1.00  0.00    -0.047 C  
HETATM   10  N   UNL     1     -11.432  16.406  64.067  1.00  0.00    -1.573 NA 
HETATM   11  H1  UNL     1     -11.365  17.069  63.295  1.00  0.00     0.000 HD 
HETATM   12  H2  UNL     1     -12.381  16.342  64.434  1.00  0.00     0.000 HD 
ENDBRANCH   7   9
ENDBRANCH   6   7
ENDBRANCH   5   6
ENDBRANCH   3   5
ENDBRANCH   2   3
TORSDOF 5
ENDMDL
MODEL        7
REMARK 921   NORMALIZED FREE ENERGY PREDICTED BY IDOCK:   -3.85 KCAL/MOL
REMARK 922        TOTAL FREE ENERGY PREDICTED BY IDOCK:   -5.41 KCAL/MOL
REMARK 923 INTER-LIGAND FREE ENERGY PREDICTED BY IDOCK:   -5.25 KCAL/MOL
REMARK 924 INTRA-LIGAND FREE ENERGY PREDICTED BY IDOCK:   -0.16 KCAL/MOL
REMARK 927      BINDING AFFINITY PREDICTED BY RF-SCORE:    0.00 PKD
ROOT
HETATM    1  C   UNL     1     -10.043  19.882  67.116  1.00  0.00    -0.438 C  
HETATM    2  O   UNL     1     -10.539  18.609  66.696  1.00  0.00    -0.394 OA 
ENDROOT
BRANCH   2   3
HETATM    3  C   UNL     1     -10.482  17.647  67.660  1.00  0.00    -0.372 C  
HETATM    4  O   UNL     1     -10.143  17.832  68.821  1.00  0.00    -0.358 OA 
BRANCH   3   5
HETATM    5  C   UNL     1     -10.906  16.322  67.083  1.00  0.00    -0.190 C  
BRANCH   5   6
HETATM    6  C   UNL     1     -10.208  16.060  65.754  1.00  0.00    -0.401 C  
BRANCH   6   7
HETATM    7  C   UNL     1     -11.188  15.782  64.632  1.00  0.00    -0.363 C  
HETATM    8  O   UNL     1     -11.571  16.666  63.862  1.00  0.00    -1.204 OA 
BRANCH   7   9
HETATM    9  C   UNL     1     -11.737  14.356  64.565  1.00  0.00    -0.419 C  
HETATM   10  N   UNL     1     -12.527  14.172  63.347  1.00  0.00    -1.116 NA 
HETATM   11  H1  UNL     1     -12.894  13.221  63.302  1.00  0.00     0.000 HD 
HETATM   12  H2  UNL     1     -11.998  14.416  62.510  1.00  0.00     0.000 HD 
ENDBRANCH   7   9
ENDBRANCH   6   7
ENDBRANCH   5   6
ENDBRANCH   3   5
ENDBRANCH   2   3
TORSDOF 5
ENDMDL
MODEL        8
REMARK 921   NORMALIZED FREE ENERGY PREDICTED BY IDOCK:   -3.81 KCAL/MOL
REMARK 922        TOTAL FREE ENERGY PREDICTED BY IDOCK:   -5.36 KCAL/MOL
REMARK 923 INTER-LIGAND FREE ENERGY PREDICTED BY IDOCK:   -4.96 KCAL/MOL
REMARK 924 INTRA-LIGAND FREE ENERGY PREDICTED BY IDOCK:   -0.40 KCAL/MOL
REMARK 927      BINDING AFFINITY PREDICTED BY RF-SCORE:    0.00 PKD
ROOT
HETATM    1  C   UNL     1     -10.298  17.471  66.040  1.00  0.00    -0.306 C  
HETATM    2  O   UNL     1     -10.573  16.078  65.878  1.00  0.00    -0.327 OA 
ENDROOT
BRANCH   2   3
HETATM    3  C   UNL     1     -11.267  15.779  64.745  1.00  0.00    -0.366 C  
HETATM    4  O   UNL     1     -11.633  16.592  63.907  1.00  0.00    -1.204 OA 
BRANCH   3   5
HETATM    5  C   UNL     1     -11.511  14.294  64.673  1.00  0.00    -0.389 C  
BRANCH   5   6
HETATM    6  C   UNL     1     -12.556  13.865  65.694  1.00  0.00    -0.553 C  
BRANCH   6   7
HETATM    7  C   UNL     1     -11.978  12.970  66.771  1.00  0.00    -0.369 C  
HETATM    8  O   UNL     1     -11.706  11.785  66.563  1.00  0.00    -0.530 OA 
BRANCH   7   9
HETATM    9  C   UNL     1     -11.831  13.603  68.155  1.00  0.00    -0.372 C  
HETATM   10  N   UNL     1     -12.099  15.040  68.088  1.00  0.00    -0.544 NA 
HETATM   11  H1  UNL     1     -12.000  15.463  69.012  1.00  0.00     0.000 HD 
HETATM   12  H2  UNL     1     -13.009  15.238  67.674  1.00  0.00     0.000 HD 
ENDBRANCH   7   9
ENDBRANCH   6   7
ENDBRANCH   5   6
ENDBRANCH   3   5
ENDBRANCH   2   3
TORSDOF 5
ENDMDL
MODEL        9
REMARK 921   NORMALIZED FREE ENERGY PREDICTED BY IDOCK:   -3.79 KCAL/MOL
REMARK 922        TOTAL FREE ENERGY PREDICTED BY IDOCK:   -5.34 KCAL/MOL
REMARK 923 INTER-LIGAND FREE ENERGY PREDICTED BY IDOCK:   -5.16 KCAL/MOL
REMARK 924 INTRA-LIGAND FREE ENERGY PREDICTED BY IDOCK:   -0.18 KCAL/MOL
REMARK 927      BINDING AFFINITY PREDICTED BY RF-SCORE:    0.00 PKD
ROOT
HETATM    1  C   UNL     1     -10.690  11.687  63.696  1.00  0.00    -0.435 C  
HETATM    2  O   UNL     1     -12.022  12.166  63.886  1.00  0.00    -0.424 OA 
ENDROOT
BRANCH   2   3
HETATM    3  C   UNL     1     -12.098  13.318  64.608  1.00  0.00    -0.408 C  
HETATM    4  O   UNL     1     -13.094  13.717  65.196  1.00  0.00    -0.750 OA 
BRANCH   3   5
HETATM    5  C   UNL     1     -10.769  14.027  64.581  1.00  0.00    -0.416 C  
BRANCH   5   6
HETATM    6  C   UNL     1     -10.649  15.001  65.746  1.00  0.00    -0.351 C  
BRANCH   6   7
HETATM    7  C   UNL     1     -10.806  16.444  65.310  1.00  0.00    -0.258 C  
HETATM    8  O   UNL     1     -11.280  16.750  64.213  1.00  0.00    -1.163 OA 
BRANCH   7   9
HETATM    9  C   UNL     1     -10.266  17.495  66.280  1.00  0.00    -0.355 C  
HETATM   10  N   UNL     1     -10.462  18.839  65.734  1.00  0.00    -0.601 NA 
HETATM   11  H1  UNL     1     -10.101  19.541  66.382  1.00  0.00     0.000 HD 
HETATM   12  H2  UNL     1     -11.437  19.012  65.491  1.00  0.00     0.000 HD 
ENDBRANCH   7   9
ENDBRANCH   6   7
ENDBRANCH   5   6
ENDBRANCH   3   5
ENDBRANCH   2   3
TORSDOF 5
ENDMDL
MODEL       10
REMARK 921   NORMALIZED FREE ENERGY PREDICTED BY IDOCK:   -3.77 KCAL/MOL
REMARK 922        TOTAL FREE ENERGY PREDICTED BY IDOCK:   -5.31 KCAL/MOL
REMARK 923 INTER-LIGAND FREE ENERGY PREDICTED BY IDOCK:   -5.09 KCAL/MOL
REMARK 924 INTRA-LIGAND FREE ENERGY PREDICTED BY IDOCK:   -0.22 KCAL/MOL
REMARK 927      BINDING AFFINITY PREDICTED BY RF-SCORE:    0.00 PKD
ROOT
HETATM    1  C   UNL     1     -10.043  11.100  63.577  1.00  0.00    -0.385 C  
HETATM    2  O   UNL     1     -10.840  12.227  63.207  1.00  0.00    -0.435 OA 
ENDROOT
BRANCH   2   3
HETATM    3  C   UNL     1     -12.078  12.239  63.776  1.00  0.00    -0.532 C  
HETATM    4  O   UNL     1     -13.127  12.019  63.185  1.00  0.00    -0.624 OA 
BRANCH   3   5
HETATM    5  C   UNL     1     -11.962  12.557  65.244  1.00  0.00    -0.490 C  
BRANCH   5   6
HETATM    6  C   UNL     1     -12.617  13.896  65.562  1.00  0.00    -0.560 C  
BRANCH   6   7
HETATM    7  C   UNL     1     -11.963  15.048  64.827  1.00  0.00    -0.311 C  
HETATM    8  O   UNL     1     -12.546  15.673  63.937  1.00  0.00    -0.697 OA 
BRANCH   7   9
HETATM    9  C   UNL     1     -10.508  15.335  65.198  1.00  0.00    -0.411 C  
HETATM   10  N   UNL     1     -10.290  16.777  65.322  1.00  0.00    -0.643 NA 
HETATM   11  H1  UNL     1      -9.319  16.969  65.570  1.00  0.00     0.000 HD 
HETATM   12  H2  UNL     1     -10.942  17.205  65.979  1.00  0.00     0.000 HD 
ENDBRANCH   7   9
ENDBRANCH   6   7
ENDBRANCH   5   6
ENDBRANCH   3   5
ENDBRANCH   2   3
TORSDOF 5
ENDMDL
MODEL       11
REMARK 921   NORMALIZED FREE ENERGY PREDICTED BY IDOCK:   -3.73 KCAL/MOL
REMARK 922        TOTAL FREE ENERGY PREDICTED BY IDOCK:   -5.26 KCAL/MOL
REMARK 923 INTER-LIGAND FREE ENERGY PREDICTED BY IDOCK:   -5.17 KCAL/MOL
REMARK 924 INTRA-LIGAND FREE ENERGY PREDICTED BY IDOCK:   -0.09 KCAL/MOL
REMARK 927      BINDING AFFINITY PREDICTED BY RF-SCORE:    0.00 PKD
ROOT
HETATM    1  C   UNL     1      -9.619   9.856  64.957  1.00  0.00    -0.297 C  
HETATM    2  O   UNL     1     -10.048  10.276  66.253  1.00  0.00    -0.222 OA 
ENDROOT
BRANCH   2   3
HETATM    3  C   UNL     1     -10.848  11.379  66.241  1.00  0.00    -0.263 C  
HETATM    4  O   UNL     1     -11.832  11.543  66.949  1.00  0.00    -0.542 OA 
BRANCH   3   5
HETATM    5  C   UNL     1     -10.335  12.371  65.230  1.00  0.00    -0.308 C  
BRANCH   5   6
HETATM    6  C   UNL     1     -11.457  12.840  64.313  1.00  0.00    -0.427 C  
BRANCH   6   7
HETATM    7  C   UNL     1     -12.090  14.132  64.790  1.00  0.00    -0.441 C  
HETATM    8  O   UNL     1     -13.278  14.200  65.114  1.00  0.00    -0.743 OA 
BRANCH   7   9
HETATM    9  C   UNL     1     -11.185  15.365  64.765  1.00  0.00    -0.395 C  
HETATM   10  N   UNL     1     -11.750  16.393  63.890  1.00  0.00    -1.527 NA 
HETATM   11  H1  UNL     1     -11.147  17.216  63.873  1.00  0.00     0.000 HD 
HETATM   12  H2  UNL     1     -12.708  16.629  64.149  1.00  0.00     0.000 HD 
ENDBRANCH   7   9
ENDBRANCH   6   7
ENDBRANCH   5   6
ENDBRANCH   3   5
ENDBRANCH   2   3
TORSDOF 5
ENDMDL
MODEL       12
REMARK 921   NORMALIZED FREE ENERGY PREDICTED BY IDOCK:   -3.68 KCAL/MOL
REMARK 922        TOTAL FREE ENERGY PREDICTED BY IDOCK:   -5.20 KCAL/MOL
REMARK 923 INTER-LIGAND FREE ENERGY PREDICTED BY IDOCK:   -5.07 KCAL/MOL
REMARK 924 INTRA-LIGAND FREE ENERGY PREDICTED BY IDOCK:   -0.13 KCAL/MOL
REMARK 927      BINDING AFFINITY PREDICTED BY RF-SCORE:    0.00 PKD
ROOT
HETATM    1  C   UNL     1      -9.153  15.475  66.883  1.00  0.00    -0.241 C  
HETATM    2  O   UNL     1      -9.393  16.361  65.788  1.00  0.00    -0.468 OA 
ENDROOT
BRANCH   2   3
HETATM    3  C   UNL     1     -10.508  16.060  65.066  1.00  0.00    -0.220 C  
HETATM    4  O   UNL     1     -11.266  16.880  64.566  1.00  0.00    -1.057 OA 
BRANCH   3   5
HETATM    5  C   UNL     1     -10.665  14.565  64.969  1.00  0.00    -0.444 C  
BRANCH   5   6
HETATM    6  C   UNL     1     -12.106  14.190  64.647  1.00  0.00    -0.469 C  
BRANCH   6   7
HETATM    7  C   UNL     1     -12.368  12.706  64.809  1.00  0.00    -0.489 C  
HETATM    8  O   UNL     1     -13.303  12.139  64.239  1.00  0.00    -0.761 OA 
BRANCH   7   9
HETATM    9  C   UNL     1     -11.450  11.972  65.787  1.00  0.00    -0.320 C  
HETATM   10  N   UNL     1     -11.981  12.061  67.147  1.00  0.00    -0.598 NA 
HETATM   11  H1  UNL     1     -11.369  11.571  67.800  1.00  0.00     0.000 HD 
HETATM   12  H2  UNL     1     -12.943  11.725  67.203  1.00  0.00     0.000 HD 
ENDBRANCH   7   9
ENDBRANCH   6   7
ENDBRANCH   5   6
ENDBRANCH   3   5
ENDBRANCH   2   3
TORSDOF 5
ENDMDL
MODEL       13
REMARK 921   NORMALIZED FREE ENERGY PREDICTED BY IDOCK:   -3.61 KCAL/MOL
REMARK 922        TOTAL FREE ENERGY PREDICTED BY IDOCK:   -5.11 KCAL/MOL
REMARK 923 INTER-LIGAND FREE ENERGY PREDICTED BY IDOCK:   -4.98 KCAL/MOL
REMARK 924 INTRA-LIGAND FREE ENERGY PREDICTED BY IDOCK:   -0.13 KCAL/MOL
REMARK 927      BINDING AFFINITY PREDICTED BY RF-SCORE:    0.00 PKD
ROOT
HETATM    1  C   UNL     1      -6.924  16.392  67.077  1.00  0.00    -0.219 C  
HETATM    2  O   UNL     1      -8.087  17.001  67.641  1.00  0.00    -0.177 OA 
ENDROOT
BRANCH   2   3
HETATM    3  C   UNL     1      -8.986  17.440  66.716  1.00  0.00    -0.254 C  
HETATM    4  O   UNL     1      -8.821  18.398  65.973  1.00  0.00    -0.498 OA 
BRANCH   3   5
HETATM    5  C   UNL     1     -10.211  16.564  66.740  1.00  0.00    -0.295 C  
BRANCH   5   6
HETATM    6  C   UNL     1     -10.126  15.483  65.670  1.00  0.00    -0.406 C  
BRANCH   6   7
HETATM    7  C   UNL     1     -11.249  15.583  64.657  1.00  0.00    -0.371 C  
HETATM    8  O   UNL     1     -11.430  16.596  63.976  1.00  0.00    -1.192 OA 
BRANCH   7   9
HETATM    9  C   UNL     1     -12.193  14.382  64.588  1.00  0.00    -0.464 C  
HETATM   10  N   UNL     1     -12.383  13.964  63.199  1.00  0.00    -1.106 NA 
HETATM   11  H1  UNL     1     -13.014  13.163  63.153  1.00  0.00     0.000 HD 
HETATM   12  H2  UNL     1     -11.496  13.777  62.732  1.00  0.00     0.000 HD 
ENDBRANCH   7   9
ENDBRANCH   6   7
ENDBRANCH   5   6
ENDBRANCH   3   5
ENDBRANCH   2   3
TORSDOF 5
ENDMDL
MODEL       14
REMARK 921   NORMALIZED FREE ENERGY PREDICTED BY IDOCK:   -3.61 KCAL/MOL
REMARK 922        TOTAL FREE ENERGY PREDICTED BY IDOCK:   -5.11 KCAL/MOL
REMARK 923 INTER-LIGAND FREE ENERGY PREDICTED BY IDOCK:   -5.00 KCAL/MOL
REMARK 924 INTRA-LIGAND FREE ENERGY PREDICTED BY IDOCK:   -0.11 KCAL/MOL
REMARK 927      BINDING AFFINITY PREDICTED BY RF-SCORE:    0.00 PKD
ROOT
HETATM    1  C   UNL     1     -12.609  11.973  63.395  1.00  0.00    -0.469 C  
HETATM    2  O   UNL     1     -12.930  12.626  64.625  1.00  0.00    -0.768 OA 
ENDROOT
BRANCH   2   3
HETATM    3  C   UNL     1     -12.456  13.900  64.716  1.00  0.00    -0.354 C  
HETATM    4  O   UNL     1     -12.566  14.756  63.848  1.00  0.00    -0.834 OA 
BRANCH   3   5
HETATM    5  C   UNL     1     -11.783  14.100  66.049  1.00  0.00    -0.389 C  
BRANCH   5   6
HETATM    6  C   UNL     1     -11.902  12.850  66.910  1.00  0.00    -0.444 C  
BRANCH   6   7
HETATM    7  C   UNL     1     -11.642  13.132  68.377  1.00  0.00    -0.337 C  
HETATM    8  O   UNL     1     -11.324  14.253  68.782  1.00  0.00    -0.246 OA 
BRANCH   7   9
HETATM    9  C   UNL     1     -11.717  11.924  69.310  1.00  0.00    -0.328 C  
HETATM   10  N   UNL     1     -12.227  10.756  68.591  1.00  0.00    -0.827 NA 
HETATM   11  H1  UNL     1     -12.277   9.950  69.214  1.00  0.00     0.000 HD 
HETATM   12  H2  UNL     1     -11.681  10.556  67.754  1.00  0.00     0.000 HD 
ENDBRANCH   7   9
ENDBRANCH   6   7
ENDBRANCH   5   6
ENDBRANCH   3   5
ENDBRANCH   2   3
TORSDOF 5
ENDMDL
MODEL       15
REMARK 921   NORMALIZED FREE ENERGY PREDICTED BY IDOCK:   -3.61 KCAL/MOL
REMARK 922        TOTAL FREE ENERGY PREDICTED BY IDOCK:   -5.10 KCAL/MOL
REMARK 923 INTER-LIGAND FREE ENERGY PREDICTED BY IDOCK:   -4.99 KCAL/MOL
REMARK 924 INTRA-LIGAND FREE ENERGY PREDICTED BY IDOCK:   -0.11 KCAL/MOL
REMARK 927      BINDING AFFINITY PREDICTED BY RF-SCORE:    0.00 PKD
ROOT
HETATM    1  C   UNL     1     -12.264  10.908  69.734  1.00  0.00    -0.311 C  
HETATM    2  O   UNL     1     -11.965  11.147  68.358  1.00  0.00    -0.561 OA 
ENDROOT
BRANCH   2   3
HETATM    3  C   UNL     1     -11.847  12.466  68.037  1.00  0.00    -0.316 C  
HETATM    4  O   UNL     1     -11.980  13.396  68.821  1.00  0.00    -0.335 OA 
BRANCH   3   5
HETATM    5  C   UNL     1     -11.518  12.608  66.574  1.00  0.00    -0.409 C  
BRANCH   5   6
HETATM    6  C   UNL     1     -12.464  13.592  65.898  1.00  0.00    -0.502 C  
BRANCH   6   7
HETATM    7  C   UNL     1     -12.127  13.806  64.436  1.00  0.00    -0.436 C  
HETATM    8  O   UNL     1     -12.642  14.707  63.770  1.00  0.00    -0.820 OA 
BRANCH   7   9
HETATM    9  C   UNL     1     -11.171  12.786  63.817  1.00  0.00    -0.443 C  
HETATM   10  N   UNL     1     -11.915  11.816  63.012  1.00  0.00    -0.862 NA 
HETATM   11  H1  UNL     1     -11.278  11.135  62.599  1.00  0.00     0.000 HD 
HETATM   12  H2  UNL     1     -12.495  12.271  62.308  1.00  0.00     0.000 HD 
ENDBRANCH   7   9
ENDBRANCH   6   7
ENDBRANCH   5   6
ENDBRANCH   3   5
ENDBRANCH   2   3
TORSDOF 5
ENDMDL
MODEL       16
REMARK 921   NORMALIZED FREE ENERGY PREDICTED BY IDOCK:   -3.58 KCAL/MOL
REMARK 922        TOTAL FREE ENERGY PREDICTED BY IDOCK:   -5.07 KCAL/MOL
REMARK 923 INTER-LIGAND FREE ENERGY PREDICTED BY IDOCK:   -4.73 KCAL/MOL
REMARK 924 INTRA-LIGAND FREE ENERGY PREDICTED BY IDOCK:   -0.34 KCAL/MOL
REMARK 927      BINDING AFFINITY PREDICTED BY RF-SCORE:    0.00 PKD
ROOT
HETATM    1  C   UNL     1      -8.683  19.017  68.406  1.00  0.00    -0.346 C  
HETATM    2  O   UNL     1      -9.808  19.387  67.606  1.00  0.00    -0.317 OA 
ENDROOT
BRANCH   2   3
HETATM    3  C   UNL     1     -10.289  18.377  66.828  1.00  0.00    -0.394 C  
HETATM    4  O   UNL     1     -10.541  18.466  65.634  1.00  0.00    -0.622 OA 
BRANCH   3   5
HETATM    5  C   UNL     1     -10.458  17.130  67.657  1.00  0.00    -0.355 C  
BRANCH   5   6
HETATM    6  C   UNL     1      -9.849  15.924  66.954  1.00  0.00    -0.251 C  
BRANCH   6   7
HETATM    7  C   UNL     1     -10.892  15.072  66.259  1.00  0.00    -0.333 C  
HETATM    8  O   UNL     1     -11.690  14.371  66.886  1.00  0.00    -0.372 OA 
BRANCH   7   9
HETATM    9  C   UNL     1     -10.842  15.072  64.731  1.00  0.00    -0.355 C  
HETATM   10  N   UNL     1     -11.488  16.274  64.201  1.00  0.00    -1.386 NA 
HETATM   11  H1  UNL     1     -11.455  16.274  63.181  1.00  0.00     0.000 HD 
HETATM   12  H2  UNL     1     -11.089  17.126  64.594  1.00  0.00     0.000 HD 
ENDBRANCH   7   9
ENDBRANCH   6   7
ENDBRANCH   5   6
ENDBRANCH   3   5
ENDBRANCH   2   3
TORSDOF 5
ENDMDL
MODEL       17
REMARK 921   NORMALIZED FREE ENERGY PREDICTED BY IDOCK:   -3.54 KCAL/MOL
REMARK 922        TOTAL FREE ENERGY PREDICTED BY IDOCK:   -5.02 KCAL/MOL
REMARK 923 INTER-LIGAND FREE ENERGY PREDICTED BY IDOCK:   -4.94 KCAL/MOL
REMARK 924 INTRA-LIGAND FREE ENERGY PREDICTED BY IDOCK:   -0.08 KCAL/MOL
REMARK 927      BINDING AFFINITY PREDICTED BY RF-SCORE:    0.00 PKD
ROOT
HETATM    1  C   UNL     1     -11.690  14.524  68.215  1.00  0.00    -0.335 C  
HETATM    2  O   UNL     1     -10.923  13.321  68.138  1.00  0.00    -0.239 OA 
ENDROOT
BRANCH   2   3
HETATM    3  C   UNL     1     -11.640  12.190  68.387  1.00  0.00    -0.327 C  
HETATM    4  O   UNL     1     -12.012  11.389  67.540  1.00  0.00    -0.626 OA 
BRANCH   3   5
HETATM    5  C   UNL     1     -11.902  12.067  69.866  1.00  0.00    -0.405 C  
BRANCH   5   6
HETATM    6  C   UNL     1     -12.180  10.619  70.249  1.00  0.00    -0.417 C  
BRANCH   6   7
HETATM    7  C   UNL     1     -12.877  10.500  71.589  1.00  0.00    -0.475 C  
HETATM    8  O   UNL     1     -13.325  11.483  72.185  1.00  0.00    -0.477 OA 
BRANCH   7   9
HETATM    9  C   UNL     1     -12.920   9.097  72.196  1.00  0.00    -0.425 C  
HETATM   10  N   UNL     1     -13.977   9.011  73.205  1.00  0.00    -1.215 NA 
HETATM   11  H1  UNL     1     -14.005   8.075  73.609  1.00  0.00     0.000 HD 
HETATM   12  H2  UNL     1     -14.883   9.292  72.831  1.00  0.00     0.000 HD 
ENDBRANCH   7   9
ENDBRANCH   6   7
ENDBRANCH   5   6
ENDBRANCH   3   5
ENDBRANCH   2   3
TORSDOF 5
ENDMDL
MODEL       18
REMARK 921   NORMALIZED FREE ENERGY PREDICTED BY IDOCK:   -3.54 KCAL/MOL
REMARK 922        TOTAL FREE ENERGY PREDICTED BY IDOCK:   -5.01 KCAL/MOL
REMARK 923 INTER-LIGAND FREE ENERGY PREDICTED BY IDOCK:   -4.85 KCAL/MOL
REMARK 924 INTRA-LIGAND FREE ENERGY PREDICTED BY IDOCK:   -0.17 KCAL/MOL
REMARK 927      BINDING AFFINITY PREDICTED BY RF-SCORE:    0.00 PKD
ROOT
HETATM    1  C   UNL     1      -8.903   9.583  64.399  1.00  0.00    -0.216 C  
HETATM    2  O   UNL     1     -10.162  10.259  64.409  1.00  0.00    -0.298 OA 
ENDROOT
BRANCH   2   3
HETATM    3  C   UNL     1     -10.254  11.272  63.503  1.00  0.00    -0.403 C  
HETATM    4  O   UNL     1      -9.357  11.629  62.752  1.00  0.00    -0.350 OA 
BRANCH   3   5
HETATM    5  C   UNL     1     -11.630  11.882  63.558  1.00  0.00    -0.537 C  
BRANCH   5   6
HETATM    6  C   UNL     1     -11.829  12.655  64.856  1.00  0.00    -0.436 C  
BRANCH   6   7
HETATM    7  C   UNL     1     -11.267  14.060  64.783  1.00  0.00    -0.375 C  
HETATM    8  O   UNL     1     -10.118  14.326  65.146  1.00  0.00    -0.373 OA 
BRANCH   7   9
HETATM    9  C   UNL     1     -12.238  15.142  64.310  1.00  0.00    -0.240 C  
HETATM   10  N   UNL     1     -11.507  16.355  63.941  1.00  0.00    -1.618 NA 
HETATM   11  H1  UNL     1     -12.154  17.078  63.625  1.00  0.00     0.000 HD 
HETATM   12  H2  UNL     1     -10.781  16.167  63.250  1.00  0.00     0.000 HD 
ENDBRANCH   7   9
ENDBRANCH   6   7
ENDBRANCH   5   6
ENDBRANCH   3   5
ENDBRANCH   2   3
TORSDOF 5
ENDMDL
MODEL       19
REMARK 921   NORMALIZED FREE ENERGY PREDICTED BY IDOCK:   -3.51 KCAL/MOL
REMARK 922        TOTAL FREE ENERGY PREDICTED BY IDOCK:   -4.97 KCAL/MOL
REMARK 923 INTER-LIGAND FREE ENERGY PREDICTED BY IDOCK:   -4.59 KCAL/MOL
REMARK 924 INTRA-LIGAND FREE ENERGY PREDICTED BY IDOCK:   -0.38 KCAL/MOL
REMARK 927      BINDING AFFINITY PREDICTED BY RF-SCORE:    0.00 PKD
ROOT
HETATM    1  C   UNL     1     -10.410  11.134  63.783  1.00  0.00    -0.386 C  
HETATM    2  O   UNL     1     -10.878  12.375  63.250  1.00  0.00    -0.432 OA 
ENDROOT
BRANCH   2   3
HETATM    3  C   UNL     1     -12.170  12.664  63.572  1.00  0.00    -0.547 C  
HETATM    4  O   UNL     1     -13.116  11.899  63.443  1.00  0.00    -0.710 OA 
BRANCH   3   5
HETATM    5  C   UNL     1     -12.258  14.065  64.118  1.00  0.00    -0.433 C  
BRANCH   5   6
HETATM    6  C   UNL     1     -12.589  14.047  65.605  1.00  0.00    -0.542 C  
BRANCH   6   7
HETATM    7  C   UNL     1     -11.365  13.806  66.466  1.00  0.00    -0.325 C  
HETATM    8  O   UNL     1     -10.273  14.322  66.213  1.00  0.00    -0.283 OA 
BRANCH   7   9
HETATM    9  C   UNL     1     -11.546  12.820  67.620  1.00  0.00    -0.358 C  
HETATM   10  N   UNL     1     -11.910  11.498  67.107  1.00  0.00    -0.572 NA 
HETATM   11  H1  UNL     1     -12.031  10.840  67.877  1.00  0.00     0.000 HD 
HETATM   12  H2  UNL     1     -11.238  11.159  66.419  1.00  0.00     0.000 HD 
ENDBRANCH   7   9
ENDBRANCH   6   7
ENDBRANCH   5   6
ENDBRANCH   3   5
ENDBRANCH   2   3
TORSDOF 5
ENDMDL
MODEL       20
REMARK 921   NORMALIZED FREE ENERGY PREDICTED BY IDOCK:   -3.50 KCAL/MOL
REMARK 922        TOTAL FREE ENERGY PREDICTED BY IDOCK:   -4.96 KCAL/MOL
REMARK 923 INTER-LIGAND FREE ENERGY PREDICTED BY IDOCK:   -4.85 KCAL/MOL
REMARK 924 INTRA-LIGAND FREE ENERGY PREDICTED BY IDOCK:   -0.11 KCAL/MOL
REMARK 927      BINDING AFFINITY PREDICTED BY RF-SCORE:    0.00 PKD
ROOT
HETATM    1  C   UNL     1     -10.770  11.620  63.664  1.00  0.00    -0.435 C  
HETATM    2  O   UNL     1     -11.489  12.746  63.157  1.00  0.00    -0.408 OA 
ENDROOT
BRANCH   2   3
HETATM    3  C   UNL     1     -12.135  13.468  64.114  1.00  0.00    -0.435 C  
HETATM    4  O   UNL     1     -12.633  14.573  63.948  1.00  0.00    -0.827 OA 
BRANCH   3   5
HETATM    5  C   UNL     1     -12.153  12.698  65.409  1.00  0.00    -0.516 C  
BRANCH   5   6
HETATM    6  C   UNL     1     -12.198  13.644  66.602  1.00  0.00    -0.437 C  
BRANCH   6   7
HETATM    7  C   UNL     1     -11.936  12.932  67.914  1.00  0.00    -0.282 C  
HETATM    8  O   UNL     1     -11.961  11.702  68.009  1.00  0.00    -0.577 OA 
BRANCH   7   9
HETATM    9  C   UNL     1     -11.719  13.834  69.130  1.00  0.00    -0.334 C  
HETATM   10  N   UNL     1     -12.209  15.185  68.854  1.00  0.00    -0.600 NA 
HETATM   11  H1  UNL     1     -12.064  15.787  69.665  1.00  0.00     0.000 HD 
HETATM   12  H2  UNL     1     -13.183  15.182  68.552  1.00  0.00     0.000 HD 
ENDBRANCH   7   9
ENDBRANCH   6   7
ENDBRANCH   5   6
ENDBRANCH   3   5
ENDBRANCH   2   3
TORSDOF 5
ENDMDL
MODEL       21
REMARK 921   NORMALIZED FREE ENERGY PREDICTED BY IDOCK:   -3.49 KCAL/MOL
REMARK 922        TOTAL FREE ENERGY PREDICTED BY IDOCK:   -4.95 KCAL/MOL
REMARK 923 INTER-LIGAND FREE ENERGY PREDICTED BY IDOCK:   -4.77 KCAL/MOL
REMARK 924 INTRA-LIGAND FREE ENERGY PREDICTED BY IDOCK:   -0.19 KCAL/MOL
REMARK 927      BINDING AFFINITY PREDICTED BY RF-SCORE:    0.00 PKD
ROOT
HETATM    1  C   UNL     1     -12.418  14.056  65.317  1.00  0.00    -0.475 C  
HETATM    2  O   UNL     1     -11.127  14.511  64.906  1.00  0.00    -0.357 OA 
ENDROOT
BRANCH   2   3
HETATM    3  C   UNL     1     -11.027  15.866  64.797  1.00  0.00    -0.375 C  
HETATM    4  O   UNL     1     -11.643  16.556  63.997  1.00  0.00    -1.154 OA 
BRANCH   3   5
HETATM    5  C   UNL     1     -10.049  16.388  65.817  1.00  0.00    -0.352 C  
BRANCH   5   6
HETATM    6  C   UNL     1     -10.779  16.993  67.009  1.00  0.00    -0.149 C  
BRANCH   6   7
HETATM    7  C   UNL     1     -10.451  18.459  67.205  1.00  0.00    -0.404 C  
HETATM    8  O   UNL     1     -10.124  18.917  68.302  1.00  0.00    -0.354 OA 
BRANCH   7   9
HETATM    9  C   UNL     1     -10.629  19.351  65.976  1.00  0.00    -0.480 C  
HETATM   10  N   UNL     1      -9.619  20.410  65.965  1.00  0.00    -0.668 NA 
HETATM   11  H1  UNL     1      -9.738  21.006  65.145  1.00  0.00     0.000 HD 
HETATM   12  H2  UNL     1      -8.673  20.034  66.028  1.00  0.00     0.000 HD 
ENDBRANCH   7   9
ENDBRANCH   6   7
ENDBRANCH   5   6
ENDBRANCH   3   5
ENDBRANCH   2   3
TORSDOF 5
ENDMDL
MODEL       22
REMARK 921   NORMALIZED FREE ENERGY PREDICTED BY IDOCK:   -3.49 KCAL/MOL
REMARK 922        TOTAL FREE ENERGY PREDICTED BY IDOCK:   -4.95 KCAL/MOL
REMARK 923 INTER-LIGAND FREE ENERGY PREDICTED BY IDOCK:   -4.77 KCAL/MOL
REMARK 924 INTRA-LIGAND FREE ENERGY PREDICTED BY IDOCK:   -0.17 KCAL/MOL
REMARK 927      BINDING AFFINITY PREDICTED BY RF-SCORE:    0.00 PKD
ROOT
HETATM    1  C   UNL     1     -12.002  14.770  68.601  1.00  0.00    -0.257 C  
HETATM    2  O   UNL     1     -11.423  14.397  67.349  1.00  0.00    -0.323 OA 
ENDROOT
BRANCH   2   3
HETATM    3  C   UNL     1     -12.085  13.392  66.711  1.00  0.00    -0.365 C  
HETATM    4  O   UNL     1     -12.140  12.231  67.092  1.00  0.00    -0.560 OA 
BRANCH   3   5
HETATM    5  C   UNL     1     -12.745  13.925  65.466  1.00  0.00    -0.536 C  
BRANCH   5   6
HETATM    6  C   UNL     1     -11.861  13.706  64.245  1.00  0.00    -0.464 C  
BRANCH   6   7
HETATM    7  C   UNL     1     -11.996  12.307  63.679  1.00  0.00    -0.543 C  
HETATM    8  O   UNL     1     -13.070  11.870  63.258  1.00  0.00    -0.674 OA 
BRANCH   7   9
HETATM    9  C   UNL     1     -10.737  11.441  63.737  1.00  0.00    -0.403 C  
HETATM   10  N   UNL     1      -9.567  12.217  63.324  1.00  0.00    -0.650 NA 
HETATM   11  H1  UNL     1      -8.726  11.639  63.363  1.00  0.00     0.000 HD 
HETATM   12  H2  UNL     1      -9.465  13.072  63.870  1.00  0.00     0.000 HD 
ENDBRANCH   7   9
ENDBRANCH   6   7
ENDBRANCH   5   6
ENDBRANCH   3   5
ENDBRANCH   2   3
TORSDOF 5
ENDMDL
MODEL       23
REMARK 921   NORMALIZED FREE ENERGY PREDICTED BY IDOCK:   -3.44 KCAL/MOL
REMARK 922        TOTAL FREE ENERGY PREDICTED BY IDOCK:   -4.88 KCAL/MOL
REMARK 923 INTER-LIGAND FREE ENERGY PREDICTED BY IDOCK:   -4.73 KCAL/MOL
REMARK 924 INTRA-LIGAND FREE ENERGY PREDICTED BY IDOCK:   -0.15 KCAL/MOL
REMARK 927      BINDING AFFINITY PREDICTED BY RF-SCORE:    0.00 PKD
ROOT
HETATM    1  C   UNL     1      -7.483  20.217  66.725  1.00  0.00    -0.279 C  
HETATM    2  O   UNL     1      -8.901  20.222  66.900  1.00  0.00    -0.326 OA 
ENDROOT
BRANCH   2   3
HETATM    3  C   UNL     1      -9.365  19.209  67.685  1.00  0.00    -0.303 C  
HETATM    4  O   UNL     1      -8.855  18.839  68.733  1.00  0.00    -0.327 OA 
BRANCH   3   5
HETATM    5  C   UNL     1     -10.608  18.618  67.072  1.00  0.00    -0.448 C  
BRANCH   5   6
HETATM    6  C   UNL     1     -10.585  17.097  67.158  1.00  0.00    -0.244 C  
BRANCH   6   7
HETATM    7  C   UNL     1      -9.915  16.460  65.957  1.00  0.00    -0.345 C  
HETATM    8  O   UNL     1      -8.723  16.643  65.697  1.00  0.00    -0.428 OA 
BRANCH   7   9
HETATM    9  C   UNL     1     -10.827  15.645  65.041  1.00  0.00    -0.450 C  
HETATM   10  N   UNL     1     -11.476  16.518  64.061  1.00  0.00    -1.581 NA 
HETATM   11  H1  UNL     1     -12.085  15.973  63.450  1.00  0.00     0.000 HD 
HETATM   12  H2  UNL     1     -10.798  17.066  63.532  1.00  0.00     0.000 HD 
ENDBRANCH   7   9
ENDBRANCH   6   7
ENDBRANCH   5   6
ENDBRANCH   3   5
ENDBRANCH   2   3
TORSDOF 5
ENDMDL
MODEL       24
REMARK 921   NORMALIZED FREE ENERGY PREDICTED BY IDOCK:   -3.41 KCAL/MOL
REMARK 922        TOTAL FREE ENERGY PREDICTED BY IDOCK:   -4.85 KCAL/MOL
REMARK 923 INTER-LIGAND FREE ENERGY PREDICTED BY IDOCK:   -4.79 KCAL/MOL
REMARK 924 INTRA-LIGAND FREE ENERGY PREDICTED BY IDOCK:   -0.06 KCAL/MOL
REMARK 927      BINDING AFFINITY PREDICTED BY RF-SCORE:    0.00 PKD
ROOT
HETATM    1  C   UNL     1     -12.044  11.103  70.407  1.00  0.00    -0.385 C  
HETATM    2  O   UNL     1     -11.855  12.320  69.682  1.00  0.00    -0.312 OA 
ENDROOT
BRANCH   2   3
HETATM    3  C   UNL     1     -11.789  12.156  68.332  1.00  0.00    -0.303 C  
HETATM    4  O   UNL     1     -11.639  11.085  67.758  1.00  0.00    -0.510 OA 
BRANCH   3   5
HETATM    5  C   UNL     1     -11.935  13.490  67.647  1.00  0.00    -0.373 C  
BRANCH   5   6
HETATM    6  C   UNL     1     -10.860  13.675  66.584  1.00  0.00    -0.283 C  
BRANCH   6   7
HETATM    7  C   UNL     1     -10.953  15.023  65.897  1.00  0.00    -0.343 C  
HETATM    8  O   UNL     1     -10.540  16.058  66.425  1.00  0.00    -0.308 OA 
BRANCH   7   9
HETATM    9  C   UNL     1     -11.666  15.033  64.545  1.00  0.00    -0.368 C  
HETATM   10  N   UNL     1     -11.560  16.354  63.924  1.00  0.00    -1.602 NA 
HETATM   11  H1  UNL     1     -12.036  16.361  63.021  1.00  0.00     0.000 HD 
HETATM   12  H2  UNL     1     -10.591  16.661  63.845  1.00  0.00     0.000 HD 
ENDBRANCH   7   9
ENDBRANCH   6   7
ENDBRANCH   5   6
ENDBRANCH   3   5
ENDBRANCH   2   3
TORSDOF 5
ENDMDL
MODEL       25
REMARK 921   NORMALIZED FREE ENERGY PREDICTED BY IDOCK:   -3.41 KCAL/MOL
REMARK 922        TOTAL FREE ENERGY PREDICTED BY IDOCK:   -4.84 KCAL/MOL
REMARK 923 INTER-LIGAND FREE ENERGY PREDICTED BY IDOCK:   -4.62 KCAL/MOL
REMARK 924 INTRA-LIGAND FREE ENERGY PREDICTED BY IDOCK:   -0.22 KCAL/MOL
REMARK 927      BINDING AFFINITY PREDICTED BY RF-SCORE:    0.00 PKD
ROOT
HETATM    1  C   UNL     1     -10.738  16.648  68.935  1.00  0.00    -0.337 C  
HETATM    2  O   UNL     1     -10.427  15.263  68.770  1.00  0.00    -0.225 OA 
ENDROOT
BRANCH   2   3
HETATM    3  C   UNL     1     -11.501  14.435  68.904  1.00  0.00    -0.289 C  
HETATM    4  O   UNL     1     -12.311  14.474  69.820  1.00  0.00    -0.316 OA 
BRANCH   3   5
HETATM    5  C   UNL     1     -11.546  13.467  67.750  1.00  0.00    -0.374 C  
BRANCH   5   6
HETATM    6  C   UNL     1     -12.152  14.123  66.516  1.00  0.00    -0.481 C  
BRANCH   6   7
HETATM    7  C   UNL     1     -11.127  14.355  65.424  1.00  0.00    -0.331 C  
HETATM    8  O   UNL     1     -10.552  13.424  64.854  1.00  0.00    -0.340 OA 
BRANCH   7   9
HETATM    9  C   UNL     1     -10.789  15.817  65.128  1.00  0.00    -0.428 C  
HETATM   10  N   UNL     1     -11.630  16.323  64.042  1.00  0.00    -1.504 NA 
HETATM   11  H1  UNL     1     -11.404  17.299  63.844  1.00  0.00     0.000 HD 
HETATM   12  H2  UNL     1     -12.622  16.194  64.237  1.00  0.00     0.000 HD 
ENDBRANCH   7   9
ENDBRANCH   6   7
ENDBRANCH   5   6
ENDBRANCH   3   5
ENDBRANCH   2   3
TORSDOF 5
ENDMDL
MODEL       26
REMARK 921   NORMALIZED FREE ENERGY PREDICTED BY IDOCK:   -3.40 KCAL/MOL
REMARK 922        TOTAL FREE ENERGY PREDICTED BY IDOCK:   -4.83 KCAL/MOL
REMARK 923 INTER-LIGAND FREE ENERGY PREDICTED BY IDOCK:   -4.41 KCAL/MOL
REMARK 924 INTRA-LIGAND FREE ENERGY PREDICTED BY IDOCK:   -0.42 KCAL/MOL
REMARK 927      BINDING AFFINITY PREDICTED BY RF-SCORE:    0.00 PKD
ROOT
HETATM    1  C   UNL     1      -9.052  15.942  65.916  1.00  0.00    -0.269 C  
HETATM    2  O   UNL     1     -10.280  15.264  65.643  1.00  0.00    -0.315 OA 
ENDROOT
BRANCH   2   3
HETATM    3  C   UNL     1     -11.008  14.969  66.755  1.00  0.00    -0.323 C  
HETATM    4  O   UNL     1     -11.096  15.678  67.749  1.00  0.00    -0.314 OA 
BRANCH   3   5
HETATM    5  C   UNL     1     -11.698  13.641  66.576  1.00  0.00    -0.414 C  
BRANCH   5   6
HETATM    6  C   UNL     1     -12.593  13.657  65.343  1.00  0.00    -0.533 C  
BRANCH   6   7
HETATM    7  C   UNL     1     -12.274  12.528  64.384  1.00  0.00    -0.449 C  
HETATM    8  O   UNL     1     -13.135  12.014  63.666  1.00  0.00    -0.756 OA 
BRANCH   7   9
HETATM    9  C   UNL     1     -10.836  12.009  64.421  1.00  0.00    -0.329 C  
HETATM   10  N   UNL     1      -9.959  12.887  63.645  1.00  0.00    -0.709 NA 
HETATM   11  H1  UNL     1      -8.999  12.540  63.669  1.00  0.00     0.000 HD 
HETATM   12  H2  UNL     1     -10.021  13.857  63.954  1.00  0.00     0.000 HD 
ENDBRANCH   7   9
ENDBRANCH   6   7
ENDBRANCH   5   6
ENDBRANCH   3   5
ENDBRANCH   2   3
TORSDOF 5
ENDMDL
MODEL       27
REMARK 921   NORMALIZED FREE ENERGY PREDICTED BY IDOCK:   -3.40 KCAL/MOL
REMARK 922        TOTAL FREE ENERGY PREDICTED BY IDOCK:   -4.83 KCAL/MOL
REMARK 923 INTER-LIGAND FREE ENERGY PREDICTED BY IDOCK:   -4.76 KCAL/MOL
REMARK 924 INTRA-LIGAND FREE ENERGY PREDICTED BY IDOCK:   -0.06 KCAL/MOL
REMARK 927      BINDING AFFINITY PREDICTED BY RF-SCORE:    0.00 PKD
ROOT
HETATM    1  C   UNL     1     -12.654  10.826  70.743  1.00  0.00    -0.383 C  
HETATM    2  O   UNL     1     -12.001  11.106  69.502  1.00  0.00    -0.311 OA 
ENDROOT
BRANCH   2   3
HETATM    3  C   UNL     1     -11.911  12.434  69.211  1.00  0.00    -0.253 C  
HETATM    4  O   UNL     1     -11.961  13.340  70.031  1.00  0.00    -0.325 OA 
BRANCH   3   5
HETATM    5  C   UNL     1     -11.733  12.619  67.727  1.00  0.00    -0.412 C  
BRANCH   5   6
HETATM    6  C   UNL     1     -11.962  14.072  67.330  1.00  0.00    -0.439 C  
BRANCH   6   7
HETATM    7  C   UNL     1     -12.073  14.251  65.829  1.00  0.00    -0.405 C  
HETATM    8  O   UNL     1     -13.052  13.855  65.193  1.00  0.00    -0.773 OA 
BRANCH   7   9
HETATM    9  C   UNL     1     -10.860  14.878  65.142  1.00  0.00    -0.414 C  
HETATM   10  N   UNL     1     -11.281  15.978  64.272  1.00  0.00    -1.049 NA 
HETATM   11  H1  UNL     1     -10.471  16.397  63.813  1.00  0.00     0.000 HD 
HETATM   12  H2  UNL     1     -11.833  16.671  64.776  1.00  0.00     0.000 HD 
ENDBRANCH   7   9
ENDBRANCH   6   7
ENDBRANCH   5   6
ENDBRANCH   3   5
ENDBRANCH   2   3
TORSDOF 5
ENDMDL
MODEL       28
REMARK 921   NORMALIZED FREE ENERGY PREDICTED BY IDOCK:   -3.38 KCAL/MOL
REMARK 922        TOTAL FREE ENERGY PREDICTED BY IDOCK:   -4.81 KCAL/MOL
REMARK 923 INTER-LIGAND FREE ENERGY PREDICTED BY IDOCK:   -4.54 KCAL/MOL
REMARK 924 INTRA-LIGAND FREE ENERGY PREDICTED BY IDOCK:   -0.26 KCAL/MOL
REMARK 927      BINDING AFFINITY PREDICTED BY RF-SCORE:    0.00 PKD
ROOT
HETATM    1  C   UNL     1     -12.729  13.365  65.080  1.00  0.00    -0.399 C  
HETATM    2  O   UNL     1     -12.709  14.589  64.344  1.00  0.00    -0.655 OA 
ENDROOT
BRANCH   2   3
HETATM    3  C   UNL     1     -11.563  15.310  64.499  1.00  0.00    -0.312 C  
HETATM    4  O   UNL     1     -11.421  16.483  64.183  1.00  0.00    -1.059 OA 
BRANCH   3   5
HETATM    5  C   UNL     1     -10.499  14.447  65.126  1.00  0.00    -0.437 C  
BRANCH   5   6
HETATM    6  C   UNL     1      -9.691  15.239  66.146  1.00  0.00    -0.343 C  
BRANCH   6   7
HETATM    7  C   UNL     1      -9.989  14.817  67.571  1.00  0.00    -0.219 C  
HETATM    8  O   UNL     1      -9.308  13.976  68.162  1.00  0.00    -0.189 OA 
BRANCH   7   9
HETATM    9  C   UNL     1     -11.236  15.438  68.202  1.00  0.00    -0.325 C  
HETATM   10  N   UNL     1     -12.247  14.409  68.448  1.00  0.00    -0.605 NA 
HETATM   11  H1  UNL     1     -13.079  14.824  68.869  1.00  0.00     0.000 HD 
HETATM   12  H2  UNL     1     -11.880  13.640  69.008  1.00  0.00     0.000 HD 
ENDBRANCH   7   9
ENDBRANCH   6   7
ENDBRANCH   5   6
ENDBRANCH   3   5
ENDBRANCH   2   3
TORSDOF 5
ENDMDL
MODEL       29
REMARK 921   NORMALIZED FREE ENERGY PREDICTED BY IDOCK:   -3.34 KCAL/MOL
REMARK 922        TOTAL FREE ENERGY PREDICTED BY IDOCK:   -4.75 KCAL/MOL
REMARK 923 INTER-LIGAND FREE ENERGY PREDICTED BY IDOCK:   -4.71 KCAL/MOL
REMARK 924 INTRA-LIGAND FREE ENERGY PREDICTED BY IDOCK:   -0.04 KCAL/MOL
REMARK 927      BINDING AFFINITY PREDICTED BY RF-SCORE:    0.00 PKD
ROOT
HETATM    1  C   UNL     1     -14.131  14.041  72.089  1.00  0.00    -0.547 C  
HETATM    2  O   UNL     1     -14.138  15.399  72.534  1.00  0.00    -0.527 OA 
ENDROOT
BRANCH   2   3
HETATM    3  C   UNL     1     -13.014  15.765  73.212  1.00  0.00    -0.565 C  
HETATM    4  O   UNL     1     -12.997  16.410  74.251  1.00  0.00    -0.670 OA 
BRANCH   3   5
HETATM    5  C   UNL     1     -11.795  15.248  72.494  1.00  0.00    -0.532 C  
BRANCH   5   6
HETATM    6  C   UNL     1     -11.445  16.140  71.309  1.00  0.00    -0.433 C  
BRANCH   6   7
HETATM    7  C   UNL     1     -10.853  15.358  70.153  1.00  0.00    -0.309 C  
HETATM    8  O   UNL     1      -9.816  15.710  69.585  1.00  0.00    -0.266 OA 
BRANCH   7   9
HETATM    9  C   UNL     1     -11.664  14.151  69.681  1.00  0.00    -0.316 C  
HETATM   10  N   UNL     1     -12.518  14.522  68.551  1.00  0.00    -0.548 NA 
HETATM   11  H1  UNL     1     -13.059  13.717  68.236  1.00  0.00     0.000 HD 
HETATM   12  H2  UNL     1     -11.982  14.941  67.792  1.00  0.00     0.000 HD 
ENDBRANCH   7   9
ENDBRANCH   6   7
ENDBRANCH   5   6
ENDBRANCH   3   5
ENDBRANCH   2   3
TORSDOF 5
ENDMDL
MODEL       30
REMARK 921   NORMALIZED FREE ENERGY PREDICTED BY IDOCK:   -3.33 KCAL/MOL
REMARK 922        TOTAL FREE ENERGY PREDICTED BY IDOCK:   -4.75 KCAL/MOL
REMARK 923 INTER-LIGAND FREE ENERGY PREDICTED BY IDOCK:   -4.52 KCAL/MOL
REMARK 924 INTRA-LIGAND FREE ENERGY PREDICTED BY IDOCK:   -0.22 KCAL/MOL
REMARK 927      BINDING AFFINITY PREDICTED BY RF-SCORE:    0.00 PKD
ROOT
HETATM    1  C   UNL     1     -12.295  14.274  65.187  1.00  0.00    -0.424 C  
HETATM    2  O   UNL     1     -12.434  13.887  63.819  1.00  0.00    -0.706 OA 
ENDROOT
BRANCH   2   3
HETATM    3  C   UNL     1     -12.172  12.571  63.586  1.00  0.00    -0.550 C  
HETATM    4  O   UNL     1     -12.997  11.740  63.230  1.00  0.00    -0.633 OA 
BRANCH   3   5
HETATM    5  C   UNL     1     -10.711  12.291  63.824  1.00  0.00    -0.494 C  
BRANCH   5   6
HETATM    6  C   UNL     1     -10.524  10.964  64.548  1.00  0.00    -0.393 C  
BRANCH   6   7
HETATM    7  C   UNL     1      -9.956  11.141  65.942  1.00  0.00    -0.239 C  
HETATM    8  O   UNL     1      -8.851  11.653  66.140  1.00  0.00    -0.196 OA 
BRANCH   7   9
HETATM    9  C   UNL     1     -10.801  10.573  67.082  1.00  0.00    -0.259 C  
HETATM   10  N   UNL     1     -11.816  11.543  67.495  1.00  0.00    -0.631 NA 
HETATM   11  H1  UNL     1     -12.380  11.164  68.257  1.00  0.00     0.000 HD 
HETATM   12  H2  UNL     1     -12.391  11.849  66.711  1.00  0.00     0.000 HD 
ENDBRANCH   7   9
ENDBRANCH   6   7
ENDBRANCH   5   6
ENDBRANCH   3   5
ENDBRANCH   2   3
TORSDOF 5
ENDMDL
MODEL       31
REMARK 921   NORMALIZED FREE ENERGY PREDICTED BY IDOCK:   -3.32 KCAL/MOL
REMARK 922        TOTAL FREE ENERGY PREDICTED BY IDOCK:   -4.73 KCAL/MOL
REMARK 923 INTER-LIGAND FREE ENERGY PREDICTED BY IDOCK:   -4.59 KCAL/MOL
REMARK 924 INTRA-LIGAND FREE ENERGY PREDICTED BY IDOCK:   -0.15 KCAL/MOL
REMARK 927      BINDING AFFINITY PREDICTED BY RF-SCORE:    0.00 PKD
ROOT
HETATM    1  C   UNL     1     -10.599  15.045  66.154  1.00  0.00    -0.310 C  
HETATM    2  O   UNL     1     -10.653  14.539  64.818  1.00  0.00    -0.425 OA 
ENDROOT
BRANCH   2   3
HETATM    3  C   UNL     1     -11.912  14.243  64.389  1.00  0.00    -0.456 C  
HETATM    4  O   UNL     1     -12.657  15.017  63.804  1.00  0.00    -0.776 OA 
BRANCH   3   5
HETATM    5  C   UNL     1     -12.247  12.816  64.736  1.00  0.00    -0.517 C  
BRANCH   5   6
HETATM    6  C   UNL     1     -11.759  11.865  63.651  1.00  0.00    -0.572 C  
BRANCH   6   7
HETATM    7  C   UNL     1     -10.371  11.327  63.936  1.00  0.00    -0.381 C  
HETATM    8  O   UNL     1      -9.938  11.206  65.085  1.00  0.00    -0.240 OA 
BRANCH   7   9
HETATM    9  C   UNL     1      -9.511  11.020  62.710  1.00  0.00    -0.334 C  
HETATM   10  N   UNL     1      -9.472   9.578  62.464  1.00  0.00    -0.575 NA 
HETATM   11  H1  UNL     1      -8.898   9.373  61.646  1.00  0.00     0.000 HD 
HETATM   12  H2  UNL     1     -10.407   9.180  62.382  1.00  0.00     0.000 HD 
ENDBRANCH   7   9
ENDBRANCH   6   7
ENDBRANCH   5   6
ENDBRANCH   3   5
ENDBRANCH   2   3
TORSDOF 5
ENDMDL
MODEL       32
REMARK 921   NORMALIZED FREE ENERGY PREDICTED BY IDOCK:   -3.30 KCAL/MOL
REMARK 922        TOTAL FREE ENERGY PREDICTED BY IDOCK:   -4.71 KCAL/MOL
REMARK 923 INTER-LIGAND FREE ENERGY PREDICTED BY IDOCK:   -4.60 KCAL/MOL
REMARK 924 INTRA-LIGAND FREE ENERGY PREDICTED BY IDOCK:   -0.11 KCAL/MOL
REMARK 927      BINDING AFFINITY PREDICTED BY RF-SCORE:    0.00 PKD
ROOT
HETATM    1  C   UNL     1     -11.573   9.844  70.967  1.00  0.00    -0.389 C  
HETATM    2  O   UNL     1     -12.492  10.930  70.829  1.00  0.00    -0.335 OA 
ENDROOT
BRANCH   2   3
HETATM    3  C   UNL     1     -12.249  11.728  69.752  1.00  0.00    -0.203 C  
HETATM    4  O   UNL     1     -12.130  11.337  68.598  1.00  0.00    -0.543 OA 
BRANCH   3   5
HETATM    5  C   UNL     1     -12.159  13.166  70.191  1.00  0.00    -0.392 C  
BRANCH   5   6
HETATM    6  C   UNL     1     -12.914  13.383  71.496  1.00  0.00    -0.429 C  
BRANCH   6   7
HETATM    7  C   UNL     1     -13.071  14.852  71.835  1.00  0.00    -0.338 C  
HETATM    8  O   UNL     1     -13.508  15.670  71.021  1.00  0.00    -0.575 OA 
BRANCH   7   9
HETATM    9  C   UNL     1     -12.576  15.272  73.219  1.00  0.00    -0.499 C  
HETATM   10  N   UNL     1     -13.515  16.214  73.830  1.00  0.00    -0.898 NA 
HETATM   11  H1  UNL     1     -13.185  16.495  74.754  1.00  0.00     0.000 HD 
HETATM   12  H2  UNL     1     -14.463  15.840  73.862  1.00  0.00     0.000 HD 
ENDBRANCH   7   9
ENDBRANCH   6   7
ENDBRANCH   5   6
ENDBRANCH   3   5
ENDBRANCH   2   3
TORSDOF 5
ENDMDL
MODEL       33
REMARK 921   NORMALIZED FREE ENERGY PREDICTED BY IDOCK:   -3.29 KCAL/MOL
REMARK 922        TOTAL FREE ENERGY PREDICTED BY IDOCK:   -4.69 KCAL/MOL
REMARK 923 INTER-LIGAND FREE ENERGY PREDICTED BY IDOCK:   -4.58 KCAL/MOL
REMARK 924 INTRA-LIGAND FREE ENERGY PREDICTED BY IDOCK:   -0.11 KCAL/MOL
REMARK 927      BINDING AFFINITY PREDICTED BY RF-SCORE:    0.00 PKD
ROOT
HETATM    1  C   UNL     1     -11.912  13.010  66.204  1.00  0.00    -0.427 C  
HETATM    2  O   UNL     1     -11.883  14.202  66.992  1.00  0.00    -0.388 OA 
ENDROOT
BRANCH   2   3
HETATM    3  C   UNL     1     -11.677  13.982  68.321  1.00  0.00    -0.357 C  
HETATM    4  O   UNL     1     -11.477  12.889  68.832  1.00  0.00    -0.263 OA 
BRANCH   3   5
HETATM    5  C   UNL     1     -11.723  15.290  69.067  1.00  0.00    -0.368 C  
BRANCH   5   6
HETATM    6  C   UNL     1     -11.422  15.082  70.546  1.00  0.00    -0.333 C  
BRANCH   6   7
HETATM    7  C   UNL     1     -12.537  15.587  71.440  1.00  0.00    -0.431 C  
HETATM    8  O   UNL     1     -13.713  15.614  71.069  1.00  0.00    -0.582 OA 
BRANCH   7   9
HETATM    9  C   UNL     1     -12.103  16.139  72.798  1.00  0.00    -0.553 C  
HETATM   10  N   UNL     1     -13.177  15.977  73.779  1.00  0.00    -0.878 NA 
HETATM   11  H1  UNL     1     -12.887  16.345  74.686  1.00  0.00     0.000 HD 
HETATM   12  H2  UNL     1     -13.489  15.008  73.844  1.00  0.00     0.000 HD 
ENDBRANCH   7   9
ENDBRANCH   6   7
ENDBRANCH   5   6
ENDBRANCH   3   5
ENDBRANCH   2   3
TORSDOF 5
ENDMDL
MODEL       34
REMARK 921   NORMALIZED FREE ENERGY PREDICTED BY IDOCK:   -3.29 KCAL/MOL
REMARK 922        TOTAL FREE ENERGY PREDICTED BY IDOCK:   -4.69 KCAL/MOL
REMARK 923 INTER-LIGAND FREE ENERGY PREDICTED BY IDOCK:   -4.58 KCAL/MOL
REMARK 924 INTRA-LIGAND FREE ENERGY PREDICTED BY IDOCK:   -0.10 KCAL/MOL
REMARK 927      BINDING AFFINITY PREDICTED BY RF-SCORE:    0.00 PKD
ROOT
HETATM    1  C   UNL     1     -11.673  12.724  68.182  1.00  0.00    -0.345 C  
HETATM    2  O   UNL     1     -11.849  11.836  67.076  1.00  0.00    -0.599 OA 
ENDROOT
BRANCH   2   3
HETATM    3  C   UNL     1     -11.791  12.447  65.860  1.00  0.00    -0.405 C  
HETATM    4  O   UNL     1     -11.772  11.870  64.781  1.00  0.00    -0.298 OA 
BRANCH   3   5
HETATM    5  C   UNL     1     -11.762  13.943  66.041  1.00  0.00    -0.381 C  
BRANCH   5   6
HETATM    6  C   UNL     1     -11.138  14.624  64.830  1.00  0.00    -0.409 C  
BRANCH   6   7
HETATM    7  C   UNL     1     -11.224  16.135  64.910  1.00  0.00    -0.285 C  
HETATM    8  O   UNL     1     -11.655  16.818  63.977  1.00  0.00    -1.195 OA 
BRANCH   7   9
HETATM    9  C   UNL     1     -10.667  16.767  66.186  1.00  0.00    -0.116 C  
HETATM   10  N   UNL     1      -9.891  17.965  65.863  1.00  0.00    -0.551 NA 
HETATM   11  H1  UNL     1      -9.519  18.387  66.714  1.00  0.00     0.000 HD 
HETATM   12  H2  UNL     1     -10.431  18.632  65.312  1.00  0.00     0.000 HD 
ENDBRANCH   7   9
ENDBRANCH   6   7
ENDBRANCH   5   6
ENDBRANCH   3   5
ENDBRANCH   2   3
TORSDOF 5
ENDMDL
MODEL       35
REMARK 921   NORMALIZED FREE ENERGY PREDICTED BY IDOCK:   -3.28 KCAL/MOL
REMARK 922        TOTAL FREE ENERGY PREDICTED BY IDOCK:   -4.67 KCAL/MOL
REMARK 923 INTER-LIGAND FREE ENERGY PREDICTED BY IDOCK:   -4.72 KCAL/MOL
REMARK 924 INTRA-LIGAND FREE ENERGY PREDICTED BY IDOCK:    0.04 KCAL/MOL
REMARK 927      BINDING AFFINITY PREDICTED BY RF-SCORE:    0.00 PKD
ROOT
HETATM    1  C   UNL     1     -12.323  11.968  63.423  1.00  0.00    -0.523 C  
HETATM    2  O   UNL     1     -12.945  12.524  64.583  1.00  0.00    -0.803 OA 
ENDROOT
BRANCH   2   3
HETATM    3  C   UNL     1     -12.635  13.832  64.804  1.00  0.00    -0.290 C  
HETATM    4  O   UNL     1     -12.637  14.710  63.952  1.00  0.00    -0.834 OA 
BRANCH   3   5
HETATM    5  C   UNL     1     -12.298  14.038  66.258  1.00  0.00    -0.482 C  
BRANCH   5   6
HETATM    6  C   UNL     1     -10.834  14.425  66.426  1.00  0.00    -0.314 C  
BRANCH   6   7
HETATM    7  C   UNL     1     -10.657  15.903  66.711  1.00  0.00    -0.309 C  
HETATM    8  O   UNL     1     -10.461  16.725  65.813  1.00  0.00    -0.389 OA 
BRANCH   7   9
HETATM    9  C   UNL     1     -10.653  16.300  68.187  1.00  0.00    -0.307 C  
HETATM   10  N   UNL     1     -11.885  15.853  68.838  1.00  0.00    -0.465 NA 
HETATM   11  H1  UNL     1     -11.883  16.119  69.823  1.00  0.00     0.000 HD 
HETATM   12  H2  UNL     1     -12.040  14.853  68.713  1.00  0.00     0.000 HD 
ENDBRANCH   7   9
ENDBRANCH   6   7
ENDBRANCH   5   6
ENDBRANCH   3   5
ENDBRANCH   2   3
TORSDOF 5
ENDMDL
MODEL       36
REMARK 921   NORMALIZED FREE ENERGY PREDICTED BY IDOCK:   -3.27 KCAL/MOL
REMARK 922        TOTAL FREE ENERGY PREDICTED BY IDOCK:   -4.67 KCAL/MOL
REMARK 923 INTER-LIGAND FREE ENERGY PREDICTED BY IDOCK:   -4.35 KCAL/MOL
REMARK 924 INTRA-LIGAND FREE ENERGY PREDICTED BY IDOCK:   -0.32 KCAL/MOL
REMARK 927      BINDING AFFINITY PREDICTED BY RF-SCORE:    0.00 PKD
ROOT
HETATM    1  C   UNL     1     -12.252  11.949  63.390  1.00  0.00    -0.450 C  
HETATM    2  O   UNL     1     -11.547  13.178  63.582  1.00  0.00    -0.435 OA 
ENDROOT
BRANCH   2   3
HETATM    3  C   UNL     1     -12.238  14.107  64.299  1.00  0.00    -0.420 C  
HETATM    4  O   UNL     1     -12.591  15.201  63.881  1.00  0.00    -0.794 OA 
BRANCH   3   5
HETATM    5  C   UNL     1     -12.512  13.581  65.685  1.00  0.00    -0.528 C  
BRANCH   5   6
HETATM    6  C   UNL     1     -11.680  14.326  66.721  1.00  0.00    -0.424 C  
BRANCH   6   7
HETATM    7  C   UNL     1     -10.203  14.335  66.379  1.00  0.00    -0.291 C  
HETATM    8  O   UNL     1      -9.656  15.311  65.859  1.00  0.00    -0.313 OA 
BRANCH   7   9
HETATM    9  C   UNL     1      -9.451  13.030  66.641  1.00  0.00    -0.256 C  
HETATM   10  N   UNL     1      -9.359  12.240  65.412  1.00  0.00    -0.436 NA 
HETATM   11  H1  UNL     1      -8.857  11.369  65.587  1.00  0.00     0.000 HD 
HETATM   12  H2  UNL     1      -8.943  12.772  64.648  1.00  0.00     0.000 HD 
ENDBRANCH   7   9
ENDBRANCH   6   7
ENDBRANCH   5   6
ENDBRANCH   3   5
ENDBRANCH   2   3
TORSDOF 5
ENDMDL
MODEL       37
REMARK 921   NORMALIZED FREE ENERGY PREDICTED BY IDOCK:   -3.24 KCAL/MOL
REMARK 922        TOTAL FREE ENERGY PREDICTED BY IDOCK:   -4.62 KCAL/MOL
REMARK 923 INTER-LIGAND FREE ENERGY PREDICTED BY IDOCK:   -4.52 KCAL/MOL
REMARK 924 INTRA-LIGAND FREE ENERGY PREDICTED BY IDOCK:   -0.11 KCAL/MOL
REMARK 927      BINDING AFFINITY PREDICTED BY RF-SCORE:    0.00 PKD
ROOT
HETATM    1  C   UNL     1     -10.640  16.973  66.997  1.00  0.00    -0.226 C  
HETATM    2  O   UNL     1      -9.969  16.554  65.807  1.00  0.00    -0.436 OA 
ENDROOT
BRANCH   2   3
HETATM    3  C   UNL     1     -10.797  16.040  64.856  1.00  0.00    -0.372 C  
HETATM    4  O   UNL     1     -11.521  16.699  64.122  1.00  0.00    -1.131 OA 
BRANCH   3   5
HETATM    5  C   UNL     1     -10.683  14.538  64.837  1.00  0.00    -0.448 C  
BRANCH   5   6
HETATM    6  C   UNL     1     -11.766  13.901  65.700  1.00  0.00    -0.362 C  
BRANCH   6   7
HETATM    7  C   UNL     1     -11.192  13.157  66.889  1.00  0.00    -0.296 C  
HETATM    8  O   UNL     1     -10.577  13.734  67.789  1.00  0.00    -0.242 OA 
BRANCH   7   9
HETATM    9  C   UNL     1     -11.353  11.637  66.864  1.00  0.00    -0.295 C  
HETATM   10  N   UNL     1     -12.104  11.185  68.036  1.00  0.00    -0.711 NA 
HETATM   11  H1  UNL     1     -12.211  10.171  68.019  1.00  0.00     0.000 HD 
HETATM   12  H2  UNL     1     -13.002  11.661  68.119  1.00  0.00     0.000 HD 
ENDBRANCH   7   9
ENDBRANCH   6   7
ENDBRANCH   5   6
ENDBRANCH   3   5
ENDBRANCH   2   3
TORSDOF 5
ENDMDL
MODEL       38
REMARK 921   NORMALIZED FREE ENERGY PREDICTED BY IDOCK:   -3.20 KCAL/MOL
REMARK 922        TOTAL FREE ENERGY PREDICTED BY IDOCK:   -4.57 KCAL/MOL
REMARK 923 INTER-LIGAND FREE ENERGY PREDICTED BY IDOCK:   -4.12 KCAL/MOL
REMARK 924 INTRA-LIGAND FREE ENERGY PREDICTED BY IDOCK:   -0.45 KCAL/MOL
REMARK 927      BINDING AFFINITY PREDICTED BY RF-SCORE:    0.00 PKD
ROOT
HETATM    1  C   UNL     1     -12.153  12.805  63.464  1.00  0.00    -0.559 C  
HETATM    2  O   UNL     1     -12.879  12.326  64.598  1.00  0.00    -0.665 OA 
ENDROOT
BRANCH   2   3
HETATM    3  C   UNL     1     -12.370  12.734  65.794  1.00  0.00    -0.323 C  
HETATM    4  O   UNL     1     -11.998  11.991  66.692  1.00  0.00    -0.614 OA 
BRANCH   3   5
HETATM    5  C   UNL     1     -12.325  14.239  65.843  1.00  0.00    -0.420 C  
BRANCH   5   6
HETATM    6  C   UNL     1     -11.495  14.720  67.026  1.00  0.00    -0.362 C  
BRANCH   6   7
HETATM    7  C   UNL     1     -10.015  14.779  66.707  1.00  0.00    -0.251 C  
HETATM    8  O   UNL     1      -9.591  15.228  65.639  1.00  0.00    -0.336 OA 
BRANCH   7   9
HETATM    9  C   UNL     1      -9.082  14.173  67.757  1.00  0.00    -0.190 C  
HETATM   10  N   UNL     1      -9.808  13.209  68.585  1.00  0.00    -0.400 NA 
HETATM   11  H1  UNL     1      -9.186  12.805  69.286  1.00  0.00     0.000 HD 
HETATM   12  H2  UNL     1     -10.265  12.492  68.023  1.00  0.00     0.000 HD 
ENDBRANCH   7   9
ENDBRANCH   6   7
ENDBRANCH   5   6
ENDBRANCH   3   5
ENDBRANCH   2   3
TORSDOF 5
ENDMDL
MODEL       39
REMARK 921   NORMALIZED FREE ENERGY PREDICTED BY IDOCK:   -3.19 KCAL/MOL
REMARK 922        TOTAL FREE ENERGY PREDICTED BY IDOCK:   -4.57 KCAL/MOL
REMARK 923 INTER-LIGAND FREE ENERGY PREDICTED BY IDOCK:   -4.50 KCAL/MOL
REMARK 924 INTRA-LIGAND FREE ENERGY PREDICTED BY IDOCK:   -0.07 KCAL/MOL
REMARK 927      BINDING AFFINITY PREDICTED BY RF-SCORE:    0.00 PKD
ROOT
HETATM    1  C   UNL     1     -12.306  13.166  63.931  1.00  0.00    -0.365 C  
HETATM    2  O   UNL     1     -12.963  12.751  65.130  1.00  0.00    -0.768 OA 
ENDROOT
BRANCH   2   3
HETATM    3  C   UNL     1     -12.156  12.739  66.228  1.00  0.00    -0.332 C  
HETATM    4  O   UNL     1     -11.586  11.752  66.672  1.00  0.00    -0.490 OA 
BRANCH   3   5
HETATM    5  C   UNL     1     -12.064  14.126  66.809  1.00  0.00    -0.474 C  
BRANCH   5   6
HETATM    6  C   UNL     1     -11.549  14.080  68.242  1.00  0.00    -0.364 C  
BRANCH   6   7
HETATM    7  C   UNL     1     -11.731  15.400  68.964  1.00  0.00    -0.361 C  
HETATM    8  O   UNL     1     -11.222  16.447  68.556  1.00  0.00    -0.358 OA 
BRANCH   7   9
HETATM    9  C   UNL     1     -12.517  15.339  70.274  1.00  0.00    -0.363 C  
HETATM   10  N   UNL     1     -11.963  16.286  71.243  1.00  0.00    -0.622 NA 
HETATM   11  H1  UNL     1     -12.487  16.246  72.118  1.00  0.00     0.000 HD 
HETATM   12  H2  UNL     1     -11.921  17.234  70.868  1.00  0.00     0.000 HD 
ENDBRANCH   7   9
ENDBRANCH   6   7
ENDBRANCH   5   6
ENDBRANCH   3   5
ENDBRANCH   2   3
TORSDOF 5
ENDMDL
MODEL       40
REMARK 921   NORMALIZED FREE ENERGY PREDICTED BY IDOCK:   -3.17 KCAL/MOL
REMARK 922        TOTAL FREE ENERGY PREDICTED BY IDOCK:   -4.53 KCAL/MOL
REMARK 923 INTER-LIGAND FREE ENERGY PREDICTED BY IDOCK:   -4.36 KCAL/MOL
REMARK 924 INTRA-LIGAND FREE ENERGY PREDICTED BY IDOCK:   -0.17 KCAL/MOL
REMARK 927      BINDING AFFINITY PREDICTED BY RF-SCORE:    0.00 PKD
ROOT
HETATM    1  C   UNL     1     -11.277  15.860  70.321  1.00  0.00    -0.380 C  
HETATM    2  O   UNL     1     -12.697  15.890  70.483  1.00  0.00    -0.387 OA 
ENDROOT
BRANCH   2   3
HETATM    3  C   UNL     1     -13.120  15.538  71.729  1.00  0.00    -0.466 C  
HETATM    4  O   UNL     1     -12.760  16.068  72.771  1.00  0.00    -0.435 OA 
BRANCH   3   5
HETATM    5  C   UNL     1     -14.105  14.403  71.632  1.00  0.00    -0.511 C  
BRANCH   5   6
HETATM    6  C   UNL     1     -13.614  13.190  72.413  1.00  0.00    -0.667 C  
BRANCH   6   7
HETATM    7  C   UNL     1     -12.924  12.173  71.526  1.00  0.00    -0.295 C  
HETATM    8  O   UNL     1     -12.280  12.503  70.528  1.00  0.00    -0.365 OA 
BRANCH   7   9
HETATM    9  C   UNL     1     -13.144  10.707  71.899  1.00  0.00    -0.458 C  
HETATM   10  N   UNL     1     -11.984   9.904  71.512  1.00  0.00    -0.396 NA 
HETATM   11  H1  UNL     1     -12.131   8.925  71.761  1.00  0.00     0.000 HD 
HETATM   12  H2  UNL     1     -11.118  10.271  71.908  1.00  0.00     0.000 HD 
ENDBRANCH   7   9
ENDBRANCH   6   7
ENDBRANCH   5   6
ENDBRANCH   3   5
ENDBRANCH   2   3
TORSDOF 5
ENDMDL
MODEL       41
REMARK 921   NORMALIZED FREE ENERGY PREDICTED BY IDOCK:   -3.15 KCAL/MOL
REMARK 922        TOTAL FREE ENERGY PREDICTED BY IDOCK:   -4.51 KCAL/MOL
REMARK 923 INTER-LIGAND FREE ENERGY PREDICTED BY IDOCK:   -4.44 KCAL/MOL
REMARK 924 INTRA-LIGAND FREE ENERGY PREDICTED BY IDOCK:   -0.07 KCAL/MOL
REMARK 927      BINDING AFFINITY PREDICTED BY RF-SCORE:    0.00 PKD
ROOT
HETATM    1  C   UNL     1     -13.824   9.047  72.391  1.00  0.00    -0.475 C  
HETATM    2  O   UNL     1     -12.618   9.644  71.911  1.00  0.00    -0.377 OA 
ENDROOT
BRANCH   2   3
HETATM    3  C   UNL     1     -12.789  10.885  71.376  1.00  0.00    -0.449 C  
HETATM    4  O   UNL     1     -13.283  11.841  71.958  1.00  0.00    -0.506 OA 
BRANCH   3   5
HETATM    5  C   UNL     1     -12.271  10.908  69.962  1.00  0.00    -0.422 C  
BRANCH   5   6
HETATM    6  C   UNL     1     -11.757  12.294  69.594  1.00  0.00    -0.386 C  
BRANCH   6   7
HETATM    7  C   UNL     1     -11.898  12.589  68.114  1.00  0.00    -0.317 C  
HETATM    8  O   UNL     1     -12.027  11.693  67.277  1.00  0.00    -0.627 OA 
BRANCH   7   9
HETATM    9  C   UNL     1     -11.788  14.060  67.715  1.00  0.00    -0.384 C  
HETATM   10  N   UNL     1     -12.564  14.317  66.501  1.00  0.00    -0.500 NA 
HETATM   11  H1  UNL     1     -12.490  15.300  66.234  1.00  0.00     0.000 HD 
HETATM   12  H2  UNL     1     -13.535  14.022  66.600  1.00  0.00     0.000 HD 
ENDBRANCH   7   9
ENDBRANCH   6   7
ENDBRANCH   5   6
ENDBRANCH   3   5
ENDBRANCH   2   3
TORSDOF 5
ENDMDL
MODEL       42
REMARK 921   NORMALIZED FREE ENERGY PREDICTED BY IDOCK:   -3.15 KCAL/MOL
REMARK 922        TOTAL FREE ENERGY PREDICTED BY IDOCK:   -4.51 KCAL/MOL
REMARK 923 INTER-LIGAND FREE ENERGY PREDICTED BY IDOCK:   -4.06 KCAL/MOL
REMARK 924 INTRA-LIGAND FREE ENERGY PREDICTED BY IDOCK:   -0.45 KCAL/MOL
REMARK 927      BINDING AFFINITY PREDICTED BY RF-SCORE:    0.00 PKD
ROOT
HETATM    1  C   UNL     1      -9.812  16.517  68.693  1.00  0.00    -0.250 C  
HETATM    2  O   UNL     1     -10.904  17.105  67.983  1.00  0.00    -0.378 OA 
ENDROOT
BRANCH   2   3
HETATM    3  C   UNL     1     -10.532  18.069  67.095  1.00  0.00    -0.367 C  
HETATM    4  O   UNL     1     -10.362  17.895  65.896  1.00  0.00    -0.525 OA 
BRANCH   3   5
HETATM    5  C   UNL     1     -10.369  19.385  67.809  1.00  0.00    -0.547 C  
BRANCH   5   6
HETATM    6  C   UNL     1      -9.443  20.313  67.033  1.00  0.00    -0.546 C  
BRANCH   6   7
HETATM    7  C   UNL     1      -7.979  19.996  67.267  1.00  0.00    -0.313 C  
HETATM    8  O   UNL     1      -7.489  19.958  68.398  1.00  0.00    -0.312 OA 
BRANCH   7   9
HETATM    9  C   UNL     1      -7.129  19.808  66.010  1.00  0.00    -0.283 C  
HETATM   10  N   UNL     1      -7.193  18.418  65.557  1.00  0.00    -0.542 NA 
HETATM   11  H1  UNL     1      -6.626  18.292  64.718  1.00  0.00     0.000 HD 
HETATM   12  H2  UNL     1      -8.154  18.107  65.416  1.00  0.00     0.000 HD 
ENDBRANCH   7   9
ENDBRANCH   6   7
ENDBRANCH   5   6
ENDBRANCH   3   5
ENDBRANCH   2   3
TORSDOF 5
ENDMDL
MODEL       43
REMARK 921   NORMALIZED FREE ENERGY PREDICTED BY IDOCK:   -3.15 KCAL/MOL
REMARK 922        TOTAL FREE ENERGY PREDICTED BY IDOCK:   -4.51 KCAL/MOL
REMARK 923 INTER-LIGAND FREE ENERGY PREDICTED BY IDOCK:   -4.10 KCAL/MOL
REMARK 924 INTRA-LIGAND FREE ENERGY PREDICTED BY IDOCK:   -0.41 KCAL/MOL
REMARK 927      BINDING AFFINITY PREDICTED BY RF-SCORE:    0.00 PKD
ROOT
HETATM    1  C   UNL     1      -8.877  16.892  67.965  1.00  0.00    -0.216 C  
HETATM    2  O   UNL     1      -8.748  15.821  67.028  1.00  0.00    -0.192 OA 
ENDROOT
BRANCH   2   3
HETATM    3  C   UNL     1      -9.870  15.596  66.288  1.00  0.00    -0.295 C  
HETATM    4  O   UNL     1     -10.269  16.309  65.378  1.00  0.00    -0.518 OA 
BRANCH   3   5
HETATM    5  C   UNL     1     -10.541  14.329  66.752  1.00  0.00    -0.278 C  
BRANCH   5   6
HETATM    6  C   UNL     1     -12.002  14.301  66.323  1.00  0.00    -0.428 C  
BRANCH   6   7
HETATM    7  C   UNL     1     -12.259  13.303  65.212  1.00  0.00    -0.448 C  
HETATM    8  O   UNL     1     -12.624  12.147  65.440  1.00  0.00    -0.480 OA 
BRANCH   7   9
HETATM    9  C   UNL     1     -11.960  13.793  63.795  1.00  0.00    -0.321 C  
HETATM   10  N   UNL     1     -12.394  15.181  63.634  1.00  0.00    -0.920 NA 
HETATM   11  H1  UNL     1     -12.194  15.508  62.688  1.00  0.00     0.000 HD 
HETATM   12  H2  UNL     1     -11.987  15.792  64.342  1.00  0.00     0.000 HD 
ENDBRANCH   7   9
ENDBRANCH   6   7
ENDBRANCH   5   6
ENDBRANCH   3   5
ENDBRANCH   2   3
TORSDOF 5
ENDMDL
MODEL       44
REMARK 921   NORMALIZED FREE ENERGY PREDICTED BY IDOCK:   -3.14 KCAL/MOL
REMARK 922        TOTAL FREE ENERGY PREDICTED BY IDOCK:   -4.50 KCAL/MOL
REMARK 923 INTER-LIGAND FREE ENERGY PREDICTED BY IDOCK:   -4.28 KCAL/MOL
REMARK 924 INTRA-LIGAND FREE ENERGY PREDICTED BY IDOCK:   -0.22 KCAL/MOL
REMARK 927      BINDING AFFINITY PREDICTED BY RF-SCORE:    0.00 PKD
ROOT
HETATM    1  C   UNL     1     -10.787   7.193  70.622  1.00  0.00    -0.245 C  
HETATM    2  O   UNL     1     -12.050   6.542  70.768  1.00  0.00    -0.362 OA 
ENDROOT
BRANCH   2   3
HETATM    3  C   UNL     1     -12.993   7.299  71.396  1.00  0.00    -0.373 C  
HETATM    4  O   UNL     1     -14.190   7.045  71.433  1.00  0.00    -0.325 OA 
BRANCH   3   5
HETATM    5  C   UNL     1     -12.341   8.491  72.046  1.00  0.00    -0.423 C  
BRANCH   5   6
HETATM    6  C   UNL     1     -13.330   9.642  72.184  1.00  0.00    -0.545 C  
BRANCH   6   7
HETATM    7  C   UNL     1     -12.823  10.919  71.545  1.00  0.00    -0.454 C  
HETATM    8  O   UNL     1     -13.254  12.029  71.865  1.00  0.00    -0.480 OA 
BRANCH   7   9
HETATM    9  C   UNL     1     -11.802  10.741  70.420  1.00  0.00    -0.358 C  
HETATM   10  N   UNL     1     -12.485  10.528  69.143  1.00  0.00    -0.712 NA 
HETATM   11  H1  UNL     1     -11.804  10.409  68.393  1.00  0.00     0.000 HD 
HETATM   12  H2  UNL     1     -13.150  11.273  68.939  1.00  0.00     0.000 HD 
ENDBRANCH   7   9
ENDBRANCH   6   7
ENDBRANCH   5   6
ENDBRANCH   3   5
ENDBRANCH   2   3
TORSDOF 5
ENDMDL
MODEL       45
REMARK 921   NORMALIZED FREE ENERGY PREDICTED BY IDOCK:   -3.14 KCAL/MOL
REMARK 922        TOTAL FREE ENERGY PREDICTED BY IDOCK:   -4.49 KCAL/MOL
REMARK 923 INTER-LIGAND FREE ENERGY PREDICTED BY IDOCK:   -4.07 KCAL/MOL
REMARK 924 INTRA-LIGAND FREE ENERGY PREDICTED BY IDOCK:   -0.42 KCAL/MOL
REMARK 927      BINDING AFFINITY PREDICTED BY RF-SCORE:    0.00 PKD
ROOT
HETATM    1  C   UNL     1      -6.366  20.760  67.486  1.00  0.00    -0.292 C  
HETATM    2  O   UNL     1      -7.540  20.036  67.860  1.00  0.00    -0.290 OA 
ENDROOT
BRANCH   2   3
HETATM    3  C   UNL     1      -8.373  19.756  66.819  1.00  0.00    -0.319 C  
HETATM    4  O   UNL     1      -8.027  19.268  65.752  1.00  0.00    -0.446 OA 
BRANCH   3   5
HETATM    5  C   UNL     1      -9.787  20.128  67.182  1.00  0.00    -0.586 C  
BRANCH   5   6
HETATM    6  C   UNL     1     -10.747  18.990  66.860  1.00  0.00    -0.484 C  
BRANCH   6   7
HETATM    7  C   UNL     1     -10.486  17.757  67.702  1.00  0.00    -0.388 C  
HETATM    8  O   UNL     1     -10.409  17.807  68.932  1.00  0.00    -0.368 OA 
BRANCH   7   9
HETATM    9  C   UNL     1     -10.241  16.462  66.927  1.00  0.00    -0.290 C  
HETATM   10  N   UNL     1     -10.171  16.734  65.491  1.00  0.00    -0.607 NA 
HETATM   11  H1  UNL     1     -10.008  15.869  64.974  1.00  0.00     0.000 HD 
HETATM   12  H2  UNL     1      -9.474  17.445  65.272  1.00  0.00     0.000 HD 
ENDBRANCH   7   9
ENDBRANCH   6   7
ENDBRANCH   5   6
ENDBRANCH   3   5
ENDBRANCH   2   3
TORSDOF 5
ENDMDL
MODEL       46
REMARK 921   NORMALIZED FREE ENERGY PREDICTED BY IDOCK:   -3.09 KCAL/MOL
REMARK 922        TOTAL FREE ENERGY PREDICTED BY IDOCK:   -4.44 KCAL/MOL
REMARK 923 INTER-LIGAND FREE ENERGY PREDICTED BY IDOCK:   -4.13 KCAL/MOL
REMARK 924 INTRA-LIGAND FREE ENERGY PREDICTED BY IDOCK:   -0.31 KCAL/MOL
REMARK 927      BINDING AFFINITY PREDICTED BY RF-SCORE:    0.00 PKD
ROOT
HETATM    1  C   UNL     1     -12.880  11.028  71.141  1.00  0.00    -0.392 C  
HETATM    2  O   UNL     1     -12.339  12.264  70.671  1.00  0.00    -0.354 OA 
ENDROOT
BRANCH   2   3
HETATM    3  C   UNL     1     -11.899  12.222  69.383  1.00  0.00    -0.310 C  
HETATM    4  O   UNL     1     -12.180  11.352  68.570  1.00  0.00    -0.557 OA 
BRANCH   3   5
HETATM    5  C   UNL     1     -11.019  13.413  69.105  1.00  0.00    -0.213 C  
BRANCH   5   6
HETATM    6  C   UNL     1     -11.857  14.652  68.816  1.00  0.00    -0.348 C  
BRANCH   6   7
HETATM    7  C   UNL     1     -11.584  15.775  69.795  1.00  0.00    -0.355 C  
HETATM    8  O   UNL     1     -10.713  16.625  69.593  1.00  0.00    -0.326 OA 
BRANCH   7   9
HETATM    9  C   UNL     1     -12.399  15.743  71.089  1.00  0.00    -0.427 C  
HETATM   10  N   UNL     1     -13.779  15.343  70.811  1.00  0.00    -0.845 NA 
HETATM   11  H1  UNL     1     -14.322  15.322  71.674  1.00  0.00     0.000 HD 
HETATM   12  H2  UNL     1     -13.824  14.455  70.311  1.00  0.00     0.000 HD 
ENDBRANCH   7   9
ENDBRANCH   6   7
ENDBRANCH   5   6
ENDBRANCH   3   5
ENDBRANCH   2   3
TORSDOF 5
ENDMDL
MODEL       47
REMARK 921   NORMALIZED FREE ENERGY PREDICTED BY IDOCK:   -3.04 KCAL/MOL
REMARK 922        TOTAL FREE ENERGY PREDICTED BY IDOCK:   -4.37 KCAL/MOL
REMARK 923 INTER-LIGAND FREE ENERGY PREDICTED BY IDOCK:   -4.26 KCAL/MOL
REMARK 924 INTRA-LIGAND FREE ENERGY PREDICTED BY IDOCK:   -0.11 KCAL/MOL
REMARK 927      BINDING AFFINITY PREDICTED BY RF-SCORE:    0.00 PKD
ROOT
HETATM    1  C   UNL     1     -11.801   7.621  72.287  1.00  0.00    -0.308 C  
HETATM    2  O   UNL     1     -11.812   9.050  72.313  1.00  0.00    -0.334 OA 
ENDROOT
BRANCH   2   3
HETATM    3  C   UNL     1     -13.033   9.598  72.058  1.00  0.00    -0.428 C  
HETATM    4  O   UNL     1     -14.104   9.137  72.428  1.00  0.00    -0.465 OA 
BRANCH   3   5
HETATM    5  C   UNL     1     -12.867  10.863  71.257  1.00  0.00    -0.536 C  
BRANCH   5   6
HETATM    6  C   UNL     1     -11.950  10.633  70.062  1.00  0.00    -0.408 C  
BRANCH   6   7
HETATM    7  C   UNL     1     -12.003  11.773  69.065  1.00  0.00    -0.280 C  
HETATM    8  O   UNL     1     -12.104  11.578  67.851  1.00  0.00    -0.630 OA 
BRANCH   7   9
HETATM    9  C   UNL     1     -11.841  13.176  69.649  1.00  0.00    -0.324 C  
HETATM   10  N   UNL     1     -12.318  14.181  68.698  1.00  0.00    -0.543 NA 
HETATM   11  H1  UNL     1     -12.210  15.118  69.087  1.00  0.00     0.000 HD 
HETATM   12  H2  UNL     1     -13.278  14.000  68.403  1.00  0.00     0.000 HD 
ENDBRANCH   7   9
ENDBRANCH   6   7
ENDBRANCH   5   6
ENDBRANCH   3   5
ENDBRANCH   2   3
TORSDOF 5
ENDMDL
MODEL       48
REMARK 921   NORMALIZED FREE ENERGY PREDICTED BY IDOCK:   -3.03 KCAL/MOL
REMARK 922        TOTAL FREE ENERGY PREDICTED BY IDOCK:   -4.36 KCAL/MOL
REMARK 923 INTER-LIGAND FREE ENERGY PREDICTED BY IDOCK:   -3.99 KCAL/MOL
REMARK 924 INTRA-LIGAND FREE ENERGY PREDICTED BY IDOCK:   -0.37 KCAL/MOL
REMARK 927      BINDING AFFINITY PREDICTED BY RF-SCORE:    0.00 PKD
ROOT
HETATM    1  C   UNL     1     -11.938  13.534  69.533  1.00  0.00    -0.334 C  
HETATM    2  O   UNL     1     -11.612  14.051  68.241  1.00  0.00    -0.290 OA 
ENDROOT
BRANCH   2   3
HETATM    3  C   UNL     1     -10.368  13.709  67.805  1.00  0.00    -0.241 C  
HETATM    4  O   UNL     1      -9.688  12.798  68.258  1.00  0.00    -0.218 OA 
BRANCH   3   5
HETATM    5  C   UNL     1      -9.956  14.617  66.676  1.00  0.00    -0.281 C  
BRANCH   5   6
HETATM    6  C   UNL     1     -11.061  15.613  66.349  1.00  0.00    -0.123 C  
BRANCH   6   7
HETATM    7  C   UNL     1     -11.510  15.524  64.904  1.00  0.00    -0.279 C  
HETATM    8  O   UNL     1     -11.567  16.515  64.173  1.00  0.00    -1.052 OA 
BRANCH   7   9
HETATM    9  C   UNL     1     -11.968  14.143  64.434  1.00  0.00    -0.457 C  
HETATM   10  N   UNL     1     -13.046  13.646  65.289  1.00  0.00    -0.716 NA 
HETATM   11  H1  UNL     1     -13.352  12.724  64.975  1.00  0.00     0.000 HD 
HETATM   12  H2  UNL     1     -13.822  14.305  65.345  1.00  0.00     0.000 HD 
ENDBRANCH   7   9
ENDBRANCH   6   7
ENDBRANCH   5   6
ENDBRANCH   3   5
ENDBRANCH   2   3
TORSDOF 5
ENDMDL
MODEL       49
REMARK 921   NORMALIZED FREE ENERGY PREDICTED BY IDOCK:   -3.03 KCAL/MOL
REMARK 922        TOTAL FREE ENERGY PREDICTED BY IDOCK:   -4.36 KCAL/MOL
REMARK 923 INTER-LIGAND FREE ENERGY PREDICTED BY IDOCK:   -4.17 KCAL/MOL
REMARK 924 INTRA-LIGAND FREE ENERGY PREDICTED BY IDOCK:   -0.19 KCAL/MOL
REMARK 927      BINDING AFFINITY PREDICTED BY RF-SCORE:    0.00 PKD
ROOT
HETATM    1  C   UNL     1     -11.302  11.620  65.137  1.00  0.00    -0.156 C  
HETATM    2  O   UNL     1     -11.626  11.944  66.491  1.00  0.00    -0.463 OA 
ENDROOT
BRANCH   2   3
HETATM    3  C   UNL     1     -10.581  12.452  67.203  1.00  0.00    -0.224 C  
HETATM    4  O   UNL     1     -10.238  12.076  68.316  1.00  0.00    -0.195 OA 
BRANCH   3   5
HETATM    5  C   UNL     1      -9.906  13.542  66.412  1.00  0.00    -0.299 C  
BRANCH   5   6
HETATM    6  C   UNL     1     -10.312  14.917  66.926  1.00  0.00    -0.264 C  
BRANCH   6   7
HETATM    7  C   UNL     1     -10.567  15.901  65.802  1.00  0.00    -0.355 C  
HETATM    8  O   UNL     1     -10.300  17.101  65.908  1.00  0.00    -0.433 OA 
BRANCH   7   9
HETATM    9  C   UNL     1     -11.252  15.331  64.560  1.00  0.00    -0.280 C  
HETATM   10  N   UNL     1     -11.747  16.414  63.710  1.00  0.00    -1.498 NA 
HETATM   11  H1  UNL     1     -12.205  16.033  62.881  1.00  0.00     0.000 HD 
HETATM   12  H2  UNL     1     -11.010  17.075  63.467  1.00  0.00     0.000 HD 
ENDBRANCH   7   9
ENDBRANCH   6   7
ENDBRANCH   5   6
ENDBRANCH   3   5
ENDBRANCH   2   3
TORSDOF 5
ENDMDL
MODEL       50
REMARK 921   NORMALIZED FREE ENERGY PREDICTED BY IDOCK:   -3.02 KCAL/MOL
REMARK 922        TOTAL FREE ENERGY PREDICTED BY IDOCK:   -4.34 KCAL/MOL
REMARK 923 INTER-LIGAND FREE ENERGY PREDICTED BY IDOCK:   -4.18 KCAL/MOL
REMARK 924 INTRA-LIGAND FREE ENERGY PREDICTED BY IDOCK:   -0.16 KCAL/MOL
REMARK 927      BINDING AFFINITY PREDICTED BY RF-SCORE:    0.00 PKD
ROOT
HETATM    1  C   UNL     1      -8.595   7.000  69.505  1.00  0.00    -0.134 C  
HETATM    2  O   UNL     1      -9.719   7.877  69.415  1.00  0.00    -0.167 OA 
ENDROOT
BRANCH   2   3
HETATM    3  C   UNL     1     -10.892   7.317  69.825  1.00  0.00    -0.235 C  
HETATM    4  O   UNL     1     -11.513   6.457  69.216  1.00  0.00    -0.381 OA 
BRANCH   3   5
HETATM    5  C   UNL     1     -11.307   7.912  71.145  1.00  0.00    -0.289 C  
BRANCH   5   6
HETATM    6  C   UNL     1     -11.485   9.420  71.029  1.00  0.00    -0.403 C  
BRANCH   6   7
HETATM    7  C   UNL     1     -12.838   9.882  71.533  1.00  0.00    -0.421 C  
HETATM    8  O   UNL     1     -13.088  11.071  71.745  1.00  0.00    -0.469 OA 
BRANCH   7   9
HETATM    9  C   UNL     1     -13.847   8.776  71.840  1.00  0.00    -0.442 C  
HETATM   10  N   UNL     1     -14.264   8.843  73.241  1.00  0.00    -1.237 NA 
HETATM   11  H1  UNL     1     -14.938   8.105  73.447  1.00  0.00     0.000 HD 
HETATM   12  H2  UNL     1     -14.624   9.765  73.487  1.00  0.00     0.000 HD 
ENDBRANCH   7   9
ENDBRANCH   6   7
ENDBRANCH   5   6
ENDBRANCH   3   5
ENDBRANCH   2   3
TORSDOF 5
ENDMDL
MODEL       51
REMARK 921   NORMALIZED FREE ENERGY PREDICTED BY IDOCK:   -3.01 KCAL/MOL
REMARK 922        TOTAL FREE ENERGY PREDICTED BY IDOCK:   -4.33 KCAL/MOL
REMARK 923 INTER-LIGAND FREE ENERGY PREDICTED BY IDOCK:   -4.16 KCAL/MOL
REMARK 924 INTRA-LIGAND FREE ENERGY PREDICTED BY IDOCK:   -0.17 KCAL/MOL
REMARK 927      BINDING AFFINITY PREDICTED BY RF-SCORE:    0.00 PKD
ROOT
HETATM    1  C   UNL     1     -11.664  15.597  71.041  1.00  0.00    -0.403 C  
HETATM    2  O   UNL     1     -11.973  15.253  69.689  1.00  0.00    -0.315 OA 
ENDROOT
BRANCH   2   3
HETATM    3  C   UNL     1     -11.302  15.993  68.763  1.00  0.00    -0.380 C  
HETATM    4  O   UNL     1     -10.975  17.164  68.899  1.00  0.00    -0.236 OA 
BRANCH   3   5
HETATM    5  C   UNL     1     -11.015  15.152  67.547  1.00  0.00    -0.310 C  
BRANCH   5   6
HETATM    6  C   UNL     1     -11.034  13.669  67.896  1.00  0.00    -0.277 C  
BRANCH   6   7
HETATM    7  C   UNL     1     -11.898  12.862  66.947  1.00  0.00    -0.379 C  
HETATM    8  O   UNL     1     -11.938  11.630  66.984  1.00  0.00    -0.593 OA 
BRANCH   7   9
HETATM    9  C   UNL     1     -12.652  13.666  65.888  1.00  0.00    -0.425 C  
HETATM   10  N   UNL     1     -13.024  12.805  64.765  1.00  0.00    -0.844 NA 
HETATM   11  H1  UNL     1     -13.527  13.341  64.058  1.00  0.00     0.000 HD 
HETATM   12  H2  UNL     1     -13.552  11.988  65.070  1.00  0.00     0.000 HD 
ENDBRANCH   7   9
ENDBRANCH   6   7
ENDBRANCH   5   6
ENDBRANCH   3   5
ENDBRANCH   2   3
TORSDOF 5
ENDMDL
MODEL       52
REMARK 921   NORMALIZED FREE ENERGY PREDICTED BY IDOCK:   -3.00 KCAL/MOL
REMARK 922        TOTAL FREE ENERGY PREDICTED BY IDOCK:   -4.32 KCAL/MOL
REMARK 923 INTER-LIGAND FREE ENERGY PREDICTED BY IDOCK:   -3.94 KCAL/MOL
REMARK 924 INTRA-LIGAND FREE ENERGY PREDICTED BY IDOCK:   -0.38 KCAL/MOL
REMARK 927      BINDING AFFINITY PREDICTED BY RF-SCORE:    0.00 PKD
ROOT
HETATM    1  C   UNL     1     -11.881  15.149  69.994  1.00  0.00    -0.325 C  
HETATM    2  O   UNL     1     -11.717  15.875  68.774  1.00  0.00    -0.387 OA 
ENDROOT
BRANCH   2   3
HETATM    3  C   UNL     1     -11.251  15.122  67.740  1.00  0.00    -0.323 C  
HETATM    4  O   UNL     1     -10.272  15.391  67.056  1.00  0.00    -0.253 OA 
BRANCH   3   5
HETATM    5  C   UNL     1     -12.116  13.900  67.567  1.00  0.00    -0.366 C  
BRANCH   5   6
HETATM    6  C   UNL     1     -11.452  12.892  66.639  1.00  0.00    -0.393 C  
BRANCH   6   7
HETATM    7  C   UNL     1     -12.117  12.834  65.278  1.00  0.00    -0.457 C  
HETATM    8  O   UNL     1     -13.140  12.176  65.075  1.00  0.00    -0.373 OA 
BRANCH   7   9
HETATM    9  C   UNL     1     -11.395  13.576  64.153  1.00  0.00    -0.340 C  
HETATM   10  N   UNL     1      -9.946  13.494  64.337  1.00  0.00    -0.721 NA 
HETATM   11  H1  UNL     1      -9.464  13.990  63.586  1.00  0.00     0.000 HD 
HETATM   12  H2  UNL     1      -9.627  12.529  64.422  1.00  0.00     0.000 HD 
ENDBRANCH   7   9
ENDBRANCH   6   7
ENDBRANCH   5   6
ENDBRANCH   3   5
ENDBRANCH   2   3
TORSDOF 5
ENDMDL
MODEL       53
REMARK 921   NORMALIZED FREE ENERGY PREDICTED BY IDOCK:   -2.97 KCAL/MOL
REMARK 922        TOTAL FREE ENERGY PREDICTED BY IDOCK:   -4.28 KCAL/MOL
REMARK 923 INTER-LIGAND FREE ENERGY PREDICTED BY IDOCK:   -4.13 KCAL/MOL
REMARK 924 INTRA-LIGAND FREE ENERGY PREDICTED BY IDOCK:   -0.15 KCAL/MOL
REMARK 927      BINDING AFFINITY PREDICTED BY RF-SCORE:    0.00 PKD
ROOT
HETATM    1  C   UNL     1     -12.223  12.147  64.439  1.00  0.00    -0.346 C  
HETATM    2  O   UNL     1     -12.610  12.911  65.583  1.00  0.00    -0.555 OA 
ENDROOT
BRANCH   2   3
HETATM    3  C   UNL     1     -12.061  14.157  65.628  1.00  0.00    -0.415 C  
HETATM    4  O   UNL     1     -11.956  14.916  64.674  1.00  0.00    -0.428 OA 
BRANCH   3   5
HETATM    5  C   UNL     1     -11.609  14.464  67.032  1.00  0.00    -0.402 C  
BRANCH   5   6
HETATM    6  C   UNL     1     -12.085  13.391  68.003  1.00  0.00    -0.283 C  
BRANCH   6   7
HETATM    7  C   UNL     1     -12.025  13.851  69.446  1.00  0.00    -0.354 C  
HETATM    8  O   UNL     1     -11.874  13.060  70.380  1.00  0.00    -0.285 OA 
BRANCH   7   9
HETATM    9  C   UNL     1     -12.247  15.346  69.678  1.00  0.00    -0.282 C  
HETATM   10  N   UNL     1     -13.523  15.571  70.359  1.00  0.00    -0.780 NA 
HETATM   11  H1  UNL     1     -13.671  16.568  70.514  1.00  0.00     0.000 HD 
HETATM   12  H2  UNL     1     -13.592  15.037  71.225  1.00  0.00     0.000 HD 
ENDBRANCH   7   9
ENDBRANCH   6   7
ENDBRANCH   5   6
ENDBRANCH   3   5
ENDBRANCH   2   3
TORSDOF 5
ENDMDL
MODEL       54
REMARK 921   NORMALIZED FREE ENERGY PREDICTED BY IDOCK:   -2.97 KCAL/MOL
REMARK 922        TOTAL FREE ENERGY PREDICTED BY IDOCK:   -4.27 KCAL/MOL
REMARK 923 INTER-LIGAND FREE ENERGY PREDICTED BY IDOCK:   -3.83 KCAL/MOL
REMARK 924 INTRA-LIGAND FREE ENERGY PREDICTED BY IDOCK:   -0.45 KCAL/MOL
REMARK 927      BINDING AFFINITY PREDICTED BY RF-SCORE:    0.00 PKD
ROOT
HETATM    1  C   UNL     1     -13.584  13.258  72.409  1.00  0.00    -0.594 C  
HETATM    2  O   UNL     1     -12.578  13.663  71.478  1.00  0.00    -0.342 OA 
ENDROOT
BRANCH   2   3
HETATM    3  C   UNL     1     -12.690  14.959  71.072  1.00  0.00    -0.348 C  
HETATM    4  O   UNL     1     -13.732  15.599  71.037  1.00  0.00    -0.582 OA 
BRANCH   3   5
HETATM    5  C   UNL     1     -11.336  15.489  70.678  1.00  0.00    -0.367 C  
BRANCH   5   6
HETATM    6  C   UNL     1     -11.292  15.813  69.190  1.00  0.00    -0.349 C  
BRANCH   6   7
HETATM    7  C   UNL     1     -11.433  14.577  68.325  1.00  0.00    -0.311 C  
HETATM    8  O   UNL     1     -12.409  14.396  67.593  1.00  0.00    -0.251 OA 
BRANCH   7   9
HETATM    9  C   UNL     1     -10.330  13.529  68.477  1.00  0.00    -0.240 C  
HETATM   10  N   UNL     1     -10.824  12.377  69.232  1.00  0.00    -0.444 NA 
HETATM   11  H1  UNL     1     -10.088  11.677  69.334  1.00  0.00     0.000 HD 
HETATM   12  H2  UNL     1     -11.668  11.983  68.817  1.00  0.00     0.000 HD 
ENDBRANCH   7   9
ENDBRANCH   6   7
ENDBRANCH   5   6
ENDBRANCH   3   5
ENDBRANCH   2   3
TORSDOF 5
ENDMDL
MODEL       55
REMARK 921   NORMALIZED FREE ENERGY PREDICTED BY IDOCK:   -2.96 KCAL/MOL
REMARK 922        TOTAL FREE ENERGY PREDICTED BY IDOCK:   -4.27 KCAL/MOL
REMARK 923 INTER-LIGAND FREE ENERGY PREDICTED BY IDOCK:   -3.91 KCAL/MOL
REMARK 924 INTRA-LIGAND FREE ENERGY PREDICTED BY IDOCK:   -0.36 KCAL/MOL
REMARK 927      BINDING AFFINITY PREDICTED BY RF-SCORE:    0.00 PKD
ROOT
HETATM    1  C   UNL     1     -10.751  10.676  68.677  1.00  0.00    -0.207 C  
HETATM    2  O   UNL     1     -11.516  11.384  69.654  1.00  0.00    -0.269 OA 
ENDROOT
BRANCH   2   3
HETATM    3  C   UNL     1     -12.010  10.594  70.649  1.00  0.00    -0.367 C  
HETATM    4  O   UNL     1     -12.904  10.911  71.422  1.00  0.00    -0.393 OA 
BRANCH   3   5
HETATM    5  C   UNL     1     -11.295   9.268  70.649  1.00  0.00    -0.330 C  
BRANCH   5   6
HETATM    6  C   UNL     1     -11.435   8.577  72.000  1.00  0.00    -0.431 C  
BRANCH   6   7
HETATM    7  C   UNL     1     -12.347   7.369  71.940  1.00  0.00    -0.310 C  
HETATM    8  O   UNL     1     -11.916   6.216  72.028  1.00  0.00    -0.324 OA 
BRANCH   7   9
HETATM    9  C   UNL     1     -13.825   7.663  71.681  1.00  0.00    -0.389 C  
HETATM   10  N   UNL     1     -14.318   8.664  72.628  1.00  0.00    -0.888 NA 
HETATM   11  H1  UNL     1     -15.304   8.860  72.455  1.00  0.00     0.000 HD 
HETATM   12  H2  UNL     1     -13.753   9.513  72.613  1.00  0.00     0.000 HD 
ENDBRANCH   7   9
ENDBRANCH   6   7
ENDBRANCH   5   6
ENDBRANCH   3   5
ENDBRANCH   2   3
TORSDOF 5
ENDMDL
MODEL       56
REMARK 921   NORMALIZED FREE ENERGY PREDICTED BY IDOCK:   -2.96 KCAL/MOL
REMARK 922        TOTAL FREE ENERGY PREDICTED BY IDOCK:   -4.27 KCAL/MOL
REMARK 923 INTER-LIGAND FREE ENERGY PREDICTED BY IDOCK:   -4.15 KCAL/MOL
REMARK 924 INTRA-LIGAND FREE ENERGY PREDICTED BY IDOCK:   -0.11 KCAL/MOL
REMARK 927      BINDING AFFINITY PREDICTED BY RF-SCORE:    0.00 PKD
ROOT
HETATM    1  C   UNL     1      -9.692   8.582  70.898  1.00  0.00    -0.187 C  
HETATM    2  O   UNL     1     -10.843   9.185  70.303  1.00  0.00    -0.228 OA 
ENDROOT
BRANCH   2   3
HETATM    3  C   UNL     1     -11.739   9.677  71.203  1.00  0.00    -0.372 C  
HETATM    4  O   UNL     1     -12.140   9.082  72.195  1.00  0.00    -0.363 OA 
BRANCH   3   5
HETATM    5  C   UNL     1     -12.156  11.067  70.801  1.00  0.00    -0.467 C  
BRANCH   5   6
HETATM    6  C   UNL     1     -13.258  11.589  71.714  1.00  0.00    -0.456 C  
BRANCH   6   7
HETATM    7  C   UNL     1     -13.176  13.088  71.921  1.00  0.00    -0.430 C  
HETATM    8  O   UNL     1     -13.889  13.677  72.737  1.00  0.00    -0.727 OA 
BRANCH   7   9
HETATM    9  C   UNL     1     -12.213  13.835  70.999  1.00  0.00    -0.319 C  
HETATM   10  N   UNL     1     -12.920  14.893  70.275  1.00  0.00    -0.604 NA 
HETATM   11  H1  UNL     1     -12.277  15.392  69.659  1.00  0.00     0.000 HD 
HETATM   12  H2  UNL     1     -13.409  15.526  70.908  1.00  0.00     0.000 HD 
ENDBRANCH   7   9
ENDBRANCH   6   7
ENDBRANCH   5   6
ENDBRANCH   3   5
ENDBRANCH   2   3
TORSDOF 5
ENDMDL
MODEL       57
REMARK 921   NORMALIZED FREE ENERGY PREDICTED BY IDOCK:   -2.96 KCAL/MOL
REMARK 922        TOTAL FREE ENERGY PREDICTED BY IDOCK:   -4.27 KCAL/MOL
REMARK 923 INTER-LIGAND FREE ENERGY PREDICTED BY IDOCK:   -4.15 KCAL/MOL
REMARK 924 INTRA-LIGAND FREE ENERGY PREDICTED BY IDOCK:   -0.11 KCAL/MOL
REMARK 927      BINDING AFFINITY PREDICTED BY RF-SCORE:    0.00 PKD
ROOT
HETATM    1  C   UNL     1     -12.336  12.376  63.383  1.00  0.00    -0.499 C  
HETATM    2  O   UNL     1     -13.052  12.436  64.618  1.00  0.00    -0.825 OA 
ENDROOT
BRANCH   2   3
HETATM    3  C   UNL     1     -12.348  12.998  65.640  1.00  0.00    -0.446 C  
HETATM    4  O   UNL     1     -12.563  14.103  66.119  1.00  0.00    -0.465 OA 
BRANCH   3   5
HETATM    5  C   UNL     1     -11.270  12.051  66.098  1.00  0.00    -0.394 C  
BRANCH   5   6
HETATM    6  C   UNL     1     -11.567  11.525  67.496  1.00  0.00    -0.322 C  
BRANCH   6   7
HETATM    7  C   UNL     1     -10.807  10.252  67.808  1.00  0.00    -0.292 C  
HETATM    8  O   UNL     1     -10.839   9.725  68.923  1.00  0.00    -0.220 OA 
BRANCH   7   9
HETATM    9  C   UNL     1      -9.932   9.705  66.680  1.00  0.00    -0.236 C  
HETATM   10  N   UNL     1     -10.274   8.310  66.402  1.00  0.00    -0.453 NA 
HETATM   11  H1  UNL     1      -9.690   7.945  65.649  1.00  0.00     0.000 HD 
HETATM   12  H2  UNL     1     -11.267   8.193  66.204  1.00  0.00     0.000 HD 
ENDBRANCH   7   9
ENDBRANCH   6   7
ENDBRANCH   5   6
ENDBRANCH   3   5
ENDBRANCH   2   3
TORSDOF 5
ENDMDL
MODEL       58
REMARK 921   NORMALIZED FREE ENERGY PREDICTED BY IDOCK:   -2.95 KCAL/MOL
REMARK 922        TOTAL FREE ENERGY PREDICTED BY IDOCK:   -4.25 KCAL/MOL
REMARK 923 INTER-LIGAND FREE ENERGY PREDICTED BY IDOCK:   -4.07 KCAL/MOL
REMARK 924 INTRA-LIGAND FREE ENERGY PREDICTED BY IDOCK:   -0.18 KCAL/MOL
REMARK 927      BINDING AFFINITY PREDICTED BY RF-SCORE:    0.00 PKD
ROOT
HETATM    1  C   UNL     1      -8.612  10.404  65.707  1.00  0.00    -0.164 C  
HETATM    2  O   UNL     1      -9.686  11.194  66.223  1.00  0.00    -0.199 OA 
ENDROOT
BRANCH   2   3
HETATM    3  C   UNL     1      -9.299  12.410  66.699  1.00  0.00    -0.227 C  
HETATM    4  O   UNL     1      -8.166  12.699  67.058  1.00  0.00    -0.171 OA 
BRANCH   3   5
HETATM    5  C   UNL     1     -10.476  13.351  66.710  1.00  0.00    -0.275 C  
BRANCH   5   6
HETATM    6  C   UNL     1     -11.754  12.626  66.310  1.00  0.00    -0.460 C  
BRANCH   6   7
HETATM    7  C   UNL     1     -12.470  13.308  65.161  1.00  0.00    -0.470 C  
HETATM    8  O   UNL     1     -13.475  14.002  65.334  1.00  0.00    -0.679 OA 
BRANCH   7   9
HETATM    9  C   UNL     1     -11.918  13.016  63.766  1.00  0.00    -0.518 C  
HETATM   10  N   UNL     1     -12.560  11.826  63.204  1.00  0.00    -0.905 NA 
HETATM   11  H1  UNL     1     -12.191  11.631  62.272  1.00  0.00     0.000 HD 
HETATM   12  H2  UNL     1     -13.576  11.908  63.201  1.00  0.00     0.000 HD 
ENDBRANCH   7   9
ENDBRANCH   6   7
ENDBRANCH   5   6
ENDBRANCH   3   5
ENDBRANCH   2   3
TORSDOF 5
ENDMDL
MODEL       59
REMARK 921   NORMALIZED FREE ENERGY PREDICTED BY IDOCK:   -2.94 KCAL/MOL
REMARK 922        TOTAL FREE ENERGY PREDICTED BY IDOCK:   -4.24 KCAL/MOL
REMARK 923 INTER-LIGAND FREE ENERGY PREDICTED BY IDOCK:   -4.16 KCAL/MOL
REMARK 924 INTRA-LIGAND FREE ENERGY PREDICTED BY IDOCK:   -0.08 KCAL/MOL
REMARK 927      BINDING AFFINITY PREDICTED BY RF-SCORE:    0.00 PKD
ROOT
HETATM    1  C   UNL     1     -11.922   6.686  72.072  1.00  0.00    -0.319 C  
HETATM    2  O   UNL     1     -12.552   7.569  71.141  1.00  0.00    -0.317 OA 
ENDROOT
BRANCH   2   3
HETATM    3  C   UNL     1     -13.162   8.641  71.721  1.00  0.00    -0.363 C  
HETATM    4  O   UNL     1     -14.244   8.613  72.291  1.00  0.00    -0.439 OA 
BRANCH   3   5
HETATM    5  C   UNL     1     -12.300   9.866  71.561  1.00  0.00    -0.504 C  
BRANCH   5   6
HETATM    6  C   UNL     1     -13.120  11.135  71.756  1.00  0.00    -0.536 C  
BRANCH   6   7
HETATM    7  C   UNL     1     -12.529  12.323  71.022  1.00  0.00    -0.263 C  
HETATM    8  O   UNL     1     -11.809  12.189  70.030  1.00  0.00    -0.328 OA 
BRANCH   7   9
HETATM    9  C   UNL     1     -12.812  13.693  71.637  1.00  0.00    -0.338 C  
HETATM   10  N   UNL     1     -13.974  13.622  72.525  1.00  0.00    -0.753 NA 
HETATM   11  H1  UNL     1     -14.164  14.537  72.935  1.00  0.00     0.000 HD 
HETATM   12  H2  UNL     1     -13.865  12.901  73.237  1.00  0.00     0.000 HD 
ENDBRANCH   7   9
ENDBRANCH   6   7
ENDBRANCH   5   6
ENDBRANCH   3   5
ENDBRANCH   2   3
TORSDOF 5
ENDMDL
MODEL       60
REMARK 921   NORMALIZED FREE ENERGY PREDICTED BY IDOCK:   -2.93 KCAL/MOL
REMARK 922        TOTAL FREE ENERGY PREDICTED BY IDOCK:   -4.23 KCAL/MOL
REMARK 923 INTER-LIGAND FREE ENERGY PREDICTED BY IDOCK:   -4.12 KCAL/MOL
REMARK 924 INTRA-LIGAND FREE ENERGY PREDICTED BY IDOCK:   -0.11 KCAL/MOL
REMARK 927      BINDING AFFINITY PREDICTED BY RF-SCORE:    0.00 PKD
ROOT
HETATM    1  C   UNL     1     -12.144  13.908  69.632  1.00  0.00    -0.349 C  
HETATM    2  O   UNL     1     -12.723  14.297  70.879  1.00  0.00    -0.323 OA 
ENDROOT
BRANCH   2   3
HETATM    3  C   UNL     1     -13.227  13.259  71.603  1.00  0.00    -0.359 C  
HETATM    4  O   UNL     1     -14.017  13.365  72.531  1.00  0.00    -0.707 OA 
BRANCH   3   5
HETATM    5  C   UNL     1     -12.672  11.958  71.085  1.00  0.00    -0.384 C  
BRANCH   5   6
HETATM    6  C   UNL     1     -13.148  10.788  71.936  1.00  0.00    -0.557 C  
BRANCH   6   7
HETATM    7  C   UNL     1     -12.650   9.455  71.415  1.00  0.00    -0.348 C  
HETATM    8  O   UNL     1     -13.332   8.429  71.479  1.00  0.00    -0.327 OA 
BRANCH   7   9
HETATM    9  C   UNL     1     -11.218   9.442  70.879  1.00  0.00    -0.325 C  
HETATM   10  N   UNL     1     -11.213   9.129  69.449  1.00  0.00    -0.441 NA 
HETATM   11  H1  UNL     1     -10.258   9.120  69.091  1.00  0.00     0.000 HD 
HETATM   12  H2  UNL     1     -11.812   9.761  68.919  1.00  0.00     0.000 HD 
ENDBRANCH   7   9
ENDBRANCH   6   7
ENDBRANCH   5   6
ENDBRANCH   3   5
ENDBRANCH   2   3
TORSDOF 5
ENDMDL
MODEL       61
REMARK 921   NORMALIZED FREE ENERGY PREDICTED BY IDOCK:   -2.92 KCAL/MOL
REMARK 922        TOTAL FREE ENERGY PREDICTED BY IDOCK:   -4.21 KCAL/MOL
REMARK 923 INTER-LIGAND FREE ENERGY PREDICTED BY IDOCK:   -4.04 KCAL/MOL
REMARK 924 INTRA-LIGAND FREE ENERGY PREDICTED BY IDOCK:   -0.16 KCAL/MOL
REMARK 927      BINDING AFFINITY PREDICTED BY RF-SCORE:    0.00 PKD
ROOT
HETATM    1  C   UNL     1     -10.345  16.995  67.704  1.00  0.00    -0.332 C  
HETATM    2  O   UNL     1     -11.335  16.049  68.113  1.00  0.00    -0.342 OA 
ENDROOT
BRANCH   2   3
HETATM    3  C   UNL     1     -10.874  14.770  68.201  1.00  0.00    -0.254 C  
HETATM    4  O   UNL     1      -9.816  14.435  68.717  1.00  0.00    -0.232 OA 
BRANCH   3   5
HETATM    5  C   UNL     1     -11.867  13.825  67.574  1.00  0.00    -0.422 C  
BRANCH   5   6
HETATM    6  C   UNL     1     -12.301  14.326  66.203  1.00  0.00    -0.411 C  
BRANCH   6   7
HETATM    7  C   UNL     1     -11.424  13.791  65.088  1.00  0.00    -0.321 C  
HETATM    8  O   UNL     1     -10.275  14.200  64.905  1.00  0.00    -0.412 OA 
BRANCH   7   9
HETATM    9  C   UNL     1     -12.081  12.774  64.155  1.00  0.00    -0.438 C  
HETATM   10  N   UNL     1     -12.302  13.365  62.834  1.00  0.00    -0.882 NA 
HETATM   11  H1  UNL     1     -12.741  12.686  62.211  1.00  0.00     0.000 HD 
HETATM   12  H2  UNL     1     -11.443  13.745  62.438  1.00  0.00     0.000 HD 
ENDBRANCH   7   9
ENDBRANCH   6   7
ENDBRANCH   5   6
ENDBRANCH   3   5
ENDBRANCH   2   3
TORSDOF 5
ENDMDL
MODEL       62
REMARK 921   NORMALIZED FREE ENERGY PREDICTED BY IDOCK:   -2.91 KCAL/MOL
REMARK 922        TOTAL FREE ENERGY PREDICTED BY IDOCK:   -4.20 KCAL/MOL
REMARK 923 INTER-LIGAND FREE ENERGY PREDICTED BY IDOCK:   -3.98 KCAL/MOL
REMARK 924 INTRA-LIGAND FREE ENERGY PREDICTED BY IDOCK:   -0.22 KCAL/MOL
REMARK 927      BINDING AFFINITY PREDICTED BY RF-SCORE:    0.00 PKD
ROOT
HETATM    1  C   UNL     1     -11.672   8.147  72.092  1.00  0.00    -0.359 C  
HETATM    2  O   UNL     1     -11.345   9.456  71.621  1.00  0.00    -0.372 OA 
ENDROOT
BRANCH   2   3
HETATM    3  C   UNL     1     -12.421  10.281  71.488  1.00  0.00    -0.422 C  
HETATM    4  O   UNL     1     -13.460  10.193  72.127  1.00  0.00    -0.411 OA 
BRANCH   3   5
HETATM    5  C   UNL     1     -12.137  11.325  70.439  1.00  0.00    -0.474 C  
BRANCH   5   6
HETATM    6  C   UNL     1     -10.929  10.933  69.597  1.00  0.00    -0.311 C  
BRANCH   6   7
HETATM    7  C   UNL     1     -11.274  10.778  68.129  1.00  0.00    -0.302 C  
HETATM    8  O   UNL     1     -12.060  11.537  67.557  1.00  0.00    -0.614 OA 
BRANCH   7   9
HETATM    9  C   UNL     1     -10.651   9.575  67.422  1.00  0.00    -0.271 C  
HETATM   10  N   UNL     1     -10.963   8.342  68.147  1.00  0.00    -0.445 NA 
HETATM   11  H1  UNL     1     -10.547   7.538  67.675  1.00  0.00     0.000 HD 
HETATM   12  H2  UNL     1     -11.967   8.225  68.283  1.00  0.00     0.000 HD 
ENDBRANCH   7   9
ENDBRANCH   6   7
ENDBRANCH   5   6
ENDBRANCH   3   5
ENDBRANCH   2   3
TORSDOF 5
ENDMDL
MODEL       63
REMARK 921   NORMALIZED FREE ENERGY PREDICTED BY IDOCK:   -2.89 KCAL/MOL
REMARK 922        TOTAL FREE ENERGY PREDICTED BY IDOCK:   -4.18 KCAL/MOL
REMARK 923 INTER-LIGAND FREE ENERGY PREDICTED BY IDOCK:   -4.08 KCAL/MOL
REMARK 924 INTRA-LIGAND FREE ENERGY PREDICTED BY IDOCK:   -0.10 KCAL/MOL
REMARK 927      BINDING AFFINITY PREDICTED BY RF-SCORE:    0.00 PKD
ROOT
HETATM    1  C   UNL     1      -8.848  10.615  68.903  1.00  0.00    -0.157 C  
HETATM    2  O   UNL     1      -9.939  11.074  68.103  1.00  0.00    -0.168 OA 
ENDROOT
BRANCH   2   3
HETATM    3  C   UNL     1     -11.156  10.951  68.704  1.00  0.00    -0.252 C  
HETATM    4  O   UNL     1     -12.229  11.222  68.183  1.00  0.00    -0.622 OA 
BRANCH   3   5
HETATM    5  C   UNL     1     -10.983  10.422  70.104  1.00  0.00    -0.365 C  
BRANCH   5   6
HETATM    6  C   UNL     1     -12.328  10.044  70.711  1.00  0.00    -0.396 C  
BRANCH   6   7
HETATM    7  C   UNL     1     -12.200   8.974  71.776  1.00  0.00    -0.364 C  
HETATM    8  O   UNL     1     -11.124   8.715  72.321  1.00  0.00    -0.354 OA 
BRANCH   7   9
HETATM    9  C   UNL     1     -13.471   8.178  72.076  1.00  0.00    -0.278 C  
HETATM   10  N   UNL     1     -14.377   8.964  72.914  1.00  0.00    -1.124 NA 
HETATM   11  H1  UNL     1     -15.225   8.432  73.115  1.00  0.00     0.000 HD 
HETATM   12  H2  UNL     1     -14.586   9.872  72.501  1.00  0.00     0.000 HD 
ENDBRANCH   7   9
ENDBRANCH   6   7
ENDBRANCH   5   6
ENDBRANCH   3   5
ENDBRANCH   2   3
TORSDOF 5
ENDMDL
MODEL       64
REMARK 921   NORMALIZED FREE ENERGY PREDICTED BY IDOCK:   -2.89 KCAL/MOL
REMARK 922        TOTAL FREE ENERGY PREDICTED BY IDOCK:   -4.18 KCAL/MOL
REMARK 923 INTER-LIGAND FREE ENERGY PREDICTED BY IDOCK:   -4.01 KCAL/MOL
REMARK 924 INTRA-LIGAND FREE ENERGY PREDICTED BY IDOCK:   -0.17 KCAL/MOL
REMARK 927      BINDING AFFINITY PREDICTED BY RF-SCORE:    0.00 PKD
ROOT
HETATM    1  C   UNL     1      -9.500  15.891  68.976  1.00  0.00    -0.247 C  
HETATM    2  O   UNL     1     -10.465  15.640  67.952  1.00  0.00    -0.254 OA 
ENDROOT
BRANCH   2   3
HETATM    3  C   UNL     1     -10.378  16.490  66.891  1.00  0.00    -0.300 C  
HETATM    4  O   UNL     1     -10.597  17.693  66.932  1.00  0.00    -0.317 OA 
BRANCH   3   5
HETATM    5  C   UNL     1      -9.965  15.728  65.659  1.00  0.00    -0.378 C  
BRANCH   5   6
HETATM    6  C   UNL     1     -11.161  15.477  64.749  1.00  0.00    -0.421 C  
BRANCH   6   7
HETATM    7  C   UNL     1     -11.651  14.045  64.821  1.00  0.00    -0.381 C  
HETATM    8  O   UNL     1     -12.848  13.766  64.918  1.00  0.00    -0.690 OA 
BRANCH   7   9
HETATM    9  C   UNL     1     -10.564  12.970  64.850  1.00  0.00    -0.337 C  
HETATM   10  N   UNL     1     -10.004  12.777  63.512  1.00  0.00    -0.687 NA 
HETATM   11  H1  UNL     1      -9.279  12.059  63.531  1.00  0.00     0.000 HD 
HETATM   12  H2  UNL     1      -9.664  13.651  63.112  1.00  0.00     0.000 HD 
ENDBRANCH   7   9
ENDBRANCH   6   7
ENDBRANCH   5   6
ENDBRANCH   3   5
ENDBRANCH   2   3
TORSDOF 5
ENDMDL
MODEL       65
REMARK 921   NORMALIZED FREE ENERGY PREDICTED BY IDOCK:   -2.89 KCAL/MOL
REMARK 922        TOTAL FREE ENERGY PREDICTED BY IDOCK:   -4.17 KCAL/MOL
REMARK 923 INTER-LIGAND FREE ENERGY PREDICTED BY IDOCK:   -4.00 KCAL/MOL
REMARK 924 INTRA-LIGAND FREE ENERGY PREDICTED BY IDOCK:   -0.17 KCAL/MOL
REMARK 927      BINDING AFFINITY PREDICTED BY RF-SCORE:    0.00 PKD
ROOT
HETATM    1  C   UNL     1     -11.750  15.721  64.230  1.00  0.00    -0.162 C  
HETATM    2  O   UNL     1     -11.186  17.010  64.479  1.00  0.00    -1.091 OA 
ENDROOT
BRANCH   2   3
HETATM    3  C   UNL     1     -10.516  17.103  65.661  1.00  0.00    -0.197 C  
HETATM    4  O   UNL     1      -9.975  16.171  66.239  1.00  0.00    -0.278 OA 
BRANCH   3   5
HETATM    5  C   UNL     1     -10.534  18.529  66.148  1.00  0.00    -0.447 C  
BRANCH   5   6
HETATM    6  C   UNL     1      -9.119  19.081  66.260  1.00  0.00    -0.298 C  
BRANCH   6   7
HETATM    7  C   UNL     1      -8.765  19.476  67.680  1.00  0.00    -0.315 C  
HETATM    8  O   UNL     1      -7.760  20.142  67.944  1.00  0.00    -0.295 OA 
BRANCH   7   9
HETATM    9  C   UNL     1      -9.684  18.930  68.772  1.00  0.00    -0.400 C  
HETATM   10  N   UNL     1     -10.338  20.029  69.484  1.00  0.00    -0.521 NA 
HETATM   11  H1  UNL     1     -10.952  19.664  70.213  1.00  0.00     0.000 HD 
HETATM   12  H2  UNL     1     -10.833  20.653  68.847  1.00  0.00     0.000 HD 
ENDBRANCH   7   9
ENDBRANCH   6   7
ENDBRANCH   5   6
ENDBRANCH   3   5
ENDBRANCH   2   3
TORSDOF 5
ENDMDL
MODEL       66
REMARK 921   NORMALIZED FREE ENERGY PREDICTED BY IDOCK:   -2.88 KCAL/MOL
REMARK 922        TOTAL FREE ENERGY PREDICTED BY IDOCK:   -4.17 KCAL/MOL
REMARK 923 INTER-LIGAND FREE ENERGY PREDICTED BY IDOCK:   -3.81 KCAL/MOL
REMARK 924 INTRA-LIGAND FREE ENERGY PREDICTED BY IDOCK:   -0.35 KCAL/MOL
REMARK 927      BINDING AFFINITY PREDICTED BY RF-SCORE:    0.00 PKD
ROOT
HETATM    1  C   UNL     1     -11.364  12.296  64.966  1.00  0.00    -0.328 C  
HETATM    2  O   UNL     1     -11.567  13.590  65.537  1.00  0.00    -0.310 OA 
ENDROOT
BRANCH   2   3
HETATM    3  C   UNL     1     -11.837  14.562  64.622  1.00  0.00    -0.453 C  
HETATM    4  O   UNL     1     -12.741  14.524  63.799  1.00  0.00    -0.780 OA 
BRANCH   3   5
HETATM    5  C   UNL     1     -10.859  15.698  64.781  1.00  0.00    -0.377 C  
BRANCH   5   6
HETATM    6  C   UNL     1     -10.537  15.935  66.251  1.00  0.00    -0.301 C  
BRANCH   6   7
HETATM    7  C   UNL     1      -9.059  16.170  66.487  1.00  0.00    -0.277 C  
HETATM    8  O   UNL     1      -8.466  17.144  66.017  1.00  0.00    -0.482 OA 
BRANCH   7   9
HETATM    9  C   UNL     1      -8.329  15.082  67.276  1.00  0.00    -0.205 C  
HETATM   10  N   UNL     1      -8.391  13.807  66.559  1.00  0.00    -0.299 NA 
HETATM   11  H1  UNL     1      -7.904  13.081  67.086  1.00  0.00     0.000 HD 
HETATM   12  H2  UNL     1      -8.036  13.888  65.607  1.00  0.00     0.000 HD 
ENDBRANCH   7   9
ENDBRANCH   6   7
ENDBRANCH   5   6
ENDBRANCH   3   5
ENDBRANCH   2   3
TORSDOF 5
ENDMDL
MODEL       67
REMARK 921   NORMALIZED FREE ENERGY PREDICTED BY IDOCK:   -2.88 KCAL/MOL
REMARK 922        TOTAL FREE ENERGY PREDICTED BY IDOCK:   -4.16 KCAL/MOL
REMARK 923 INTER-LIGAND FREE ENERGY PREDICTED BY IDOCK:   -3.74 KCAL/MOL
REMARK 924 INTRA-LIGAND FREE ENERGY PREDICTED BY IDOCK:   -0.42 KCAL/MOL
REMARK 927      BINDING AFFINITY PREDICTED BY RF-SCORE:    0.00 PKD
ROOT
HETATM    1  C   UNL     1      -8.910  12.360  67.712  1.00  0.00    -0.176 C  
HETATM    2  O   UNL     1      -9.301  12.364  66.337  1.00  0.00    -0.232 OA 
ENDROOT
BRANCH   2   3
HETATM    3  C   UNL     1      -9.970  11.243  65.948  1.00  0.00    -0.234 C  
HETATM    4  O   UNL     1     -10.061  10.213  66.603  1.00  0.00    -0.205 OA 
BRANCH   3   5
HETATM    5  C   UNL     1     -10.590  11.462  64.593  1.00  0.00    -0.380 C  
BRANCH   5   6
HETATM    6  C   UNL     1     -10.629  12.946  64.248  1.00  0.00    -0.430 C  
BRANCH   6   7
HETATM    7  C   UNL     1     -12.033  13.513  64.295  1.00  0.00    -0.432 C  
HETATM    8  O   UNL     1     -12.564  14.034  63.311  1.00  0.00    -0.801 OA 
BRANCH   7   9
HETATM    9  C   UNL     1     -12.722  13.473  65.659  1.00  0.00    -0.421 C  
HETATM   10  N   UNL     1     -11.929  14.203  66.650  1.00  0.00    -0.427 NA 
HETATM   11  H1  UNL     1     -12.389  14.176  67.561  1.00  0.00     0.000 HD 
HETATM   12  H2  UNL     1     -11.732  15.158  66.351  1.00  0.00     0.000 HD 
ENDBRANCH   7   9
ENDBRANCH   6   7
ENDBRANCH   5   6
ENDBRANCH   3   5
ENDBRANCH   2   3
TORSDOF 5
ENDMDL
MODEL       68
REMARK 921   NORMALIZED FREE ENERGY PREDICTED BY IDOCK:   -2.86 KCAL/MOL
REMARK 922        TOTAL FREE ENERGY PREDICTED BY IDOCK:   -4.14 KCAL/MOL
REMARK 923 INTER-LIGAND FREE ENERGY PREDICTED BY IDOCK:   -4.04 KCAL/MOL
REMARK 924 INTRA-LIGAND FREE ENERGY PREDICTED BY IDOCK:   -0.09 KCAL/MOL
REMARK 927      BINDING AFFINITY PREDICTED BY RF-SCORE:    0.00 PKD
ROOT
HETATM    1  C   UNL     1     -10.541   5.841  67.215  1.00  0.00    -0.279 C  
HETATM    2  O   UNL     1     -11.279   6.448  68.278  1.00  0.00    -0.309 OA 
ENDROOT
BRANCH   2   3
HETATM    3  C   UNL     1     -11.003   5.934  69.508  1.00  0.00    -0.368 C  
HETATM    4  O   UNL     1     -10.108   5.137  69.755  1.00  0.00    -0.223 OA 
BRANCH   3   5
HETATM    5  C   UNL     1     -11.960   6.499  70.525  1.00  0.00    -0.322 C  
BRANCH   5   6
HETATM    6  C   UNL     1     -11.747   7.998  70.695  1.00  0.00    -0.158 C  
BRANCH   6   7
HETATM    7  C   UNL     1     -12.041   8.466  72.107  1.00  0.00    -0.373 C  
HETATM    8  O   UNL     1     -11.410   8.049  73.081  1.00  0.00    -0.317 OA 
BRANCH   7   9
HETATM    9  C   UNL     1     -13.222   9.425  72.257  1.00  0.00    -0.446 C  
HETATM   10  N   UNL     1     -14.151   8.932  73.276  1.00  0.00    -1.248 NA 
HETATM   11  H1  UNL     1     -14.939   9.572  73.376  1.00  0.00     0.000 HD 
HETATM   12  H2  UNL     1     -13.684   8.761  74.166  1.00  0.00     0.000 HD 
ENDBRANCH   7   9
ENDBRANCH   6   7
ENDBRANCH   5   6
ENDBRANCH   3   5
ENDBRANCH   2   3
TORSDOF 5
ENDMDL
MODEL       69
REMARK 921   NORMALIZED FREE ENERGY PREDICTED BY IDOCK:   -2.85 KCAL/MOL
REMARK 922        TOTAL FREE ENERGY PREDICTED BY IDOCK:   -4.12 KCAL/MOL
REMARK 923 INTER-LIGAND FREE ENERGY PREDICTED BY IDOCK:   -3.96 KCAL/MOL
REMARK 924 INTRA-LIGAND FREE ENERGY PREDICTED BY IDOCK:   -0.16 KCAL/MOL
REMARK 927      BINDING AFFINITY PREDICTED BY RF-SCORE:    0.00 PKD
ROOT
HETATM    1  C   UNL     1     -11.884  15.619  64.144  1.00  0.00    -0.068 C  
HETATM    2  O   UNL     1     -12.622  14.417  63.916  1.00  0.00    -0.814 OA 
ENDROOT
BRANCH   2   3
HETATM    3  C   UNL     1     -12.441  13.466  64.876  1.00  0.00    -0.396 C  
HETATM    4  O   UNL     1     -12.931  12.345  64.859  1.00  0.00    -0.762 OA 
BRANCH   3   5
HETATM    5  C   UNL     1     -11.541  14.000  65.960  1.00  0.00    -0.362 C  
BRANCH   5   6
HETATM    6  C   UNL     1     -12.236  13.953  67.315  1.00  0.00    -0.324 C  
BRANCH   6   7
HETATM    7  C   UNL     1     -11.607  12.940  68.251  1.00  0.00    -0.335 C  
HETATM    8  O   UNL     1     -12.021  12.763  69.399  1.00  0.00    -0.301 OA 
BRANCH   7   9
HETATM    9  C   UNL     1     -10.377  12.209  67.712  1.00  0.00    -0.206 C  
HETATM   10  N   UNL     1      -9.297  12.235  68.700  1.00  0.00    -0.393 NA 
HETATM   11  H1  UNL     1      -8.476  11.748  68.340  1.00  0.00     0.000 HD 
HETATM   12  H2  UNL     1      -9.597  11.863  69.601  1.00  0.00     0.000 HD 
ENDBRANCH   7   9
ENDBRANCH   6   7
ENDBRANCH   5   6
ENDBRANCH   3   5
ENDBRANCH   2   3
TORSDOF 5
ENDMDL
MODEL       70
REMARK 921   NORMALIZED FREE ENERGY PREDICTED BY IDOCK:   -2.85 KCAL/MOL
REMARK 922        TOTAL FREE ENERGY PREDICTED BY IDOCK:   -4.12 KCAL/MOL
REMARK 923 INTER-LIGAND FREE ENERGY PREDICTED BY IDOCK:   -3.96 KCAL/MOL
REMARK 924 INTRA-LIGAND FREE ENERGY PREDICTED BY IDOCK:   -0.16 KCAL/MOL
REMARK 927      BINDING AFFINITY PREDICTED BY RF-SCORE:    0.00 PKD
ROOT
HETATM    1  C   UNL     1     -13.628  14.113  71.965  1.00  0.00    -0.451 C  
HETATM    2  O   UNL     1     -12.845  13.960  70.780  1.00  0.00    -0.312 OA 
ENDROOT
BRANCH   2   3
HETATM    3  C   UNL     1     -12.180  15.088  70.405  1.00  0.00    -0.341 C  
HETATM    4  O   UNL     1     -11.761  15.946  71.171  1.00  0.00    -0.376 OA 
BRANCH   3   5
HETATM    5  C   UNL     1     -12.031  15.119  68.907  1.00  0.00    -0.284 C  
BRANCH   5   6
HETATM    6  C   UNL     1     -11.048  14.054  68.438  1.00  0.00    -0.275 C  
BRANCH   6   7
HETATM    7  C   UNL     1     -11.646  13.138  67.389  1.00  0.00    -0.356 C  
HETATM    8  O   UNL     1     -12.076  12.016  67.666  1.00  0.00    -0.547 OA 
BRANCH   7   9
HETATM    9  C   UNL     1     -11.608  13.658  65.951  1.00  0.00    -0.328 C  
HETATM   10  N   UNL     1     -12.942  14.089  65.531  1.00  0.00    -0.692 NA 
HETATM   11  H1  UNL     1     -12.917  14.436  64.572  1.00  0.00     0.000 HD 
HETATM   12  H2  UNL     1     -13.340  14.774  66.173  1.00  0.00     0.000 HD 
ENDBRANCH   7   9
ENDBRANCH   6   7
ENDBRANCH   5   6
ENDBRANCH   3   5
ENDBRANCH   2   3
TORSDOF 5
ENDMDL
MODEL       71
REMARK 921   NORMALIZED FREE ENERGY PREDICTED BY IDOCK:   -2.84 KCAL/MOL
REMARK 922        TOTAL FREE ENERGY PREDICTED BY IDOCK:   -4.11 KCAL/MOL
REMARK 923 INTER-LIGAND FREE ENERGY PREDICTED BY IDOCK:   -3.87 KCAL/MOL
REMARK 924 INTRA-LIGAND FREE ENERGY PREDICTED BY IDOCK:   -0.24 KCAL/MOL
REMARK 927      BINDING AFFINITY PREDICTED BY RF-SCORE:    0.00 PKD
ROOT
HETATM    1  C   UNL     1     -11.668  14.522  67.517  1.00  0.00    -0.386 C  
HETATM    2  O   UNL     1     -10.393  14.967  67.049  1.00  0.00    -0.261 OA 
ENDROOT
BRANCH   2   3
HETATM    3  C   UNL     1     -10.371  16.273  66.662  1.00  0.00    -0.302 C  
HETATM    4  O   UNL     1     -10.019  16.676  65.561  1.00  0.00    -0.552 OA 
BRANCH   3   5
HETATM    5  C   UNL     1     -10.852  17.149  67.790  1.00  0.00    -0.270 C  
BRANCH   5   6
HETATM    6  C   UNL     1      -9.690  17.575  68.679  1.00  0.00    -0.319 C  
BRANCH   6   7
HETATM    7  C   UNL     1      -9.225  18.987  68.384  1.00  0.00    -0.352 C  
HETATM    8  O   UNL     1      -8.132  19.410  68.766  1.00  0.00    -0.359 OA 
BRANCH   7   9
HETATM    9  C   UNL     1     -10.229  19.880  67.655  1.00  0.00    -0.425 C  
HETATM   10  N   UNL     1      -9.630  20.429  66.437  1.00  0.00    -0.646 NA 
HETATM   11  H1  UNL     1     -10.300  21.025  65.950  1.00  0.00     0.000 HD 
HETATM   12  H2  UNL     1      -9.262  19.696  65.831  1.00  0.00     0.000 HD 
ENDBRANCH   7   9
ENDBRANCH   6   7
ENDBRANCH   5   6
ENDBRANCH   3   5
ENDBRANCH   2   3
TORSDOF 5
ENDMDL
MODEL       72
REMARK 921   NORMALIZED FREE ENERGY PREDICTED BY IDOCK:   -2.84 KCAL/MOL
REMARK 922        TOTAL FREE ENERGY PREDICTED BY IDOCK:   -4.10 KCAL/MOL
REMARK 923 INTER-LIGAND FREE ENERGY PREDICTED BY IDOCK:   -3.93 KCAL/MOL
REMARK 924 INTRA-LIGAND FREE ENERGY PREDICTED BY IDOCK:   -0.17 KCAL/MOL
REMARK 927      BINDING AFFINITY PREDICTED BY RF-SCORE:    0.00 PKD
ROOT
HETATM    1  C   UNL     1     -12.953  10.860  71.488  1.00  0.00    -0.451 C  
HETATM    2  O   UNL     1     -12.106  10.706  70.348  1.00  0.00    -0.285 OA 
ENDROOT
BRANCH   2   3
HETATM    3  C   UNL     1     -11.885  11.861  69.661  1.00  0.00    -0.337 C  
HETATM    4  O   UNL     1     -11.915  12.985  70.145  1.00  0.00    -0.336 OA 
BRANCH   3   5
HETATM    5  C   UNL     1     -11.590  11.549  68.218  1.00  0.00    -0.378 C  
BRANCH   5   6
HETATM    6  C   UNL     1     -10.685  12.611  67.607  1.00  0.00    -0.239 C  
BRANCH   6   7
HETATM    7  C   UNL     1     -11.404  13.461  66.578  1.00  0.00    -0.320 C  
HETATM    8  O   UNL     1     -11.895  14.557  66.860  1.00  0.00    -0.392 OA 
BRANCH   7   9
HETATM    9  C   UNL     1     -11.556  12.839  65.190  1.00  0.00    -0.338 C  
HETATM   10  N   UNL     1     -12.972  12.730  64.833  1.00  0.00    -0.853 NA 
HETATM   11  H1  UNL     1     -13.073  12.314  63.907  1.00  0.00     0.000 HD 
HETATM   12  H2  UNL     1     -13.452  13.626  64.903  1.00  0.00     0.000 HD 
ENDBRANCH   7   9
ENDBRANCH   6   7
ENDBRANCH   5   6
ENDBRANCH   3   5
ENDBRANCH   2   3
TORSDOF 5
ENDMDL
MODEL       73
REMARK 921   NORMALIZED FREE ENERGY PREDICTED BY IDOCK:   -2.83 KCAL/MOL
REMARK 922        TOTAL FREE ENERGY PREDICTED BY IDOCK:   -4.10 KCAL/MOL
REMARK 923 INTER-LIGAND FREE ENERGY PREDICTED BY IDOCK:   -3.93 KCAL/MOL
REMARK 924 INTRA-LIGAND FREE ENERGY PREDICTED BY IDOCK:   -0.17 KCAL/MOL
REMARK 927      BINDING AFFINITY PREDICTED BY RF-SCORE:    0.00 PKD
ROOT
HETATM    1  C   UNL     1      -7.642  13.748  67.818  1.00  0.00    -0.169 C  
HETATM    2  O   UNL     1      -8.211  15.027  67.531  1.00  0.00    -0.155 OA 
ENDROOT
BRANCH   2   3
HETATM    3  C   UNL     1      -9.395  15.261  68.165  1.00  0.00    -0.198 C  
HETATM    4  O   UNL     1      -9.571  15.198  69.374  1.00  0.00    -0.223 OA 
BRANCH   3   5
HETATM    5  C   UNL     1     -10.453  15.618  67.154  1.00  0.00    -0.303 C  
BRANCH   5   6
HETATM    6  C   UNL     1     -11.241  14.384  66.735  1.00  0.00    -0.340 C  
BRANCH   6   7
HETATM    7  C   UNL     1     -11.174  14.135  65.241  1.00  0.00    -0.326 C  
HETATM    8  O   UNL     1     -10.290  13.443  64.731  1.00  0.00    -0.378 OA 
BRANCH   7   9
HETATM    9  C   UNL     1     -12.221  14.862  64.397  1.00  0.00    -0.381 C  
HETATM   10  N   UNL     1     -11.671  16.112  63.870  1.00  0.00    -1.452 NA 
HETATM   11  H1  UNL     1     -12.371  16.597  63.307  1.00  0.00     0.000 HD 
HETATM   12  H2  UNL     1     -10.806  15.958  63.353  1.00  0.00     0.000 HD 
ENDBRANCH   7   9
ENDBRANCH   6   7
ENDBRANCH   5   6
ENDBRANCH   3   5
ENDBRANCH   2   3
TORSDOF 5
ENDMDL
MODEL       74
REMARK 921   NORMALIZED FREE ENERGY PREDICTED BY IDOCK:   -2.82 KCAL/MOL
REMARK 922        TOTAL FREE ENERGY PREDICTED BY IDOCK:   -4.08 KCAL/MOL
REMARK 923 INTER-LIGAND FREE ENERGY PREDICTED BY IDOCK:   -3.61 KCAL/MOL
REMARK 924 INTRA-LIGAND FREE ENERGY PREDICTED BY IDOCK:   -0.47 KCAL/MOL
REMARK 927      BINDING AFFINITY PREDICTED BY RF-SCORE:    0.00 PKD
ROOT
HETATM    1  C   UNL     1     -10.551   9.135  67.928  1.00  0.00    -0.214 C  
HETATM    2  O   UNL     1     -11.117   9.497  69.189  1.00  0.00    -0.171 OA 
ENDROOT
BRANCH   2   3
HETATM    3  C   UNL     1     -11.984  10.546  69.127  1.00  0.00    -0.077 C  
HETATM    4  O   UNL     1     -12.206  11.218  68.129  1.00  0.00    -0.622 OA 
BRANCH   3   5
HETATM    5  C   UNL     1     -12.634  10.751  70.470  1.00  0.00    -0.421 C  
BRANCH   5   6
HETATM    6  C   UNL     1     -12.176   9.690  71.462  1.00  0.00    -0.483 C  
BRANCH   6   7
HETATM    7  C   UNL     1     -13.306   8.776  71.893  1.00  0.00    -0.389 C  
HETATM    8  O   UNL     1     -14.214   9.160  72.635  1.00  0.00    -0.551 OA 
BRANCH   7   9
HETATM    9  C   UNL     1     -13.207   7.326  71.418  1.00  0.00    -0.346 C  
HETATM   10  N   UNL     1     -11.855   7.040  70.936  1.00  0.00    -0.342 NA 
HETATM   11  H1  UNL     1     -11.789   6.073  70.618  1.00  0.00     0.000 HD 
HETATM   12  H2  UNL     1     -11.147   7.260  71.636  1.00  0.00     0.000 HD 
ENDBRANCH   7   9
ENDBRANCH   6   7
ENDBRANCH   5   6
ENDBRANCH   3   5
ENDBRANCH   2   3
TORSDOF 5
ENDMDL
MODEL       75
REMARK 921   NORMALIZED FREE ENERGY PREDICTED BY IDOCK:   -2.81 KCAL/MOL
REMARK 922        TOTAL FREE ENERGY PREDICTED BY IDOCK:   -4.07 KCAL/MOL
REMARK 923 INTER-LIGAND FREE ENERGY PREDICTED BY IDOCK:   -3.67 KCAL/MOL
REMARK 924 INTRA-LIGAND FREE ENERGY PREDICTED BY IDOCK:   -0.40 KCAL/MOL
REMARK 927      BINDING AFFINITY PREDICTED BY RF-SCORE:    0.00 PKD
ROOT
HETATM    1  C   UNL     1      -6.021  20.257  69.929  1.00  0.00    -0.355 C  
HETATM    2  O   UNL     1      -5.929  20.295  68.504  1.00  0.00    -0.252 OA 
ENDROOT
BRANCH   2   3
HETATM    3  C   UNL     1      -6.921  19.613  67.867  1.00  0.00    -0.255 C  
HETATM    4  O   UNL     1      -6.987  18.395  67.767  1.00  0.00    -0.208 OA 
BRANCH   3   5
HETATM    5  C   UNL     1      -7.931  20.582  67.310  1.00  0.00    -0.361 C  
BRANCH   5   6
HETATM    6  C   UNL     1      -9.346  20.176  67.702  1.00  0.00    -0.487 C  
BRANCH   6   7
HETATM    7  C   UNL     1     -10.098  19.525  66.559  1.00  0.00    -0.439 C  
HETATM    8  O   UNL     1     -10.505  20.170  65.590  1.00  0.00    -0.416 OA 
BRANCH   7   9
HETATM    9  C   UNL     1     -10.393  18.033  66.721  1.00  0.00    -0.367 C  
HETATM   10  N   UNL     1      -9.449  17.240  65.932  1.00  0.00    -0.525 NA 
HETATM   11  H1  UNL     1      -9.646  16.245  66.040  1.00  0.00     0.000 HD 
HETATM   12  H2  UNL     1      -8.481  17.463  66.161  1.00  0.00     0.000 HD 
ENDBRANCH   7   9
ENDBRANCH   6   7
ENDBRANCH   5   6
ENDBRANCH   3   5
ENDBRANCH   2   3
TORSDOF 5
ENDMDL
MODEL       76
REMARK 921   NORMALIZED FREE ENERGY PREDICTED BY IDOCK:   -2.80 KCAL/MOL
REMARK 922        TOTAL FREE ENERGY PREDICTED BY IDOCK:   -4.06 KCAL/MOL
REMARK 923 INTER-LIGAND FREE ENERGY PREDICTED BY IDOCK:   -3.54 KCAL/MOL
REMARK 924 INTRA-LIGAND FREE ENERGY PREDICTED BY IDOCK:   -0.51 KCAL/MOL
REMARK 927      BINDING AFFINITY PREDICTED BY RF-SCORE:    0.00 PKD
ROOT
HETATM    1  C   UNL     1     -13.016  10.579  71.702  1.00  0.00    -0.476 C  
HETATM    2  O   UNL     1     -13.626   9.414  72.258  1.00  0.00    -0.447 OA 
ENDROOT
BRANCH   2   3
HETATM    3  C   UNL     1     -12.998   8.250  71.931  1.00  0.00    -0.347 C  
HETATM    4  O   UNL     1     -13.466   7.374  71.216  1.00  0.00    -0.353 OA 
BRANCH   3   5
HETATM    5  C   UNL     1     -11.637   8.205  72.575  1.00  0.00    -0.468 C  
BRANCH   5   6
HETATM    6  C   UNL     1     -10.668   7.379  71.739  1.00  0.00    -0.242 C  
BRANCH   6   7
HETATM    7  C   UNL     1     -10.055   8.180  70.607  1.00  0.00    -0.194 C  
HETATM    8  O   UNL     1      -9.416   9.216  70.807  1.00  0.00    -0.229 OA 
BRANCH   7   9
HETATM    9  C   UNL     1     -10.346   7.668  69.196  1.00  0.00    -0.213 C  
HETATM   10  N   UNL     1     -11.381   6.634  69.233  1.00  0.00    -0.574 NA 
HETATM   11  H1  UNL     1     -11.576   6.293  68.292  1.00  0.00     0.000 HD 
HETATM   12  H2  UNL     1     -12.226   6.959  69.702  1.00  0.00     0.000 HD 
ENDBRANCH   7   9
ENDBRANCH   6   7
ENDBRANCH   5   6
ENDBRANCH   3   5
ENDBRANCH   2   3
TORSDOF 5
ENDMDL
MODEL       77
REMARK 921   NORMALIZED FREE ENERGY PREDICTED BY IDOCK:   -2.79 KCAL/MOL
REMARK 922        TOTAL FREE ENERGY PREDICTED BY IDOCK:   -4.05 KCAL/MOL
REMARK 923 INTER-LIGAND FREE ENERGY PREDICTED BY IDOCK:   -3.95 KCAL/MOL
REMARK 924 INTRA-LIGAND FREE ENERGY PREDICTED BY IDOCK:   -0.10 KCAL/MOL
REMARK 927      BINDING AFFINITY PREDICTED BY RF-SCORE:    0.00 PKD
ROOT
HETATM    1  C   UNL     1      -8.566  16.748  68.808  1.00  0.00    -0.255 C  
HETATM    2  O   UNL     1      -8.951  15.478  69.338  1.00  0.00    -0.257 OA 
ENDROOT
BRANCH   2   3
HETATM    3  C   UNL     1     -10.242  15.135  69.071  1.00  0.00    -0.241 C  
HETATM    4  O   UNL     1     -10.591  14.177  68.394  1.00  0.00    -0.244 OA 
BRANCH   3   5
HETATM    5  C   UNL     1     -11.178  16.107  69.740  1.00  0.00    -0.343 C  
BRANCH   5   6
HETATM    6  C   UNL     1     -12.430  15.398  70.240  1.00  0.00    -0.413 C  
BRANCH   6   7
HETATM    7  C   UNL     1     -12.657  15.603  71.724  1.00  0.00    -0.442 C  
HETATM    8  O   UNL     1     -11.792  16.086  72.459  1.00  0.00    -0.468 OA 
BRANCH   7   9
HETATM    9  C   UNL     1     -13.993  15.099  72.270  1.00  0.00    -0.530 C  
HETATM   10  N   UNL     1     -13.933  13.657  72.510  1.00  0.00    -0.753 NA 
HETATM   11  H1  UNL     1     -14.825  13.320  72.874  1.00  0.00     0.000 HD 
HETATM   12  H2  UNL     1     -13.154  13.405  73.119  1.00  0.00     0.000 HD 
ENDBRANCH   7   9
ENDBRANCH   6   7
ENDBRANCH   5   6
ENDBRANCH   3   5
ENDBRANCH   2   3
TORSDOF 5
ENDMDL
MODEL       78
REMARK 921   NORMALIZED FREE ENERGY PREDICTED BY IDOCK:   -2.78 KCAL/MOL
REMARK 922        TOTAL FREE ENERGY PREDICTED BY IDOCK:   -4.03 KCAL/MOL
REMARK 923 INTER-LIGAND FREE ENERGY PREDICTED BY IDOCK:   -3.87 KCAL/MOL
REMARK 924 INTRA-LIGAND FREE ENERGY PREDICTED BY IDOCK:   -0.16 KCAL/MOL
REMARK 927      BINDING AFFINITY PREDICTED BY RF-SCORE:    0.00 PKD
ROOT
HETATM    1  C   UNL     1      -7.971   6.888  69.428  1.00  0.00    -0.115 C  
HETATM    2  O   UNL     1      -8.991   7.291  70.344  1.00  0.00    -0.149 OA 
ENDROOT
BRANCH   2   3
HETATM    3  C   UNL     1     -10.253   7.224  69.833  1.00  0.00    -0.205 C  
HETATM    4  O   UNL     1     -10.654   7.851  68.862  1.00  0.00    -0.211 OA 
BRANCH   3   5
HETATM    5  C   UNL     1     -11.079   6.255  70.638  1.00  0.00    -0.389 C  
BRANCH   5   6
HETATM    6  C   UNL     1     -12.388   6.895  71.081  1.00  0.00    -0.419 C  
BRANCH   6   7
HETATM    7  C   UNL     1     -12.181   7.962  72.136  1.00  0.00    -0.310 C  
HETATM    8  O   UNL     1     -11.286   7.884  72.982  1.00  0.00    -0.411 OA 
BRANCH   7   9
HETATM    9  C   UNL     1     -13.201   9.101  72.141  1.00  0.00    -0.458 C  
HETATM   10  N   UNL     1     -14.198   8.887  73.190  1.00  0.00    -1.200 NA 
HETATM   11  H1  UNL     1     -14.879   9.647  73.193  1.00  0.00     0.000 HD 
HETATM   12  H2  UNL     1     -13.767   8.759  74.105  1.00  0.00     0.000 HD 
ENDBRANCH   7   9
ENDBRANCH   6   7
ENDBRANCH   5   6
ENDBRANCH   3   5
ENDBRANCH   2   3
TORSDOF 5
ENDMDL
MODEL       79
REMARK 921   NORMALIZED FREE ENERGY PREDICTED BY IDOCK:   -2.76 KCAL/MOL
REMARK 922        TOTAL FREE ENERGY PREDICTED BY IDOCK:   -4.01 KCAL/MOL
REMARK 923 INTER-LIGAND FREE ENERGY PREDICTED BY IDOCK:   -3.93 KCAL/MOL
REMARK 924 INTRA-LIGAND FREE ENERGY PREDICTED BY IDOCK:   -0.08 KCAL/MOL
REMARK 927      BINDING AFFINITY PREDICTED BY RF-SCORE:    0.00 PKD
ROOT
HETATM    1  C   UNL     1     -13.655  13.240  72.268  1.00  0.00    -0.605 C  
HETATM    2  O   UNL     1     -12.700  13.763  71.343  1.00  0.00    -0.345 OA 
ENDROOT
BRANCH   2   3
HETATM    3  C   UNL     1     -13.032  14.981  70.832  1.00  0.00    -0.405 C  
HETATM    4  O   UNL     1     -13.938  15.694  71.243  1.00  0.00    -0.570 OA 
BRANCH   3   5
HETATM    5  C   UNL     1     -12.112  15.323  69.689  1.00  0.00    -0.342 C  
BRANCH   5   6
HETATM    6  C   UNL     1     -10.985  16.236  70.155  1.00  0.00    -0.335 C  
BRANCH   6   7
HETATM    7  C   UNL     1     -10.136  16.739  69.004  1.00  0.00    -0.283 C  
HETATM    8  O   UNL     1     -10.605  17.430  68.096  1.00  0.00    -0.365 OA 
BRANCH   7   9
HETATM    9  C   UNL     1      -8.682  16.268  68.995  1.00  0.00    -0.246 C  
HETATM   10  N   UNL     1      -8.587  14.898  69.502  1.00  0.00    -0.431 NA 
HETATM   11  H1  UNL     1      -7.616  14.584  69.496  1.00  0.00     0.000 HD 
HETATM   12  H2  UNL     1      -9.197  14.260  68.991  1.00  0.00     0.000 HD 
ENDBRANCH   7   9
ENDBRANCH   6   7
ENDBRANCH   5   6
ENDBRANCH   3   5
ENDBRANCH   2   3
TORSDOF 5
ENDMDL
MODEL       80
REMARK 921   NORMALIZED FREE ENERGY PREDICTED BY IDOCK:   -2.75 KCAL/MOL
REMARK 922        TOTAL FREE ENERGY PREDICTED BY IDOCK:   -4.00 KCAL/MOL
REMARK 923 INTER-LIGAND FREE ENERGY PREDICTED BY IDOCK:   -3.75 KCAL/MOL
REMARK 924 INTRA-LIGAND FREE ENERGY PREDICTED BY IDOCK:   -0.25 KCAL/MOL
REMARK 927      BINDING AFFINITY PREDICTED BY RF-SCORE:    0.00 PKD
ROOT
HETATM    1  C   UNL     1     -11.371  15.827  64.493  1.00  0.00    -0.316 C  
HETATM    2  O   UNL     1     -12.314  14.793  64.781  1.00  0.00    -0.394 OA 
ENDROOT
BRANCH   2   3
HETATM    3  C   UNL     1     -11.999  13.587  64.230  1.00  0.00    -0.432 C  
HETATM    4  O   UNL     1     -12.377  13.193  63.135  1.00  0.00    -0.677 OA 
BRANCH   3   5
HETATM    5  C   UNL     1     -11.108  12.814  65.167  1.00  0.00    -0.323 C  
BRANCH   5   6
HETATM    6  C   UNL     1     -11.751  12.683  66.542  1.00  0.00    -0.463 C  
BRANCH   6   7
HETATM    7  C   UNL     1     -10.904  13.301  67.637  1.00  0.00    -0.258 C  
HETATM    8  O   UNL     1      -9.705  13.039  67.765  1.00  0.00    -0.206 OA 
BRANCH   7   9
HETATM    9  C   UNL     1     -11.645  14.204  68.623  1.00  0.00    -0.317 C  
HETATM   10  N   UNL     1     -11.532  15.604  68.214  1.00  0.00    -0.362 NA 
HETATM   11  H1  UNL     1     -12.026  16.207  68.873  1.00  0.00     0.000 HD 
HETATM   12  H2  UNL     1     -11.848  15.748  67.256  1.00  0.00     0.000 HD 
ENDBRANCH   7   9
ENDBRANCH   6   7
ENDBRANCH   5   6
ENDBRANCH   3   5
ENDBRANCH   2   3
TORSDOF 5
ENDMDL
MODEL       81
REMARK 921   NORMALIZED FREE ENERGY PREDICTED BY IDOCK:   -2.75 KCAL/MOL
REMARK 922        TOTAL FREE ENERGY PREDICTED BY IDOCK:   -3.99 KCAL/MOL
REMARK 923 INTER-LIGAND FREE ENERGY PREDICTED BY IDOCK:   -3.61 KCAL/MOL
REMARK 924 INTRA-LIGAND FREE ENERGY PREDICTED BY IDOCK:   -0.38 KCAL/MOL
REMARK 927      BINDING AFFINITY PREDICTED BY RF-SCORE:    0.00 PKD
ROOT
HETATM    1  C   UNL     1      -7.155  17.643  69.002  1.00  0.00    -0.227 C  
HETATM    2  O   UNL     1      -7.628  18.982  69.160  1.00  0.00    -0.302 OA 
ENDROOT
BRANCH   2   3
HETATM    3  C   UNL     1      -6.636  19.906  69.297  1.00  0.00    -0.342 C  
HETATM    4  O   UNL     1      -6.345  20.479  70.338  1.00  0.00    -0.455 OA 
BRANCH   3   5
HETATM    5  C   UNL     1      -5.945  20.113  67.974  1.00  0.00    -0.270 C  
BRANCH   5   6
HETATM    6  C   UNL     1      -6.865  20.818  66.986  1.00  0.00    -0.385 C  
BRANCH   6   7
HETATM    7  C   UNL     1      -7.579  19.847  66.068  1.00  0.00    -0.325 C  
HETATM    8  O   UNL     1      -6.967  19.085  65.315  1.00  0.00    -0.481 OA 
BRANCH   7   9
HETATM    9  C   UNL     1      -9.106  19.927  66.072  1.00  0.00    -0.256 C  
HETATM   10  N   UNL     1      -9.573  20.666  67.246  1.00  0.00    -0.570 NA 
HETATM   11  H1  UNL     1     -10.592  20.719  67.249  1.00  0.00     0.000 HD 
HETATM   12  H2  UNL     1      -9.143  21.589  67.310  1.00  0.00     0.000 HD 
ENDBRANCH   7   9
ENDBRANCH   6   7
ENDBRANCH   5   6
ENDBRANCH   3   5
ENDBRANCH   2   3
TORSDOF 5
ENDMDL
MODEL       82
REMARK 921   NORMALIZED FREE ENERGY PREDICTED BY IDOCK:   -2.74 KCAL/MOL
REMARK 922        TOTAL FREE ENERGY PREDICTED BY IDOCK:   -3.98 KCAL/MOL
REMARK 923 INTER-LIGAND FREE ENERGY PREDICTED BY IDOCK:   -3.79 KCAL/MOL
REMARK 924 INTRA-LIGAND FREE ENERGY PREDICTED BY IDOCK:   -0.19 KCAL/MOL
REMARK 927      BINDING AFFINITY PREDICTED BY RF-SCORE:    0.00 PKD
ROOT
HETATM    1  C   UNL     1     -11.332  16.103  64.546  1.00  0.00    -0.267 C  
HETATM    2  O   UNL     1     -12.407  15.288  64.075  1.00  0.00    -0.665 OA 
ENDROOT
BRANCH   2   3
HETATM    3  C   UNL     1     -12.153  13.951  64.127  1.00  0.00    -0.425 C  
HETATM    4  O   UNL     1     -12.622  13.114  63.369  1.00  0.00    -0.722 OA 
BRANCH   3   5
HETATM    5  C   UNL     1     -11.199  13.657  65.256  1.00  0.00    -0.307 C  
BRANCH   5   6
HETATM    6  C   UNL     1     -11.788  12.625  66.209  1.00  0.00    -0.471 C  
BRANCH   6   7
HETATM    7  C   UNL     1     -10.809  11.514  66.534  1.00  0.00    -0.288 C  
HETATM    8  O   UNL     1     -10.564  11.175  67.694  1.00  0.00    -0.190 OA 
BRANCH   7   9
HETATM    9  C   UNL     1     -10.083  10.895  65.339  1.00  0.00    -0.277 C  
HETATM   10  N   UNL     1      -8.656  10.754  65.629  1.00  0.00    -0.181 NA 
HETATM   11  H1  UNL     1      -8.171  10.342  64.831  1.00  0.00     0.000 HD 
HETATM   12  H2  UNL     1      -8.492  10.229  66.487  1.00  0.00     0.000 HD 
ENDBRANCH   7   9
ENDBRANCH   6   7
ENDBRANCH   5   6
ENDBRANCH   3   5
ENDBRANCH   2   3
TORSDOF 5
ENDMDL
MODEL       83
REMARK 921   NORMALIZED FREE ENERGY PREDICTED BY IDOCK:   -2.74 KCAL/MOL
REMARK 922        TOTAL FREE ENERGY PREDICTED BY IDOCK:   -3.98 KCAL/MOL
REMARK 923 INTER-LIGAND FREE ENERGY PREDICTED BY IDOCK:   -3.85 KCAL/MOL
REMARK 924 INTRA-LIGAND FREE ENERGY PREDICTED BY IDOCK:   -0.13 KCAL/MOL
REMARK 927      BINDING AFFINITY PREDICTED BY RF-SCORE:    0.00 PKD
ROOT
HETATM    1  C   UNL     1      -9.923  19.363  66.505  1.00  0.00    -0.396 C  
HETATM    2  O   UNL     1     -10.029  18.030  66.002  1.00  0.00    -0.499 OA 
ENDROOT
BRANCH   2   3
HETATM    3  C   UNL     1      -9.031  17.201  66.417  1.00  0.00    -0.260 C  
HETATM    4  O   UNL     1      -8.049  17.547  67.060  1.00  0.00    -0.203 OA 
BRANCH   3   5
HETATM    5  C   UNL     1      -9.321  15.791  65.973  1.00  0.00    -0.384 C  
BRANCH   5   6
HETATM    6  C   UNL     1     -10.663  15.713  65.256  1.00  0.00    -0.444 C  
BRANCH   6   7
HETATM    7  C   UNL     1     -11.083  14.285  64.970  1.00  0.00    -0.373 C  
HETATM    8  O   UNL     1     -10.354  13.496  64.365  1.00  0.00    -0.433 OA 
BRANCH   7   9
HETATM    9  C   UNL     1     -12.499  13.908  65.406  1.00  0.00    -0.501 C  
HETATM   10  N   UNL     1     -12.532  13.628  66.842  1.00  0.00    -0.357 NA 
HETATM   11  H1  UNL     1     -13.477  13.376  67.133  1.00  0.00     0.000 HD 
HETATM   12  H2  UNL     1     -12.159  14.404  67.389  1.00  0.00     0.000 HD 
ENDBRANCH   7   9
ENDBRANCH   6   7
ENDBRANCH   5   6
ENDBRANCH   3   5
ENDBRANCH   2   3
TORSDOF 5
ENDMDL
MODEL       84
REMARK 921   NORMALIZED FREE ENERGY PREDICTED BY IDOCK:   -2.73 KCAL/MOL
REMARK 922        TOTAL FREE ENERGY PREDICTED BY IDOCK:   -3.97 KCAL/MOL
REMARK 923 INTER-LIGAND FREE ENERGY PREDICTED BY IDOCK:   -3.76 KCAL/MOL
REMARK 924 INTRA-LIGAND FREE ENERGY PREDICTED BY IDOCK:   -0.21 KCAL/MOL
REMARK 927      BINDING AFFINITY PREDICTED BY RF-SCORE:    0.00 PKD
ROOT
HETATM    1  C   UNL     1     -10.333  19.852  67.838  1.00  0.00    -0.406 C  
HETATM    2  O   UNL     1      -9.669  19.472  66.631  1.00  0.00    -0.326 OA 
ENDROOT
BRANCH   2   3
HETATM    3  C   UNL     1     -10.126  18.307  66.091  1.00  0.00    -0.346 C  
HETATM    4  O   UNL     1     -10.899  18.224  65.146  1.00  0.00    -0.656 OA 
BRANCH   3   5
HETATM    5  C   UNL     1      -9.530  17.135  66.826  1.00  0.00    -0.278 C  
BRANCH   5   6
HETATM    6  C   UNL     1     -10.574  16.050  67.054  1.00  0.00    -0.302 C  
BRANCH   6   7
HETATM    7  C   UNL     1     -10.987  15.943  68.508  1.00  0.00    -0.324 C  
HETATM    8  O   UNL     1     -10.492  16.656  69.385  1.00  0.00    -0.308 OA 
BRANCH   7   9
HETATM    9  C   UNL     1     -11.996  14.841  68.835  1.00  0.00    -0.263 C  
HETATM   10  N   UNL     1     -12.343  14.095  67.624  1.00  0.00    -0.552 NA 
HETATM   11  H1  UNL     1     -13.016  13.360  67.842  1.00  0.00     0.000 HD 
HETATM   12  H2  UNL     1     -11.517  13.727  67.154  1.00  0.00     0.000 HD 
ENDBRANCH   7   9
ENDBRANCH   6   7
ENDBRANCH   5   6
ENDBRANCH   3   5
ENDBRANCH   2   3
TORSDOF 5
ENDMDL
MODEL       85
REMARK 921   NORMALIZED FREE ENERGY PREDICTED BY IDOCK:   -2.73 KCAL/MOL
REMARK 922        TOTAL FREE ENERGY PREDICTED BY IDOCK:   -3.96 KCAL/MOL
REMARK 923 INTER-LIGAND FREE ENERGY PREDICTED BY IDOCK:   -3.83 KCAL/MOL
REMARK 924 INTRA-LIGAND FREE ENERGY PREDICTED BY IDOCK:   -0.13 KCAL/MOL
REMARK 927      BINDING AFFINITY PREDICTED BY RF-SCORE:    0.00 PKD
ROOT
HETATM    1  C   UNL     1      -9.929  10.168  64.869  1.00  0.00    -0.288 C  
HETATM    2  O   UNL     1      -9.688  11.534  64.523  1.00  0.00    -0.238 OA 
ENDROOT
BRANCH   2   3
HETATM    3  C   UNL     1     -10.813  12.229  64.195  1.00  0.00    -0.365 C  
HETATM    4  O   UNL     1     -11.629  11.889  63.349  1.00  0.00    -0.423 OA 
BRANCH   3   5
HETATM    5  C   UNL     1     -10.906  13.475  65.035  1.00  0.00    -0.348 C  
BRANCH   5   6
HETATM    6  C   UNL     1     -12.205  13.497  65.831  1.00  0.00    -0.507 C  
BRANCH   6   7
HETATM    7  C   UNL     1     -11.969  13.379  67.324  1.00  0.00    -0.347 C  
HETATM    8  O   UNL     1     -11.951  12.289  67.901  1.00  0.00    -0.452 OA 
BRANCH   7   9
HETATM    9  C   UNL     1     -11.838  14.700  68.083  1.00  0.00    -0.298 C  
HETATM   10  N   UNL     1     -12.427  14.580  69.418  1.00  0.00    -0.566 NA 
HETATM   11  H1  UNL     1     -12.339  15.461  69.924  1.00  0.00     0.000 HD 
HETATM   12  H2  UNL     1     -12.030  13.799  69.940  1.00  0.00     0.000 HD 
ENDBRANCH   7   9
ENDBRANCH   6   7
ENDBRANCH   5   6
ENDBRANCH   3   5
ENDBRANCH   2   3
TORSDOF 5
ENDMDL
MODEL       86
REMARK 921   NORMALIZED FREE ENERGY PREDICTED BY IDOCK:   -2.72 KCAL/MOL
REMARK 922        TOTAL FREE ENERGY PREDICTED BY IDOCK:   -3.96 KCAL/MOL
REMARK 923 INTER-LIGAND FREE ENERGY PREDICTED BY IDOCK:   -3.87 KCAL/MOL
REMARK 924 INTRA-LIGAND FREE ENERGY PREDICTED BY IDOCK:   -0.09 KCAL/MOL
REMARK 927      BINDING AFFINITY PREDICTED BY RF-SCORE:    0.00 PKD
ROOT
HETATM    1  C   UNL     1     -10.571  11.407  66.368  1.00  0.00    -0.263 C  
HETATM    2  O   UNL     1     -11.861  11.998  66.535  1.00  0.00    -0.585 OA 
ENDROOT
BRANCH   2   3
HETATM    3  C   UNL     1     -11.872  13.079  67.363  1.00  0.00    -0.357 C  
HETATM    4  O   UNL     1     -11.780  13.034  68.582  1.00  0.00    -0.285 OA 
BRANCH   3   5
HETATM    5  C   UNL     1     -12.006  14.342  66.553  1.00  0.00    -0.448 C  
BRANCH   5   6
HETATM    6  C   UNL     1     -11.281  15.499  67.228  1.00  0.00    -0.226 C  
BRANCH   6   7
HETATM    7  C   UNL     1     -10.332  16.214  66.287  1.00  0.00    -0.328 C  
HETATM    8  O   UNL     1     -10.470  16.174  65.061  1.00  0.00    -0.595 OA 
BRANCH   7   9
HETATM    9  C   UNL     1      -9.146  16.918  66.946  1.00  0.00    -0.230 C  
HETATM   10  N   UNL     1      -8.216  17.409  65.927  1.00  0.00    -0.552 NA 
HETATM   11  H1  UNL     1      -7.424  17.879  66.367  1.00  0.00     0.000 HD 
HETATM   12  H2  UNL     1      -8.681  18.006  65.244  1.00  0.00     0.000 HD 
ENDBRANCH   7   9
ENDBRANCH   6   7
ENDBRANCH   5   6
ENDBRANCH   3   5
ENDBRANCH   2   3
TORSDOF 5
ENDMDL
MODEL       87
REMARK 921   NORMALIZED FREE ENERGY PREDICTED BY IDOCK:   -2.72 KCAL/MOL
REMARK 922        TOTAL FREE ENERGY PREDICTED BY IDOCK:   -3.96 KCAL/MOL
REMARK 923 INTER-LIGAND FREE ENERGY PREDICTED BY IDOCK:   -3.60 KCAL/MOL
REMARK 924 INTRA-LIGAND FREE ENERGY PREDICTED BY IDOCK:   -0.36 KCAL/MOL
REMARK 927      BINDING AFFINITY PREDICTED BY RF-SCORE:    0.00 PKD
ROOT
HETATM    1  C   UNL     1     -11.920  12.391  69.451  1.00  0.00    -0.260 C  
HETATM    2  O   UNL     1     -12.279  11.083  68.999  1.00  0.00    -0.483 OA 
ENDROOT
BRANCH   2   3
HETATM    3  C   UNL     1     -11.420  10.104  69.399  1.00  0.00    -0.142 C  
HETATM    4  O   UNL     1     -10.903   9.277  68.661  1.00  0.00    -0.179 OA 
BRANCH   3   5
HETATM    5  C   UNL     1     -11.196  10.197  70.886  1.00  0.00    -0.383 C  
BRANCH   5   6
HETATM    6  C   UNL     1     -12.336   9.535  71.649  1.00  0.00    -0.480 C  
BRANCH   6   7
HETATM    7  C   UNL     1     -11.974   8.147  72.138  1.00  0.00    -0.359 C  
HETATM    8  O   UNL     1     -11.059   7.953  72.942  1.00  0.00    -0.384 OA 
BRANCH   7   9
HETATM    9  C   UNL     1     -12.759   6.994  71.511  1.00  0.00    -0.381 C  
HETATM   10  N   UNL     1     -12.341   6.790  70.123  1.00  0.00    -0.546 NA 
HETATM   11  H1  UNL     1     -12.864   6.021  69.705  1.00  0.00     0.000 HD 
HETATM   12  H2  UNL     1     -11.334   6.651  70.046  1.00  0.00     0.000 HD 
ENDBRANCH   7   9
ENDBRANCH   6   7
ENDBRANCH   5   6
ENDBRANCH   3   5
ENDBRANCH   2   3
TORSDOF 5
ENDMDL
MODEL       88
REMARK 921   NORMALIZED FREE ENERGY PREDICTED BY IDOCK:   -2.72 KCAL/MOL
REMARK 922        TOTAL FREE ENERGY PREDICTED BY IDOCK:   -3.95 KCAL/MOL
REMARK 923 INTER-LIGAND FREE ENERGY PREDICTED BY IDOCK:   -3.79 KCAL/MOL
REMARK 924 INTRA-LIGAND FREE ENERGY PREDICTED BY IDOCK:   -0.16 KCAL/MOL
REMARK 927      BINDING AFFINITY PREDICTED BY RF-SCORE:    0.00 PKD
ROOT
HETATM    1  C   UNL     1      -6.950   8.034  73.540  1.00  0.00    -0.122 C  
HETATM    2  O   UNL     1      -8.202   8.603  73.152  1.00  0.00    -0.409 OA 
ENDROOT
BRANCH   2   3
HETATM    3  C   UNL     1      -8.322   8.817  71.812  1.00  0.00    -0.094 C  
HETATM    4  O   UNL     1      -7.587   9.532  71.144  1.00  0.00    -0.328 OA 
BRANCH   3   5
HETATM    5  C   UNL     1      -9.491   8.035  71.272  1.00  0.00    -0.190 C  
BRANCH   5   6
HETATM    6  C   UNL     1     -10.755   8.886  71.263  1.00  0.00    -0.357 C  
BRANCH   6   7
HETATM    7  C   UNL     1     -11.765   8.429  72.296  1.00  0.00    -0.385 C  
HETATM    8  O   UNL     1     -11.438   7.783  73.294  1.00  0.00    -0.295 OA 
BRANCH   7   9
HETATM    9  C   UNL     1     -13.228   8.749  71.983  1.00  0.00    -0.395 C  
HETATM   10  N   UNL     1     -14.001   8.855  73.221  1.00  0.00    -1.217 NA 
HETATM   11  H1  UNL     1     -14.977   9.068  73.012  1.00  0.00     0.000 HD 
HETATM   12  H2  UNL     1     -13.594   9.530  73.868  1.00  0.00     0.000 HD 
ENDBRANCH   7   9
ENDBRANCH   6   7
ENDBRANCH   5   6
ENDBRANCH   3   5
ENDBRANCH   2   3
TORSDOF 5
ENDMDL
MODEL       89
REMARK 921   NORMALIZED FREE ENERGY PREDICTED BY IDOCK:   -2.70 KCAL/MOL
REMARK 922        TOTAL FREE ENERGY PREDICTED BY IDOCK:   -3.93 KCAL/MOL
REMARK 923 INTER-LIGAND FREE ENERGY PREDICTED BY IDOCK:   -3.85 KCAL/MOL
REMARK 924 INTRA-LIGAND FREE ENERGY PREDICTED BY IDOCK:   -0.08 KCAL/MOL
REMARK 927      BINDING AFFINITY PREDICTED BY RF-SCORE:    0.00 PKD
ROOT
HETATM    1  C   UNL     1     -12.432  13.181  70.840  1.00  0.00    -0.323 C  
HETATM    2  O   UNL     1     -12.004  13.772  69.611  1.00  0.00    -0.303 OA 
ENDROOT
BRANCH   2   3
HETATM    3  C   UNL     1     -11.941  15.132  69.644  1.00  0.00    -0.329 C  
HETATM    4  O   UNL     1     -12.274  15.831  70.592  1.00  0.00    -0.392 OA 
BRANCH   3   5
HETATM    5  C   UNL     1     -11.392  15.650  68.340  1.00  0.00    -0.365 C  
BRANCH   5   6
HETATM    6  C   UNL     1     -10.564  16.909  68.562  1.00  0.00    -0.367 C  
BRANCH   6   7
HETATM    7  C   UNL     1     -10.503  17.785  67.326  1.00  0.00    -0.353 C  
HETATM    8  O   UNL     1     -10.294  17.320  66.203  1.00  0.00    -0.341 OA 
BRANCH   7   9
HETATM    9  C   UNL     1     -10.636  19.288  67.568  1.00  0.00    -0.474 C  
HETATM   10  N   UNL     1     -10.207  19.624  68.927  1.00  0.00    -0.599 NA 
HETATM   11  H1  UNL     1     -10.295  20.628  69.089  1.00  0.00     0.000 HD 
HETATM   12  H2  UNL     1      -9.264  19.289  69.122  1.00  0.00     0.000 HD 
ENDBRANCH   7   9
ENDBRANCH   6   7
ENDBRANCH   5   6
ENDBRANCH   3   5
ENDBRANCH   2   3
TORSDOF 5
ENDMDL
MODEL       90
REMARK 921   NORMALIZED FREE ENERGY PREDICTED BY IDOCK:   -2.70 KCAL/MOL
REMARK 922        TOTAL FREE ENERGY PREDICTED BY IDOCK:   -3.92 KCAL/MOL
REMARK 923 INTER-LIGAND FREE ENERGY PREDICTED BY IDOCK:   -3.77 KCAL/MOL
REMARK 924 INTRA-LIGAND FREE ENERGY PREDICTED BY IDOCK:   -0.15 KCAL/MOL
REMARK 927      BINDING AFFINITY PREDICTED BY RF-SCORE:    0.00 PKD
ROOT
HETATM    1  C   UNL     1      -8.869   4.901  71.110  1.00  0.00    -0.127 C  
HETATM    2  O   UNL     1     -10.288   4.990  71.249  1.00  0.00    -0.217 OA 
ENDROOT
BRANCH   2   3
HETATM    3  C   UNL     1     -10.695   5.577  72.409  1.00  0.00    -0.235 C  
HETATM    4  O   UNL     1     -11.365   5.033  73.276  1.00  0.00    -0.325 OA 
BRANCH   3   5
HETATM    5  C   UNL     1     -10.189   6.995  72.469  1.00  0.00    -0.207 C  
BRANCH   5   6
HETATM    6  C   UNL     1     -11.291   7.945  72.920  1.00  0.00    -0.399 C  
BRANCH   6   7
HETATM    7  C   UNL     1     -12.080   8.508  71.755  1.00  0.00    -0.333 C  
HETATM    8  O   UNL     1     -11.775   8.275  70.583  1.00  0.00    -0.254 OA 
BRANCH   7   9
HETATM    9  C   UNL     1     -13.228   9.448  72.122  1.00  0.00    -0.460 C  
HETATM   10  N   UNL     1     -13.921   8.964  73.316  1.00  0.00    -1.217 NA 
HETATM   11  H1  UNL     1     -14.688   9.592  73.561  1.00  0.00     0.000 HD 
HETATM   12  H2  UNL     1     -13.280   8.824  74.097  1.00  0.00     0.000 HD 
ENDBRANCH   7   9
ENDBRANCH   6   7
ENDBRANCH   5   6
ENDBRANCH   3   5
ENDBRANCH   2   3
TORSDOF 5
ENDMDL
MODEL       91
REMARK 921   NORMALIZED FREE ENERGY PREDICTED BY IDOCK:   -2.68 KCAL/MOL
REMARK 922        TOTAL FREE ENERGY PREDICTED BY IDOCK:   -3.90 KCAL/MOL
REMARK 923 INTER-LIGAND FREE ENERGY PREDICTED BY IDOCK:   -3.75 KCAL/MOL
REMARK 924 INTRA-LIGAND FREE ENERGY PREDICTED BY IDOCK:   -0.15 KCAL/MOL
REMARK 927      BINDING AFFINITY PREDICTED BY RF-SCORE:    0.00 PKD
ROOT
HETATM    1  C   UNL     1      -9.923   9.582  67.408  1.00  0.00    -0.189 C  
HETATM    2  O   UNL     1      -9.945   9.411  65.989  1.00  0.00    -0.293 OA 
ENDROOT
BRANCH   2   3
HETATM    3  C   UNL     1     -10.317  10.528  65.303  1.00  0.00    -0.229 C  
HETATM    4  O   UNL     1     -10.401  10.611  64.085  1.00  0.00    -0.351 OA 
BRANCH   3   5
HETATM    5  C   UNL     1     -10.620  11.643  66.269  1.00  0.00    -0.301 C  
BRANCH   5   6
HETATM    6  C   UNL     1     -10.157  12.984  65.711  1.00  0.00    -0.294 C  
BRANCH   6   7
HETATM    7  C   UNL     1     -11.177  14.084  65.932  1.00  0.00    -0.308 C  
HETATM    8  O   UNL     1     -11.025  14.956  66.791  1.00  0.00    -0.314 OA 
BRANCH   7   9
HETATM    9  C   UNL     1     -12.444  13.998  65.081  1.00  0.00    -0.452 C  
HETATM   10  N   UNL     1     -12.377  14.950  63.972  1.00  0.00    -1.021 NA 
HETATM   11  H1  UNL     1     -13.223  14.893  63.404  1.00  0.00     0.000 HD 
HETATM   12  H2  UNL     1     -11.534  14.824  63.412  1.00  0.00     0.000 HD 
ENDBRANCH   7   9
ENDBRANCH   6   7
ENDBRANCH   5   6
ENDBRANCH   3   5
ENDBRANCH   2   3
TORSDOF 5
ENDMDL
MODEL       92
REMARK 921   NORMALIZED FREE ENERGY PREDICTED BY IDOCK:   -2.67 KCAL/MOL
REMARK 922        TOTAL FREE ENERGY PREDICTED BY IDOCK:   -3.89 KCAL/MOL
REMARK 923 INTER-LIGAND FREE ENERGY PREDICTED BY IDOCK:   -3.45 KCAL/MOL
REMARK 924 INTRA-LIGAND FREE ENERGY PREDICTED BY IDOCK:   -0.44 KCAL/MOL
REMARK 927      BINDING AFFINITY PREDICTED BY RF-SCORE:    0.00 PKD
ROOT
HETATM    1  C   UNL     1      -6.368  20.103  64.957  1.00  0.00    -0.282 C  
HETATM    2  O   UNL     1      -7.645  19.749  65.491  1.00  0.00    -0.386 OA 
ENDROOT
BRANCH   2   3
HETATM    3  C   UNL     1      -7.644  18.590  66.207  1.00  0.00    -0.255 C  
HETATM    4  O   UNL     1      -7.760  17.469  65.733  1.00  0.00    -0.530 OA 
BRANCH   3   5
HETATM    5  C   UNL     1      -7.470  18.895  67.672  1.00  0.00    -0.245 C  
BRANCH   5   6
HETATM    6  C   UNL     1      -8.383  18.020  68.521  1.00  0.00    -0.313 C  
BRANCH   6   7
HETATM    7  C   UNL     1      -9.849  18.348  68.319  1.00  0.00    -0.359 C  
HETATM    8  O   UNL     1     -10.273  19.506  68.358  1.00  0.00    -0.415 OA 
BRANCH   7   9
HETATM    9  C   UNL     1     -10.782  17.150  68.146  1.00  0.00    -0.366 C  
HETATM   10  N   UNL     1     -10.521  16.483  66.869  1.00  0.00    -0.301 NA 
HETATM   11  H1  UNL     1     -11.144  15.683  66.753  1.00  0.00     0.000 HD 
HETATM   12  H2  UNL     1      -9.541  16.220  66.771  1.00  0.00     0.000 HD 
ENDBRANCH   7   9
ENDBRANCH   6   7
ENDBRANCH   5   6
ENDBRANCH   3   5
ENDBRANCH   2   3
TORSDOF 5
ENDMDL
MODEL       93
REMARK 921   NORMALIZED FREE ENERGY PREDICTED BY IDOCK:   -2.67 KCAL/MOL
REMARK 922        TOTAL FREE ENERGY PREDICTED BY IDOCK:   -3.89 KCAL/MOL
REMARK 923 INTER-LIGAND FREE ENERGY PREDICTED BY IDOCK:   -3.73 KCAL/MOL
REMARK 924 INTRA-LIGAND FREE ENERGY PREDICTED BY IDOCK:   -0.16 KCAL/MOL
REMARK 927      BINDING AFFINITY PREDICTED BY RF-SCORE:    0.00 PKD
ROOT
HETATM    1  C   UNL     1      -8.278  15.664  67.321  1.00  0.00    -0.191 C  
HETATM    2  O   UNL     1      -8.733  14.453  67.927  1.00  0.00    -0.154 OA 
ENDROOT
BRANCH   2   3
HETATM    3  C   UNL     1      -9.715  13.819  67.228  1.00  0.00    -0.242 C  
HETATM    4  O   UNL     1      -9.809  12.607  67.087  1.00  0.00    -0.206 OA 
BRANCH   3   5
HETATM    5  C   UNL     1     -10.674  14.832  66.661  1.00  0.00    -0.309 C  
BRANCH   5   6
HETATM    6  C   UNL     1     -11.986  14.171  66.257  1.00  0.00    -0.448 C  
BRANCH   6   7
HETATM    7  C   UNL     1     -12.261  14.295  64.772  1.00  0.00    -0.443 C  
HETATM    8  O   UNL     1     -12.905  15.236  64.300  1.00  0.00    -0.482 OA 
BRANCH   7   9
HETATM    9  C   UNL     1     -11.761  13.140  63.903  1.00  0.00    -0.456 C  
HETATM   10  N   UNL     1     -12.862  12.230  63.585  1.00  0.00    -0.797 NA 
HETATM   11  H1  UNL     1     -12.529  11.459  63.006  1.00  0.00     0.000 HD 
HETATM   12  H2  UNL     1     -13.647  12.718  63.154  1.00  0.00     0.000 HD 
ENDBRANCH   7   9
ENDBRANCH   6   7
ENDBRANCH   5   6
ENDBRANCH   3   5
ENDBRANCH   2   3
TORSDOF 5
ENDMDL
MODEL       94
REMARK 921   NORMALIZED FREE ENERGY PREDICTED BY IDOCK:   -2.67 KCAL/MOL
REMARK 922        TOTAL FREE ENERGY PREDICTED BY IDOCK:   -3.89 KCAL/MOL
REMARK 923 INTER-LIGAND FREE ENERGY PREDICTED BY IDOCK:   -3.76 KCAL/MOL
REMARK 924 INTRA-LIGAND FREE ENERGY PREDICTED BY IDOCK:   -0.14 KCAL/MOL
REMARK 927      BINDING AFFINITY PREDICTED BY RF-SCORE:    0.00 PKD
ROOT
HETATM    1  C   UNL     1      -9.989  14.307  67.264  1.00  0.00    -0.252 C  
HETATM    2  O   UNL     1     -10.744  14.390  68.475  1.00  0.00    -0.239 OA 
ENDROOT
BRANCH   2   3
HETATM    3  C   UNL     1     -10.393  15.436  69.275  1.00  0.00    -0.253 C  
HETATM    4  O   UNL     1      -9.580  16.303  68.986  1.00  0.00    -0.237 OA 
BRANCH   3   5
HETATM    5  C   UNL     1     -11.164  15.370  70.568  1.00  0.00    -0.358 C  
BRANCH   5   6
HETATM    6  C   UNL     1     -12.197  14.251  70.527  1.00  0.00    -0.427 C  
BRANCH   6   7
HETATM    7  C   UNL     1     -13.458  14.600  71.292  1.00  0.00    -0.386 C  
HETATM    8  O   UNL     1     -14.060  15.662  71.114  1.00  0.00    -0.539 OA 
BRANCH   7   9
HETATM    9  C   UNL     1     -13.891  13.592  72.357  1.00  0.00    -0.589 C  
HETATM   10  N   UNL     1     -13.401  12.255  72.021  1.00  0.00    -0.477 NA 
HETATM   11  H1  UNL     1     -13.690  11.582  72.731  1.00  0.00     0.000 HD 
HETATM   12  H2  UNL     1     -12.391  12.245  71.877  1.00  0.00     0.000 HD 
ENDBRANCH   7   9
ENDBRANCH   6   7
ENDBRANCH   5   6
ENDBRANCH   3   5
ENDBRANCH   2   3
TORSDOF 5
ENDMDL
MODEL       95
REMARK 921   NORMALIZED FREE ENERGY PREDICTED BY IDOCK:   -2.67 KCAL/MOL
REMARK 922        TOTAL FREE ENERGY PREDICTED BY IDOCK:   -3.89 KCAL/MOL
REMARK 923 INTER-LIGAND FREE ENERGY PREDICTED BY IDOCK:   -3.75 KCAL/MOL
REMARK 924 INTRA-LIGAND FREE ENERGY PREDICTED BY IDOCK:   -0.15 KCAL/MOL
REMARK 927      BINDING AFFINITY PREDICTED BY RF-SCORE:    0.00 PKD
ROOT
HETATM    1  C   UNL     1      -8.042  10.594  68.425  1.00  0.00    -0.123 C  
HETATM    2  O   UNL     1      -9.226   9.813  68.595  1.00  0.00    -0.133 OA 
ENDROOT
BRANCH   2   3
HETATM    3  C   UNL     1      -9.621   9.682  69.892  1.00  0.00    -0.230 C  
HETATM    4  O   UNL     1      -8.869   9.625  70.856  1.00  0.00    -0.206 OA 
BRANCH   3   5
HETATM    5  C   UNL     1     -11.125   9.625  69.965  1.00  0.00    -0.293 C  
BRANCH   5   6
HETATM    6  C   UNL     1     -11.617  10.037  71.347  1.00  0.00    -0.383 C  
BRANCH   6   7
HETATM    7  C   UNL     1     -12.211   8.875  72.118  1.00  0.00    -0.367 C  
HETATM    8  O   UNL     1     -11.513   8.096  72.772  1.00  0.00    -0.408 OA 
BRANCH   7   9
HETATM    9  C   UNL     1     -13.720   8.678  71.967  1.00  0.00    -0.426 C  
HETATM   10  N   UNL     1     -14.399   8.965  73.232  1.00  0.00    -1.177 NA 
HETATM   11  H1  UNL     1     -15.406   8.833  73.132  1.00  0.00     0.000 HD 
HETATM   12  H2  UNL     1     -14.169   9.894  73.585  1.00  0.00     0.000 HD 
ENDBRANCH   7   9
ENDBRANCH   6   7
ENDBRANCH   5   6
ENDBRANCH   3   5
ENDBRANCH   2   3
TORSDOF 5
ENDMDL
MODEL       96
REMARK 921   NORMALIZED FREE ENERGY PREDICTED BY IDOCK:   -2.67 KCAL/MOL
REMARK 922        TOTAL FREE ENERGY PREDICTED BY IDOCK:   -3.88 KCAL/MOL
REMARK 923 INTER-LIGAND FREE ENERGY PREDICTED BY IDOCK:   -3.74 KCAL/MOL
REMARK 924 INTRA-LIGAND FREE ENERGY PREDICTED BY IDOCK:   -0.15 KCAL/MOL
REMARK 927      BINDING AFFINITY PREDICTED BY RF-SCORE:    0.00 PKD
ROOT
HETATM    1  C   UNL     1      -9.548  12.963  66.773  1.00  0.00    -0.246 C  
HETATM    2  O   UNL     1     -10.187  13.854  65.856  1.00  0.00    -0.297 OA 
ENDROOT
BRANCH   2   3
HETATM    3  C   UNL     1     -10.451  15.086  66.373  1.00  0.00    -0.294 C  
HETATM    4  O   UNL     1     -11.274  15.322  67.247  1.00  0.00    -0.335 OA 
BRANCH   3   5
HETATM    5  C   UNL     1      -9.570  16.116  65.714  1.00  0.00    -0.292 C  
BRANCH   5   6
HETATM    6  C   UNL     1      -9.434  17.354  66.590  1.00  0.00    -0.285 C  
BRANCH   6   7
HETATM    7  C   UNL     1     -10.256  18.519  66.075  1.00  0.00    -0.345 C  
HETATM    8  O   UNL     1     -10.937  18.439  65.050  1.00  0.00    -0.644 OA 
BRANCH   7   9
HETATM    9  C   UNL     1     -10.124  19.825  66.859  1.00  0.00    -0.437 C  
HETATM   10  N   UNL     1      -8.889  20.518  66.489  1.00  0.00    -0.561 NA 
HETATM   11  H1  UNL     1      -8.801  21.389  67.012  1.00  0.00     0.000 HD 
HETATM   12  H2  UNL     1      -8.825  20.670  65.482  1.00  0.00     0.000 HD 
ENDBRANCH   7   9
ENDBRANCH   6   7
ENDBRANCH   5   6
ENDBRANCH   3   5
ENDBRANCH   2   3
TORSDOF 5
ENDMDL
MODEL       97
REMARK 921   NORMALIZED FREE ENERGY PREDICTED BY IDOCK:   -2.66 KCAL/MOL
REMARK 922        TOTAL FREE ENERGY PREDICTED BY IDOCK:   -3.88 KCAL/MOL
REMARK 923 INTER-LIGAND FREE ENERGY PREDICTED BY IDOCK:   -3.75 KCAL/MOL
REMARK 924 INTRA-LIGAND FREE ENERGY PREDICTED BY IDOCK:   -0.13 KCAL/MOL
REMARK 927      BINDING AFFINITY PREDICTED BY RF-SCORE:    0.00 PKD
ROOT
HETATM    1  C   UNL     1     -11.387  14.979  65.020  1.00  0.00    -0.394 C  
HETATM    2  O   UNL     1     -10.994  15.619  66.236  1.00  0.00    -0.295 OA 
ENDROOT
BRANCH   2   3
HETATM    3  C   UNL     1     -10.230  16.733  66.053  1.00  0.00    -0.346 C  
HETATM    4  O   UNL     1     -10.443  17.605  65.222  1.00  0.00    -0.630 OA 
BRANCH   3   5
HETATM    5  C   UNL     1      -9.086  16.733  67.033  1.00  0.00    -0.239 C  
BRANCH   5   6
HETATM    6  C   UNL     1      -7.863  17.421  66.440  1.00  0.00    -0.337 C  
BRANCH   6   7
HETATM    7  C   UNL     1      -7.528  18.717  67.151  1.00  0.00    -0.225 C  
HETATM    8  O   UNL     1      -7.491  18.800  68.381  1.00  0.00    -0.276 OA 
BRANCH   7   9
HETATM    9  C   UNL     1      -7.319  19.935  66.251  1.00  0.00    -0.288 C  
HETATM   10  N   UNL     1      -7.576  21.169  66.996  1.00  0.00    -0.719 NA 
HETATM   11  H1  UNL     1      -7.437  21.982  66.395  1.00  0.00     0.000 HD 
HETATM   12  H2  UNL     1      -7.016  21.223  67.846  1.00  0.00     0.000 HD 
ENDBRANCH   7   9
ENDBRANCH   6   7
ENDBRANCH   5   6
ENDBRANCH   3   5
ENDBRANCH   2   3
TORSDOF 5
ENDMDL
MODEL       98
REMARK 921   NORMALIZED FREE ENERGY PREDICTED BY IDOCK:   -2.64 KCAL/MOL
REMARK 922        TOTAL FREE ENERGY PREDICTED BY IDOCK:   -3.85 KCAL/MOL
REMARK 923 INTER-LIGAND FREE ENERGY PREDICTED BY IDOCK:   -3.76 KCAL/MOL
REMARK 924 INTRA-LIGAND FREE ENERGY PREDICTED BY IDOCK:   -0.09 KCAL/MOL
REMARK 927      BINDING AFFINITY PREDICTED BY RF-SCORE:    0.00 PKD
ROOT
HETATM    1  C   UNL     1     -10.972   9.914  70.327  1.00  0.00    -0.309 C  
HETATM    2  O   UNL     1     -10.358  10.780  69.370  1.00  0.00    -0.218 OA 
ENDROOT
BRANCH   2   3
HETATM    3  C   UNL     1     -11.093  10.964  68.238  1.00  0.00    -0.266 C  
HETATM    4  O   UNL     1     -12.207  11.467  68.196  1.00  0.00    -0.602 OA 
BRANCH   3   5
HETATM    5  C   UNL     1     -10.323  10.464  67.043  1.00  0.00    -0.295 C  
BRANCH   5   6
HETATM    6  C   UNL     1      -9.745  11.626  66.246  1.00  0.00    -0.241 C  
BRANCH   6   7
HETATM    7  C   UNL     1     -10.223  11.634  64.807  1.00  0.00    -0.275 C  
HETATM    8  O   UNL     1     -10.117  10.646  64.076  1.00  0.00    -0.328 OA 
BRANCH   7   9
HETATM    9  C   UNL     1     -10.768  12.967  64.294  1.00  0.00    -0.406 C  
HETATM   10  N   UNL     1     -11.642  12.748  63.140  1.00  0.00    -0.817 NA 
HETATM   11  H1  UNL     1     -12.005  13.638  62.798  1.00  0.00     0.000 HD 
HETATM   12  H2  UNL     1     -12.389  12.087  63.349  1.00  0.00     0.000 HD 
ENDBRANCH   7   9
ENDBRANCH   6   7
ENDBRANCH   5   6
ENDBRANCH   3   5
ENDBRANCH   2   3
TORSDOF 5
ENDMDL
MODEL       99
REMARK 921   NORMALIZED FREE ENERGY PREDICTED BY IDOCK:   -2.62 KCAL/MOL
REMARK 922        TOTAL FREE ENERGY PREDICTED BY IDOCK:   -3.82 KCAL/MOL
REMARK 923 INTER-LIGAND FREE ENERGY PREDICTED BY IDOCK:   -3.39 KCAL/MOL
REMARK 924 INTRA-LIGAND FREE ENERGY PREDICTED BY IDOCK:   -0.44 KCAL/MOL
REMARK 927      BINDING AFFINITY PREDICTED BY RF-SCORE:    0.00 PKD
ROOT
HETATM    1  C   UNL     1     -12.840  11.093  71.208  1.00  0.00    -0.412 C  
HETATM    2  O   UNL     1     -11.971  10.064  71.685  1.00  0.00    -0.376 OA 
ENDROOT
BRANCH   2   3
HETATM    3  C   UNL     1     -10.938   9.778  70.844  1.00  0.00    -0.341 C  
HETATM    4  O   UNL     1     -10.519  10.519  69.965  1.00  0.00    -0.233 OA 
BRANCH   3   5
HETATM    5  C   UNL     1     -10.382   8.415  71.164  1.00  0.00    -0.264 C  
BRANCH   5   6
HETATM    6  C   UNL     1     -10.927   7.905  72.492  1.00  0.00    -0.412 C  
BRANCH   6   7
HETATM    7  C   UNL     1     -11.769   6.655  72.328  1.00  0.00    -0.269 C  
HETATM    8  O   UNL     1     -11.430   5.568  72.803  1.00  0.00    -0.303 OA 
BRANCH   7   9
HETATM    9  C   UNL     1     -13.024   6.806  71.468  1.00  0.00    -0.222 C  
HETATM   10  N   UNL     1     -13.989   7.688  72.127  1.00  0.00    -0.555 NA 
HETATM   11  H1  UNL     1     -14.827   7.789  71.554  1.00  0.00     0.000 HD 
HETATM   12  H2  UNL     1     -13.579   8.591  72.364  1.00  0.00     0.000 HD 
ENDBRANCH   7   9
ENDBRANCH   6   7
ENDBRANCH   5   6
ENDBRANCH   3   5
ENDBRANCH   2   3
TORSDOF 5
ENDMDL
MODEL      100
REMARK 921   NORMALIZED FREE ENERGY PREDICTED BY IDOCK:   -2.62 KCAL/MOL
REMARK 922        TOTAL FREE ENERGY PREDICTED BY IDOCK:   -3.82 KCAL/MOL
REMARK 923 INTER-LIGAND FREE ENERGY PREDICTED BY IDOCK:   -3.69 KCAL/MOL
REMARK 924 INTRA-LIGAND FREE ENERGY PREDICTED BY IDOCK:   -0.13 KCAL/MOL
REMARK 927      BINDING AFFINITY PREDICTED BY RF-SCORE:    0.00 PKD
ROOT
HETATM    1  C   UNL     1      -9.928  11.473  67.250  1.00  0.00    -0.191 C  
HETATM    2  O   UNL     1     -10.192  11.985  68.558  1.00  0.00    -0.215 OA 
ENDROOT
BRANCH   2   3
HETATM    3  C   UNL     1     -11.514  12.017  68.884  1.00  0.00    -0.301 C  
HETATM    4  O   UNL     1     -12.337  11.166  68.577  1.00  0.00    -0.561 OA 
BRANCH   3   5
HETATM    5  C   UNL     1     -11.811  13.257  69.688  1.00  0.00    -0.391 C  
BRANCH   5   6
HETATM    6  C   UNL     1     -11.122  14.473  69.083  1.00  0.00    -0.284 C  
BRANCH   6   7
HETATM    7  C   UNL     1     -11.454  15.753  69.825  1.00  0.00    -0.349 C  
HETATM    8  O   UNL     1     -10.860  16.811  69.605  1.00  0.00    -0.333 OA 
BRANCH   7   9
HETATM    9  C   UNL     1     -12.513  15.631  70.920  1.00  0.00    -0.445 C  
HETATM   10  N   UNL     1     -12.086  16.349  72.123  1.00  0.00    -0.619 NA 
HETATM   11  H1  UNL     1     -12.793  16.268  72.854  1.00  0.00     0.000 HD 
HETATM   12  H2  UNL     1     -11.855  17.322  71.923  1.00  0.00     0.000 HD 
ENDBRANCH   7   9
ENDBRANCH   6   7
ENDBRANCH   5   6
ENDBRANCH   3   5
ENDBRANCH   2   3
TORSDOF 5
ENDMDL
MODEL      101
REMARK 921   NORMALIZED FREE ENERGY PREDICTED BY IDOCK:   -2.60 KCAL/MOL
REMARK 922        TOTAL FREE ENERGY PREDICTED BY IDOCK:   -3.80 KCAL/MOL
REMARK 923 INTER-LIGAND FREE ENERGY PREDICTED BY IDOCK:   -3.37 KCAL/MOL
REMARK 924 INTRA-LIGAND FREE ENERGY PREDICTED BY IDOCK:   -0.43 KCAL/MOL
REMARK 927      BINDING AFFINITY PREDICTED BY RF-SCORE:    0.00 PKD
ROOT
HETATM    1  C   UNL     1      -9.471   6.201  72.466  1.00  0.00    -0.143 C  
HETATM    2  O   UNL     1     -10.595   6.424  71.613  1.00  0.00    -0.213 OA 
ENDROOT
BRANCH   2   3
HETATM    3  C   UNL     1     -11.154   7.660  71.745  1.00  0.00    -0.242 C  
HETATM    4  O   UNL     1     -11.765   8.056  72.728  1.00  0.00    -0.396 OA 
BRANCH   3   5
HETATM    5  C   UNL     1     -10.899   8.470  70.500  1.00  0.00    -0.252 C  
BRANCH   5   6
HETATM    6  C   UNL     1     -10.809   9.955  70.829  1.00  0.00    -0.387 C  
BRANCH   6   7
HETATM    7  C   UNL     1     -12.044  10.718  70.393  1.00  0.00    -0.354 C  
HETATM    8  O   UNL     1     -12.312  10.908  69.204  1.00  0.00    -0.435 OA 
BRANCH   7   9
HETATM    9  C   UNL     1     -12.892  11.310  71.519  1.00  0.00    -0.414 C  
HETATM   10  N   UNL     1     -13.620  10.251  72.218  1.00  0.00    -0.537 NA 
HETATM   11  H1  UNL     1     -14.186  10.646  72.969  1.00  0.00     0.000 HD 
HETATM   12  H2  UNL     1     -12.995   9.520  72.557  1.00  0.00     0.000 HD 
ENDBRANCH   7   9
ENDBRANCH   6   7
ENDBRANCH   5   6
ENDBRANCH   3   5
ENDBRANCH   2   3
TORSDOF 5
ENDMDL
MODEL      102
REMARK 921   NORMALIZED FREE ENERGY PREDICTED BY IDOCK:   -2.60 KCAL/MOL
REMARK 922        TOTAL FREE ENERGY PREDICTED BY IDOCK:   -3.80 KCAL/MOL
REMARK 923 INTER-LIGAND FREE ENERGY PREDICTED BY IDOCK:   -3.69 KCAL/MOL
REMARK 924 INTRA-LIGAND FREE ENERGY PREDICTED BY IDOCK:   -0.11 KCAL/MOL
REMARK 927      BINDING AFFINITY PREDICTED BY RF-SCORE:    0.00 PKD
ROOT
HETATM    1  C   UNL     1     -13.394  12.397  71.996  1.00  0.00    -0.407 C  
HETATM    2  O   UNL     1     -13.211  10.993  71.805  1.00  0.00    -0.446 OA 
ENDROOT
BRANCH   2   3
HETATM    3  C   UNL     1     -12.463  10.675  70.711  1.00  0.00    -0.385 C  
HETATM    4  O   UNL     1     -12.575  11.191  69.607  1.00  0.00    -0.201 OA 
BRANCH   3   5
HETATM    5  C   UNL     1     -11.471   9.599  71.067  1.00  0.00    -0.444 C  
BRANCH   5   6
HETATM    6  C   UNL     1     -12.095   8.574  72.005  1.00  0.00    -0.428 C  
BRANCH   6   7
HETATM    7  C   UNL     1     -11.614   7.165  71.724  1.00  0.00    -0.280 C  
HETATM    8  O   UNL     1     -11.878   6.580  70.671  1.00  0.00    -0.384 OA 
BRANCH   7   9
HETATM    9  C   UNL     1     -10.851   6.483  72.860  1.00  0.00    -0.258 C  
HETATM   10  N   UNL     1     -11.655   5.405  73.438  1.00  0.00    -0.459 NA 
HETATM   11  H1  UNL     1     -11.146   4.950  74.196  1.00  0.00     0.000 HD 
HETATM   12  H2  UNL     1     -11.961   4.738  72.730  1.00  0.00     0.000 HD 
ENDBRANCH   7   9
ENDBRANCH   6   7
ENDBRANCH   5   6
ENDBRANCH   3   5
ENDBRANCH   2   3
TORSDOF 5
ENDMDL
MODEL      103
REMARK 921   NORMALIZED FREE ENERGY PREDICTED BY IDOCK:   -2.60 KCAL/MOL
REMARK 922        TOTAL FREE ENERGY PREDICTED BY IDOCK:   -3.80 KCAL/MOL
REMARK 923 INTER-LIGAND FREE ENERGY PREDICTED BY IDOCK:   -3.65 KCAL/MOL
REMARK 924 INTRA-LIGAND FREE ENERGY PREDICTED BY IDOCK:   -0.15 KCAL/MOL
REMARK 927      BINDING AFFINITY PREDICTED BY RF-SCORE:    0.00 PKD
ROOT
HETATM    1  C   UNL     1     -10.033  10.944  67.608  1.00  0.00    -0.173 C  
HETATM    2  O   UNL     1     -11.320  11.194  68.176  1.00  0.00    -0.264 OA 
ENDROOT
BRANCH   2   3
HETATM    3  C   UNL     1     -11.843  12.408  67.850  1.00  0.00    -0.308 C  
HETATM    4  O   UNL     1     -12.275  12.717  66.747  1.00  0.00    -0.506 OA 
BRANCH   3   5
HETATM    5  C   UNL     1     -11.819  13.315  69.053  1.00  0.00    -0.365 C  
BRANCH   5   6
HETATM    6  C   UNL     1     -12.068  12.525  70.332  1.00  0.00    -0.380 C  
BRANCH   6   7
HETATM    7  C   UNL     1     -12.895  13.300  71.338  1.00  0.00    -0.322 C  
HETATM    8  O   UNL     1     -13.421  12.757  72.312  1.00  0.00    -0.565 OA 
BRANCH   7   9
HETATM    9  C   UNL     1     -13.104  14.782  71.026  1.00  0.00    -0.375 C  
HETATM   10  N   UNL     1     -12.425  15.612  72.022  1.00  0.00    -0.390 NA 
HETATM   11  H1  UNL     1     -12.565  16.602  71.814  1.00  0.00     0.000 HD 
HETATM   12  H2  UNL     1     -11.436  15.377  72.102  1.00  0.00     0.000 HD 
ENDBRANCH   7   9
ENDBRANCH   6   7
ENDBRANCH   5   6
ENDBRANCH   3   5
ENDBRANCH   2   3
TORSDOF 5
ENDMDL
MODEL      104
REMARK 921   NORMALIZED FREE ENERGY PREDICTED BY IDOCK:   -2.59 KCAL/MOL
REMARK 922        TOTAL FREE ENERGY PREDICTED BY IDOCK:   -3.79 KCAL/MOL
REMARK 923 INTER-LIGAND FREE ENERGY PREDICTED BY IDOCK:   -3.48 KCAL/MOL
REMARK 924 INTRA-LIGAND FREE ENERGY PREDICTED BY IDOCK:   -0.31 KCAL/MOL
REMARK 927      BINDING AFFINITY PREDICTED BY RF-SCORE:    0.00 PKD
ROOT
HETATM    1  C   UNL     1     -11.645  15.423  70.000  1.00  0.00    -0.321 C  
HETATM    2  O   UNL     1     -11.643  16.171  68.783  1.00  0.00    -0.368 OA 
ENDROOT
BRANCH   2   3
HETATM    3  C   UNL     1     -11.249  15.454  67.693  1.00  0.00    -0.311 C  
HETATM    4  O   UNL     1     -10.307  15.737  66.967  1.00  0.00    -0.279 OA 
BRANCH   3   5
HETATM    5  C   UNL     1     -12.143  14.253  67.522  1.00  0.00    -0.347 C  
BRANCH   5   6
HETATM    6  C   UNL     1     -11.341  13.041  67.064  1.00  0.00    -0.343 C  
BRANCH   6   7
HETATM    7  C   UNL     1     -10.549  12.413  68.193  1.00  0.00    -0.216 C  
HETATM    8  O   UNL     1      -9.319  12.482  68.249  1.00  0.00    -0.205 OA 
BRANCH   7   9
HETATM    9  C   UNL     1     -11.363  11.618  69.215  1.00  0.00    -0.290 C  
HETATM   10  N   UNL     1     -12.277  10.700  68.534  1.00  0.00    -0.801 NA 
HETATM   11  H1  UNL     1     -12.820  10.170  69.216  1.00  0.00     0.000 HD 
HETATM   12  H2  UNL     1     -11.786  10.090  67.881  1.00  0.00     0.000 HD 
ENDBRANCH   7   9
ENDBRANCH   6   7
ENDBRANCH   5   6
ENDBRANCH   3   5
ENDBRANCH   2   3
TORSDOF 5
ENDMDL
MODEL      105
REMARK 921   NORMALIZED FREE ENERGY PREDICTED BY IDOCK:   -2.59 KCAL/MOL
REMARK 922        TOTAL FREE ENERGY PREDICTED BY IDOCK:   -3.78 KCAL/MOL
REMARK 923 INTER-LIGAND FREE ENERGY PREDICTED BY IDOCK:   -3.62 KCAL/MOL
REMARK 924 INTRA-LIGAND FREE ENERGY PREDICTED BY IDOCK:   -0.16 KCAL/MOL
REMARK 927      BINDING AFFINITY PREDICTED BY RF-SCORE:    0.00 PKD
ROOT
HETATM    1  C   UNL     1     -14.249   7.703  71.446  1.00  0.00    -0.388 C  
HETATM    2  O   UNL     1     -14.013   8.806  72.322  1.00  0.00    -0.430 OA 
ENDROOT
BRANCH   2   3
HETATM    3  C   UNL     1     -13.097   9.699  71.854  1.00  0.00    -0.436 C  
HETATM    4  O   UNL     1     -13.141  10.910  72.027  1.00  0.00    -0.491 OA 
BRANCH   3   5
HETATM    5  C   UNL     1     -12.017   8.972  71.097  1.00  0.00    -0.356 C  
BRANCH   5   6
HETATM    6  C   UNL     1     -10.790   8.757  71.975  1.00  0.00    -0.428 C  
BRANCH   6   7
HETATM    7  C   UNL     1     -10.745   7.364  72.571  1.00  0.00    -0.272 C  
HETATM    8  O   UNL     1     -10.599   7.173  73.781  1.00  0.00    -0.377 OA 
BRANCH   7   9
HETATM    9  C   UNL     1     -10.809   6.209  71.571  1.00  0.00    -0.261 C  
HETATM   10  N   UNL     1      -9.817   6.399  70.511  1.00  0.00    -0.182 NA 
HETATM   11  H1  UNL     1      -9.860   5.628  69.843  1.00  0.00     0.000 HD 
HETATM   12  H2  UNL     1      -8.878   6.525  70.887  1.00  0.00     0.000 HD 
ENDBRANCH   7   9
ENDBRANCH   6   7
ENDBRANCH   5   6
ENDBRANCH   3   5
ENDBRANCH   2   3
TORSDOF 5
ENDMDL
MODEL      106
REMARK 921   NORMALIZED FREE ENERGY PREDICTED BY IDOCK:   -2.59 KCAL/MOL
REMARK 922        TOTAL FREE ENERGY PREDICTED BY IDOCK:   -3.78 KCAL/MOL
REMARK 923 INTER-LIGAND FREE ENERGY PREDICTED BY IDOCK:   -3.62 KCAL/MOL
REMARK 924 INTRA-LIGAND FREE ENERGY PREDICTED BY IDOCK:   -0.16 KCAL/MOL
REMARK 927      BINDING AFFINITY PREDICTED BY RF-SCORE:    0.00 PKD
ROOT
HETATM    1  C   UNL     1     -10.767   5.383  71.372  1.00  0.00    -0.188 C  
HETATM    2  O   UNL     1     -11.536   6.415  71.993  1.00  0.00    -0.275 OA 
ENDROOT
BRANCH   2   3
HETATM    3  C   UNL     1     -10.850   7.130  72.929  1.00  0.00    -0.323 C  
HETATM    4  O   UNL     1     -10.603   6.748  74.065  1.00  0.00    -0.343 OA 
BRANCH   3   5
HETATM    5  C   UNL     1     -10.434   8.458  72.353  1.00  0.00    -0.402 C  
BRANCH   5   6
HETATM    6  C   UNL     1     -11.588   9.109  71.602  1.00  0.00    -0.449 C  
BRANCH   6   7
HETATM    7  C   UNL     1     -11.149   9.721  70.286  1.00  0.00    -0.292 C  
HETATM    8  O   UNL     1     -10.192   9.280  69.645  1.00  0.00    -0.190 OA 
BRANCH   7   9
HETATM    9  C   UNL     1     -11.914  10.968  69.844  1.00  0.00    -0.351 C  
HETATM   10  N   UNL     1     -12.184  10.916  68.406  1.00  0.00    -0.810 NA 
HETATM   11  H1  UNL     1     -12.695  11.749  68.110  1.00  0.00     0.000 HD 
HETATM   12  H2  UNL     1     -12.668  10.059  68.141  1.00  0.00     0.000 HD 
ENDBRANCH   7   9
ENDBRANCH   6   7
ENDBRANCH   5   6
ENDBRANCH   3   5
ENDBRANCH   2   3
TORSDOF 5
ENDMDL
MODEL      107
REMARK 921   NORMALIZED FREE ENERGY PREDICTED BY IDOCK:   -2.58 KCAL/MOL
REMARK 922        TOTAL FREE ENERGY PREDICTED BY IDOCK:   -3.77 KCAL/MOL
REMARK 923 INTER-LIGAND FREE ENERGY PREDICTED BY IDOCK:   -3.33 KCAL/MOL
REMARK 924 INTRA-LIGAND FREE ENERGY PREDICTED BY IDOCK:   -0.45 KCAL/MOL
REMARK 927      BINDING AFFINITY PREDICTED BY RF-SCORE:    0.00 PKD
ROOT
HETATM    1  C   UNL     1      -7.605  18.104  68.356  1.00  0.00    -0.283 C  
HETATM    2  O   UNL     1      -8.732  17.372  67.869  1.00  0.00    -0.228 OA 
ENDROOT
BRANCH   2   3
HETATM    3  C   UNL     1      -8.892  17.436  66.518  1.00  0.00    -0.263 C  
HETATM    4  O   UNL     1      -8.097  17.943  65.737  1.00  0.00    -0.537 OA 
BRANCH   3   5
HETATM    5  C   UNL     1     -10.190  16.780  66.126  1.00  0.00    -0.363 C  
BRANCH   5   6
HETATM    6  C   UNL     1     -10.008  15.278  65.949  1.00  0.00    -0.368 C  
BRANCH   6   7
HETATM    7  C   UNL     1     -10.779  14.478  66.980  1.00  0.00    -0.291 C  
HETATM    8  O   UNL     1     -12.011  14.422  66.980  1.00  0.00    -0.409 OA 
BRANCH   7   9
HETATM    9  C   UNL     1      -9.938  13.811  68.069  1.00  0.00    -0.246 C  
HETATM   10  N   UNL     1      -9.703  14.743  69.173  1.00  0.00    -0.341 NA 
HETATM   11  H1  UNL     1      -9.142  14.299  69.900  1.00  0.00     0.000 HD 
HETATM   12  H2  UNL     1     -10.575  15.121  69.543  1.00  0.00     0.000 HD 
ENDBRANCH   7   9
ENDBRANCH   6   7
ENDBRANCH   5   6
ENDBRANCH   3   5
ENDBRANCH   2   3
TORSDOF 5
ENDMDL
MODEL      108
REMARK 921   NORMALIZED FREE ENERGY PREDICTED BY IDOCK:   -2.58 KCAL/MOL
REMARK 922        TOTAL FREE ENERGY PREDICTED BY IDOCK:   -3.77 KCAL/MOL
REMARK 923 INTER-LIGAND FREE ENERGY PREDICTED BY IDOCK:   -3.60 KCAL/MOL
REMARK 924 INTRA-LIGAND FREE ENERGY PREDICTED BY IDOCK:   -0.17 KCAL/MOL
REMARK 927      BINDING AFFINITY PREDICTED BY RF-SCORE:    0.00 PKD
ROOT
HETATM    1  C   UNL     1     -10.494   5.240  69.712  1.00  0.00    -0.269 C  
HETATM    2  O   UNL     1     -10.170   6.626  69.833  1.00  0.00    -0.180 OA 
ENDROOT
BRANCH   2   3
HETATM    3  C   UNL     1      -9.893   7.021  71.107  1.00  0.00    -0.176 C  
HETATM    4  O   UNL     1      -8.823   7.477  71.487  1.00  0.00    -0.123 OA 
BRANCH   3   5
HETATM    5  C   UNL     1     -11.105   6.820  71.979  1.00  0.00    -0.283 C  
BRANCH   5   6
HETATM    6  C   UNL     1     -11.453   8.100  72.729  1.00  0.00    -0.397 C  
BRANCH   6   7
HETATM    7  C   UNL     1     -12.178   9.103  71.854  1.00  0.00    -0.379 C  
HETATM    8  O   UNL     1     -11.575   9.898  71.129  1.00  0.00    -0.341 OA 
BRANCH   7   9
HETATM    9  C   UNL     1     -13.701   9.123  71.987  1.00  0.00    -0.448 C  
HETATM   10  N   UNL     1     -14.105   8.603  73.294  1.00  0.00    -1.007 NA 
HETATM   11  H1  UNL     1     -15.121   8.617  73.383  1.00  0.00     0.000 HD 
HETATM   12  H2  UNL     1     -13.649   9.101  74.059  1.00  0.00     0.000 HD 
ENDBRANCH   7   9
ENDBRANCH   6   7
ENDBRANCH   5   6
ENDBRANCH   3   5
ENDBRANCH   2   3
TORSDOF 5
ENDMDL
MODEL      109
REMARK 921   NORMALIZED FREE ENERGY PREDICTED BY IDOCK:   -2.57 KCAL/MOL
REMARK 922        TOTAL FREE ENERGY PREDICTED BY IDOCK:   -3.77 KCAL/MOL
REMARK 923 INTER-LIGAND FREE ENERGY PREDICTED BY IDOCK:   -3.64 KCAL/MOL
REMARK 924 INTRA-LIGAND FREE ENERGY PREDICTED BY IDOCK:   -0.13 KCAL/MOL
REMARK 927      BINDING AFFINITY PREDICTED BY RF-SCORE:    0.00 PKD
ROOT
HETATM    1  C   UNL     1      -5.829  17.818  69.899  1.00  0.00    -0.240 C  
HETATM    2  O   UNL     1      -6.954  18.032  69.045  1.00  0.00    -0.262 OA 
ENDROOT
BRANCH   2   3
HETATM    3  C   UNL     1      -7.230  19.346  68.810  1.00  0.00    -0.355 C  
HETATM    4  O   UNL     1      -6.635  20.291  69.311  1.00  0.00    -0.292 OA 
BRANCH   3   5
HETATM    5  C   UNL     1      -8.372  19.462  67.835  1.00  0.00    -0.343 C  
BRANCH   5   6
HETATM    6  C   UNL     1      -9.647  18.868  68.421  1.00  0.00    -0.420 C  
BRANCH   6   7
HETATM    7  C   UNL     1     -10.340  17.925  67.458  1.00  0.00    -0.377 C  
HETATM    8  O   UNL     1     -10.938  16.917  67.843  1.00  0.00    -0.342 OA 
BRANCH   7   9
HETATM    9  C   UNL     1     -10.183  18.255  65.973  1.00  0.00    -0.323 C  
HETATM   10  N   UNL     1     -10.613  17.122  65.152  1.00  0.00    -0.682 NA 
HETATM   11  H1  UNL     1     -10.508  17.342  64.161  1.00  0.00     0.000 HD 
HETATM   12  H2  UNL     1     -11.562  16.827  65.378  1.00  0.00     0.000 HD 
ENDBRANCH   7   9
ENDBRANCH   6   7
ENDBRANCH   5   6
ENDBRANCH   3   5
ENDBRANCH   2   3
TORSDOF 5
ENDMDL
MODEL      110
REMARK 921   NORMALIZED FREE ENERGY PREDICTED BY IDOCK:   -2.57 KCAL/MOL
REMARK 922        TOTAL FREE ENERGY PREDICTED BY IDOCK:   -3.76 KCAL/MOL
REMARK 923 INTER-LIGAND FREE ENERGY PREDICTED BY IDOCK:   -3.48 KCAL/MOL
REMARK 924 INTRA-LIGAND FREE ENERGY PREDICTED BY IDOCK:   -0.28 KCAL/MOL
REMARK 927      BINDING AFFINITY PREDICTED BY RF-SCORE:    0.00 PKD
ROOT
HETATM    1  C   UNL     1      -7.916  13.006  67.013  1.00  0.00    -0.004 C  
HETATM    2  O   UNL     1      -8.667  14.058  67.621  1.00  0.00    -0.167 OA 
ENDROOT
BRANCH   2   3
HETATM    3  C   UNL     1      -9.576  14.641  66.790  1.00  0.00    -0.253 C  
HETATM    4  O   UNL     1      -9.412  14.840  65.594  1.00  0.00    -0.266 OA 
BRANCH   3   5
HETATM    5  C   UNL     1     -10.820  14.997  67.563  1.00  0.00    -0.297 C  
BRANCH   5   6
HETATM    6  C   UNL     1     -12.020  14.209  67.053  1.00  0.00    -0.471 C  
BRANCH   6   7
HETATM    7  C   UNL     1     -11.828  12.712  67.192  1.00  0.00    -0.330 C  
HETATM    8  O   UNL     1     -11.836  11.956  66.217  1.00  0.00    -0.546 OA 
BRANCH   7   9
HETATM    9  C   UNL     1     -11.708  12.186  68.623  1.00  0.00    -0.330 C  
HETATM   10  N   UNL     1     -12.105  10.779  68.682  1.00  0.00    -0.816 NA 
HETATM   11  H1  UNL     1     -12.025  10.428  69.637  1.00  0.00     0.000 HD 
HETATM   12  H2  UNL     1     -11.580  10.207  68.021  1.00  0.00     0.000 HD 
ENDBRANCH   7   9
ENDBRANCH   6   7
ENDBRANCH   5   6
ENDBRANCH   3   5
ENDBRANCH   2   3
TORSDOF 5
ENDMDL
MODEL      111
REMARK 921   NORMALIZED FREE ENERGY PREDICTED BY IDOCK:   -2.56 KCAL/MOL
REMARK 922        TOTAL FREE ENERGY PREDICTED BY IDOCK:   -3.75 KCAL/MOL
REMARK 923 INTER-LIGAND FREE ENERGY PREDICTED BY IDOCK:   -3.36 KCAL/MOL
REMARK 924 INTRA-LIGAND FREE ENERGY PREDICTED BY IDOCK:   -0.39 KCAL/MOL
REMARK 927      BINDING AFFINITY PREDICTED BY RF-SCORE:    0.00 PKD
ROOT
HETATM    1  C   UNL     1      -8.330  16.896  67.499  1.00  0.00    -0.189 C  
HETATM    2  O   UNL     1      -9.261  15.987  68.090  1.00  0.00    -0.192 OA 
ENDROOT
BRANCH   2   3
HETATM    3  C   UNL     1     -10.563  16.366  67.959  1.00  0.00    -0.314 C  
HETATM    4  O   UNL     1     -10.949  17.514  67.788  1.00  0.00    -0.314 OA 
BRANCH   3   5
HETATM    5  C   UNL     1     -11.458  15.157  68.047  1.00  0.00    -0.355 C  
BRANCH   5   6
HETATM    6  C   UNL     1     -11.624  14.503  66.681  1.00  0.00    -0.385 C  
BRANCH   6   7
HETATM    7  C   UNL     1     -11.303  13.022  66.707  1.00  0.00    -0.324 C  
HETATM    8  O   UNL     1     -12.153  12.162  66.463  1.00  0.00    -0.627 OA 
BRANCH   7   9
HETATM    9  C   UNL     1      -9.881  12.656  67.135  1.00  0.00    -0.212 C  
HETATM   10  N   UNL     1      -8.909  13.511  66.451  1.00  0.00    -0.449 NA 
HETATM   11  H1  UNL     1      -7.960  13.267  66.737  1.00  0.00     0.000 HD 
HETATM   12  H2  UNL     1      -9.106  14.501  66.594  1.00  0.00     0.000 HD 
ENDBRANCH   7   9
ENDBRANCH   6   7
ENDBRANCH   5   6
ENDBRANCH   3   5
ENDBRANCH   2   3
TORSDOF 5
ENDMDL
MODEL      112
REMARK 921   NORMALIZED FREE ENERGY PREDICTED BY IDOCK:   -2.55 KCAL/MOL
REMARK 922        TOTAL FREE ENERGY PREDICTED BY IDOCK:   -3.74 KCAL/MOL
REMARK 923 INTER-LIGAND FREE ENERGY PREDICTED BY IDOCK:   -3.56 KCAL/MOL
REMARK 924 INTRA-LIGAND FREE ENERGY PREDICTED BY IDOCK:   -0.17 KCAL/MOL
REMARK 927      BINDING AFFINITY PREDICTED BY RF-SCORE:    0.00 PKD
ROOT
HETATM    1  C   UNL     1     -10.083   4.589  71.826  1.00  0.00    -0.184 C  
HETATM    2  O   UNL     1     -10.229   4.940  70.449  1.00  0.00    -0.247 OA 
ENDROOT
BRANCH   2   3
HETATM    3  C   UNL     1     -11.082   5.980  70.231  1.00  0.00    -0.345 C  
HETATM    4  O   UNL     1     -11.510   6.323  69.137  1.00  0.00    -0.394 OA 
BRANCH   3   5
HETATM    5  C   UNL     1     -11.426   6.642  71.540  1.00  0.00    -0.343 C  
BRANCH   5   6
HETATM    6  C   UNL     1     -12.881   7.094  71.554  1.00  0.00    -0.434 C  
BRANCH   6   7
HETATM    7  C   UNL     1     -13.026   8.564  71.892  1.00  0.00    -0.362 C  
HETATM    8  O   UNL     1     -14.005   9.003  72.500  1.00  0.00    -0.478 OA 
BRANCH   7   9
HETATM    9  C   UNL     1     -11.924   9.481  71.361  1.00  0.00    -0.386 C  
HETATM   10  N   UNL     1     -12.442  10.835  71.159  1.00  0.00    -0.389 NA 
HETATM   11  H1  UNL     1     -11.707  11.447  70.805  1.00  0.00     0.000 HD 
HETATM   12  H2  UNL     1     -12.872  11.207  72.006  1.00  0.00     0.000 HD 
ENDBRANCH   7   9
ENDBRANCH   6   7
ENDBRANCH   5   6
ENDBRANCH   3   5
ENDBRANCH   2   3
TORSDOF 5
ENDMDL
MODEL      113
REMARK 921   NORMALIZED FREE ENERGY PREDICTED BY IDOCK:   -2.55 KCAL/MOL
REMARK 922        TOTAL FREE ENERGY PREDICTED BY IDOCK:   -3.73 KCAL/MOL
REMARK 923 INTER-LIGAND FREE ENERGY PREDICTED BY IDOCK:   -3.61 KCAL/MOL
REMARK 924 INTRA-LIGAND FREE ENERGY PREDICTED BY IDOCK:   -0.12 KCAL/MOL
REMARK 927      BINDING AFFINITY PREDICTED BY RF-SCORE:    0.00 PKD
ROOT
HETATM    1  C   UNL     1     -10.906   6.279  73.022  1.00  0.00    -0.259 C  
HETATM    2  O   UNL     1     -10.889   7.686  73.271  1.00  0.00    -0.394 OA 
ENDROOT
BRANCH   2   3
HETATM    3  C   UNL     1     -10.332   8.420  72.267  1.00  0.00    -0.333 C  
HETATM    4  O   UNL     1      -9.186   8.847  72.260  1.00  0.00    -0.376 OA 
BRANCH   3   5
HETATM    5  C   UNL     1     -11.337   8.620  71.163  1.00  0.00    -0.329 C  
BRANCH   5   6
HETATM    6  C   UNL     1     -10.871   9.699  70.195  1.00  0.00    -0.325 C  
BRANCH   6   7
HETATM    7  C   UNL     1     -11.725  10.949  70.269  1.00  0.00    -0.347 C  
HETATM    8  O   UNL     1     -12.640  11.071  71.087  1.00  0.00    -0.370 OA 
BRANCH   7   9
HETATM    9  C   UNL     1     -11.436  12.017  69.213  1.00  0.00    -0.301 C  
HETATM   10  N   UNL     1     -12.154  11.715  67.974  1.00  0.00    -0.572 NA 
HETATM   11  H1  UNL     1     -11.960  12.427  67.270  1.00  0.00     0.000 HD 
HETATM   12  H2  UNL     1     -13.154  11.598  68.133  1.00  0.00     0.000 HD 
ENDBRANCH   7   9
ENDBRANCH   6   7
ENDBRANCH   5   6
ENDBRANCH   3   5
ENDBRANCH   2   3
TORSDOF 5
ENDMDL
MODEL      114
REMARK 921   NORMALIZED FREE ENERGY PREDICTED BY IDOCK:   -2.53 KCAL/MOL
REMARK 922        TOTAL FREE ENERGY PREDICTED BY IDOCK:   -3.71 KCAL/MOL
REMARK 923 INTER-LIGAND FREE ENERGY PREDICTED BY IDOCK:   -3.39 KCAL/MOL
REMARK 924 INTRA-LIGAND FREE ENERGY PREDICTED BY IDOCK:   -0.33 KCAL/MOL
REMARK 927      BINDING AFFINITY PREDICTED BY RF-SCORE:    0.00 PKD
ROOT
HETATM    1  C   UNL     1     -10.594  19.809  66.091  1.00  0.00    -0.464 C  
HETATM    2  O   UNL     1      -9.305  19.582  66.665  1.00  0.00    -0.320 OA 
ENDROOT
BRANCH   2   3
HETATM    3  C   UNL     1      -9.340  19.232  67.981  1.00  0.00    -0.328 C  
HETATM    4  O   UNL     1     -10.240  19.512  68.762  1.00  0.00    -0.431 OA 
BRANCH   3   5
HETATM    5  C   UNL     1      -8.107  18.440  68.332  1.00  0.00    -0.327 C  
BRANCH   5   6
HETATM    6  C   UNL     1      -7.842  17.360  67.291  1.00  0.00    -0.218 C  
BRANCH   6   7
HETATM    7  C   UNL     1      -8.755  16.161  67.457  1.00  0.00    -0.185 C  
HETATM    8  O   UNL     1      -8.958  15.639  68.556  1.00  0.00    -0.179 OA 
BRANCH   7   9
HETATM    9  C   UNL     1      -9.345  15.589  66.168  1.00  0.00    -0.345 C  
HETATM   10  N   UNL     1     -10.090  16.622  65.447  1.00  0.00    -0.590 NA 
HETATM   11  H1  UNL     1     -10.483  16.240  64.586  1.00  0.00     0.000 HD 
HETATM   12  H2  UNL     1      -9.520  17.449  65.270  1.00  0.00     0.000 HD 
ENDBRANCH   7   9
ENDBRANCH   6   7
ENDBRANCH   5   6
ENDBRANCH   3   5
ENDBRANCH   2   3
TORSDOF 5
ENDMDL
MODEL      115
REMARK 921   NORMALIZED FREE ENERGY PREDICTED BY IDOCK:   -2.53 KCAL/MOL
REMARK 922        TOTAL FREE ENERGY PREDICTED BY IDOCK:   -3.71 KCAL/MOL
REMARK 923 INTER-LIGAND FREE ENERGY PREDICTED BY IDOCK:   -3.54 KCAL/MOL
REMARK 924 INTRA-LIGAND FREE ENERGY PREDICTED BY IDOCK:   -0.17 KCAL/MOL
REMARK 927      BINDING AFFINITY PREDICTED BY RF-SCORE:    0.00 PKD
ROOT
HETATM    1  C   UNL     1      -9.818  12.987  67.699  1.00  0.00    -0.212 C  
HETATM    2  O   UNL     1      -9.911  13.627  66.425  1.00  0.00    -0.282 OA 
ENDROOT
BRANCH   2   3
HETATM    3  C   UNL     1     -11.089  14.279  66.217  1.00  0.00    -0.323 C  
HETATM    4  O   UNL     1     -12.187  13.883  66.583  1.00  0.00    -0.437 OA 
BRANCH   3   5
HETATM    5  C   UNL     1     -10.836  15.565  65.475  1.00  0.00    -0.372 C  
BRANCH   5   6
HETATM    6  C   UNL     1      -9.647  16.309  66.069  1.00  0.00    -0.371 C  
BRANCH   6   7
HETATM    7  C   UNL     1     -10.070  17.491  66.918  1.00  0.00    -0.324 C  
HETATM    8  O   UNL     1     -10.862  17.373  67.857  1.00  0.00    -0.375 OA 
BRANCH   7   9
HETATM    9  C   UNL     1      -9.518  18.850  66.490  1.00  0.00    -0.340 C  
HETATM   10  N   UNL     1     -10.573  19.657  65.876  1.00  0.00    -0.510 NA 
HETATM   11  H1  UNL     1     -10.205  20.565  65.590  1.00  0.00     0.000 HD 
HETATM   12  H2  UNL     1     -11.384  19.751  66.487  1.00  0.00     0.000 HD 
ENDBRANCH   7   9
ENDBRANCH   6   7
ENDBRANCH   5   6
ENDBRANCH   3   5
ENDBRANCH   2   3
TORSDOF 5
ENDMDL
MODEL      116
REMARK 921   NORMALIZED FREE ENERGY PREDICTED BY IDOCK:   -2.53 KCAL/MOL
REMARK 922        TOTAL FREE ENERGY PREDICTED BY IDOCK:   -3.71 KCAL/MOL
REMARK 923 INTER-LIGAND FREE ENERGY PREDICTED BY IDOCK:   -3.67 KCAL/MOL
REMARK 924 INTRA-LIGAND FREE ENERGY PREDICTED BY IDOCK:   -0.04 KCAL/MOL
REMARK 927      BINDING AFFINITY PREDICTED BY RF-SCORE:    0.00 PKD
ROOT
HETATM    1  C   UNL     1     -11.373  15.074  66.420  1.00  0.00    -0.275 C  
HETATM    2  O   UNL     1     -12.556  14.432  65.940  1.00  0.00    -0.383 OA 
ENDROOT
BRANCH   2   3
HETATM    3  C   UNL     1     -12.359  13.150  65.522  1.00  0.00    -0.474 C  
HETATM    4  O   UNL     1     -13.081  12.545  64.742  1.00  0.00    -0.853 OA 
BRANCH   3   5
HETATM    5  C   UNL     1     -11.112  12.592  66.157  1.00  0.00    -0.336 C  
BRANCH   5   6
HETATM    6  C   UNL     1     -11.463  11.633  67.288  1.00  0.00    -0.350 C  
BRANCH   6   7
HETATM    7  C   UNL     1     -10.451  10.513  67.430  1.00  0.00    -0.244 C  
HETATM    8  O   UNL     1     -10.743   9.334  67.216  1.00  0.00    -0.268 OA 
BRANCH   7   9
HETATM    9  C   UNL     1      -9.068  10.926  67.934  1.00  0.00    -0.149 C  
HETATM   10  N   UNL     1      -8.897  10.530  69.332  1.00  0.00    -0.334 NA 
HETATM   11  H1  UNL     1      -7.974  10.806  69.669  1.00  0.00     0.000 HD 
HETATM   12  H2  UNL     1      -9.070   9.535  69.470  1.00  0.00     0.000 HD 
ENDBRANCH   7   9
ENDBRANCH   6   7
ENDBRANCH   5   6
ENDBRANCH   3   5
ENDBRANCH   2   3
TORSDOF 5
ENDMDL
MODEL      117
REMARK 921   NORMALIZED FREE ENERGY PREDICTED BY IDOCK:   -2.53 KCAL/MOL
REMARK 922        TOTAL FREE ENERGY PREDICTED BY IDOCK:   -3.70 KCAL/MOL
REMARK 923 INTER-LIGAND FREE ENERGY PREDICTED BY IDOCK:   -3.61 KCAL/MOL
REMARK 924 INTRA-LIGAND FREE ENERGY PREDICTED BY IDOCK:   -0.09 KCAL/MOL
REMARK 927      BINDING AFFINITY PREDICTED BY RF-SCORE:    0.00 PKD
ROOT
HETATM    1  C   UNL     1      -7.563   7.246  73.625  1.00  0.00    -0.101 C  
HETATM    2  O   UNL     1      -8.637   8.179  73.762  1.00  0.00    -0.255 OA 
ENDROOT
BRANCH   2   3
HETATM    3  C   UNL     1      -9.854   7.679  73.409  1.00  0.00    -0.303 C  
HETATM    4  O   UNL     1     -10.494   6.862  74.055  1.00  0.00    -0.374 OA 
BRANCH   3   5
HETATM    5  C   UNL     1     -10.297   8.289  72.105  1.00  0.00    -0.370 C  
BRANCH   5   6
HETATM    6  C   UNL     1     -11.813   8.223  71.962  1.00  0.00    -0.408 C  
BRANCH   6   7
HETATM    7  C   UNL     1     -12.411   9.547  71.530  1.00  0.00    -0.380 C  
HETATM    8  O   UNL     1     -13.503   9.940  71.947  1.00  0.00    -0.397 OA 
BRANCH   7   9
HETATM    9  C   UNL     1     -11.615  10.327  70.483  1.00  0.00    -0.338 C  
HETATM   10  N   UNL     1     -12.394  10.464  69.251  1.00  0.00    -0.682 NA 
HETATM   11  H1  UNL     1     -11.863  10.984  68.552  1.00  0.00     0.000 HD 
HETATM   12  H2  UNL     1     -13.308  10.881  69.423  1.00  0.00     0.000 HD 
ENDBRANCH   7   9
ENDBRANCH   6   7
ENDBRANCH   5   6
ENDBRANCH   3   5
ENDBRANCH   2   3
TORSDOF 5
ENDMDL
MODEL      118
REMARK 921   NORMALIZED FREE ENERGY PREDICTED BY IDOCK:   -2.52 KCAL/MOL
REMARK 922        TOTAL FREE ENERGY PREDICTED BY IDOCK:   -3.69 KCAL/MOL
REMARK 923 INTER-LIGAND FREE ENERGY PREDICTED BY IDOCK:   -3.32 KCAL/MOL
REMARK 924 INTRA-LIGAND FREE ENERGY PREDICTED BY IDOCK:   -0.37 KCAL/MOL
REMARK 927      BINDING AFFINITY PREDICTED BY RF-SCORE:    0.00 PKD
ROOT
HETATM    1  C   UNL     1     -10.645  19.003  66.972  1.00  0.00    -0.461 C  
HETATM    2  O   UNL     1      -9.669  18.010  66.651  1.00  0.00    -0.303 OA 
ENDROOT
BRANCH   2   3
HETATM    3  C   UNL     1      -9.758  16.880  67.408  1.00  0.00    -0.247 C  
HETATM    4  O   UNL     1      -9.713  16.845  68.630  1.00  0.00    -0.246 OA 
BRANCH   3   5
HETATM    5  C   UNL     1      -9.929  15.680  66.514  1.00  0.00    -0.287 C  
BRANCH   5   6
HETATM    6  C   UNL     1     -11.261  14.990  66.782  1.00  0.00    -0.322 C  
BRANCH   6   7
HETATM    7  C   UNL     1     -11.110  13.766  67.664  1.00  0.00    -0.273 C  
HETATM    8  O   UNL     1     -10.479  12.770  67.301  1.00  0.00    -0.231 OA 
BRANCH   7   9
HETATM    9  C   UNL     1     -11.857  13.810  68.997  1.00  0.00    -0.357 C  
HETATM   10  N   UNL     1     -12.527  15.101  69.162  1.00  0.00    -0.596 NA 
HETATM   11  H1  UNL     1     -13.025  15.130  70.052  1.00  0.00     0.000 HD 
HETATM   12  H2  UNL     1     -13.140  15.315  68.376  1.00  0.00     0.000 HD 
ENDBRANCH   7   9
ENDBRANCH   6   7
ENDBRANCH   5   6
ENDBRANCH   3   5
ENDBRANCH   2   3
TORSDOF 5
ENDMDL
MODEL      119
REMARK 921   NORMALIZED FREE ENERGY PREDICTED BY IDOCK:   -2.51 KCAL/MOL
REMARK 922        TOTAL FREE ENERGY PREDICTED BY IDOCK:   -3.69 KCAL/MOL
REMARK 923 INTER-LIGAND FREE ENERGY PREDICTED BY IDOCK:   -3.52 KCAL/MOL
REMARK 924 INTRA-LIGAND FREE ENERGY PREDICTED BY IDOCK:   -0.17 KCAL/MOL
REMARK 927      BINDING AFFINITY PREDICTED BY RF-SCORE:    0.00 PKD
ROOT
HETATM    1  C   UNL     1      -8.080  11.100  68.580  1.00  0.00    -0.146 C  
HETATM    2  O   UNL     1      -9.104  11.546  67.688  1.00  0.00    -0.161 OA 
ENDROOT
BRANCH   2   3
HETATM    3  C   UNL     1      -9.748  10.537  67.037  1.00  0.00    -0.177 C  
HETATM    4  O   UNL     1      -9.796   9.374  67.412  1.00  0.00    -0.155 OA 
BRANCH   3   5
HETATM    5  C   UNL     1     -10.400  11.070  65.788  1.00  0.00    -0.316 C  
BRANCH   5   6
HETATM    6  C   UNL     1     -11.424  12.146  66.127  1.00  0.00    -0.429 C  
BRANCH   6   7
HETATM    7  C   UNL     1     -11.151  13.451  65.407  1.00  0.00    -0.287 C  
HETATM    8  O   UNL     1     -10.012  13.909  65.290  1.00  0.00    -0.308 OA 
BRANCH   7   9
HETATM    9  C   UNL     1     -12.383  14.206  64.907  1.00  0.00    -0.430 C  
HETATM   10  N   UNL     1     -12.312  14.392  63.457  1.00  0.00    -1.114 NA 
HETATM   11  H1  UNL     1     -13.134  14.896  63.124  1.00  0.00     0.000 HD 
HETATM   12  H2  UNL     1     -12.182  13.508  62.966  1.00  0.00     0.000 HD 
ENDBRANCH   7   9
ENDBRANCH   6   7
ENDBRANCH   5   6
ENDBRANCH   3   5
ENDBRANCH   2   3
TORSDOF 5
ENDMDL
MODEL      120
REMARK 921   NORMALIZED FREE ENERGY PREDICTED BY IDOCK:   -2.50 KCAL/MOL
REMARK 922        TOTAL FREE ENERGY PREDICTED BY IDOCK:   -3.67 KCAL/MOL
REMARK 923 INTER-LIGAND FREE ENERGY PREDICTED BY IDOCK:   -3.21 KCAL/MOL
REMARK 924 INTRA-LIGAND FREE ENERGY PREDICTED BY IDOCK:   -0.46 KCAL/MOL
REMARK 927      BINDING AFFINITY PREDICTED BY RF-SCORE:    0.00 PKD
ROOT
HETATM    1  C   UNL     1     -13.124  10.492  71.699  1.00  0.00    -0.446 C  
HETATM    2  O   UNL     1     -13.067   9.238  72.381  1.00  0.00    -0.419 OA 
ENDROOT
BRANCH   2   3
HETATM    3  C   UNL     1     -11.900   8.559  72.195  1.00  0.00    -0.379 C  
HETATM    4  O   UNL     1     -11.325   7.899  73.050  1.00  0.00    -0.408 OA 
BRANCH   3   5
HETATM    5  C   UNL     1     -11.427   8.736  70.776  1.00  0.00    -0.309 C  
BRANCH   5   6
HETATM    6  C   UNL     1     -10.243   7.824  70.481  1.00  0.00    -0.201 C  
BRANCH   6   7
HETATM    7  C   UNL     1     -10.672   6.485  69.915  1.00  0.00    -0.257 C  
HETATM    8  O   UNL     1     -11.504   6.392  69.009  1.00  0.00    -0.337 OA 
BRANCH   7   9
HETATM    9  C   UNL     1     -10.071   5.253  70.591  1.00  0.00    -0.239 C  
HETATM   10  N   UNL     1     -10.531   5.159  71.977  1.00  0.00    -0.216 NA 
HETATM   11  H1  UNL     1     -10.130   4.336  72.429  1.00  0.00     0.000 HD 
HETATM   12  H2  UNL     1     -11.548   5.170  72.042  1.00  0.00     0.000 HD 
ENDBRANCH   7   9
ENDBRANCH   6   7
ENDBRANCH   5   6
ENDBRANCH   3   5
ENDBRANCH   2   3
TORSDOF 5
ENDMDL
MODEL      121
REMARK 921   NORMALIZED FREE ENERGY PREDICTED BY IDOCK:   -2.50 KCAL/MOL
REMARK 922        TOTAL FREE ENERGY PREDICTED BY IDOCK:   -3.67 KCAL/MOL
REMARK 923 INTER-LIGAND FREE ENERGY PREDICTED BY IDOCK:   -3.29 KCAL/MOL
REMARK 924 INTRA-LIGAND FREE ENERGY PREDICTED BY IDOCK:   -0.38 KCAL/MOL
REMARK 927      BINDING AFFINITY PREDICTED BY RF-SCORE:    0.00 PKD
ROOT
HETATM    1  C   UNL     1     -10.643   5.846  67.360  1.00  0.00    -0.282 C  
HETATM    2  O   UNL     1     -11.395   6.453  68.413  1.00  0.00    -0.280 OA 
ENDROOT
BRANCH   2   3
HETATM    3  C   UNL     1     -11.042   6.032  69.659  1.00  0.00    -0.404 C  
HETATM    4  O   UNL     1     -10.108   5.283  69.912  1.00  0.00    -0.217 OA 
BRANCH   3   5
HETATM    5  C   UNL     1     -11.969   6.634  70.683  1.00  0.00    -0.404 C  
BRANCH   5   6
HETATM    6  C   UNL     1     -11.299   7.796  71.405  1.00  0.00    -0.281 C  
BRANCH   6   7
HETATM    7  C   UNL     1     -11.874   9.138  70.998  1.00  0.00    -0.292 C  
HETATM    8  O   UNL     1     -13.013   9.488  71.319  1.00  0.00    -0.334 OA 
BRANCH   7   9
HETATM    9  C   UNL     1     -10.987   9.997  70.097  1.00  0.00    -0.310 C  
HETATM   10  N   UNL     1     -11.285   9.731  68.689  1.00  0.00    -0.482 NA 
HETATM   11  H1  UNL     1     -10.693  10.305  68.087  1.00  0.00     0.000 HD 
HETATM   12  H2  UNL     1     -12.275   9.857  68.479  1.00  0.00     0.000 HD 
ENDBRANCH   7   9
ENDBRANCH   6   7
ENDBRANCH   5   6
ENDBRANCH   3   5
ENDBRANCH   2   3
TORSDOF 5
ENDMDL
MODEL      122
REMARK 921   NORMALIZED FREE ENERGY PREDICTED BY IDOCK:   -2.49 KCAL/MOL
REMARK 922        TOTAL FREE ENERGY PREDICTED BY IDOCK:   -3.66 KCAL/MOL
REMARK 923 INTER-LIGAND FREE ENERGY PREDICTED BY IDOCK:   -3.52 KCAL/MOL
REMARK 924 INTRA-LIGAND FREE ENERGY PREDICTED BY IDOCK:   -0.15 KCAL/MOL
REMARK 927      BINDING AFFINITY PREDICTED BY RF-SCORE:    0.00 PKD
ROOT
HETATM    1  C   UNL     1      -7.247  18.434  68.792  1.00  0.00    -0.284 C  
HETATM    2  O   UNL     1      -7.701  19.402  67.843  1.00  0.00    -0.269 OA 
ENDROOT
BRANCH   2   3
HETATM    3  C   UNL     1      -8.756  18.985  67.089  1.00  0.00    -0.288 C  
HETATM    4  O   UNL     1      -8.759  18.898  65.869  1.00  0.00    -0.464 OA 
BRANCH   3   5
HETATM    5  C   UNL     1      -9.918  18.639  67.984  1.00  0.00    -0.389 C  
BRANCH   5   6
HETATM    6  C   UNL     1     -10.693  17.450  67.431  1.00  0.00    -0.251 C  
BRANCH   6   7
HETATM    7  C   UNL     1     -10.948  16.388  68.482  1.00  0.00    -0.350 C  
HETATM    8  O   UNL     1     -10.629  16.544  69.663  1.00  0.00    -0.316 OA 
BRANCH   7   9
HETATM    9  C   UNL     1     -11.551  15.079  67.973  1.00  0.00    -0.338 C  
HETATM   10  N   UNL     1     -12.503  14.544  68.947  1.00  0.00    -0.569 NA 
HETATM   11  H1  UNL     1     -12.905  13.670  68.607  1.00  0.00     0.000 HD 
HETATM   12  H2  UNL     1     -13.223  15.225  69.189  1.00  0.00     0.000 HD 
ENDBRANCH   7   9
ENDBRANCH   6   7
ENDBRANCH   5   6
ENDBRANCH   3   5
ENDBRANCH   2   3
TORSDOF 5
ENDMDL
MODEL      123
REMARK 921   NORMALIZED FREE ENERGY PREDICTED BY IDOCK:   -2.49 KCAL/MOL
REMARK 922        TOTAL FREE ENERGY PREDICTED BY IDOCK:   -3.66 KCAL/MOL
REMARK 923 INTER-LIGAND FREE ENERGY PREDICTED BY IDOCK:   -3.31 KCAL/MOL
REMARK 924 INTRA-LIGAND FREE ENERGY PREDICTED BY IDOCK:   -0.35 KCAL/MOL
REMARK 927      BINDING AFFINITY PREDICTED BY RF-SCORE:    0.00 PKD
ROOT
HETATM    1  C   UNL     1     -12.238  14.196  70.546  1.00  0.00    -0.361 C  
HETATM    2  O   UNL     1     -12.522  14.567  69.196  1.00  0.00    -0.175 OA 
ENDROOT
BRANCH   2   3
HETATM    3  C   UNL     1     -12.097  13.660  68.272  1.00  0.00    -0.271 C  
HETATM    4  O   UNL     1     -11.747  12.514  68.518  1.00  0.00    -0.290 OA 
BRANCH   3   5
HETATM    5  C   UNL     1     -12.131  14.278  66.898  1.00  0.00    -0.440 C  
BRANCH   5   6
HETATM    6  C   UNL     1     -10.733  14.686  66.452  1.00  0.00    -0.309 C  
BRANCH   6   7
HETATM    7  C   UNL     1     -10.593  16.187  66.294  1.00  0.00    -0.274 C  
HETATM    8  O   UNL     1     -10.405  16.717  65.196  1.00  0.00    -0.630 OA 
BRANCH   7   9
HETATM    9  C   UNL     1     -10.617  16.998  67.590  1.00  0.00    -0.333 C  
HETATM   10  N   UNL     1      -9.755  16.374  68.596  1.00  0.00    -0.230 NA 
HETATM   11  H1  UNL     1      -9.771  16.915  69.461  1.00  0.00     0.000 HD 
HETATM   12  H2  UNL     1      -8.806  16.237  68.251  1.00  0.00     0.000 HD 
ENDBRANCH   7   9
ENDBRANCH   6   7
ENDBRANCH   5   6
ENDBRANCH   3   5
ENDBRANCH   2   3
TORSDOF 5
ENDMDL
MODEL      124
REMARK 921   NORMALIZED FREE ENERGY PREDICTED BY IDOCK:   -2.48 KCAL/MOL
REMARK 922        TOTAL FREE ENERGY PREDICTED BY IDOCK:   -3.65 KCAL/MOL
REMARK 923 INTER-LIGAND FREE ENERGY PREDICTED BY IDOCK:   -3.49 KCAL/MOL
REMARK 924 INTRA-LIGAND FREE ENERGY PREDICTED BY IDOCK:   -0.16 KCAL/MOL
REMARK 927      BINDING AFFINITY PREDICTED BY RF-SCORE:    0.00 PKD
ROOT
HETATM    1  C   UNL     1      -8.398  19.191  68.323  1.00  0.00    -0.335 C  
HETATM    2  O   UNL     1      -9.369  18.331  68.922  1.00  0.00    -0.278 OA 
ENDROOT
BRANCH   2   3
HETATM    3  C   UNL     1     -10.419  18.030  68.108  1.00  0.00    -0.361 C  
HETATM    4  O   UNL     1     -10.968  18.815  67.347  1.00  0.00    -0.422 OA 
BRANCH   3   5
HETATM    5  C   UNL     1     -10.798  16.582  68.278  1.00  0.00    -0.352 C  
BRANCH   5   6
HETATM    6  C   UNL     1     -10.357  16.062  69.640  1.00  0.00    -0.283 C  
BRANCH   6   7
HETATM    7  C   UNL     1     -11.531  15.725  70.538  1.00  0.00    -0.381 C  
HETATM    8  O   UNL     1     -11.388  15.468  71.736  1.00  0.00    -0.404 OA 
BRANCH   7   9
HETATM    9  C   UNL     1     -12.893  15.643  69.849  1.00  0.00     0.182 C  
HETATM   10  N   UNL     1     -13.960  15.521  70.844  1.00  0.00    -0.853 NA 
HETATM   11  H1  UNL     1     -14.869  15.466  70.384  1.00  0.00     0.000 HD 
HETATM   12  H2  UNL     1     -13.926  16.274  71.531  1.00  0.00     0.000 HD 
ENDBRANCH   7   9
ENDBRANCH   6   7
ENDBRANCH   5   6
ENDBRANCH   3   5
ENDBRANCH   2   3
TORSDOF 5
ENDMDL
MODEL      125
REMARK 921   NORMALIZED FREE ENERGY PREDICTED BY IDOCK:   -2.47 KCAL/MOL
REMARK 922        TOTAL FREE ENERGY PREDICTED BY IDOCK:   -3.63 KCAL/MOL
REMARK 923 INTER-LIGAND FREE ENERGY PREDICTED BY IDOCK:   -3.48 KCAL/MOL
REMARK 924 INTRA-LIGAND FREE ENERGY PREDICTED BY IDOCK:   -0.15 KCAL/MOL
REMARK 927      BINDING AFFINITY PREDICTED BY RF-SCORE:    0.00 PKD
ROOT
HETATM    1  C   UNL     1     -12.421  10.879  70.342  1.00  0.00    -0.327 C  
HETATM    2  O   UNL     1     -12.324  10.374  71.675  1.00  0.00    -0.370 OA 
ENDROOT
BRANCH   2   3
HETATM    3  C   UNL     1     -12.862   9.133  71.838  1.00  0.00    -0.393 C  
HETATM    4  O   UNL     1     -13.975   8.793  71.463  1.00  0.00    -0.388 OA 
BRANCH   3   5
HETATM    5  C   UNL     1     -11.875   8.238  72.542  1.00  0.00    -0.439 C  
BRANCH   5   6
HETATM    6  C   UNL     1     -10.675   7.946  71.650  1.00  0.00    -0.268 C  
BRANCH   6   7
HETATM    7  C   UNL     1      -9.383   8.490  72.225  1.00  0.00    -0.293 C  
HETATM    8  O   UNL     1      -8.676   9.290  71.608  1.00  0.00    -0.312 OA 
BRANCH   7   9
HETATM    9  C   UNL     1      -8.968   7.924  73.583  1.00  0.00    -0.275 C  
HETATM   10  N   UNL     1      -7.775   8.612  74.078  1.00  0.00    -0.418 NA 
HETATM   11  H1  UNL     1      -7.498   8.234  74.985  1.00  0.00     0.000 HD 
HETATM   12  H2  UNL     1      -7.905   9.623  74.111  1.00  0.00     0.000 HD 
ENDBRANCH   7   9
ENDBRANCH   6   7
ENDBRANCH   5   6
ENDBRANCH   3   5
ENDBRANCH   2   3
TORSDOF 5
ENDMDL
MODEL      126
REMARK 921   NORMALIZED FREE ENERGY PREDICTED BY IDOCK:   -2.45 KCAL/MOL
REMARK 922        TOTAL FREE ENERGY PREDICTED BY IDOCK:   -3.60 KCAL/MOL
REMARK 923 INTER-LIGAND FREE ENERGY PREDICTED BY IDOCK:   -3.27 KCAL/MOL
REMARK 924 INTRA-LIGAND FREE ENERGY PREDICTED BY IDOCK:   -0.34 KCAL/MOL
REMARK 927      BINDING AFFINITY PREDICTED BY RF-SCORE:    0.00 PKD
ROOT
HETATM    1  C   UNL     1      -9.625   5.218  72.806  1.00  0.00    -0.149 C  
HETATM    2  O   UNL     1     -10.105   5.187  71.460  1.00  0.00    -0.179 OA 
ENDROOT
BRANCH   2   3
HETATM    3  C   UNL     1     -11.066   6.115  71.194  1.00  0.00    -0.298 C  
HETATM    4  O   UNL     1     -11.579   6.303  70.100  1.00  0.00    -0.413 OA 
BRANCH   3   5
HETATM    5  C   UNL     1     -11.408   6.871  72.451  1.00  0.00    -0.308 C  
BRANCH   5   6
HETATM    6  C   UNL     1     -11.584   8.356  72.160  1.00  0.00    -0.442 C  
BRANCH   6   7
HETATM    7  C   UNL     1     -10.312   8.998  71.641  1.00  0.00    -0.350 C  
HETATM    8  O   UNL     1      -9.237   8.901  72.239  1.00  0.00    -0.376 OA 
BRANCH   7   9
HETATM    9  C   UNL     1     -10.461   9.842  70.375  1.00  0.00    -0.297 C  
HETATM   10  N   UNL     1     -11.836   9.775  69.878  1.00  0.00    -0.455 NA 
HETATM   11  H1  UNL     1     -11.936  10.338  69.033  1.00  0.00     0.000 HD 
HETATM   12  H2  UNL     1     -12.512  10.041  70.594  1.00  0.00     0.000 HD 
ENDBRANCH   7   9
ENDBRANCH   6   7
ENDBRANCH   5   6
ENDBRANCH   3   5
ENDBRANCH   2   3
TORSDOF 5
ENDMDL
MODEL      127
REMARK 921   NORMALIZED FREE ENERGY PREDICTED BY IDOCK:   -2.42 KCAL/MOL
REMARK 922        TOTAL FREE ENERGY PREDICTED BY IDOCK:   -3.56 KCAL/MOL
REMARK 923 INTER-LIGAND FREE ENERGY PREDICTED BY IDOCK:   -3.41 KCAL/MOL
REMARK 924 INTRA-LIGAND FREE ENERGY PREDICTED BY IDOCK:   -0.15 KCAL/MOL
REMARK 927      BINDING AFFINITY PREDICTED BY RF-SCORE:    0.00 PKD
ROOT
HETATM    1  C   UNL     1      -6.087  20.068  70.492  1.00  0.00    -0.337 C  
HETATM    2  O   UNL     1      -6.679  20.034  69.192  1.00  0.00    -0.319 OA 
ENDROOT
BRANCH   2   3
HETATM    3  C   UNL     1      -7.165  18.812  68.837  1.00  0.00    -0.303 C  
HETATM    4  O   UNL     1      -6.529  17.767  68.860  1.00  0.00    -0.201 OA 
BRANCH   3   5
HETATM    5  C   UNL     1      -8.606  18.938  68.417  1.00  0.00    -0.381 C  
BRANCH   5   6
HETATM    6  C   UNL     1      -9.171  17.584  68.005  1.00  0.00    -0.275 C  
BRANCH   6   7
HETATM    7  C   UNL     1      -9.192  17.401  66.500  1.00  0.00    -0.266 C  
HETATM    8  O   UNL     1      -8.165  17.192  65.851  1.00  0.00    -0.526 OA 
BRANCH   7   9
HETATM    9  C   UNL     1     -10.554  17.575  65.827  1.00  0.00    -0.174 C  
HETATM   10  N   UNL     1     -10.908  16.369  65.078  1.00  0.00    -0.629 NA 
HETATM   11  H1  UNL     1     -11.817  16.484  64.629  1.00  0.00     0.000 HD 
HETATM   12  H2  UNL     1     -10.877  15.534  65.664  1.00  0.00     0.000 HD 
ENDBRANCH   7   9
ENDBRANCH   6   7
ENDBRANCH   5   6
ENDBRANCH   3   5
ENDBRANCH   2   3
TORSDOF 5
ENDMDL
MODEL      128
REMARK 921   NORMALIZED FREE ENERGY PREDICTED BY IDOCK:   -2.41 KCAL/MOL
REMARK 922        TOTAL FREE ENERGY PREDICTED BY IDOCK:   -3.55 KCAL/MOL
REMARK 923 INTER-LIGAND FREE ENERGY PREDICTED BY IDOCK:   -3.45 KCAL/MOL
REMARK 924 INTRA-LIGAND FREE ENERGY PREDICTED BY IDOCK:   -0.10 KCAL/MOL
REMARK 927      BINDING AFFINITY PREDICTED BY RF-SCORE:    0.00 PKD
ROOT
HETATM    1  C   UNL     1      -9.304  13.611  66.845  1.00  0.00    -0.257 C  
HETATM    2  O   UNL     1     -10.373  14.228  67.566  1.00  0.00    -0.246 OA 
ENDROOT
BRANCH   2   3
HETATM    3  C   UNL     1     -11.549  13.543  67.507  1.00  0.00    -0.350 C  
HETATM    4  O   UNL     1     -12.220  13.379  66.497  1.00  0.00    -0.399 OA 
BRANCH   3   5
HETATM    5  C   UNL     1     -11.897  13.008  68.872  1.00  0.00    -0.358 C  
BRANCH   5   6
HETATM    6  C   UNL     1     -11.663  11.505  68.941  1.00  0.00    -0.403 C  
BRANCH   6   7
HETATM    7  C   UNL     1     -11.862  10.953  70.339  1.00  0.00    -0.357 C  
HETATM    8  O   UNL     1     -12.727  11.393  71.100  1.00  0.00    -0.392 OA 
BRANCH   7   9
HETATM    9  C   UNL     1     -10.871   9.875  70.777  1.00  0.00    -0.317 C  
HETATM   10  N   UNL     1     -11.406   9.124  71.914  1.00  0.00    -0.375 NA 
HETATM   11  H1  UNL     1     -10.745   8.404  72.206  1.00  0.00     0.000 HD 
HETATM   12  H2  UNL     1     -12.327   8.735  71.713  1.00  0.00     0.000 HD 
ENDBRANCH   7   9
ENDBRANCH   6   7
ENDBRANCH   5   6
ENDBRANCH   3   5
ENDBRANCH   2   3
TORSDOF 5
ENDMDL
MODEL      129
REMARK 921   NORMALIZED FREE ENERGY PREDICTED BY IDOCK:   -2.41 KCAL/MOL
REMARK 922        TOTAL FREE ENERGY PREDICTED BY IDOCK:   -3.55 KCAL/MOL
REMARK 923 INTER-LIGAND FREE ENERGY PREDICTED BY IDOCK:   -3.33 KCAL/MOL
REMARK 924 INTRA-LIGAND FREE ENERGY PREDICTED BY IDOCK:   -0.22 KCAL/MOL
REMARK 927      BINDING AFFINITY PREDICTED BY RF-SCORE:    0.00 PKD
ROOT
HETATM    1  C   UNL     1     -11.151  15.797  64.658  1.00  0.00    -0.361 C  
HETATM    2  O   UNL     1     -11.064  15.333  66.007  1.00  0.00    -0.332 OA 
ENDROOT
BRANCH   2   3
HETATM    3  C   UNL     1      -9.927  14.634  66.280  1.00  0.00    -0.290 C  
HETATM    4  O   UNL     1      -9.837  13.414  66.297  1.00  0.00    -0.281 OA 
BRANCH   3   5
HETATM    5  C   UNL     1      -8.794  15.589  66.550  1.00  0.00    -0.348 C  
BRANCH   5   6
HETATM    6  C   UNL     1      -9.144  16.538  67.689  1.00  0.00    -0.199 C  
BRANCH   6   7
HETATM    7  C   UNL     1      -9.180  17.986  67.243  1.00  0.00    -0.255 C  
HETATM    8  O   UNL     1      -8.984  18.317  66.071  1.00  0.00    -0.500 OA 
BRANCH   7   9
HETATM    9  C   UNL     1      -9.392  19.019  68.351  1.00  0.00    -0.355 C  
HETATM   10  N   UNL     1     -10.003  20.232  67.805  1.00  0.00    -0.411 NA 
HETATM   11  H1  UNL     1     -10.144  20.921  68.544  1.00  0.00     0.000 HD 
HETATM   12  H2  UNL     1     -10.867  20.030  67.303  1.00  0.00     0.000 HD 
ENDBRANCH   7   9
ENDBRANCH   6   7
ENDBRANCH   5   6
ENDBRANCH   3   5
ENDBRANCH   2   3
TORSDOF 5
ENDMDL
MODEL      130
REMARK 921   NORMALIZED FREE ENERGY PREDICTED BY IDOCK:   -2.40 KCAL/MOL
REMARK 922        TOTAL FREE ENERGY PREDICTED BY IDOCK:   -3.55 KCAL/MOL
REMARK 923 INTER-LIGAND FREE ENERGY PREDICTED BY IDOCK:   -3.44 KCAL/MOL
REMARK 924 INTRA-LIGAND FREE ENERGY PREDICTED BY IDOCK:   -0.10 KCAL/MOL
REMARK 927      BINDING AFFINITY PREDICTED BY RF-SCORE:    0.00 PKD
ROOT
HETATM    1  C   UNL     1     -11.982  13.982  69.319  1.00  0.00    -0.353 C  
HETATM    2  O   UNL     1     -11.796  12.734  69.989  1.00  0.00    -0.325 OA 
ENDROOT
BRANCH   2   3
HETATM    3  C   UNL     1     -11.536  11.690  69.153  1.00  0.00    -0.314 C  
HETATM    4  O   UNL     1     -11.104  10.599  69.500  1.00  0.00    -0.235 OA 
BRANCH   3   5
HETATM    5  C   UNL     1     -11.869  12.076  67.735  1.00  0.00    -0.308 C  
BRANCH   5   6
HETATM    6  C   UNL     1     -11.043  11.267  66.744  1.00  0.00    -0.314 C  
BRANCH   6   7
HETATM    7  C   UNL     1     -11.040  11.880  65.358  1.00  0.00    -0.306 C  
HETATM    8  O   UNL     1     -11.724  12.867  65.076  1.00  0.00    -0.315 OA 
BRANCH   7   9
HETATM    9  C   UNL     1     -10.199  11.151  64.309  1.00  0.00    -0.340 C  
HETATM   10  N   UNL     1      -9.714  12.095  63.301  1.00  0.00    -0.632 NA 
HETATM   11  H1  UNL     1      -9.153  11.609  62.601  1.00  0.00     0.000 HD 
HETATM   12  H2  UNL     1      -9.207  12.874  63.721  1.00  0.00     0.000 HD 
ENDBRANCH   7   9
ENDBRANCH   6   7
ENDBRANCH   5   6
ENDBRANCH   3   5
ENDBRANCH   2   3
TORSDOF 5
ENDMDL
MODEL      131
REMARK 921   NORMALIZED FREE ENERGY PREDICTED BY IDOCK:   -2.39 KCAL/MOL
REMARK 922        TOTAL FREE ENERGY PREDICTED BY IDOCK:   -3.53 KCAL/MOL
REMARK 923 INTER-LIGAND FREE ENERGY PREDICTED BY IDOCK:   -3.41 KCAL/MOL
REMARK 924 INTRA-LIGAND FREE ENERGY PREDICTED BY IDOCK:   -0.12 KCAL/MOL
REMARK 927      BINDING AFFINITY PREDICTED BY RF-SCORE:    0.00 PKD
ROOT
HETATM    1  C   UNL     1     -11.825  11.460  69.350  1.00  0.00    -0.351 C  
HETATM    2  O   UNL     1     -12.272  11.242  68.010  1.00  0.00    -0.621 OA 
ENDROOT
BRANCH   2   3
HETATM    3  C   UNL     1     -11.717  12.087  67.097  1.00  0.00    -0.273 C  
HETATM    4  O   UNL     1     -12.175  12.325  65.988  1.00  0.00    -0.646 OA 
BRANCH   3   5
HETATM    5  C   UNL     1     -10.457  12.691  67.660  1.00  0.00    -0.226 C  
BRANCH   5   6
HETATM    6  C   UNL     1      -9.944  13.810  66.763  1.00  0.00    -0.270 C  
BRANCH   6   7
HETATM    7  C   UNL     1      -9.838  15.134  67.494  1.00  0.00    -0.220 C  
HETATM    8  O   UNL     1      -9.261  15.239  68.579  1.00  0.00    -0.186 OA 
BRANCH   7   9
HETATM    9  C   UNL     1     -10.561  16.314  66.844  1.00  0.00    -0.270 C  
HETATM   10  N   UNL     1     -10.380  17.525  67.645  1.00  0.00    -0.346 NA 
HETATM   11  H1  UNL     1     -10.862  18.313  67.211  1.00  0.00     0.000 HD 
HETATM   12  H2  UNL     1      -9.394  17.727  67.811  1.00  0.00     0.000 HD 
ENDBRANCH   7   9
ENDBRANCH   6   7
ENDBRANCH   5   6
ENDBRANCH   3   5
ENDBRANCH   2   3
TORSDOF 5
ENDMDL
MODEL      132
REMARK 921   NORMALIZED FREE ENERGY PREDICTED BY IDOCK:   -2.39 KCAL/MOL
REMARK 922        TOTAL FREE ENERGY PREDICTED BY IDOCK:   -3.53 KCAL/MOL
REMARK 923 INTER-LIGAND FREE ENERGY PREDICTED BY IDOCK:   -3.31 KCAL/MOL
REMARK 924 INTRA-LIGAND FREE ENERGY PREDICTED BY IDOCK:   -0.22 KCAL/MOL
REMARK 927      BINDING AFFINITY PREDICTED BY RF-SCORE:    0.00 PKD
ROOT
HETATM    1  C   UNL     1      -6.787  17.572  68.505  1.00  0.00    -0.214 C  
HETATM    2  O   UNL     1      -7.371  18.751  69.062  1.00  0.00    -0.304 OA 
ENDROOT
BRANCH   2   3
HETATM    3  C   UNL     1      -6.498  19.788  69.201  1.00  0.00    -0.327 C  
HETATM    4  O   UNL     1      -6.315  20.422  70.232  1.00  0.00    -0.408 OA 
BRANCH   3   5
HETATM    5  C   UNL     1      -5.783  20.033  67.898  1.00  0.00    -0.227 C  
BRANCH   5   6
HETATM    6  C   UNL     1      -6.636  20.882  66.963  1.00  0.00    -0.390 C  
BRANCH   6   7
HETATM    7  C   UNL     1      -6.930  20.181  65.652  1.00  0.00    -0.297 C  
HETATM    8  O   UNL     1      -7.774  19.286  65.562  1.00  0.00    -0.426 OA 
BRANCH   7   9
HETATM    9  C   UNL     1      -6.057  20.593  64.466  1.00  0.00    -0.292 C  
HETATM   10  N   UNL     1      -5.792  19.440  63.605  1.00  0.00    -0.424 NA 
HETATM   11  H1  UNL     1      -5.209  19.715  62.814  1.00  0.00     0.000 HD 
HETATM   12  H2  UNL     1      -6.652  18.984  63.304  1.00  0.00     0.000 HD 
ENDBRANCH   7   9
ENDBRANCH   6   7
ENDBRANCH   5   6
ENDBRANCH   3   5
ENDBRANCH   2   3
TORSDOF 5
ENDMDL
MODEL      133
REMARK 921   NORMALIZED FREE ENERGY PREDICTED BY IDOCK:   -2.39 KCAL/MOL
REMARK 922        TOTAL FREE ENERGY PREDICTED BY IDOCK:   -3.53 KCAL/MOL
REMARK 923 INTER-LIGAND FREE ENERGY PREDICTED BY IDOCK:   -3.37 KCAL/MOL
REMARK 924 INTRA-LIGAND FREE ENERGY PREDICTED BY IDOCK:   -0.16 KCAL/MOL
REMARK 927      BINDING AFFINITY PREDICTED BY RF-SCORE:    0.00 PKD
ROOT
HETATM    1  C   UNL     1     -11.867  14.881  69.947  1.00  0.00    -0.311 C  
HETATM    2  O   UNL     1     -12.098  15.277  68.593  1.00  0.00    -0.263 OA 
ENDROOT
BRANCH   2   3
HETATM    3  C   UNL     1     -11.120  16.072  68.075  1.00  0.00    -0.334 C  
HETATM    4  O   UNL     1     -10.813  17.178  68.498  1.00  0.00    -0.349 OA 
BRANCH   3   5
HETATM    5  C   UNL     1     -10.466  15.381  66.907  1.00  0.00    -0.295 C  
BRANCH   5   6
HETATM    6  C   UNL     1     -11.430  14.402  66.247  1.00  0.00    -0.361 C  
BRANCH   6   7
HETATM    7  C   UNL     1     -11.176  12.969  66.670  1.00  0.00    -0.307 C  
HETATM    8  O   UNL     1     -12.078  12.128  66.715  1.00  0.00    -0.609 OA 
BRANCH   7   9
HETATM    9  C   UNL     1      -9.749  12.649  67.117  1.00  0.00    -0.211 C  
HETATM   10  N   UNL     1      -9.742  12.190  68.507  1.00  0.00    -0.328 NA 
HETATM   11  H1  UNL     1      -8.790  11.977  68.805  1.00  0.00     0.000 HD 
HETATM   12  H2  UNL     1     -10.372  11.400  68.650  1.00  0.00     0.000 HD 
ENDBRANCH   7   9
ENDBRANCH   6   7
ENDBRANCH   5   6
ENDBRANCH   3   5
ENDBRANCH   2   3
TORSDOF 5
ENDMDL
MODEL      134
REMARK 921   NORMALIZED FREE ENERGY PREDICTED BY IDOCK:   -2.38 KCAL/MOL
REMARK 922        TOTAL FREE ENERGY PREDICTED BY IDOCK:   -3.52 KCAL/MOL
REMARK 923 INTER-LIGAND FREE ENERGY PREDICTED BY IDOCK:   -3.20 KCAL/MOL
REMARK 924 INTRA-LIGAND FREE ENERGY PREDICTED BY IDOCK:   -0.32 KCAL/MOL
REMARK 927      BINDING AFFINITY PREDICTED BY RF-SCORE:    0.00 PKD
ROOT
HETATM    1  C   UNL     1     -10.504  16.109  69.782  1.00  0.00    -0.286 C  
HETATM    2  O   UNL     1     -10.634  16.959  68.641  1.00  0.00    -0.322 OA 
ENDROOT
BRANCH   2   3
HETATM    3  C   UNL     1      -9.629  16.824  67.732  1.00  0.00    -0.241 C  
HETATM    4  O   UNL     1      -9.776  16.501  66.562  1.00  0.00    -0.244 OA 
BRANCH   3   5
HETATM    5  C   UNL     1      -8.307  17.141  68.382  1.00  0.00    -0.251 C  
BRANCH   5   6
HETATM    6  C   UNL     1      -8.179  18.635  68.652  1.00  0.00    -0.348 C  
BRANCH   6   7
HETATM    7  C   UNL     1      -8.643  19.475  67.479  1.00  0.00    -0.307 C  
HETATM    8  O   UNL     1      -8.023  19.514  66.414  1.00  0.00    -0.280 OA 
BRANCH   7   9
HETATM    9  C   UNL     1      -9.882  20.336  67.726  1.00  0.00    -0.393 C  
HETATM   10  N   UNL     1     -10.489  19.997  69.014  1.00  0.00    -0.527 NA 
HETATM   11  H1  UNL     1     -11.317  20.571  69.178  1.00  0.00     0.000 HD 
HETATM   12  H2  UNL     1      -9.820  20.065  69.780  1.00  0.00     0.000 HD 
ENDBRANCH   7   9
ENDBRANCH   6   7
ENDBRANCH   5   6
ENDBRANCH   3   5
ENDBRANCH   2   3
TORSDOF 5
ENDMDL
MODEL      135
REMARK 921   NORMALIZED FREE ENERGY PREDICTED BY IDOCK:   -2.38 KCAL/MOL
REMARK 922        TOTAL FREE ENERGY PREDICTED BY IDOCK:   -3.51 KCAL/MOL
REMARK 923 INTER-LIGAND FREE ENERGY PREDICTED BY IDOCK:   -3.00 KCAL/MOL
REMARK 924 INTRA-LIGAND FREE ENERGY PREDICTED BY IDOCK:   -0.51 KCAL/MOL
REMARK 927      BINDING AFFINITY PREDICTED BY RF-SCORE:    0.00 PKD
ROOT
HETATM    1  C   UNL     1      -7.375  17.201  68.776  1.00  0.00    -0.241 C  
HETATM    2  O   UNL     1      -7.615  18.146  67.731  1.00  0.00    -0.216 OA 
ENDROOT
BRANCH   2   3
HETATM    3  C   UNL     1      -8.876  18.096  67.218  1.00  0.00    -0.251 C  
HETATM    4  O   UNL     1      -9.180  18.383  66.068  1.00  0.00    -0.505 OA 
BRANCH   3   5
HETATM    5  C   UNL     1      -9.839  17.627  68.277  1.00  0.00    -0.324 C  
BRANCH   5   6
HETATM    6  C   UNL     1     -10.839  16.633  67.698  1.00  0.00    -0.258 C  
BRANCH   6   7
HETATM    7  C   UNL     1     -10.207  15.288  67.398  1.00  0.00    -0.243 C  
HETATM    8  O   UNL     1      -9.771  14.555  68.289  1.00  0.00    -0.206 OA 
BRANCH   7   9
HETATM    9  C   UNL     1     -10.070  14.932  65.918  1.00  0.00    -0.325 C  
HETATM   10  N   UNL     1     -10.800  15.897  65.093  1.00  0.00    -0.431 NA 
HETATM   11  H1  UNL     1     -10.709  15.659  64.105  1.00  0.00     0.000 HD 
HETATM   12  H2  UNL     1     -10.510  16.856  65.283  1.00  0.00     0.000 HD 
ENDBRANCH   7   9
ENDBRANCH   6   7
ENDBRANCH   5   6
ENDBRANCH   3   5
ENDBRANCH   2   3
TORSDOF 5
ENDMDL
MODEL      136
REMARK 921   NORMALIZED FREE ENERGY PREDICTED BY IDOCK:   -2.37 KCAL/MOL
REMARK 922        TOTAL FREE ENERGY PREDICTED BY IDOCK:   -3.50 KCAL/MOL
REMARK 923 INTER-LIGAND FREE ENERGY PREDICTED BY IDOCK:   -3.06 KCAL/MOL
REMARK 924 INTRA-LIGAND FREE ENERGY PREDICTED BY IDOCK:   -0.44 KCAL/MOL
REMARK 927      BINDING AFFINITY PREDICTED BY RF-SCORE:    0.00 PKD
ROOT
HETATM    1  C   UNL     1      -6.877  15.801  69.538  1.00  0.00    -0.187 C  
HETATM    2  O   UNL     1      -7.559  16.994  69.146  1.00  0.00    -0.229 OA 
ENDROOT
BRANCH   2   3
HETATM    3  C   UNL     1      -6.750  18.085  69.041  1.00  0.00    -0.251 C  
HETATM    4  O   UNL     1      -5.830  18.356  69.799  1.00  0.00    -0.235 OA 
BRANCH   3   5
HETATM    5  C   UNL     1      -7.154  18.906  67.843  1.00  0.00    -0.253 C  
BRANCH   5   6
HETATM    6  C   UNL     1      -8.527  19.532  68.053  1.00  0.00    -0.358 C  
BRANCH   6   7
HETATM    7  C   UNL     1      -9.542  19.052  67.036  1.00  0.00    -0.318 C  
HETATM    8  O   UNL     1      -9.518  19.423  65.859  1.00  0.00    -0.416 OA 
BRANCH   7   9
HETATM    9  C   UNL     1     -10.648  18.145  67.575  1.00  0.00    -0.401 C  
HETATM   10  N   UNL     1     -10.454  17.903  69.006  1.00  0.00    -0.416 NA 
HETATM   11  H1  UNL     1     -11.192  17.297  69.366  1.00  0.00     0.000 HD 
HETATM   12  H2  UNL     1     -10.385  18.773  69.533  1.00  0.00     0.000 HD 
ENDBRANCH   7   9
ENDBRANCH   6   7
ENDBRANCH   5   6
ENDBRANCH   3   5
ENDBRANCH   2   3
TORSDOF 5
ENDMDL
MODEL      137
REMARK 921   NORMALIZED FREE ENERGY PREDICTED BY IDOCK:   -2.37 KCAL/MOL
REMARK 922        TOTAL FREE ENERGY PREDICTED BY IDOCK:   -3.50 KCAL/MOL
REMARK 923 INTER-LIGAND FREE ENERGY PREDICTED BY IDOCK:   -3.40 KCAL/MOL
REMARK 924 INTRA-LIGAND FREE ENERGY PREDICTED BY IDOCK:   -0.11 KCAL/MOL
REMARK 927      BINDING AFFINITY PREDICTED BY RF-SCORE:    0.00 PKD
ROOT
HETATM    1  C   UNL     1     -10.226  16.895  68.368  1.00  0.00    -0.322 C  
HETATM    2  O   UNL     1     -11.321  15.998  68.564  1.00  0.00    -0.360 OA 
ENDROOT
BRANCH   2   3
HETATM    3  C   UNL     1     -11.346  15.415  69.795  1.00  0.00    -0.306 C  
HETATM    4  O   UNL     1     -11.062  15.975  70.845  1.00  0.00    -0.339 OA 
BRANCH   3   5
HETATM    5  C   UNL     1     -11.783  13.979  69.671  1.00  0.00    -0.368 C  
BRANCH   5   6
HETATM    6  C   UNL     1     -11.097  13.302  68.491  1.00  0.00    -0.294 C  
BRANCH   6   7
HETATM    7  C   UNL     1     -11.155  11.790  68.579  1.00  0.00    -0.239 C  
HETATM    8  O   UNL     1     -12.221  11.172  68.542  1.00  0.00    -0.600 OA 
BRANCH   7   9
HETATM    9  C   UNL     1      -9.816  11.085  68.797  1.00  0.00    -0.198 C  
HETATM   10  N   UNL     1      -9.814  10.386  70.084  1.00  0.00    -0.372 NA 
HETATM   11  H1  UNL     1      -8.921   9.915  70.230  1.00  0.00     0.000 HD 
HETATM   12  H2  UNL     1     -10.601   9.743  70.169  1.00  0.00     0.000 HD 
ENDBRANCH   7   9
ENDBRANCH   6   7
ENDBRANCH   5   6
ENDBRANCH   3   5
ENDBRANCH   2   3
TORSDOF 5
ENDMDL
MODEL      138
REMARK 921   NORMALIZED FREE ENERGY PREDICTED BY IDOCK:   -2.37 KCAL/MOL
REMARK 922        TOTAL FREE ENERGY PREDICTED BY IDOCK:   -3.50 KCAL/MOL
REMARK 923 INTER-LIGAND FREE ENERGY PREDICTED BY IDOCK:   -3.38 KCAL/MOL
REMARK 924 INTRA-LIGAND FREE ENERGY PREDICTED BY IDOCK:   -0.12 KCAL/MOL
REMARK 927      BINDING AFFINITY PREDICTED BY RF-SCORE:    0.00 PKD
ROOT
HETATM    1  C   UNL     1      -8.771   9.656  63.945  1.00  0.00    -0.221 C  
HETATM    2  O   UNL     1      -9.918  10.008  64.720  1.00  0.00    -0.321 OA 
ENDROOT
BRANCH   2   3
HETATM    3  C   UNL     1     -10.451  11.221  64.402  1.00  0.00    -0.345 C  
HETATM    4  O   UNL     1     -10.423  11.733  63.291  1.00  0.00    -0.400 OA 
BRANCH   3   5
HETATM    5  C   UNL     1     -11.088  11.834  65.622  1.00  0.00    -0.340 C  
BRANCH   5   6
HETATM    6  C   UNL     1     -10.038  12.484  66.514  1.00  0.00    -0.250 C  
BRANCH   6   7
HETATM    7  C   UNL     1     -10.435  13.879  66.951  1.00  0.00    -0.276 C  
HETATM    8  O   UNL     1      -9.599  14.735  67.252  1.00  0.00    -0.216 OA 
BRANCH   7   9
HETATM    9  C   UNL     1     -11.937  14.136  67.076  1.00  0.00    -0.439 C  
HETATM   10  N   UNL     1     -12.218  14.948  68.261  1.00  0.00    -0.576 NA 
HETATM   11  H1  UNL     1     -13.220  15.120  68.344  1.00  0.00     0.000 HD 
HETATM   12  H2  UNL     1     -11.682  15.816  68.262  1.00  0.00     0.000 HD 
ENDBRANCH   7   9
ENDBRANCH   6   7
ENDBRANCH   5   6
ENDBRANCH   3   5
ENDBRANCH   2   3
TORSDOF 5
ENDMDL
MODEL      139
REMARK 921   NORMALIZED FREE ENERGY PREDICTED BY IDOCK:   -2.36 KCAL/MOL
REMARK 922        TOTAL FREE ENERGY PREDICTED BY IDOCK:   -3.49 KCAL/MOL
REMARK 923 INTER-LIGAND FREE ENERGY PREDICTED BY IDOCK:   -2.98 KCAL/MOL
REMARK 924 INTRA-LIGAND FREE ENERGY PREDICTED BY IDOCK:   -0.52 KCAL/MOL
REMARK 927      BINDING AFFINITY PREDICTED BY RF-SCORE:    0.00 PKD
ROOT
HETATM    1  C   UNL     1     -10.291  13.503  67.161  1.00  0.00    -0.250 C  
HETATM    2  O   UNL     1     -10.960  14.348  66.223  1.00  0.00    -0.308 OA 
ENDROOT
BRANCH   2   3
HETATM    3  C   UNL     1     -10.645  15.668  66.344  1.00  0.00    -0.308 C  
HETATM    4  O   UNL     1     -10.449  16.434  65.411  1.00  0.00    -0.515 OA 
BRANCH   3   5
HETATM    5  C   UNL     1     -10.583  16.046  67.801  1.00  0.00    -0.309 C  
BRANCH   5   6
HETATM    6  C   UNL     1      -9.563  17.153  68.031  1.00  0.00    -0.267 C  
BRANCH   6   7
HETATM    7  C   UNL     1      -8.137  16.669  67.858  1.00  0.00    -0.172 C  
HETATM    8  O   UNL     1      -7.720  15.646  68.407  1.00  0.00    -0.121 OA 
BRANCH   7   9
HETATM    9  C   UNL     1      -7.224  17.571  67.026  1.00  0.00    -0.181 C  
HETATM   10  N   UNL     1      -7.818  17.823  65.713  1.00  0.00    -0.544 NA 
HETATM   11  H1  UNL     1      -7.209  18.425  65.158  1.00  0.00     0.000 HD 
HETATM   12  H2  UNL     1      -8.762  18.203  65.788  1.00  0.00     0.000 HD 
ENDBRANCH   7   9
ENDBRANCH   6   7
ENDBRANCH   5   6
ENDBRANCH   3   5
ENDBRANCH   2   3
TORSDOF 5
ENDMDL
MODEL      140
REMARK 921   NORMALIZED FREE ENERGY PREDICTED BY IDOCK:   -2.36 KCAL/MOL
REMARK 922        TOTAL FREE ENERGY PREDICTED BY IDOCK:   -3.48 KCAL/MOL
REMARK 923 INTER-LIGAND FREE ENERGY PREDICTED BY IDOCK:   -3.46 KCAL/MOL
REMARK 924 INTRA-LIGAND FREE ENERGY PREDICTED BY IDOCK:   -0.02 KCAL/MOL
REMARK 927      BINDING AFFINITY PREDICTED BY RF-SCORE:    0.00 PKD
ROOT
HETATM    1  C   UNL     1      -6.272  17.317  69.501  1.00  0.00    -0.251 C  
HETATM    2  O   UNL     1      -7.407  17.839  68.806  1.00  0.00    -0.263 OA 
ENDROOT
BRANCH   2   3
HETATM    3  C   UNL     1      -7.491  19.198  68.825  1.00  0.00    -0.344 C  
HETATM    4  O   UNL     1      -6.716  19.944  69.407  1.00  0.00    -0.337 OA 
BRANCH   3   5
HETATM    5  C   UNL     1      -8.679  19.648  68.015  1.00  0.00    -0.366 C  
BRANCH   5   6
HETATM    6  C   UNL     1      -9.960  18.999  68.525  1.00  0.00    -0.486 C  
BRANCH   6   7
HETATM    7  C   UNL     1     -10.383  17.814  67.681  1.00  0.00    -0.373 C  
HETATM    8  O   UNL     1     -10.376  17.850  66.448  1.00  0.00    -0.363 OA 
BRANCH   7   9
HETATM    9  C   UNL     1     -10.897  16.597  68.452  1.00  0.00    -0.361 C  
HETATM   10  N   UNL     1     -11.060  15.456  67.551  1.00  0.00    -0.320 NA 
HETATM   11  H1  UNL     1     -11.403  14.644  68.065  1.00  0.00     0.000 HD 
HETATM   12  H2  UNL     1     -10.203  15.248  67.040  1.00  0.00     0.000 HD 
ENDBRANCH   7   9
ENDBRANCH   6   7
ENDBRANCH   5   6
ENDBRANCH   3   5
ENDBRANCH   2   3
TORSDOF 5
ENDMDL
MODEL      141
REMARK 921   NORMALIZED FREE ENERGY PREDICTED BY IDOCK:   -2.35 KCAL/MOL
REMARK 922        TOTAL FREE ENERGY PREDICTED BY IDOCK:   -3.48 KCAL/MOL
REMARK 923 INTER-LIGAND FREE ENERGY PREDICTED BY IDOCK:   -3.06 KCAL/MOL
REMARK 924 INTRA-LIGAND FREE ENERGY PREDICTED BY IDOCK:   -0.42 KCAL/MOL
REMARK 927      BINDING AFFINITY PREDICTED BY RF-SCORE:    0.00 PKD
ROOT
HETATM    1  C   UNL     1      -7.934  16.402  68.380  1.00  0.00    -0.178 C  
HETATM    2  O   UNL     1      -8.449  16.039  67.098  1.00  0.00    -0.172 OA 
ENDROOT
BRANCH   2   3
HETATM    3  C   UNL     1      -9.701  15.501  67.136  1.00  0.00    -0.222 C  
HETATM    4  O   UNL     1     -10.659  15.901  66.490  1.00  0.00    -0.307 OA 
BRANCH   3   5
HETATM    5  C   UNL     1      -9.726  14.334  68.089  1.00  0.00    -0.226 C  
BRANCH   5   6
HETATM    6  C   UNL     1      -9.905  13.023  67.335  1.00  0.00    -0.215 C  
BRANCH   6   7
HETATM    7  C   UNL     1     -11.363  12.634  67.190  1.00  0.00    -0.319 C  
HETATM    8  O   UNL     1     -12.021  12.193  68.135  1.00  0.00    -0.430 OA 
BRANCH   7   9
HETATM    9  C   UNL     1     -11.944  12.745  65.780  1.00  0.00    -0.449 C  
HETATM   10  N   UNL     1     -12.719  13.980  65.646  1.00  0.00    -0.543 NA 
HETATM   11  H1  UNL     1     -13.108  14.054  64.705  1.00  0.00     0.000 HD 
HETATM   12  H2  UNL     1     -12.172  14.802  65.897  1.00  0.00     0.000 HD 
ENDBRANCH   7   9
ENDBRANCH   6   7
ENDBRANCH   5   6
ENDBRANCH   3   5
ENDBRANCH   2   3
TORSDOF 5
ENDMDL
MODEL      142
REMARK 921   NORMALIZED FREE ENERGY PREDICTED BY IDOCK:   -2.35 KCAL/MOL
REMARK 922        TOTAL FREE ENERGY PREDICTED BY IDOCK:   -3.48 KCAL/MOL
REMARK 923 INTER-LIGAND FREE ENERGY PREDICTED BY IDOCK:   -3.16 KCAL/MOL
REMARK 924 INTRA-LIGAND FREE ENERGY PREDICTED BY IDOCK:   -0.31 KCAL/MOL
REMARK 927      BINDING AFFINITY PREDICTED BY RF-SCORE:    0.00 PKD
ROOT
HETATM    1  C   UNL     1      -9.407  12.748  67.853  1.00  0.00    -0.208 C  
HETATM    2  O   UNL     1     -10.004  12.233  66.662  1.00  0.00    -0.209 OA 
ENDROOT
BRANCH   2   3
HETATM    3  C   UNL     1     -10.774  11.127  66.862  1.00  0.00    -0.274 C  
HETATM    4  O   UNL     1     -11.742  11.067  67.606  1.00  0.00    -0.576 OA 
BRANCH   3   5
HETATM    5  C   UNL     1     -10.258   9.988  66.021  1.00  0.00    -0.277 C  
BRANCH   5   6
HETATM    6  C   UNL     1      -8.967  10.377  65.313  1.00  0.00    -0.212 C  
BRANCH   6   7
HETATM    7  C   UNL     1      -9.115  10.385  63.804  1.00  0.00    -0.247 C  
HETATM    8  O   UNL     1      -8.328   9.789  63.065  1.00  0.00    -0.142 OA 
BRANCH   7   9
HETATM    9  C   UNL     1     -10.253  11.243  63.252  1.00  0.00    -0.368 C  
HETATM   10  N   UNL     1     -10.109  12.629  63.701  1.00  0.00    -0.649 NA 
HETATM   11  H1  UNL     1     -10.869  13.202  63.332  1.00  0.00     0.000 HD 
HETATM   12  H2  UNL     1      -9.194  13.012  63.465  1.00  0.00     0.000 HD 
ENDBRANCH   7   9
ENDBRANCH   6   7
ENDBRANCH   5   6
ENDBRANCH   3   5
ENDBRANCH   2   3
TORSDOF 5
ENDMDL
MODEL      143
REMARK 921   NORMALIZED FREE ENERGY PREDICTED BY IDOCK:   -2.34 KCAL/MOL
REMARK 922        TOTAL FREE ENERGY PREDICTED BY IDOCK:   -3.47 KCAL/MOL
REMARK 923 INTER-LIGAND FREE ENERGY PREDICTED BY IDOCK:   -3.36 KCAL/MOL
REMARK 924 INTRA-LIGAND FREE ENERGY PREDICTED BY IDOCK:   -0.11 KCAL/MOL
REMARK 927      BINDING AFFINITY PREDICTED BY RF-SCORE:    0.00 PKD
ROOT
HETATM    1  C   UNL     1      -9.350  11.170  65.898  1.00  0.00    -0.212 C  
HETATM    2  O   UNL     1     -10.630  11.103  66.530  1.00  0.00    -0.247 OA 
ENDROOT
BRANCH   2   3
HETATM    3  C   UNL     1     -11.401  12.209  66.338  1.00  0.00    -0.356 C  
HETATM    4  O   UNL     1     -12.418  12.249  65.658  1.00  0.00    -0.591 OA 
BRANCH   3   5
HETATM    5  C   UNL     1     -10.820  13.375  67.094  1.00  0.00    -0.284 C  
BRANCH   5   6
HETATM    6  C   UNL     1     -11.429  14.688  66.618  1.00  0.00    -0.363 C  
BRANCH   6   7
HETATM    7  C   UNL     1     -11.178  15.825  67.588  1.00  0.00    -0.246 C  
HETATM    8  O   UNL     1     -10.501  16.810  67.283  1.00  0.00    -0.317 OA 
BRANCH   7   9
HETATM    9  C   UNL     1     -11.748  15.639  68.994  1.00  0.00    -0.395 C  
HETATM   10  N   UNL     1     -10.864  16.253  69.986  1.00  0.00    -0.343 NA 
HETATM   11  H1  UNL     1     -11.245  16.129  70.925  1.00  0.00     0.000 HD 
HETATM   12  H2  UNL     1     -10.681  17.234  69.777  1.00  0.00     0.000 HD 
ENDBRANCH   7   9
ENDBRANCH   6   7
ENDBRANCH   5   6
ENDBRANCH   3   5
ENDBRANCH   2   3
TORSDOF 5
ENDMDL
MODEL      144
REMARK 921   NORMALIZED FREE ENERGY PREDICTED BY IDOCK:   -2.34 KCAL/MOL
REMARK 922        TOTAL FREE ENERGY PREDICTED BY IDOCK:   -3.47 KCAL/MOL
REMARK 923 INTER-LIGAND FREE ENERGY PREDICTED BY IDOCK:   -3.36 KCAL/MOL
REMARK 924 INTRA-LIGAND FREE ENERGY PREDICTED BY IDOCK:   -0.11 KCAL/MOL
REMARK 927      BINDING AFFINITY PREDICTED BY RF-SCORE:    0.00 PKD
ROOT
HETATM    1  C   UNL     1     -10.375   7.403  67.610  1.00  0.00    -0.231 C  
HETATM    2  O   UNL     1     -10.459   8.266  66.475  1.00  0.00    -0.255 OA 
ENDROOT
BRANCH   2   3
HETATM    3  C   UNL     1      -9.634   9.348  66.539  1.00  0.00    -0.208 C  
HETATM    4  O   UNL     1      -8.413   9.301  66.602  1.00  0.00    -0.124 OA 
BRANCH   3   5
HETATM    5  C   UNL     1     -10.450  10.614  66.512  1.00  0.00    -0.285 C  
BRANCH   5   6
HETATM    6  C   UNL     1      -9.726  11.710  65.740  1.00  0.00    -0.262 C  
BRANCH   6   7
HETATM    7  C   UNL     1     -10.684  12.708  65.120  1.00  0.00    -0.292 C  
HETATM    8  O   UNL     1     -10.334  13.486  64.229  1.00  0.00    -0.406 OA 
BRANCH   7   9
HETATM    9  C   UNL     1     -12.088  12.747  65.723  1.00  0.00    -0.448 C  
HETATM   10  N   UNL     1     -13.098  12.666  64.667  1.00  0.00    -0.848 NA 
HETATM   11  H1  UNL     1     -14.035  12.693  65.070  1.00  0.00     0.000 HD 
HETATM   12  H2  UNL     1     -12.962  11.849  64.073  1.00  0.00     0.000 HD 
ENDBRANCH   7   9
ENDBRANCH   6   7
ENDBRANCH   5   6
ENDBRANCH   3   5
ENDBRANCH   2   3
TORSDOF 5
ENDMDL
MODEL      145
REMARK 921   NORMALIZED FREE ENERGY PREDICTED BY IDOCK:   -2.34 KCAL/MOL
REMARK 922        TOTAL FREE ENERGY PREDICTED BY IDOCK:   -3.46 KCAL/MOL
REMARK 923 INTER-LIGAND FREE ENERGY PREDICTED BY IDOCK:   -3.33 KCAL/MOL
REMARK 924 INTRA-LIGAND FREE ENERGY PREDICTED BY IDOCK:   -0.13 KCAL/MOL
REMARK 927      BINDING AFFINITY PREDICTED BY RF-SCORE:    0.00 PKD
ROOT
HETATM    1  C   UNL     1     -13.730  13.612  72.256  1.00  0.00    -0.589 C  
HETATM    2  O   UNL     1     -13.290  13.396  70.914  1.00  0.00    -0.046 OA 
ENDROOT
BRANCH   2   3
HETATM    3  C   UNL     1     -12.603  12.233  70.737  1.00  0.00    -0.213 C  
HETATM    4  O   UNL     1     -12.614  11.284  71.509  1.00  0.00    -0.361 OA 
BRANCH   3   5
HETATM    5  C   UNL     1     -11.834  12.286  69.443  1.00  0.00    -0.370 C  
BRANCH   5   6
HETATM    6  C   UNL     1     -11.614  13.727  69.001  1.00  0.00    -0.356 C  
BRANCH   6   7
HETATM    7  C   UNL     1     -11.725  13.894  67.498  1.00  0.00    -0.380 C  
HETATM    8  O   UNL     1     -12.239  13.033  66.779  1.00  0.00    -0.368 OA 
BRANCH   7   9
HETATM    9  C   UNL     1     -11.088  15.157  66.920  1.00  0.00    -0.314 C  
HETATM   10  N   UNL     1     -10.664  14.926  65.538  1.00  0.00    -0.332 NA 
HETATM   11  H1  UNL     1     -10.239  15.770  65.152  1.00  0.00     0.000 HD 
HETATM   12  H2  UNL     1     -11.431  14.587  64.957  1.00  0.00     0.000 HD 
ENDBRANCH   7   9
ENDBRANCH   6   7
ENDBRANCH   5   6
ENDBRANCH   3   5
ENDBRANCH   2   3
TORSDOF 5
ENDMDL
MODEL      146
REMARK 921   NORMALIZED FREE ENERGY PREDICTED BY IDOCK:   -2.34 KCAL/MOL
REMARK 922        TOTAL FREE ENERGY PREDICTED BY IDOCK:   -3.46 KCAL/MOL
REMARK 923 INTER-LIGAND FREE ENERGY PREDICTED BY IDOCK:   -3.22 KCAL/MOL
REMARK 924 INTRA-LIGAND FREE ENERGY PREDICTED BY IDOCK:   -0.24 KCAL/MOL
REMARK 927      BINDING AFFINITY PREDICTED BY RF-SCORE:    0.00 PKD
ROOT
HETATM    1  C   UNL     1      -9.400  12.984  66.517  1.00  0.00    -0.217 C  
HETATM    2  O   UNL     1     -10.052  14.011  65.767  1.00  0.00    -0.309 OA 
ENDROOT
BRANCH   2   3
HETATM    3  C   UNL     1      -9.730  15.274  66.162  1.00  0.00    -0.314 C  
HETATM    4  O   UNL     1      -8.617  15.776  66.080  1.00  0.00    -0.313 OA 
BRANCH   3   5
HETATM    5  C   UNL     1     -10.952  15.966  66.707  1.00  0.00    -0.151 C  
BRANCH   5   6
HETATM    6  C   UNL     1     -10.880  16.079  68.224  1.00  0.00    -0.319 C  
BRANCH   6   7
HETATM    7  C   UNL     1     -11.773  15.071  68.921  1.00  0.00    -0.328 C  
HETATM    8  O   UNL     1     -12.230  14.086  68.337  1.00  0.00    -0.332 OA 
BRANCH   7   9
HETATM    9  C   UNL     1     -12.138  15.394  70.370  1.00  0.00    -0.372 C  
HETATM   10  N   UNL     1     -11.049  15.004  71.268  1.00  0.00    -0.568 NA 
HETATM   11  H1  UNL     1     -11.293  15.220  72.235  1.00  0.00     0.000 HD 
HETATM   12  H2  UNL     1     -10.162  15.427  70.996  1.00  0.00     0.000 HD 
ENDBRANCH   7   9
ENDBRANCH   6   7
ENDBRANCH   5   6
ENDBRANCH   3   5
ENDBRANCH   2   3
TORSDOF 5
ENDMDL
MODEL      147
REMARK 921   NORMALIZED FREE ENERGY PREDICTED BY IDOCK:   -2.32 KCAL/MOL
REMARK 922        TOTAL FREE ENERGY PREDICTED BY IDOCK:   -3.44 KCAL/MOL
REMARK 923 INTER-LIGAND FREE ENERGY PREDICTED BY IDOCK:   -3.15 KCAL/MOL
REMARK 924 INTRA-LIGAND FREE ENERGY PREDICTED BY IDOCK:   -0.29 KCAL/MOL
REMARK 927      BINDING AFFINITY PREDICTED BY RF-SCORE:    0.00 PKD
ROOT
HETATM    1  C   UNL     1     -12.205  14.438  64.175  1.00  0.00    -0.363 C  
HETATM    2  O   UNL     1     -11.078  13.598  64.433  1.00  0.00    -0.375 OA 
ENDROOT
BRANCH   2   3
HETATM    3  C   UNL     1     -11.138  12.941  65.625  1.00  0.00    -0.279 C  
HETATM    4  O   UNL     1     -12.103  12.308  66.032  1.00  0.00    -0.623 OA 
BRANCH   3   5
HETATM    5  C   UNL     1      -9.836  13.104  66.364  1.00  0.00    -0.279 C  
BRANCH   5   6
HETATM    6  C   UNL     1     -10.075  13.621  67.777  1.00  0.00    -0.242 C  
BRANCH   6   7
HETATM    7  C   UNL     1     -10.581  15.049  67.792  1.00  0.00    -0.264 C  
HETATM    8  O   UNL     1     -11.720  15.338  68.166  1.00  0.00    -0.345 OA 
BRANCH   7   9
HETATM    9  C   UNL     1      -9.620  16.101  67.238  1.00  0.00    -0.229 C  
HETATM   10  N   UNL     1      -8.298  15.955  67.849  1.00  0.00    -0.152 NA 
HETATM   11  H1  UNL     1      -7.656  16.657  67.479  1.00  0.00     0.000 HD 
HETATM   12  H2  UNL     1      -7.931  15.010  67.740  1.00  0.00     0.000 HD 
ENDBRANCH   7   9
ENDBRANCH   6   7
ENDBRANCH   5   6
ENDBRANCH   3   5
ENDBRANCH   2   3
TORSDOF 5
ENDMDL
MODEL      148
REMARK 921   NORMALIZED FREE ENERGY PREDICTED BY IDOCK:   -2.32 KCAL/MOL
REMARK 922        TOTAL FREE ENERGY PREDICTED BY IDOCK:   -3.44 KCAL/MOL
REMARK 923 INTER-LIGAND FREE ENERGY PREDICTED BY IDOCK:   -3.27 KCAL/MOL
REMARK 924 INTRA-LIGAND FREE ENERGY PREDICTED BY IDOCK:   -0.16 KCAL/MOL
REMARK 927      BINDING AFFINITY PREDICTED BY RF-SCORE:    0.00 PKD
ROOT
HETATM    1  C   UNL     1     -11.926  14.914  70.169  1.00  0.00    -0.317 C  
HETATM    2  O   UNL     1     -12.025  16.000  69.247  1.00  0.00    -0.324 OA 
ENDROOT
BRANCH   2   3
HETATM    3  C   UNL     1     -11.209  15.882  68.162  1.00  0.00    -0.339 C  
HETATM    4  O   UNL     1     -10.794  14.826  67.704  1.00  0.00    -0.272 OA 
BRANCH   3   5
HETATM    5  C   UNL     1     -10.899  17.247  67.605  1.00  0.00    -0.238 C  
BRANCH   5   6
HETATM    6  C   UNL     1     -10.008  18.033  68.559  1.00  0.00    -0.395 C  
BRANCH   6   7
HETATM    7  C   UNL     1      -8.692  18.433  67.922  1.00  0.00    -0.283 C  
HETATM    8  O   UNL     1      -7.881  17.598  67.511  1.00  0.00    -0.198 OA 
BRANCH   7   9
HETATM    9  C   UNL     1      -8.394  19.932  67.895  1.00  0.00    -0.286 C  
HETATM   10  N   UNL     1      -9.340  20.622  67.017  1.00  0.00    -0.621 NA 
HETATM   11  H1  UNL     1      -9.141  21.623  66.999  1.00  0.00     0.000 HD 
HETATM   12  H2  UNL     1     -10.308  20.431  67.276  1.00  0.00     0.000 HD 
ENDBRANCH   7   9
ENDBRANCH   6   7
ENDBRANCH   5   6
ENDBRANCH   3   5
ENDBRANCH   2   3
TORSDOF 5
ENDMDL
MODEL      149
REMARK 921   NORMALIZED FREE ENERGY PREDICTED BY IDOCK:   -2.32 KCAL/MOL
REMARK 922        TOTAL FREE ENERGY PREDICTED BY IDOCK:   -3.44 KCAL/MOL
REMARK 923 INTER-LIGAND FREE ENERGY PREDICTED BY IDOCK:   -3.36 KCAL/MOL
REMARK 924 INTRA-LIGAND FREE ENERGY PREDICTED BY IDOCK:   -0.07 KCAL/MOL
REMARK 927      BINDING AFFINITY PREDICTED BY RF-SCORE:    0.00 PKD
ROOT
HETATM    1  C   UNL     1     -12.983  10.386  71.769  1.00  0.00    -0.475 C  
HETATM    2  O   UNL     1     -12.149   9.241  71.955  1.00  0.00    -0.366 OA 
ENDROOT
BRANCH   2   3
HETATM    3  C   UNL     1     -11.470   8.863  70.836  1.00  0.00    -0.288 C  
HETATM    4  O   UNL     1     -11.494   7.744  70.342  1.00  0.00    -0.252 OA 
BRANCH   3   5
HETATM    5  C   UNL     1     -10.689  10.032  70.294  1.00  0.00    -0.367 C  
BRANCH   5   6
HETATM    6  C   UNL     1     -10.903  10.177  68.792  1.00  0.00    -0.259 C  
BRANCH   6   7
HETATM    7  C   UNL     1     -10.481  11.538  68.278  1.00  0.00    -0.197 C  
HETATM    8  O   UNL     1      -9.300  11.890  68.246  1.00  0.00    -0.186 OA 
BRANCH   7   9
HETATM    9  C   UNL     1     -11.617  12.480  67.878  1.00  0.00    -0.347 C  
HETATM   10  N   UNL     1     -12.005  12.247  66.486  1.00  0.00    -0.626 NA 
HETATM   11  H1  UNL     1     -12.763  12.875  66.219  1.00  0.00     0.000 HD 
HETATM   12  H2  UNL     1     -12.244  11.270  66.316  1.00  0.00     0.000 HD 
ENDBRANCH   7   9
ENDBRANCH   6   7
ENDBRANCH   5   6
ENDBRANCH   3   5
ENDBRANCH   2   3
TORSDOF 5
ENDMDL
MODEL      150
REMARK 921   NORMALIZED FREE ENERGY PREDICTED BY IDOCK:   -2.31 KCAL/MOL
REMARK 922        TOTAL FREE ENERGY PREDICTED BY IDOCK:   -3.43 KCAL/MOL
REMARK 923 INTER-LIGAND FREE ENERGY PREDICTED BY IDOCK:   -3.05 KCAL/MOL
REMARK 924 INTRA-LIGAND FREE ENERGY PREDICTED BY IDOCK:   -0.38 KCAL/MOL
REMARK 927      BINDING AFFINITY PREDICTED BY RF-SCORE:    0.00 PKD
ROOT
HETATM    1  C   UNL     1     -11.850  15.599  70.429  1.00  0.00    -0.370 C  
HETATM    2  O   UNL     1     -11.878  15.882  69.028  1.00  0.00    -0.389 OA 
ENDROOT
BRANCH   2   3
HETATM    3  C   UNL     1     -11.598  14.806  68.241  1.00  0.00    -0.323 C  
HETATM    4  O   UNL     1     -12.284  14.420  67.305  1.00  0.00    -0.383 OA 
BRANCH   3   5
HETATM    5  C   UNL     1     -10.310  14.165  68.691  1.00  0.00    -0.243 C  
BRANCH   5   6
HETATM    6  C   UNL     1      -9.247  14.262  67.604  1.00  0.00    -0.194 C  
BRANCH   6   7
HETATM    7  C   UNL     1      -9.051  12.951  66.870  1.00  0.00    -0.224 C  
HETATM    8  O   UNL     1      -8.189  12.135  67.203  1.00  0.00    -0.171 OA 
BRANCH   7   9
HETATM    9  C   UNL     1      -9.934  12.738  65.639  1.00  0.00    -0.238 C  
HETATM   10  N   UNL     1     -10.243  14.021  65.007  1.00  0.00    -0.520 NA 
HETATM   11  H1  UNL     1     -10.832  13.879  64.186  1.00  0.00     0.000 HD 
HETATM   12  H2  UNL     1      -9.399  14.548  64.783  1.00  0.00     0.000 HD 
ENDBRANCH   7   9
ENDBRANCH   6   7
ENDBRANCH   5   6
ENDBRANCH   3   5
ENDBRANCH   2   3
TORSDOF 5
ENDMDL
MODEL      151
REMARK 921   NORMALIZED FREE ENERGY PREDICTED BY IDOCK:   -2.31 KCAL/MOL
REMARK 922        TOTAL FREE ENERGY PREDICTED BY IDOCK:   -3.43 KCAL/MOL
REMARK 923 INTER-LIGAND FREE ENERGY PREDICTED BY IDOCK:   -2.99 KCAL/MOL
REMARK 924 INTRA-LIGAND FREE ENERGY PREDICTED BY IDOCK:   -0.44 KCAL/MOL
REMARK 927      BINDING AFFINITY PREDICTED BY RF-SCORE:    0.00 PKD
ROOT
HETATM    1  C   UNL     1     -11.510  13.452  68.957  1.00  0.00    -0.301 C  
HETATM    2  O   UNL     1     -11.119  14.716  68.418  1.00  0.00    -0.241 OA 
ENDROOT
BRANCH   2   3
HETATM    3  C   UNL     1      -9.801  15.011  68.598  1.00  0.00    -0.222 C  
HETATM    4  O   UNL     1      -8.916  14.191  68.797  1.00  0.00    -0.159 OA 
BRANCH   3   5
HETATM    5  C   UNL     1      -9.595  16.501  68.509  1.00  0.00    -0.233 C  
BRANCH   5   6
HETATM    6  C   UNL     1     -10.445  17.100  67.396  1.00  0.00    -0.334 C  
BRANCH   6   7
HETATM    7  C   UNL     1      -9.894  16.791  66.018  1.00  0.00    -0.287 C  
HETATM    8  O   UNL     1      -8.764  17.142  65.670  1.00  0.00    -0.473 OA 
BRANCH   7   9
HETATM    9  C   UNL     1     -10.857  16.091  65.058  1.00  0.00    -0.404 C  
HETATM   10  N   UNL     1     -10.924  14.660  65.360  1.00  0.00    -0.332 NA 
HETATM   11  H1  UNL     1     -11.566  14.192  64.719  1.00  0.00     0.000 HD 
HETATM   12  H2  UNL     1     -11.167  14.488  66.335  1.00  0.00     0.000 HD 
ENDBRANCH   7   9
ENDBRANCH   6   7
ENDBRANCH   5   6
ENDBRANCH   3   5
ENDBRANCH   2   3
TORSDOF 5
ENDMDL
MODEL      152
REMARK 921   NORMALIZED FREE ENERGY PREDICTED BY IDOCK:   -2.31 KCAL/MOL
REMARK 922        TOTAL FREE ENERGY PREDICTED BY IDOCK:   -3.42 KCAL/MOL
REMARK 923 INTER-LIGAND FREE ENERGY PREDICTED BY IDOCK:   -3.30 KCAL/MOL
REMARK 924 INTRA-LIGAND FREE ENERGY PREDICTED BY IDOCK:   -0.12 KCAL/MOL
REMARK 927      BINDING AFFINITY PREDICTED BY RF-SCORE:    0.00 PKD
ROOT
HETATM    1  C   UNL     1      -8.304  14.570  67.427  1.00  0.00    -0.200 C  
HETATM    2  O   UNL     1      -8.813  13.249  67.229  1.00  0.00    -0.197 OA 
ENDROOT
BRANCH   2   3
HETATM    3  C   UNL     1      -9.857  12.930  68.044  1.00  0.00    -0.223 C  
HETATM    4  O   UNL     1      -9.983  11.872  68.645  1.00  0.00    -0.207 OA 
BRANCH   3   5
HETATM    5  C   UNL     1     -10.829  14.079  68.103  1.00  0.00    -0.260 C  
BRANCH   5   6
HETATM    6  C   UNL     1     -12.010  13.745  69.005  1.00  0.00    -0.399 C  
BRANCH   6   7
HETATM    7  C   UNL     1     -12.228  14.789  70.082  1.00  0.00    -0.337 C  
HETATM    8  O   UNL     1     -11.573  15.833  70.125  1.00  0.00    -0.307 OA 
BRANCH   7   9
HETATM    9  C   UNL     1     -13.251  14.430  71.160  1.00  0.00    -0.350 C  
HETATM   10  N   UNL     1     -14.329  15.420  71.187  1.00  0.00    -0.821 NA 
HETATM   11  H1  UNL     1     -15.012  15.180  71.907  1.00  0.00     0.000 HD 
HETATM   12  H2  UNL     1     -14.764  15.534  70.272  1.00  0.00     0.000 HD 
ENDBRANCH   7   9
ENDBRANCH   6   7
ENDBRANCH   5   6
ENDBRANCH   3   5
ENDBRANCH   2   3
TORSDOF 5
ENDMDL
MODEL      153
REMARK 921   NORMALIZED FREE ENERGY PREDICTED BY IDOCK:   -2.30 KCAL/MOL
REMARK 922        TOTAL FREE ENERGY PREDICTED BY IDOCK:   -3.41 KCAL/MOL
REMARK 923 INTER-LIGAND FREE ENERGY PREDICTED BY IDOCK:   -3.01 KCAL/MOL
REMARK 924 INTRA-LIGAND FREE ENERGY PREDICTED BY IDOCK:   -0.41 KCAL/MOL
REMARK 927      BINDING AFFINITY PREDICTED BY RF-SCORE:    0.00 PKD
ROOT
HETATM    1  C   UNL     1      -7.427  13.657  67.499  1.00  0.00    -0.170 C  
HETATM    2  O   UNL     1      -8.037  14.939  67.657  1.00  0.00    -0.141 OA 
ENDROOT
BRANCH   2   3
HETATM    3  C   UNL     1      -9.283  14.896  68.206  1.00  0.00    -0.187 C  
HETATM    4  O   UNL     1      -9.956  13.884  68.348  1.00  0.00    -0.225 OA 
BRANCH   3   5
HETATM    5  C   UNL     1      -9.707  16.281  68.620  1.00  0.00    -0.235 C  
BRANCH   5   6
HETATM    6  C   UNL     1     -10.776  16.825  67.680  1.00  0.00    -0.305 C  
BRANCH   6   7
HETATM    7  C   UNL     1     -10.192  17.352  66.385  1.00  0.00    -0.338 C  
HETATM    8  O   UNL     1     -10.684  17.082  65.286  1.00  0.00    -0.616 OA 
BRANCH   7   9
HETATM    9  C   UNL     1      -8.909  18.172  66.518  1.00  0.00    -0.271 C  
HETATM   10  N   UNL     1      -7.835  17.567  65.728  1.00  0.00    -0.518 NA 
HETATM   11  H1  UNL     1      -6.978  18.114  65.817  1.00  0.00     0.000 HD 
HETATM   12  H2  UNL     1      -8.106  17.439  64.753  1.00  0.00     0.000 HD 
ENDBRANCH   7   9
ENDBRANCH   6   7
ENDBRANCH   5   6
ENDBRANCH   3   5
ENDBRANCH   2   3
TORSDOF 5
ENDMDL
MODEL      154
REMARK 921   NORMALIZED FREE ENERGY PREDICTED BY IDOCK:   -2.30 KCAL/MOL
REMARK 922        TOTAL FREE ENERGY PREDICTED BY IDOCK:   -3.41 KCAL/MOL
REMARK 923 INTER-LIGAND FREE ENERGY PREDICTED BY IDOCK:   -2.97 KCAL/MOL
REMARK 924 INTRA-LIGAND FREE ENERGY PREDICTED BY IDOCK:   -0.43 KCAL/MOL
REMARK 927      BINDING AFFINITY PREDICTED BY RF-SCORE:    0.00 PKD
ROOT
HETATM    1  C   UNL     1     -10.293  19.839  65.941  1.00  0.00    -0.483 C  
HETATM    2  O   UNL     1      -9.024  19.221  66.164  1.00  0.00    -0.386 OA 
ENDROOT
BRANCH   2   3
HETATM    3  C   UNL     1      -9.088  18.069  66.887  1.00  0.00    -0.269 C  
HETATM    4  O   UNL     1      -9.727  17.920  67.920  1.00  0.00    -0.271 OA 
BRANCH   3   5
HETATM    5  C   UNL     1      -8.260  17.001  66.221  1.00  0.00    -0.322 C  
BRANCH   5   6
HETATM    6  C   UNL     1      -8.939  15.642  66.329  1.00  0.00    -0.377 C  
BRANCH   6   7
HETATM    7  C   UNL     1      -8.276  14.745  67.355  1.00  0.00    -0.196 C  
HETATM    8  O   UNL     1      -7.095  14.402  67.261  1.00  0.00    -0.163 OA 
BRANCH   7   9
HETATM    9  C   UNL     1      -9.183  14.225  68.471  1.00  0.00    -0.197 C  
HETATM   10  N   UNL     1      -9.506  15.303  69.408  1.00  0.00    -0.310 NA 
HETATM   11  H1  UNL     1     -10.111  14.956  70.152  1.00  0.00     0.000 HD 
HETATM   12  H2  UNL     1      -9.910  16.110  68.934  1.00  0.00     0.000 HD 
ENDBRANCH   7   9
ENDBRANCH   6   7
ENDBRANCH   5   6
ENDBRANCH   3   5
ENDBRANCH   2   3
TORSDOF 5
ENDMDL
MODEL      155
REMARK 921   NORMALIZED FREE ENERGY PREDICTED BY IDOCK:   -2.28 KCAL/MOL
REMARK 922        TOTAL FREE ENERGY PREDICTED BY IDOCK:   -3.38 KCAL/MOL
REMARK 923 INTER-LIGAND FREE ENERGY PREDICTED BY IDOCK:   -2.92 KCAL/MOL
REMARK 924 INTRA-LIGAND FREE ENERGY PREDICTED BY IDOCK:   -0.46 KCAL/MOL
REMARK 927      BINDING AFFINITY PREDICTED BY RF-SCORE:    0.00 PKD
ROOT
HETATM    1  C   UNL     1     -10.288  19.845  65.966  1.00  0.00    -0.486 C  
HETATM    2  O   UNL     1      -9.011  19.287  66.280  1.00  0.00    -0.341 OA 
ENDROOT
BRANCH   2   3
HETATM    3  C   UNL     1      -9.063  18.237  67.147  1.00  0.00    -0.264 C  
HETATM    4  O   UNL     1      -8.190  17.942  67.950  1.00  0.00    -0.235 OA 
BRANCH   3   5
HETATM    5  C   UNL     1     -10.364  17.497  66.973  1.00  0.00    -0.324 C  
BRANCH   5   6
HETATM    6  C   UNL     1     -10.860  16.952  68.306  1.00  0.00    -0.357 C  
BRANCH   6   7
HETATM    7  C   UNL     1     -10.669  15.453  68.425  1.00  0.00    -0.256 C  
HETATM    8  O   UNL     1     -11.220  14.658  67.660  1.00  0.00    -0.295 OA 
BRANCH   7   9
HETATM    9  C   UNL     1      -9.815  14.982  69.603  1.00  0.00    -0.081 C  
HETATM   10  N   UNL     1      -8.402  15.272  69.354  1.00  0.00    -0.284 NA 
HETATM   11  H1  UNL     1      -7.832  14.958  70.140  1.00  0.00     0.000 HD 
HETATM   12  H2  UNL     1      -8.247  16.258  69.142  1.00  0.00     0.000 HD 
ENDBRANCH   7   9
ENDBRANCH   6   7
ENDBRANCH   5   6
ENDBRANCH   3   5
ENDBRANCH   2   3
TORSDOF 5
ENDMDL
MODEL      156
REMARK 921   NORMALIZED FREE ENERGY PREDICTED BY IDOCK:   -2.27 KCAL/MOL
REMARK 922        TOTAL FREE ENERGY PREDICTED BY IDOCK:   -3.37 KCAL/MOL
REMARK 923 INTER-LIGAND FREE ENERGY PREDICTED BY IDOCK:   -2.93 KCAL/MOL
REMARK 924 INTRA-LIGAND FREE ENERGY PREDICTED BY IDOCK:   -0.45 KCAL/MOL
REMARK 927      BINDING AFFINITY PREDICTED BY RF-SCORE:    0.00 PKD
ROOT
HETATM    1  C   UNL     1     -11.418   8.818  71.849  1.00  0.00    -0.358 C  
HETATM    2  O   UNL     1     -10.832   9.986  71.270  1.00  0.00    -0.205 OA 
ENDROOT
BRANCH   2   3
HETATM    3  C   UNL     1     -10.525   9.854  69.949  1.00  0.00    -0.269 C  
HETATM    4  O   UNL     1     -10.310   8.794  69.377  1.00  0.00    -0.206 OA 
BRANCH   3   5
HETATM    5  C   UNL     1     -10.498  11.211  69.294  1.00  0.00    -0.183 C  
BRANCH   5   6
HETATM    6  C   UNL     1     -11.901  11.798  69.204  1.00  0.00    -0.389 C  
BRANCH   6   7
HETATM    7  C   UNL     1     -11.967  13.220  69.724  1.00  0.00    -0.324 C  
HETATM    8  O   UNL     1     -11.492  14.170  69.096  1.00  0.00    -0.260 OA 
BRANCH   7   9
HETATM    9  C   UNL     1     -12.584  13.393  71.111  1.00  0.00    -0.345 C  
HETATM   10  N   UNL     1     -13.145  12.125  71.581  1.00  0.00    -0.388 NA 
HETATM   11  H1  UNL     1     -13.557  12.241  72.507  1.00  0.00     0.000 HD 
HETATM   12  H2  UNL     1     -12.455  11.375  71.563  1.00  0.00     0.000 HD 
ENDBRANCH   7   9
ENDBRANCH   6   7
ENDBRANCH   5   6
ENDBRANCH   3   5
ENDBRANCH   2   3
TORSDOF 5
ENDMDL
MODEL      157
REMARK 921   NORMALIZED FREE ENERGY PREDICTED BY IDOCK:   -2.26 KCAL/MOL
REMARK 922        TOTAL FREE ENERGY PREDICTED BY IDOCK:   -3.36 KCAL/MOL
REMARK 923 INTER-LIGAND FREE ENERGY PREDICTED BY IDOCK:   -3.10 KCAL/MOL
REMARK 924 INTRA-LIGAND FREE ENERGY PREDICTED BY IDOCK:   -0.26 KCAL/MOL
REMARK 927      BINDING AFFINITY PREDICTED BY RF-SCORE:    0.00 PKD
ROOT
HETATM    1  C   UNL     1     -13.003   9.868  71.869  1.00  0.00    -0.448 C  
HETATM    2  O   UNL     1     -12.967   8.587  72.502  1.00  0.00    -0.337 OA 
ENDROOT
BRANCH   2   3
HETATM    3  C   UNL     1     -13.282   7.552  71.675  1.00  0.00    -0.356 C  
HETATM    4  O   UNL     1     -14.352   7.411  71.097  1.00  0.00    -0.373 OA 
BRANCH   3   5
HETATM    5  C   UNL     1     -12.113   6.607  71.570  1.00  0.00    -0.406 C  
BRANCH   5   6
HETATM    6  C   UNL     1     -11.540   6.607  70.159  1.00  0.00    -0.446 C  
BRANCH   6   7
HETATM    7  C   UNL     1     -10.549   7.732  69.937  1.00  0.00    -0.239 C  
HETATM    8  O   UNL     1     -10.870   8.790  69.390  1.00  0.00    -0.205 OA 
BRANCH   7   9
HETATM    9  C   UNL     1      -9.109   7.443  70.360  1.00  0.00    -0.157 C  
HETATM   10  N   UNL     1      -8.628   6.217  69.721  1.00  0.00    -0.135 NA 
HETATM   11  H1  UNL     1      -7.666   6.024  70.003  1.00  0.00     0.000 HD 
HETATM   12  H2  UNL     1      -8.727   6.252  68.707  1.00  0.00     0.000 HD 
ENDBRANCH   7   9
ENDBRANCH   6   7
ENDBRANCH   5   6
ENDBRANCH   3   5
ENDBRANCH   2   3
TORSDOF 5
ENDMDL
MODEL      158
REMARK 921   NORMALIZED FREE ENERGY PREDICTED BY IDOCK:   -2.24 KCAL/MOL
REMARK 922        TOTAL FREE ENERGY PREDICTED BY IDOCK:   -3.34 KCAL/MOL
REMARK 923 INTER-LIGAND FREE ENERGY PREDICTED BY IDOCK:   -3.16 KCAL/MOL
REMARK 924 INTRA-LIGAND FREE ENERGY PREDICTED BY IDOCK:   -0.18 KCAL/MOL
REMARK 927      BINDING AFFINITY PREDICTED BY RF-SCORE:    0.00 PKD
ROOT
HETATM    1  C   UNL     1      -6.609  18.262  68.318  1.00  0.00    -0.210 C  
HETATM    2  O   UNL     1      -5.994  18.780  67.137  1.00  0.00    -0.162 OA 
ENDROOT
BRANCH   2   3
HETATM    3  C   UNL     1      -6.870  19.048  66.129  1.00  0.00    -0.235 C  
HETATM    4  O   UNL     1      -6.819  18.567  65.005  1.00  0.00    -0.498 OA 
BRANCH   3   5
HETATM    5  C   UNL     1      -7.917  20.019  66.607  1.00  0.00    -0.346 C  
BRANCH   5   6
HETATM    6  C   UNL     1      -9.295  19.632  66.085  1.00  0.00    -0.416 C  
BRANCH   6   7
HETATM    7  C   UNL     1     -10.161  19.000  67.156  1.00  0.00    -0.388 C  
HETATM    8  O   UNL     1     -10.952  19.660  67.834  1.00  0.00    -0.278 OA 
BRANCH   7   9
HETATM    9  C   UNL     1      -9.936  17.508  67.399  1.00  0.00    -0.315 C  
HETATM   10  N   UNL     1     -10.244  17.167  68.789  1.00  0.00    -0.314 NA 
HETATM   11  H1  UNL     1     -10.094  16.171  68.952  1.00  0.00     0.000 HD 
HETATM   12  H2  UNL     1     -11.186  17.457  69.052  1.00  0.00     0.000 HD 
ENDBRANCH   7   9
ENDBRANCH   6   7
ENDBRANCH   5   6
ENDBRANCH   3   5
ENDBRANCH   2   3
TORSDOF 5
ENDMDL
MODEL      159
REMARK 921   NORMALIZED FREE ENERGY PREDICTED BY IDOCK:   -2.24 KCAL/MOL
REMARK 922        TOTAL FREE ENERGY PREDICTED BY IDOCK:   -3.33 KCAL/MOL
REMARK 923 INTER-LIGAND FREE ENERGY PREDICTED BY IDOCK:   -3.17 KCAL/MOL
REMARK 924 INTRA-LIGAND FREE ENERGY PREDICTED BY IDOCK:   -0.16 KCAL/MOL
REMARK 927      BINDING AFFINITY PREDICTED BY RF-SCORE:    0.00 PKD
ROOT
HETATM    1  C   UNL     1      -9.989   6.791  68.997  1.00  0.00    -0.155 C  
HETATM    2  O   UNL     1     -10.968   7.672  69.550  1.00  0.00    -0.204 OA 
ENDROOT
BRANCH   2   3
HETATM    3  C   UNL     1     -11.376   7.331  70.804  1.00  0.00    -0.285 C  
HETATM    4  O   UNL     1     -11.776   6.224  71.138  1.00  0.00    -0.315 OA 
BRANCH   3   5
HETATM    5  C   UNL     1     -11.252   8.519  71.722  1.00  0.00    -0.379 C  
BRANCH   5   6
HETATM    6  C   UNL     1     -11.454   9.820  70.956  1.00  0.00    -0.458 C  
BRANCH   6   7
HETATM    7  C   UNL     1     -12.824  10.424  71.196  1.00  0.00    -0.414 C  
HETATM    8  O   UNL     1     -13.852   9.743  71.187  1.00  0.00    -0.231 OA 
BRANCH   7   9
HETATM    9  C   UNL     1     -12.860  11.943  71.368  1.00  0.00    -0.307 C  
HETATM   10  N   UNL     1     -13.346  12.291  72.704  1.00  0.00    -0.424 NA 
HETATM   11  H1  UNL     1     -13.371  13.305  72.819  1.00  0.00     0.000 HD 
HETATM   12  H2  UNL     1     -12.802  11.839  73.437  1.00  0.00     0.000 HD 
ENDBRANCH   7   9
ENDBRANCH   6   7
ENDBRANCH   5   6
ENDBRANCH   3   5
ENDBRANCH   2   3
TORSDOF 5
ENDMDL
MODEL      160
REMARK 921   NORMALIZED FREE ENERGY PREDICTED BY IDOCK:   -2.23 KCAL/MOL
REMARK 922        TOTAL FREE ENERGY PREDICTED BY IDOCK:   -3.32 KCAL/MOL
REMARK 923 INTER-LIGAND FREE ENERGY PREDICTED BY IDOCK:   -2.92 KCAL/MOL
REMARK 924 INTRA-LIGAND FREE ENERGY PREDICTED BY IDOCK:   -0.40 KCAL/MOL
REMARK 927      BINDING AFFINITY PREDICTED BY RF-SCORE:    0.00 PKD
ROOT
HETATM    1  C   UNL     1      -7.967   5.479  69.714  1.00  0.00    -0.090 C  
HETATM    2  O   UNL     1      -9.182   6.191  69.473  1.00  0.00    -0.137 OA 
ENDROOT
BRANCH   2   3
HETATM    3  C   UNL     1     -10.270   5.654  70.092  1.00  0.00    -0.250 C  
HETATM    4  O   UNL     1     -10.244   4.711  70.871  1.00  0.00    -0.211 OA 
BRANCH   3   5
HETATM    5  C   UNL     1     -11.512   6.400  69.679  1.00  0.00    -0.446 C  
BRANCH   5   6
HETATM    6  C   UNL     1     -12.274   6.902  70.900  1.00  0.00    -0.404 C  
BRANCH   6   7
HETATM    7  C   UNL     1     -11.545   8.020  71.616  1.00  0.00    -0.275 C  
HETATM    8  O   UNL     1     -11.283   9.092  71.064  1.00  0.00    -0.265 OA 
BRANCH   7   9
HETATM    9  C   UNL     1     -11.080   7.708  73.039  1.00  0.00    -0.381 C  
HETATM   10  N   UNL     1     -11.181   6.272  73.303  1.00  0.00    -0.465 NA 
HETATM   11  H1  UNL     1     -10.871   6.064  74.253  1.00  0.00     0.000 HD 
HETATM   12  H2  UNL     1     -10.677   5.721  72.609  1.00  0.00     0.000 HD 
ENDBRANCH   7   9
ENDBRANCH   6   7
ENDBRANCH   5   6
ENDBRANCH   3   5
ENDBRANCH   2   3
TORSDOF 5
ENDMDL
MODEL      161
REMARK 921   NORMALIZED FREE ENERGY PREDICTED BY IDOCK:   -2.23 KCAL/MOL
REMARK 922        TOTAL FREE ENERGY PREDICTED BY IDOCK:   -3.32 KCAL/MOL
REMARK 923 INTER-LIGAND FREE ENERGY PREDICTED BY IDOCK:   -3.15 KCAL/MOL
REMARK 924 INTRA-LIGAND FREE ENERGY PREDICTED BY IDOCK:   -0.17 KCAL/MOL
REMARK 927      BINDING AFFINITY PREDICTED BY RF-SCORE:    0.00 PKD
ROOT
HETATM    1  C   UNL     1     -11.038  14.962  69.213  1.00  0.00    -0.271 C  
HETATM    2  O   UNL     1     -12.030  15.103  68.195  1.00  0.00    -0.290 OA 
ENDROOT
BRANCH   2   3
HETATM    3  C   UNL     1     -11.956  14.160  67.215  1.00  0.00    -0.414 C  
HETATM    4  O   UNL     1     -12.621  14.157  66.188  1.00  0.00    -0.465 OA 
BRANCH   3   5
HETATM    5  C   UNL     1     -10.927  13.123  67.581  1.00  0.00    -0.282 C  
BRANCH   5   6
HETATM    6  C   UNL     1     -11.434  11.721  67.268  1.00  0.00    -0.373 C  
BRANCH   6   7
HETATM    7  C   UNL     1     -10.390  10.872  66.570  1.00  0.00    -0.247 C  
HETATM    8  O   UNL     1      -9.970   9.819  67.056  1.00  0.00    -0.181 OA 
BRANCH   7   9
HETATM    9  C   UNL     1      -9.831  11.442  65.267  1.00  0.00    -0.248 C  
HETATM   10  N   UNL     1      -8.453  10.994  65.065  1.00  0.00    -0.379 NA 
HETATM   11  H1  UNL     1      -8.079  11.374  64.195  1.00  0.00     0.000 HD 
HETATM   12  H2  UNL     1      -8.374   9.977  65.101  1.00  0.00     0.000 HD 
ENDBRANCH   7   9
ENDBRANCH   6   7
ENDBRANCH   5   6
ENDBRANCH   3   5
ENDBRANCH   2   3
TORSDOF 5
ENDMDL
MODEL      162
REMARK 921   NORMALIZED FREE ENERGY PREDICTED BY IDOCK:   -2.23 KCAL/MOL
REMARK 922        TOTAL FREE ENERGY PREDICTED BY IDOCK:   -3.32 KCAL/MOL
REMARK 923 INTER-LIGAND FREE ENERGY PREDICTED BY IDOCK:   -3.13 KCAL/MOL
REMARK 924 INTRA-LIGAND FREE ENERGY PREDICTED BY IDOCK:   -0.19 KCAL/MOL
REMARK 927      BINDING AFFINITY PREDICTED BY RF-SCORE:    0.00 PKD
ROOT
HETATM    1  C   UNL     1     -13.056  10.588  71.677  1.00  0.00    -0.446 C  
HETATM    2  O   UNL     1     -13.825   9.574  72.327  1.00  0.00    -0.416 OA 
ENDROOT
BRANCH   2   3
HETATM    3  C   UNL     1     -13.430   8.304  72.030  1.00  0.00    -0.311 C  
HETATM    4  O   UNL     1     -14.132   7.454  71.499  1.00  0.00    -0.422 OA 
BRANCH   3   5
HETATM    5  C   UNL     1     -11.996   8.105  72.445  1.00  0.00    -0.431 C  
BRANCH   5   6
HETATM    6  C   UNL     1     -11.289   7.135  71.507  1.00  0.00    -0.285 C  
BRANCH   6   7
HETATM    7  C   UNL     1     -11.011   5.797  72.162  1.00  0.00    -0.257 C  
HETATM    8  O   UNL     1     -11.862   5.205  72.831  1.00  0.00    -0.256 OA 
BRANCH   7   9
HETATM    9  C   UNL     1      -9.586   5.264  72.011  1.00  0.00    -0.153 C  
HETATM   10  N   UNL     1      -9.305   4.957  70.608  1.00  0.00    -0.152 NA 
HETATM   11  H1  UNL     1      -8.353   4.601  70.507  1.00  0.00     0.000 HD 
HETATM   12  H2  UNL     1      -9.478   5.758  70.001  1.00  0.00     0.000 HD 
ENDBRANCH   7   9
ENDBRANCH   6   7
ENDBRANCH   5   6
ENDBRANCH   3   5
ENDBRANCH   2   3
TORSDOF 5
ENDMDL
MODEL      163
REMARK 921   NORMALIZED FREE ENERGY PREDICTED BY IDOCK:   -2.21 KCAL/MOL
REMARK 922        TOTAL FREE ENERGY PREDICTED BY IDOCK:   -3.29 KCAL/MOL
REMARK 923 INTER-LIGAND FREE ENERGY PREDICTED BY IDOCK:   -2.98 KCAL/MOL
REMARK 924 INTRA-LIGAND FREE ENERGY PREDICTED BY IDOCK:   -0.31 KCAL/MOL
REMARK 927      BINDING AFFINITY PREDICTED BY RF-SCORE:    0.00 PKD
ROOT
HETATM    1  C   UNL     1     -10.774  19.467  67.087  1.00  0.00    -0.482 C  
HETATM    2  O   UNL     1      -9.589  18.989  66.449  1.00  0.00    -0.334 OA 
ENDROOT
BRANCH   2   3
HETATM    3  C   UNL     1      -8.615  18.593  67.315  1.00  0.00    -0.266 C  
HETATM    4  O   UNL     1      -7.983  19.338  68.052  1.00  0.00    -0.284 OA 
BRANCH   3   5
HETATM    5  C   UNL     1      -8.437  17.099  67.236  1.00  0.00    -0.211 C  
BRANCH   5   6
HETATM    6  C   UNL     1      -8.798  16.439  68.561  1.00  0.00    -0.224 C  
BRANCH   6   7
HETATM    7  C   UNL     1     -10.289  16.205  68.702  1.00  0.00    -0.252 C  
HETATM    8  O   UNL     1     -10.893  16.439  69.751  1.00  0.00    -0.329 OA 
BRANCH   7   9
HETATM    9  C   UNL     1     -10.983  15.584  67.489  1.00  0.00    -0.316 C  
HETATM   10  N   UNL     1     -10.673  14.156  67.402  1.00  0.00    -0.282 NA 
HETATM   11  H1  UNL     1     -11.136  13.742  66.593  1.00  0.00     0.000 HD 
HETATM   12  H2  UNL     1     -10.903  13.664  68.265  1.00  0.00     0.000 HD 
ENDBRANCH   7   9
ENDBRANCH   6   7
ENDBRANCH   5   6
ENDBRANCH   3   5
ENDBRANCH   2   3
TORSDOF 5
ENDMDL
MODEL      164
REMARK 921   NORMALIZED FREE ENERGY PREDICTED BY IDOCK:   -2.21 KCAL/MOL
REMARK 922        TOTAL FREE ENERGY PREDICTED BY IDOCK:   -3.29 KCAL/MOL
REMARK 923 INTER-LIGAND FREE ENERGY PREDICTED BY IDOCK:   -3.12 KCAL/MOL
REMARK 924 INTRA-LIGAND FREE ENERGY PREDICTED BY IDOCK:   -0.17 KCAL/MOL
REMARK 927      BINDING AFFINITY PREDICTED BY RF-SCORE:    0.00 PKD
ROOT
HETATM    1  C   UNL     1     -11.065  12.478  66.888  1.00  0.00    -0.278 C  
HETATM    2  O   UNL     1     -11.927  12.112  67.967  1.00  0.00    -0.465 OA 
ENDROOT
BRANCH   2   3
HETATM    3  C   UNL     1     -11.900  12.980  69.016  1.00  0.00    -0.316 C  
HETATM    4  O   UNL     1     -11.922  12.660  70.197  1.00  0.00    -0.346 OA 
BRANCH   3   5
HETATM    5  C   UNL     1     -11.831  14.396  68.506  1.00  0.00    -0.369 C  
BRANCH   5   6
HETATM    6  C   UNL     1     -10.876  15.231  69.349  1.00  0.00    -0.263 C  
BRANCH   6   7
HETATM    7  C   UNL     1      -9.773  15.858  68.522  1.00  0.00    -0.211 C  
HETATM    8  O   UNL     1      -9.945  16.200  67.349  1.00  0.00    -0.239 OA 
BRANCH   7   9
HETATM    9  C   UNL     1      -8.409  15.967  69.204  1.00  0.00    -0.253 C  
HETATM   10  N   UNL     1      -7.898  14.636  69.534  1.00  0.00    -0.384 NA 
HETATM   11  H1  UNL     1      -6.987  14.708  69.990  1.00  0.00     0.000 HD 
HETATM   12  H2  UNL     1      -7.867  14.027  68.717  1.00  0.00     0.000 HD 
ENDBRANCH   7   9
ENDBRANCH   6   7
ENDBRANCH   5   6
ENDBRANCH   3   5
ENDBRANCH   2   3
TORSDOF 5
ENDMDL
MODEL      165
REMARK 921   NORMALIZED FREE ENERGY PREDICTED BY IDOCK:   -2.20 KCAL/MOL
REMARK 922        TOTAL FREE ENERGY PREDICTED BY IDOCK:   -3.28 KCAL/MOL
REMARK 923 INTER-LIGAND FREE ENERGY PREDICTED BY IDOCK:   -2.90 KCAL/MOL
REMARK 924 INTRA-LIGAND FREE ENERGY PREDICTED BY IDOCK:   -0.38 KCAL/MOL
REMARK 927      BINDING AFFINITY PREDICTED BY RF-SCORE:    0.00 PKD
ROOT
HETATM    1  C   UNL     1      -8.863   6.208  66.008  1.00  0.00    -0.153 C  
HETATM    2  O   UNL     1      -8.767   7.632  66.084  1.00  0.00    -0.143 OA 
ENDROOT
BRANCH   2   3
HETATM    3  C   UNL     1      -9.924   8.247  66.456  1.00  0.00    -0.250 C  
HETATM    4  O   UNL     1     -10.815   7.730  67.117  1.00  0.00    -0.313 OA 
BRANCH   3   5
HETATM    5  C   UNL     1      -9.939   9.662  65.941  1.00  0.00    -0.351 C  
BRANCH   5   6
HETATM    6  C   UNL     1      -9.824  10.659  67.087  1.00  0.00    -0.208 C  
BRANCH   6   7
HETATM    7  C   UNL     1     -11.103  11.443  67.301  1.00  0.00    -0.303 C  
HETATM    8  O   UNL     1     -11.589  12.158  66.421  1.00  0.00    -0.386 OA 
BRANCH   7   9
HETATM    9  C   UNL     1     -11.709  11.358  68.702  1.00  0.00    -0.329 C  
HETATM   10  N   UNL     1     -11.543  10.010  69.248  1.00  0.00    -0.464 NA 
HETATM   11  H1  UNL     1     -11.947   9.953  70.183  1.00  0.00     0.000 HD 
HETATM   12  H2  UNL     1     -10.567   9.714  69.237  1.00  0.00     0.000 HD 
ENDBRANCH   7   9
ENDBRANCH   6   7
ENDBRANCH   5   6
ENDBRANCH   3   5
ENDBRANCH   2   3
TORSDOF 5
ENDMDL
MODEL      166
REMARK 921   NORMALIZED FREE ENERGY PREDICTED BY IDOCK:   -2.19 KCAL/MOL
REMARK 922        TOTAL FREE ENERGY PREDICTED BY IDOCK:   -3.27 KCAL/MOL
REMARK 923 INTER-LIGAND FREE ENERGY PREDICTED BY IDOCK:   -3.04 KCAL/MOL
REMARK 924 INTRA-LIGAND FREE ENERGY PREDICTED BY IDOCK:   -0.24 KCAL/MOL
REMARK 927      BINDING AFFINITY PREDICTED BY RF-SCORE:    0.00 PKD
ROOT
HETATM    1  C   UNL     1      -8.334  15.377  67.869  1.00  0.00    -0.144 C  
HETATM    2  O   UNL     1      -8.588  14.716  66.627  1.00  0.00    -0.208 OA 
ENDROOT
BRANCH   2   3
HETATM    3  C   UNL     1      -9.894  14.380  66.435  1.00  0.00    -0.295 C  
HETATM    4  O   UNL     1     -10.646  14.906  65.626  1.00  0.00    -0.303 OA 
BRANCH   3   5
HETATM    5  C   UNL     1     -10.274  13.257  67.365  1.00  0.00    -0.229 C  
BRANCH   5   6
HETATM    6  C   UNL     1     -11.749  13.337  67.738  1.00  0.00    -0.398 C  
BRANCH   6   7
HETATM    7  C   UNL     1     -11.957  13.591  69.218  1.00  0.00    -0.330 C  
HETATM    8  O   UNL     1     -12.281  12.692  69.998  1.00  0.00    -0.276 OA 
BRANCH   7   9
HETATM    9  C   UNL     1     -11.821  15.045  69.670  1.00  0.00    -0.324 C  
HETATM   10  N   UNL     1     -10.878  15.144  70.785  1.00  0.00    -0.530 NA 
HETATM   11  H1  UNL     1     -10.787  16.115  71.087  1.00  0.00     0.000 HD 
HETATM   12  H2  UNL     1      -9.975  14.730  70.558  1.00  0.00     0.000 HD 
ENDBRANCH   7   9
ENDBRANCH   6   7
ENDBRANCH   5   6
ENDBRANCH   3   5
ENDBRANCH   2   3
TORSDOF 5
ENDMDL
MODEL      167
REMARK 921   NORMALIZED FREE ENERGY PREDICTED BY IDOCK:   -2.19 KCAL/MOL
REMARK 922        TOTAL FREE ENERGY PREDICTED BY IDOCK:   -3.27 KCAL/MOL
REMARK 923 INTER-LIGAND FREE ENERGY PREDICTED BY IDOCK:   -2.83 KCAL/MOL
REMARK 924 INTRA-LIGAND FREE ENERGY PREDICTED BY IDOCK:   -0.44 KCAL/MOL
REMARK 927      BINDING AFFINITY PREDICTED BY RF-SCORE:    0.00 PKD
ROOT
HETATM    1  C   UNL     1      -6.937   8.498  72.414  1.00  0.00    -0.056 C  
HETATM    2  O   UNL     1      -8.277   8.684  72.875  1.00  0.00    -0.393 OA 
ENDROOT
BRANCH   2   3
HETATM    3  C   UNL     1      -9.219   8.574  71.897  1.00  0.00    -0.255 C  
HETATM    4  O   UNL     1      -9.938   9.483  71.506  1.00  0.00    -0.188 OA 
BRANCH   3   5
HETATM    5  C   UNL     1      -9.237   7.166  71.362  1.00  0.00    -0.150 C  
BRANCH   5   6
HETATM    6  C   UNL     1     -10.495   6.432  71.810  1.00  0.00    -0.246 C  
BRANCH   6   7
HETATM    7  C   UNL     1     -11.606   6.512  70.783  1.00  0.00    -0.377 C  
HETATM    8  O   UNL     1     -11.476   6.067  69.639  1.00  0.00    -0.394 OA 
BRANCH   7   9
HETATM    9  C   UNL     1     -12.870   7.251  71.225  1.00  0.00    -0.346 C  
HETATM   10  N   UNL     1     -12.866   8.619  70.705  1.00  0.00    -0.425 NA 
HETATM   11  H1  UNL     1     -13.709   9.113  71.001  1.00  0.00     0.000 HD 
HETATM   12  H2  UNL     1     -12.747   8.642  69.693  1.00  0.00     0.000 HD 
ENDBRANCH   7   9
ENDBRANCH   6   7
ENDBRANCH   5   6
ENDBRANCH   3   5
ENDBRANCH   2   3
TORSDOF 5
ENDMDL
MODEL      168
REMARK 921   NORMALIZED FREE ENERGY PREDICTED BY IDOCK:   -2.18 KCAL/MOL
REMARK 922        TOTAL FREE ENERGY PREDICTED BY IDOCK:   -3.26 KCAL/MOL
REMARK 923 INTER-LIGAND FREE ENERGY PREDICTED BY IDOCK:   -3.01 KCAL/MOL
REMARK 924 INTRA-LIGAND FREE ENERGY PREDICTED BY IDOCK:   -0.25 KCAL/MOL
REMARK 927      BINDING AFFINITY PREDICTED BY RF-SCORE:    0.00 PKD
ROOT
HETATM    1  C   UNL     1      -5.776  16.222  69.612  1.00  0.00    -0.163 C  
HETATM    2  O   UNL     1      -6.614  16.398  68.468  1.00  0.00    -0.129 OA 
ENDROOT
BRANCH   2   3
HETATM    3  C   UNL     1      -6.527  17.634  67.903  1.00  0.00    -0.179 C  
HETATM    4  O   UNL     1      -5.786  17.935  66.977  1.00  0.00    -0.132 OA 
BRANCH   3   5
HETATM    5  C   UNL     1      -7.487  18.575  68.583  1.00  0.00    -0.323 C  
BRANCH   5   6
HETATM    6  C   UNL     1      -8.927  18.241  68.214  1.00  0.00    -0.318 C  
BRANCH   6   7
HETATM    7  C   UNL     1      -9.225  18.507  66.752  1.00  0.00    -0.297 C  
HETATM    8  O   UNL     1      -9.669  17.632  66.004  1.00  0.00    -0.488 OA 
BRANCH   7   9
HETATM    9  C   UNL     1      -8.864  19.902  66.242  1.00  0.00    -0.345 C  
HETATM   10  N   UNL     1      -9.723  20.909  66.864  1.00  0.00    -0.636 NA 
HETATM   11  H1  UNL     1      -9.482  21.841  66.523  1.00  0.00     0.000 HD 
HETATM   12  H2  UNL     1      -9.695  20.858  67.882  1.00  0.00     0.000 HD 
ENDBRANCH   7   9
ENDBRANCH   6   7
ENDBRANCH   5   6
ENDBRANCH   3   5
ENDBRANCH   2   3
TORSDOF 5
ENDMDL
MODEL      169
REMARK 921   NORMALIZED FREE ENERGY PREDICTED BY IDOCK:   -2.18 KCAL/MOL
REMARK 922        TOTAL FREE ENERGY PREDICTED BY IDOCK:   -3.26 KCAL/MOL
REMARK 923 INTER-LIGAND FREE ENERGY PREDICTED BY IDOCK:   -2.86 KCAL/MOL
REMARK 924 INTRA-LIGAND FREE ENERGY PREDICTED BY IDOCK:   -0.40 KCAL/MOL
REMARK 927      BINDING AFFINITY PREDICTED BY RF-SCORE:    0.00 PKD
ROOT
HETATM    1  C   UNL     1      -7.951  11.064  68.133  1.00  0.00    -0.119 C  
HETATM    2  O   UNL     1      -8.761  11.093  66.957  1.00  0.00    -0.141 OA 
ENDROOT
BRANCH   2   3
HETATM    3  C   UNL     1      -9.133   9.860  66.511  1.00  0.00    -0.152 C  
HETATM    4  O   UNL     1      -9.327   8.883  67.221  1.00  0.00    -0.135 OA 
BRANCH   3   5
HETATM    5  C   UNL     1      -9.280   9.882  65.012  1.00  0.00    -0.295 C  
BRANCH   5   6
HETATM    6  C   UNL     1     -10.476  10.729  64.596  1.00  0.00    -0.346 C  
BRANCH   6   7
HETATM    7  C   UNL     1     -10.073  11.927  63.760  1.00  0.00    -0.398 C  
HETATM    8  O   UNL     1      -9.352  11.820  62.765  1.00  0.00    -0.351 OA 
BRANCH   7   9
HETATM    9  C   UNL     1     -10.547  13.287  64.273  1.00  0.00    -0.384 C  
HETATM   10  N   UNL     1      -9.757  13.696  65.435  1.00  0.00    -0.538 NA 
HETATM   11  H1  UNL     1     -10.073  14.603  65.778  1.00  0.00     0.000 HD 
HETATM   12  H2  UNL     1      -8.757  13.693  65.235  1.00  0.00     0.000 HD 
ENDBRANCH   7   9
ENDBRANCH   6   7
ENDBRANCH   5   6
ENDBRANCH   3   5
ENDBRANCH   2   3
TORSDOF 5
ENDMDL
MODEL      170
REMARK 921   NORMALIZED FREE ENERGY PREDICTED BY IDOCK:   -2.17 KCAL/MOL
REMARK 922        TOTAL FREE ENERGY PREDICTED BY IDOCK:   -3.25 KCAL/MOL
REMARK 923 INTER-LIGAND FREE ENERGY PREDICTED BY IDOCK:   -3.11 KCAL/MOL
REMARK 924 INTRA-LIGAND FREE ENERGY PREDICTED BY IDOCK:   -0.14 KCAL/MOL
REMARK 927      BINDING AFFINITY PREDICTED BY RF-SCORE:    0.00 PKD
ROOT
HETATM    1  C   UNL     1     -10.443   8.288  67.198  1.00  0.00    -0.316 C  
HETATM    2  O   UNL     1     -10.727   7.910  68.546  1.00  0.00    -0.144 OA 
ENDROOT
BRANCH   2   3
HETATM    3  C   UNL     1     -10.827   6.565  68.735  1.00  0.00    -0.299 C  
HETATM    4  O   UNL     1     -10.815   5.726  67.845  1.00  0.00    -0.248 OA 
BRANCH   3   5
HETATM    5  C   UNL     1     -10.947   6.263  70.206  1.00  0.00    -0.400 C  
BRANCH   5   6
HETATM    6  C   UNL     1     -12.082   7.063  70.833  1.00  0.00    -0.403 C  
BRANCH   6   7
HETATM    7  C   UNL     1     -11.580   8.128  71.787  1.00  0.00    -0.291 C  
HETATM    8  O   UNL     1     -11.642   9.330  71.520  1.00  0.00    -0.329 OA 
BRANCH   7   9
HETATM    9  C   UNL     1     -10.917   7.616  73.067  1.00  0.00    -0.400 C  
HETATM   10  N   UNL     1      -9.526   8.066  73.133  1.00  0.00    -0.280 NA 
HETATM   11  H1  UNL     1      -9.083   7.724  73.987  1.00  0.00     0.000 HD 
HETATM   12  H2  UNL     1      -9.448   9.079  73.044  1.00  0.00     0.000 HD 
ENDBRANCH   7   9
ENDBRANCH   6   7
ENDBRANCH   5   6
ENDBRANCH   3   5
ENDBRANCH   2   3
TORSDOF 5
ENDMDL
MODEL      171
REMARK 921   NORMALIZED FREE ENERGY PREDICTED BY IDOCK:   -2.17 KCAL/MOL
REMARK 922        TOTAL FREE ENERGY PREDICTED BY IDOCK:   -3.25 KCAL/MOL
REMARK 923 INTER-LIGAND FREE ENERGY PREDICTED BY IDOCK:   -3.13 KCAL/MOL
REMARK 924 INTRA-LIGAND FREE ENERGY PREDICTED BY IDOCK:   -0.11 KCAL/MOL
REMARK 927      BINDING AFFINITY PREDICTED BY RF-SCORE:    0.00 PKD
ROOT
HETATM    1  C   UNL     1      -9.601  10.351  65.582  1.00  0.00    -0.226 C  
HETATM    2  O   UNL     1     -10.762  11.182  65.634  1.00  0.00    -0.250 OA 
ENDROOT
BRANCH   2   3
HETATM    3  C   UNL     1     -11.275  11.340  66.886  1.00  0.00    -0.230 C  
HETATM    4  O   UNL     1     -11.378  10.453  67.723  1.00  0.00    -0.353 OA 
BRANCH   3   5
HETATM    5  C   UNL     1     -11.689  12.774  67.092  1.00  0.00    -0.443 C  
BRANCH   5   6
HETATM    6  C   UNL     1     -10.621  13.542  67.860  1.00  0.00    -0.255 C  
BRANCH   6   7
HETATM    7  C   UNL     1     -10.816  15.043  67.777  1.00  0.00    -0.284 C  
HETATM    8  O   UNL     1     -11.703  15.625  68.407  1.00  0.00    -0.367 OA 
BRANCH   7   9
HETATM    9  C   UNL     1      -9.900  15.780  66.801  1.00  0.00    -0.245 C  
HETATM   10  N   UNL     1      -8.896  14.865  66.255  1.00  0.00    -0.479 NA 
HETATM   11  H1  UNL     1      -8.284  15.358  65.604  1.00  0.00     0.000 HD 
HETATM   12  H2  UNL     1      -9.323  14.043  65.829  1.00  0.00     0.000 HD 
ENDBRANCH   7   9
ENDBRANCH   6   7
ENDBRANCH   5   6
ENDBRANCH   3   5
ENDBRANCH   2   3
TORSDOF 5
ENDMDL
MODEL      172
REMARK 921   NORMALIZED FREE ENERGY PREDICTED BY IDOCK:   -2.15 KCAL/MOL
REMARK 922        TOTAL FREE ENERGY PREDICTED BY IDOCK:   -3.22 KCAL/MOL
REMARK 923 INTER-LIGAND FREE ENERGY PREDICTED BY IDOCK:   -3.08 KCAL/MOL
REMARK 924 INTRA-LIGAND FREE ENERGY PREDICTED BY IDOCK:   -0.13 KCAL/MOL
REMARK 927      BINDING AFFINITY PREDICTED BY RF-SCORE:    0.00 PKD
ROOT
HETATM    1  C   UNL     1      -8.746   9.564  68.423  1.00  0.00    -0.124 C  
HETATM    2  O   UNL     1      -9.571  10.731  68.446  1.00  0.00    -0.162 OA 
ENDROOT
BRANCH   2   3
HETATM    3  C   UNL     1     -10.650  10.630  69.272  1.00  0.00    -0.233 C  
HETATM    4  O   UNL     1     -10.846   9.722  70.067  1.00  0.00    -0.239 OA 
BRANCH   3   5
HETATM    5  C   UNL     1     -11.563  11.810  69.064  1.00  0.00    -0.372 C  
BRANCH   5   6
HETATM    6  C   UNL     1     -10.785  13.015  68.550  1.00  0.00    -0.275 C  
BRANCH   6   7
HETATM    7  C   UNL     1     -11.687  14.189  68.227  1.00  0.00    -0.348 C  
HETATM    8  O   UNL     1     -12.201  14.335  67.115  1.00  0.00    -0.410 OA 
BRANCH   7   9
HETATM    9  C   UNL     1     -11.855  15.226  69.338  1.00  0.00    -0.343 C  
HETATM   10  N   UNL     1     -13.136  15.038  70.020  1.00  0.00    -0.579 NA 
HETATM   11  H1  UNL     1     -13.248  15.729  70.762  1.00  0.00     0.000 HD 
HETATM   12  H2  UNL     1     -13.246  14.085  70.368  1.00  0.00     0.000 HD 
ENDBRANCH   7   9
ENDBRANCH   6   7
ENDBRANCH   5   6
ENDBRANCH   3   5
ENDBRANCH   2   3
TORSDOF 5
ENDMDL
MODEL      173
REMARK 921   NORMALIZED FREE ENERGY PREDICTED BY IDOCK:   -2.12 KCAL/MOL
REMARK 922        TOTAL FREE ENERGY PREDICTED BY IDOCK:   -3.18 KCAL/MOL
REMARK 923 INTER-LIGAND FREE ENERGY PREDICTED BY IDOCK:   -3.25 KCAL/MOL
REMARK 924 INTRA-LIGAND FREE ENERGY PREDICTED BY IDOCK:    0.08 KCAL/MOL
REMARK 927      BINDING AFFINITY PREDICTED BY RF-SCORE:    0.00 PKD
ROOT
HETATM    1  C   UNL     1      -8.005  16.470  68.461  1.00  0.00    -0.216 C  
HETATM    2  O   UNL     1      -8.969  16.490  67.407  1.00  0.00    -0.196 OA 
ENDROOT
BRANCH   2   3
HETATM    3  C   UNL     1     -10.218  16.105  67.791  1.00  0.00    -0.267 C  
HETATM    4  O   UNL     1     -10.996  15.453  67.108  1.00  0.00    -0.323 OA 
BRANCH   3   5
HETATM    5  C   UNL     1     -10.496  16.594  69.189  1.00  0.00    -0.333 C  
BRANCH   5   6
HETATM    6  C   UNL     1     -10.565  15.429  70.168  1.00  0.00    -0.314 C  
BRANCH   6   7
HETATM    7  C   UNL     1     -11.972  15.180  70.671  1.00  0.00    -0.324 C  
HETATM    8  O   UNL     1     -12.670  16.082  71.142  1.00  0.00    -0.398 OA 
BRANCH   7   9
HETATM    9  C   UNL     1     -12.445  13.726  70.635  1.00  0.00    -0.359 C  
HETATM   10  N   UNL     1     -11.435  12.879  69.998  1.00  0.00    -0.523 NA 
HETATM   11  H1  UNL     1     -11.751  11.909  69.974  1.00  0.00     0.000 HD 
HETATM   12  H2  UNL     1     -10.524  12.972  70.446  1.00  0.00     0.000 HD 
ENDBRANCH   7   9
ENDBRANCH   6   7
ENDBRANCH   5   6
ENDBRANCH   3   5
ENDBRANCH   2   3
TORSDOF 5
ENDMDL
MODEL      174
REMARK 921   NORMALIZED FREE ENERGY PREDICTED BY IDOCK:   -2.12 KCAL/MOL
REMARK 922        TOTAL FREE ENERGY PREDICTED BY IDOCK:   -3.17 KCAL/MOL
REMARK 923 INTER-LIGAND FREE ENERGY PREDICTED BY IDOCK:   -3.10 KCAL/MOL
REMARK 924 INTRA-LIGAND FREE ENERGY PREDICTED BY IDOCK:   -0.08 KCAL/MOL
REMARK 927      BINDING AFFINITY PREDICTED BY RF-SCORE:    0.00 PKD
ROOT
HETATM    1  C   UNL     1     -12.481  10.173  70.385  1.00  0.00    -0.169 C  
HETATM    2  O   UNL     1     -11.420  10.890  69.752  1.00  0.00    -0.260 OA 
ENDROOT
BRANCH   2   3
HETATM    3  C   UNL     1     -11.314  10.657  68.414  1.00  0.00    -0.283 C  
HETATM    4  O   UNL     1     -10.872   9.634  67.910  1.00  0.00    -0.259 OA 
BRANCH   3   5
HETATM    5  C   UNL     1     -11.831  11.846  67.646  1.00  0.00    -0.265 C  
BRANCH   5   6
HETATM    6  C   UNL     1     -10.697  12.801  67.297  1.00  0.00    -0.256 C  
BRANCH   6   7
HETATM    7  C   UNL     1     -11.172  13.989  66.485  1.00  0.00    -0.322 C  
HETATM    8  O   UNL     1     -12.355  14.336  66.459  1.00  0.00    -0.445 OA 
BRANCH   7   9
HETATM    9  C   UNL     1     -10.107  14.682  65.634  1.00  0.00    -0.363 C  
HETATM   10  N   UNL     1      -8.822  14.691  66.334  1.00  0.00    -0.477 NA 
HETATM   11  H1  UNL     1      -8.112  15.153  65.766  1.00  0.00     0.000 HD 
HETATM   12  H2  UNL     1      -8.535  13.753  66.614  1.00  0.00     0.000 HD 
ENDBRANCH   7   9
ENDBRANCH   6   7
ENDBRANCH   5   6
ENDBRANCH   3   5
ENDBRANCH   2   3
TORSDOF 5
ENDMDL
MODEL      175
REMARK 921   NORMALIZED FREE ENERGY PREDICTED BY IDOCK:   -2.11 KCAL/MOL
REMARK 922        TOTAL FREE ENERGY PREDICTED BY IDOCK:   -3.17 KCAL/MOL
REMARK 923 INTER-LIGAND FREE ENERGY PREDICTED BY IDOCK:   -3.01 KCAL/MOL
REMARK 924 INTRA-LIGAND FREE ENERGY PREDICTED BY IDOCK:   -0.16 KCAL/MOL
REMARK 927      BINDING AFFINITY PREDICTED BY RF-SCORE:    0.00 PKD
ROOT
HETATM    1  C   UNL     1      -8.929   6.489  68.674  1.00  0.00    -0.126 C  
HETATM    2  O   UNL     1      -9.918   7.518  68.733  1.00  0.00    -0.163 OA 
ENDROOT
BRANCH   2   3
HETATM    3  C   UNL     1     -10.877   7.311  69.679  1.00  0.00    -0.222 C  
HETATM    4  O   UNL     1     -11.647   6.361  69.706  1.00  0.00    -0.431 OA 
BRANCH   3   5
HETATM    5  C   UNL     1     -10.841   8.423  70.695  1.00  0.00    -0.256 C  
BRANCH   5   6
HETATM    6  C   UNL     1     -10.298   9.705  70.076  1.00  0.00    -0.298 C  
BRANCH   6   7
HETATM    7  C   UNL     1     -11.376  10.512  69.381  1.00  0.00    -0.269 C  
HETATM    8  O   UNL     1     -12.351  10.963  69.986  1.00  0.00    -0.325 OA 
BRANCH   7   9
HETATM    9  C   UNL     1     -11.223  10.663  67.867  1.00  0.00    -0.308 C  
HETATM   10  N   UNL     1     -11.960  11.836  67.396  1.00  0.00    -0.612 NA 
HETATM   11  H1  UNL     1     -11.858  11.937  66.385  1.00  0.00     0.000 HD 
HETATM   12  H2  UNL     1     -11.685  12.683  67.892  1.00  0.00     0.000 HD 
ENDBRANCH   7   9
ENDBRANCH   6   7
ENDBRANCH   5   6
ENDBRANCH   3   5
ENDBRANCH   2   3
TORSDOF 5
ENDMDL
MODEL      176
REMARK 921   NORMALIZED FREE ENERGY PREDICTED BY IDOCK:   -2.11 KCAL/MOL
REMARK 922        TOTAL FREE ENERGY PREDICTED BY IDOCK:   -3.16 KCAL/MOL
REMARK 923 INTER-LIGAND FREE ENERGY PREDICTED BY IDOCK:   -3.07 KCAL/MOL
REMARK 924 INTRA-LIGAND FREE ENERGY PREDICTED BY IDOCK:   -0.09 KCAL/MOL
REMARK 927      BINDING AFFINITY PREDICTED BY RF-SCORE:    0.00 PKD
ROOT
HETATM    1  C   UNL     1      -9.319   9.592  66.608  1.00  0.00    -0.156 C  
HETATM    2  O   UNL     1     -10.585  10.228  66.795  1.00  0.00    -0.231 OA 
ENDROOT
BRANCH   2   3
HETATM    3  C   UNL     1     -10.635  11.509  66.331  1.00  0.00    -0.259 C  
HETATM    4  O   UNL     1     -10.675  11.830  65.152  1.00  0.00    -0.275 OA 
BRANCH   3   5
HETATM    5  C   UNL     1     -10.642  12.471  67.491  1.00  0.00    -0.238 C  
BRANCH   5   6
HETATM    6  C   UNL     1     -11.138  11.789  68.759  1.00  0.00    -0.293 C  
BRANCH   6   7
HETATM    7  C   UNL     1     -11.863  12.746  69.684  1.00  0.00    -0.317 C  
HETATM    8  O   UNL     1     -12.317  12.388  70.774  1.00  0.00    -0.377 OA 
BRANCH   7   9
HETATM    9  C   UNL     1     -12.069  14.162  69.147  1.00  0.00    -0.325 C  
HETATM   10  N   UNL     1     -12.926  14.929  70.052  1.00  0.00    -0.603 NA 
HETATM   11  H1  UNL     1     -13.064  15.875  69.694  1.00  0.00     0.000 HD 
HETATM   12  H2  UNL     1     -12.566  14.933  71.006  1.00  0.00     0.000 HD 
ENDBRANCH   7   9
ENDBRANCH   6   7
ENDBRANCH   5   6
ENDBRANCH   3   5
ENDBRANCH   2   3
TORSDOF 5
ENDMDL
MODEL      177
REMARK 921   NORMALIZED FREE ENERGY PREDICTED BY IDOCK:   -2.10 KCAL/MOL
REMARK 922        TOTAL FREE ENERGY PREDICTED BY IDOCK:   -3.15 KCAL/MOL
REMARK 923 INTER-LIGAND FREE ENERGY PREDICTED BY IDOCK:   -3.00 KCAL/MOL
REMARK 924 INTRA-LIGAND FREE ENERGY PREDICTED BY IDOCK:   -0.15 KCAL/MOL
REMARK 927      BINDING AFFINITY PREDICTED BY RF-SCORE:    0.00 PKD
ROOT
HETATM    1  C   UNL     1      -8.453  15.797  67.333  1.00  0.00    -0.171 C  
HETATM    2  O   UNL     1      -8.814  14.748  66.432  1.00  0.00    -0.233 OA 
ENDROOT
BRANCH   2   3
HETATM    3  C   UNL     1     -10.033  14.915  65.848  1.00  0.00    -0.331 C  
HETATM    4  O   UNL     1     -10.686  15.949  65.864  1.00  0.00    -0.323 OA 
BRANCH   3   5
HETATM    5  C   UNL     1     -10.454  13.636  65.171  1.00  0.00    -0.388 C  
BRANCH   5   6
HETATM    6  C   UNL     1      -9.976  12.423  65.958  1.00  0.00    -0.270 C  
BRANCH   6   7
HETATM    7  C   UNL     1     -11.064  11.840  66.837  1.00  0.00    -0.307 C  
HETATM    8  O   UNL     1     -12.137  12.419  67.024  1.00  0.00    -0.549 OA 
BRANCH   7   9
HETATM    9  C   UNL     1     -10.717  10.529  67.544  1.00  0.00    -0.276 C  
HETATM   10  N   UNL     1      -9.452  10.660  68.268  1.00  0.00    -0.154 NA 
HETATM   11  H1  UNL     1      -9.221   9.786  68.740  1.00  0.00     0.000 HD 
HETATM   12  H2  UNL     1      -9.464  11.449  68.914  1.00  0.00     0.000 HD 
ENDBRANCH   7   9
ENDBRANCH   6   7
ENDBRANCH   5   6
ENDBRANCH   3   5
ENDBRANCH   2   3
TORSDOF 5
ENDMDL
MODEL      178
REMARK 921   NORMALIZED FREE ENERGY PREDICTED BY IDOCK:   -2.09 KCAL/MOL
REMARK 922        TOTAL FREE ENERGY PREDICTED BY IDOCK:   -3.14 KCAL/MOL
REMARK 923 INTER-LIGAND FREE ENERGY PREDICTED BY IDOCK:   -3.00 KCAL/MOL
REMARK 924 INTRA-LIGAND FREE ENERGY PREDICTED BY IDOCK:   -0.15 KCAL/MOL
REMARK 927      BINDING AFFINITY PREDICTED BY RF-SCORE:    0.00 PKD
ROOT
HETATM    1  C   UNL     1     -13.124  10.488  71.700  1.00  0.00    -0.446 C  
HETATM    2  O   UNL     1     -13.089   9.225  72.367  1.00  0.00    -0.419 OA 
ENDROOT
BRANCH   2   3
HETATM    3  C   UNL     1     -11.935   8.528  72.172  1.00  0.00    -0.383 C  
HETATM    4  O   UNL     1     -11.376   7.841  73.016  1.00  0.00    -0.399 OA 
BRANCH   3   5
HETATM    5  C   UNL     1     -11.453   8.725  70.758  1.00  0.00    -0.309 C  
BRANCH   5   6
HETATM    6  C   UNL     1     -10.293   7.787  70.445  1.00  0.00    -0.212 C  
BRANCH   6   7
HETATM    7  C   UNL     1      -9.256   8.431  69.547  1.00  0.00    -0.154 C  
HETATM    8  O   UNL     1      -8.973   7.971  68.438  1.00  0.00    -0.134 OA 
BRANCH   7   9
HETATM    9  C   UNL     1      -8.524   9.638  70.135  1.00  0.00    -0.204 C  
HETATM   10  N   UNL     1      -7.716   9.231  71.285  1.00  0.00    -0.338 NA 
HETATM   11  H1  UNL     1      -7.227  10.036  71.678  1.00  0.00     0.000 HD 
HETATM   12  H2  UNL     1      -7.074   8.474  71.051  1.00  0.00     0.000 HD 
ENDBRANCH   7   9
ENDBRANCH   6   7
ENDBRANCH   5   6
ENDBRANCH   3   5
ENDBRANCH   2   3
TORSDOF 5
ENDMDL
MODEL      179
REMARK 921   NORMALIZED FREE ENERGY PREDICTED BY IDOCK:   -2.08 KCAL/MOL
REMARK 922        TOTAL FREE ENERGY PREDICTED BY IDOCK:   -3.13 KCAL/MOL
REMARK 923 INTER-LIGAND FREE ENERGY PREDICTED BY IDOCK:   -2.95 KCAL/MOL
REMARK 924 INTRA-LIGAND FREE ENERGY PREDICTED BY IDOCK:   -0.17 KCAL/MOL
REMARK 927      BINDING AFFINITY PREDICTED BY RF-SCORE:    0.00 PKD
ROOT
HETATM    1  C   UNL     1     -10.501   5.035  66.406  1.00  0.00    -0.300 C  
HETATM    2  O   UNL     1      -9.866   5.927  67.324  1.00  0.00    -0.122 OA 
ENDROOT
BRANCH   2   3
HETATM    3  C   UNL     1     -10.691   6.891  67.820  1.00  0.00    -0.254 C  
HETATM    4  O   UNL     1     -10.882   7.986  67.308  1.00  0.00    -0.261 OA 
BRANCH   3   5
HETATM    5  C   UNL     1     -11.340   6.405  69.089  1.00  0.00    -0.366 C  
BRANCH   5   6
HETATM    6  C   UNL     1     -10.641   6.985  70.312  1.00  0.00    -0.247 C  
BRANCH   6   7
HETATM    7  C   UNL     1     -11.264   8.288  70.770  1.00  0.00    -0.264 C  
HETATM    8  O   UNL     1     -10.756   9.383  70.518  1.00  0.00    -0.232 OA 
BRANCH   7   9
HETATM    9  C   UNL     1     -12.518   8.158  71.635  1.00  0.00    -0.319 C  
HETATM   10  N   UNL     1     -12.160   7.740  72.991  1.00  0.00    -0.587 NA 
HETATM   11  H1  UNL     1     -12.997   7.653  73.568  1.00  0.00     0.000 HD 
HETATM   12  H2  UNL     1     -11.470   8.362  73.412  1.00  0.00     0.000 HD 
ENDBRANCH   7   9
ENDBRANCH   6   7
ENDBRANCH   5   6
ENDBRANCH   3   5
ENDBRANCH   2   3
TORSDOF 5
ENDMDL
MODEL      180
REMARK 921   NORMALIZED FREE ENERGY PREDICTED BY IDOCK:   -2.06 KCAL/MOL
REMARK 922        TOTAL FREE ENERGY PREDICTED BY IDOCK:   -3.10 KCAL/MOL
REMARK 923 INTER-LIGAND FREE ENERGY PREDICTED BY IDOCK:   -2.94 KCAL/MOL
REMARK 924 INTRA-LIGAND FREE ENERGY PREDICTED BY IDOCK:   -0.17 KCAL/MOL
REMARK 927      BINDING AFFINITY PREDICTED BY RF-SCORE:    0.00 PKD
ROOT
HETATM    1  C   UNL     1     -10.389  14.964  67.940  1.00  0.00    -0.237 C  
HETATM    2  O   UNL     1     -10.934  16.255  67.664  1.00  0.00    -0.315 OA 
ENDROOT
BRANCH   2   3
HETATM    3  C   UNL     1     -10.113  17.288  68.002  1.00  0.00    -0.324 C  
HETATM    4  O   UNL     1      -9.667  17.496  69.123  1.00  0.00    -0.216 OA 
BRANCH   3   5
HETATM    5  C   UNL     1      -9.827  18.132  66.788  1.00  0.00    -0.337 C  
BRANCH   5   6
HETATM    6  C   UNL     1      -8.549  18.940  66.977  1.00  0.00    -0.301 C  
BRANCH   6   7
HETATM    7  C   UNL     1      -7.384  18.369  66.193  1.00  0.00    -0.255 C  
HETATM    8  O   UNL     1      -6.979  17.218  66.367  1.00  0.00    -0.229 OA 
BRANCH   7   9
HETATM    9  C   UNL     1      -6.690  19.336  65.234  1.00  0.00    -0.218 C  
HETATM   10  N   UNL     1      -7.355  20.640  65.256  1.00  0.00    -0.505 NA 
HETATM   11  H1  UNL     1      -6.892  21.285  64.616  1.00  0.00     0.000 HD 
HETATM   12  H2  UNL     1      -7.415  21.020  66.201  1.00  0.00     0.000 HD 
ENDBRANCH   7   9
ENDBRANCH   6   7
ENDBRANCH   5   6
ENDBRANCH   3   5
ENDBRANCH   2   3
TORSDOF 5
ENDMDL
MODEL      181
REMARK 921   NORMALIZED FREE ENERGY PREDICTED BY IDOCK:   -2.03 KCAL/MOL
REMARK 922        TOTAL FREE ENERGY PREDICTED BY IDOCK:   -3.06 KCAL/MOL
REMARK 923 INTER-LIGAND FREE ENERGY PREDICTED BY IDOCK:   -2.99 KCAL/MOL
REMARK 924 INTRA-LIGAND FREE ENERGY PREDICTED BY IDOCK:   -0.07 KCAL/MOL
REMARK 927      BINDING AFFINITY PREDICTED BY RF-SCORE:    0.00 PKD
ROOT
HETATM    1  C   UNL     1      -7.041  10.233  65.701  1.00  0.00    -0.137 C  
HETATM    2  O   UNL     1      -8.151  10.860  66.345  1.00  0.00    -0.153 OA 
ENDROOT
BRANCH   2   3
HETATM    3  C   UNL     1      -9.348  10.628  65.737  1.00  0.00    -0.186 C  
HETATM    4  O   UNL     1      -9.677   9.576  65.208  1.00  0.00    -0.293 OA 
BRANCH   3   5
HETATM    5  C   UNL     1     -10.210  11.861  65.821  1.00  0.00    -0.276 C  
BRANCH   5   6
HETATM    6  C   UNL     1     -10.931  11.929  67.161  1.00  0.00    -0.319 C  
BRANCH   6   7
HETATM    7  C   UNL     1     -11.794  13.168  67.291  1.00  0.00    -0.367 C  
HETATM    8  O   UNL     1     -12.191  13.797  66.307  1.00  0.00    -0.425 OA 
BRANCH   7   9
HETATM    9  C   UNL     1     -12.073  13.638  68.719  1.00  0.00    -0.297 C  
HETATM   10  N   UNL     1     -11.952  15.094  68.808  1.00  0.00    -0.538 NA 
HETATM   11  H1  UNL     1     -12.138  15.408  69.761  1.00  0.00     0.000 HD 
HETATM   12  H2  UNL     1     -12.547  15.567  68.128  1.00  0.00     0.000 HD 
ENDBRANCH   7   9
ENDBRANCH   6   7
ENDBRANCH   5   6
ENDBRANCH   3   5
ENDBRANCH   2   3
TORSDOF 5
ENDMDL
MODEL      182
REMARK 921   NORMALIZED FREE ENERGY PREDICTED BY IDOCK:   -2.02 KCAL/MOL
REMARK 922        TOTAL FREE ENERGY PREDICTED BY IDOCK:   -3.05 KCAL/MOL
REMARK 923 INTER-LIGAND FREE ENERGY PREDICTED BY IDOCK:   -2.91 KCAL/MOL
REMARK 924 INTRA-LIGAND FREE ENERGY PREDICTED BY IDOCK:   -0.13 KCAL/MOL
REMARK 927      BINDING AFFINITY PREDICTED BY RF-SCORE:    0.00 PKD
ROOT
HETATM    1  C   UNL     1      -9.854  19.837  68.495  1.00  0.00    -0.404 C  
HETATM    2  O   UNL     1     -10.774  18.789  68.183  1.00  0.00    -0.291 OA 
ENDROOT
BRANCH   2   3
HETATM    3  C   UNL     1     -10.330  17.545  68.515  1.00  0.00    -0.380 C  
HETATM    4  O   UNL     1     -11.009  16.671  69.038  1.00  0.00    -0.312 OA 
BRANCH   3   5
HETATM    5  C   UNL     1      -8.880  17.402  68.134  1.00  0.00    -0.253 C  
BRANCH   5   6
HETATM    6  C   UNL     1      -8.337  16.045  68.566  1.00  0.00    -0.191 C  
BRANCH   6   7
HETATM    7  C   UNL     1      -7.990  15.160  67.386  1.00  0.00    -0.190 C  
HETATM    8  O   UNL     1      -7.033  14.382  67.408  1.00  0.00    -0.186 OA 
BRANCH   7   9
HETATM    9  C   UNL     1      -8.850  15.350  66.136  1.00  0.00    -0.187 C  
HETATM   10  N   UNL     1      -9.558  14.110  65.813  1.00  0.00    -0.520 NA 
HETATM   11  H1  UNL     1     -10.132  14.237  64.978  1.00  0.00     0.000 HD 
HETATM   12  H2  UNL     1     -10.105  13.768  66.602  1.00  0.00     0.000 HD 
ENDBRANCH   7   9
ENDBRANCH   6   7
ENDBRANCH   5   6
ENDBRANCH   3   5
ENDBRANCH   2   3
TORSDOF 5
ENDMDL
MODEL      183
REMARK 921   NORMALIZED FREE ENERGY PREDICTED BY IDOCK:   -2.01 KCAL/MOL
REMARK 922        TOTAL FREE ENERGY PREDICTED BY IDOCK:   -3.04 KCAL/MOL
REMARK 923 INTER-LIGAND FREE ENERGY PREDICTED BY IDOCK:   -2.87 KCAL/MOL
REMARK 924 INTRA-LIGAND FREE ENERGY PREDICTED BY IDOCK:   -0.17 KCAL/MOL
REMARK 927      BINDING AFFINITY PREDICTED BY RF-SCORE:    0.00 PKD
ROOT
HETATM    1  C   UNL     1     -10.905   6.508  67.896  1.00  0.00    -0.304 C  
HETATM    2  O   UNL     1     -10.748   7.922  67.764  1.00  0.00    -0.206 OA 
ENDROOT
BRANCH   2   3
HETATM    3  C   UNL     1      -9.948   8.481  68.714  1.00  0.00    -0.186 C  
HETATM    4  O   UNL     1      -9.378   7.868  69.607  1.00  0.00    -0.153 OA 
BRANCH   3   5
HETATM    5  C   UNL     1      -9.862   9.970  68.498  1.00  0.00    -0.168 C  
BRANCH   5   6
HETATM    6  C   UNL     1      -9.912  10.306  67.013  1.00  0.00    -0.249 C  
BRANCH   6   7
HETATM    7  C   UNL     1     -11.034  11.267  66.676  1.00  0.00    -0.268 C  
HETATM    8  O   UNL     1     -11.956  11.501  67.461  1.00  0.00    -0.629 OA 
BRANCH   7   9
HETATM    9  C   UNL     1     -10.996  11.868  65.270  1.00  0.00    -0.302 C  
HETATM   10  N   UNL     1      -9.635  11.823  64.734  1.00  0.00    -0.408 NA 
HETATM   11  H1  UNL     1      -9.609  12.224  63.796  1.00  0.00     0.000 HD 
HETATM   12  H2  UNL     1      -9.249  10.879  64.755  1.00  0.00     0.000 HD 
ENDBRANCH   7   9
ENDBRANCH   6   7
ENDBRANCH   5   6
ENDBRANCH   3   5
ENDBRANCH   2   3
TORSDOF 5
ENDMDL
MODEL      184
REMARK 921   NORMALIZED FREE ENERGY PREDICTED BY IDOCK:   -2.00 KCAL/MOL
REMARK 922        TOTAL FREE ENERGY PREDICTED BY IDOCK:   -3.02 KCAL/MOL
REMARK 923 INTER-LIGAND FREE ENERGY PREDICTED BY IDOCK:   -2.87 KCAL/MOL
REMARK 924 INTRA-LIGAND FREE ENERGY PREDICTED BY IDOCK:   -0.15 KCAL/MOL
REMARK 927      BINDING AFFINITY PREDICTED BY RF-SCORE:    0.00 PKD
ROOT
HETATM    1  C   UNL     1     -12.366  13.557  70.724  1.00  0.00    -0.363 C  
HETATM    2  O   UNL     1     -12.361  13.746  69.308  1.00  0.00    -0.312 OA 
ENDROOT
BRANCH   2   3
HETATM    3  C   UNL     1     -11.556  14.761  68.887  1.00  0.00    -0.313 C  
HETATM    4  O   UNL     1     -11.886  15.937  68.813  1.00  0.00    -0.393 OA 
BRANCH   3   5
HETATM    5  C   UNL     1     -10.196  14.220  68.533  1.00  0.00    -0.245 C  
BRANCH   5   6
HETATM    6  C   UNL     1      -9.201  15.354  68.316  1.00  0.00    -0.188 C  
BRANCH   6   7
HETATM    7  C   UNL     1      -8.880  15.569  66.850  1.00  0.00    -0.255 C  
HETATM    8  O   UNL     1      -9.384  14.878  65.961  1.00  0.00    -0.294 OA 
BRANCH   7   9
HETATM    9  C   UNL     1      -7.833  16.640  66.548  1.00  0.00    -0.307 C  
HETATM   10  N   UNL     1      -7.867  17.688  67.571  1.00  0.00    -0.200 NA 
HETATM   11  H1  UNL     1      -7.167  18.403  67.369  1.00  0.00     0.000 HD 
HETATM   12  H2  UNL     1      -7.761  17.306  68.510  1.00  0.00     0.000 HD 
ENDBRANCH   7   9
ENDBRANCH   6   7
ENDBRANCH   5   6
ENDBRANCH   3   5
ENDBRANCH   2   3
TORSDOF 5
ENDMDL
MODEL      185
REMARK 921   NORMALIZED FREE ENERGY PREDICTED BY IDOCK:   -1.97 KCAL/MOL
REMARK 922        TOTAL FREE ENERGY PREDICTED BY IDOCK:   -2.99 KCAL/MOL
REMARK 923 INTER-LIGAND FREE ENERGY PREDICTED BY IDOCK:   -2.88 KCAL/MOL
REMARK 924 INTRA-LIGAND FREE ENERGY PREDICTED BY IDOCK:   -0.11 KCAL/MOL
REMARK 927      BINDING AFFINITY PREDICTED BY RF-SCORE:    0.00 PKD
ROOT
HETATM    1  C   UNL     1     -12.847  10.134  71.086  1.00  0.00    -0.399 C  
HETATM    2  O   UNL     1     -12.833   9.277  72.229  1.00  0.00    -0.389 OA 
ENDROOT
BRANCH   2   3
HETATM    3  C   UNL     1     -12.675   7.957  71.930  1.00  0.00    -0.316 C  
HETATM    4  O   UNL     1     -13.490   7.268  71.333  1.00  0.00    -0.388 OA 
BRANCH   3   5
HETATM    5  C   UNL     1     -11.342   7.475  72.439  1.00  0.00    -0.360 C  
BRANCH   5   6
HETATM    6  C   UNL     1     -11.052   6.063  71.946  1.00  0.00    -0.331 C  
BRANCH   6   7
HETATM    7  C   UNL     1     -10.834   5.087  73.085  1.00  0.00    -0.286 C  
HETATM    8  O   UNL     1     -10.735   5.458  74.257  1.00  0.00    -0.253 OA 
BRANCH   7   9
HETATM    9  C   UNL     1     -10.661   3.622  72.683  1.00  0.00    -0.058 C  
HETATM   10  N   UNL     1     -11.616   2.781  73.405  1.00  0.00    -0.101 NA 
HETATM   11  H1  UNL     1     -11.501   1.803  73.137  1.00  0.00     0.000 HD 
HETATM   12  H2  UNL     1     -12.577   3.099  73.277  1.00  0.00     0.000 HD 
ENDBRANCH   7   9
ENDBRANCH   6   7
ENDBRANCH   5   6
ENDBRANCH   3   5
ENDBRANCH   2   3
TORSDOF 5
ENDMDL
MODEL      186
REMARK 921   NORMALIZED FREE ENERGY PREDICTED BY IDOCK:   -1.97 KCAL/MOL
REMARK 922        TOTAL FREE ENERGY PREDICTED BY IDOCK:   -2.99 KCAL/MOL
REMARK 923 INTER-LIGAND FREE ENERGY PREDICTED BY IDOCK:   -2.92 KCAL/MOL
REMARK 924 INTRA-LIGAND FREE ENERGY PREDICTED BY IDOCK:   -0.06 KCAL/MOL
REMARK 927      BINDING AFFINITY PREDICTED BY RF-SCORE:    0.00 PKD
ROOT
HETATM    1  C   UNL     1     -11.502  12.230  68.367  1.00  0.00    -0.307 C  
HETATM    2  O   UNL     1     -12.229  12.864  67.313  1.00  0.00    -0.353 OA 
ENDROOT
BRANCH   2   3
HETATM    3  C   UNL     1     -11.628  13.983  66.821  1.00  0.00    -0.386 C  
HETATM    4  O   UNL     1     -11.152  14.091  65.699  1.00  0.00    -0.296 OA 
BRANCH   3   5
HETATM    5  C   UNL     1     -11.643  15.072  67.862  1.00  0.00    -0.350 C  
BRANCH   5   6
HETATM    6  C   UNL     1     -10.226  15.485  68.236  1.00  0.00    -0.222 C  
BRANCH   6   7
HETATM    7  C   UNL     1      -9.884  16.880  67.751  1.00  0.00    -0.252 C  
HETATM    8  O   UNL     1      -8.859  17.117  67.106  1.00  0.00    -0.211 OA 
BRANCH   7   9
HETATM    9  C   UNL     1     -10.845  17.988  68.180  1.00  0.00    -0.131 C  
HETATM   10  N   UNL     1     -10.099  19.134  68.702  1.00  0.00    -0.414 NA 
HETATM   11  H1  UNL     1     -10.741  19.874  68.989  1.00  0.00     0.000 HD 
HETATM   12  H2  UNL     1      -9.404  19.471  68.037  1.00  0.00     0.000 HD 
ENDBRANCH   7   9
ENDBRANCH   6   7
ENDBRANCH   5   6
ENDBRANCH   3   5
ENDBRANCH   2   3
TORSDOF 5
ENDMDL
MODEL      187
REMARK 921   NORMALIZED FREE ENERGY PREDICTED BY IDOCK:   -1.97 KCAL/MOL
REMARK 922        TOTAL FREE ENERGY PREDICTED BY IDOCK:   -2.98 KCAL/MOL
REMARK 923 INTER-LIGAND FREE ENERGY PREDICTED BY IDOCK:   -2.85 KCAL/MOL
REMARK 924 INTRA-LIGAND FREE ENERGY PREDICTED BY IDOCK:   -0.14 KCAL/MOL
REMARK 927      BINDING AFFINITY PREDICTED BY RF-SCORE:    0.00 PKD
ROOT
HETATM    1  C   UNL     1     -12.026   9.470  71.639  1.00  0.00    -0.401 C  
HETATM    2  O   UNL     1     -12.042   8.346  72.521  1.00  0.00    -0.393 OA 
ENDROOT
BRANCH   2   3
HETATM    3  C   UNL     1     -11.799   7.156  71.905  1.00  0.00    -0.300 C  
HETATM    4  O   UNL     1     -12.007   6.054  72.394  1.00  0.00    -0.302 OA 
BRANCH   3   5
HETATM    5  C   UNL     1     -11.241   7.399  70.527  1.00  0.00    -0.296 C  
BRANCH   5   6
HETATM    6  C   UNL     1     -11.227   6.111  69.713  1.00  0.00    -0.494 C  
BRANCH   6   7
HETATM    7  C   UNL     1      -9.940   5.330  69.889  1.00  0.00    -0.239 C  
HETATM    8  O   UNL     1      -9.934   4.140  70.214  1.00  0.00    -0.201 OA 
BRANCH   7   9
HETATM    9  C   UNL     1      -8.647   6.129  69.720  1.00  0.00    -0.132 C  
HETATM   10  N   UNL     1      -7.764   5.470  68.757  1.00  0.00    -0.090 NA 
HETATM   11  H1  UNL     1      -6.901   6.003  68.645  1.00  0.00     0.000 HD 
HETATM   12  H2  UNL     1      -8.229   5.305  67.865  1.00  0.00     0.000 HD 
ENDBRANCH   7   9
ENDBRANCH   6   7
ENDBRANCH   5   6
ENDBRANCH   3   5
ENDBRANCH   2   3
TORSDOF 5
ENDMDL
MODEL      188
REMARK 921   NORMALIZED FREE ENERGY PREDICTED BY IDOCK:   -1.96 KCAL/MOL
REMARK 922        TOTAL FREE ENERGY PREDICTED BY IDOCK:   -2.97 KCAL/MOL
REMARK 923 INTER-LIGAND FREE ENERGY PREDICTED BY IDOCK:   -2.84 KCAL/MOL
REMARK 924 INTRA-LIGAND FREE ENERGY PREDICTED BY IDOCK:   -0.13 KCAL/MOL
REMARK 927      BINDING AFFINITY PREDICTED BY RF-SCORE:    0.00 PKD
ROOT
HETATM    1  C   UNL     1      -5.341  15.080  69.577  1.00  0.00    -0.089 C  
HETATM    2  O   UNL     1      -6.318  15.287  68.556  1.00  0.00    -0.086 OA 
ENDROOT
BRANCH   2   3
HETATM    3  C   UNL     1      -6.079  16.376  67.773  1.00  0.00    -0.133 C  
HETATM    4  O   UNL     1      -5.372  16.384  66.774  1.00  0.00    -0.348 OA 
BRANCH   3   5
HETATM    5  C   UNL     1      -6.823  17.569  68.315  1.00  0.00    -0.200 C  
BRANCH   5   6
HETATM    6  C   UNL     1      -8.324  17.411  68.110  1.00  0.00    -0.240 C  
BRANCH   6   7
HETATM    7  C   UNL     1      -8.767  17.847  66.728  1.00  0.00    -0.254 C  
HETATM    8  O   UNL     1      -7.998  18.395  65.935  1.00  0.00    -0.497 OA 
BRANCH   7   9
HETATM    9  C   UNL     1     -10.248  17.640  66.408  1.00  0.00    -0.364 C  
HETATM   10  N   UNL     1     -10.407  16.596  65.394  1.00  0.00    -0.626 NA 
HETATM   11  H1  UNL     1     -11.396  16.458  65.180  1.00  0.00     0.000 HD 
HETATM   12  H2  UNL     1      -9.952  15.726  65.668  1.00  0.00     0.000 HD 
ENDBRANCH   7   9
ENDBRANCH   6   7
ENDBRANCH   5   6
ENDBRANCH   3   5
ENDBRANCH   2   3
TORSDOF 5
ENDMDL
MODEL      189
REMARK 921   NORMALIZED FREE ENERGY PREDICTED BY IDOCK:   -1.96 KCAL/MOL
REMARK 922        TOTAL FREE ENERGY PREDICTED BY IDOCK:   -2.97 KCAL/MOL
REMARK 923 INTER-LIGAND FREE ENERGY PREDICTED BY IDOCK:   -2.85 KCAL/MOL
REMARK 924 INTRA-LIGAND FREE ENERGY PREDICTED BY IDOCK:   -0.12 KCAL/MOL
REMARK 927      BINDING AFFINITY PREDICTED BY RF-SCORE:    0.00 PKD
ROOT
HETATM    1  C   UNL     1      -7.982  12.186  67.198  1.00  0.00    -0.170 C  
HETATM    2  O   UNL     1      -8.670  13.391  66.857  1.00  0.00    -0.210 OA 
ENDROOT
BRANCH   2   3
HETATM    3  C   UNL     1      -8.514  14.394  67.765  1.00  0.00    -0.173 C  
HETATM    4  O   UNL     1      -8.831  14.332  68.945  1.00  0.00    -0.133 OA 
BRANCH   3   5
HETATM    5  C   UNL     1      -7.883  15.590  67.101  1.00  0.00    -0.256 C  
BRANCH   5   6
HETATM    6  C   UNL     1      -8.552  16.880  67.557  1.00  0.00    -0.211 C  
BRANCH   6   7
HETATM    7  C   UNL     1      -8.956  17.764  66.394  1.00  0.00    -0.229 C  
HETATM    8  O   UNL     1      -8.162  18.535  65.849  1.00  0.00    -0.497 OA 
BRANCH   7   9
HETATM    9  C   UNL     1     -10.430  17.702  65.992  1.00  0.00    -0.278 C  
HETATM   10  N   UNL     1     -10.625  16.716  64.928  1.00  0.00    -0.689 NA 
HETATM   11  H1  UNL     1     -11.608  16.674  64.659  1.00  0.00     0.000 HD 
HETATM   12  H2  UNL     1     -10.262  15.799  65.188  1.00  0.00     0.000 HD 
ENDBRANCH   7   9
ENDBRANCH   6   7
ENDBRANCH   5   6
ENDBRANCH   3   5
ENDBRANCH   2   3
TORSDOF 5
ENDMDL
MODEL      190
REMARK 921   NORMALIZED FREE ENERGY PREDICTED BY IDOCK:   -1.96 KCAL/MOL
REMARK 922        TOTAL FREE ENERGY PREDICTED BY IDOCK:   -2.97 KCAL/MOL
REMARK 923 INTER-LIGAND FREE ENERGY PREDICTED BY IDOCK:   -2.84 KCAL/MOL
REMARK 924 INTRA-LIGAND FREE ENERGY PREDICTED BY IDOCK:   -0.13 KCAL/MOL
REMARK 927      BINDING AFFINITY PREDICTED BY RF-SCORE:    0.00 PKD
ROOT
HETATM    1  C   UNL     1     -12.591  10.739  71.063  1.00  0.00    -0.420 C  
HETATM    2  O   UNL     1     -11.244  10.572  70.618  1.00  0.00    -0.316 OA 
ENDROOT
BRANCH   2   3
HETATM    3  C   UNL     1     -11.136  10.136  69.332  1.00  0.00    -0.243 C  
HETATM    4  O   UNL     1     -10.745   9.027  68.994  1.00  0.00    -0.215 OA 
BRANCH   3   5
HETATM    5  C   UNL     1     -11.577  11.222  68.386  1.00  0.00    -0.378 C  
BRANCH   5   6
HETATM    6  C   UNL     1     -10.741  12.481  68.577  1.00  0.00    -0.263 C  
BRANCH   6   7
HETATM    7  C   UNL     1      -9.563  12.543  67.626  1.00  0.00    -0.190 C  
HETATM    8  O   UNL     1      -8.416  12.771  68.016  1.00  0.00    -0.159 OA 
BRANCH   7   9
HETATM    9  C   UNL     1      -9.897  12.386  66.142  1.00  0.00    -0.252 C  
HETATM   10  N   UNL     1      -8.854  11.614  65.465  1.00  0.00    -0.403 NA 
HETATM   11  H1  UNL     1      -9.077  11.510  64.474  1.00  0.00     0.000 HD 
HETATM   12  H2  UNL     1      -8.694  10.714  65.916  1.00  0.00     0.000 HD 
ENDBRANCH   7   9
ENDBRANCH   6   7
ENDBRANCH   5   6
ENDBRANCH   3   5
ENDBRANCH   2   3
TORSDOF 5
ENDMDL
MODEL      191
REMARK 921   NORMALIZED FREE ENERGY PREDICTED BY IDOCK:   -1.95 KCAL/MOL
REMARK 922        TOTAL FREE ENERGY PREDICTED BY IDOCK:   -2.96 KCAL/MOL
REMARK 923 INTER-LIGAND FREE ENERGY PREDICTED BY IDOCK:   -2.82 KCAL/MOL
REMARK 924 INTRA-LIGAND FREE ENERGY PREDICTED BY IDOCK:   -0.14 KCAL/MOL
REMARK 927      BINDING AFFINITY PREDICTED BY RF-SCORE:    0.00 PKD
ROOT
HETATM    1  C   UNL     1      -7.670  14.679  68.957  1.00  0.00    -0.134 C  
HETATM    2  O   UNL     1      -8.243  14.097  67.785  1.00  0.00    -0.143 OA 
ENDROOT
BRANCH   2   3
HETATM    3  C   UNL     1      -9.569  14.367  67.624  1.00  0.00    -0.214 C  
HETATM    4  O   UNL     1     -10.394  14.409  68.527  1.00  0.00    -0.235 OA 
BRANCH   3   5
HETATM    5  C   UNL     1      -9.867  14.614  66.168  1.00  0.00    -0.334 C  
BRANCH   5   6
HETATM    6  C   UNL     1     -11.158  13.920  65.753  1.00  0.00    -0.294 C  
BRANCH   6   7
HETATM    7  C   UNL     1     -10.949  12.948  64.609  1.00  0.00    -0.332 C  
HETATM    8  O   UNL     1     -11.520  13.079  63.524  1.00  0.00    -0.446 OA 
BRANCH   7   9
HETATM    9  C   UNL     1     -10.050  11.749  64.911  1.00  0.00    -0.259 C  
HETATM   10  N   UNL     1      -9.078  11.558  63.834  1.00  0.00    -0.430 NA 
HETATM   11  H1  UNL     1      -8.478  10.757  64.035  1.00  0.00     0.000 HD 
HETATM   12  H2  UNL     1      -8.537  12.403  63.656  1.00  0.00     0.000 HD 
ENDBRANCH   7   9
ENDBRANCH   6   7
ENDBRANCH   5   6
ENDBRANCH   3   5
ENDBRANCH   2   3
TORSDOF 5
ENDMDL
MODEL      192
REMARK 921   NORMALIZED FREE ENERGY PREDICTED BY IDOCK:   -1.95 KCAL/MOL
REMARK 922        TOTAL FREE ENERGY PREDICTED BY IDOCK:   -2.96 KCAL/MOL
REMARK 923 INTER-LIGAND FREE ENERGY PREDICTED BY IDOCK:   -2.86 KCAL/MOL
REMARK 924 INTRA-LIGAND FREE ENERGY PREDICTED BY IDOCK:   -0.09 KCAL/MOL
REMARK 927      BINDING AFFINITY PREDICTED BY RF-SCORE:    0.00 PKD
ROOT
HETATM    1  C   UNL     1     -11.584  11.336  69.231  1.00  0.00    -0.322 C  
HETATM    2  O   UNL     1     -12.241  11.379  67.963  1.00  0.00    -0.607 OA 
ENDROOT
BRANCH   2   3
HETATM    3  C   UNL     1     -11.688  12.260  67.083  1.00  0.00    -0.326 C  
HETATM    4  O   UNL     1     -12.218  13.291  66.691  1.00  0.00    -0.370 OA 
BRANCH   3   5
HETATM    5  C   UNL     1     -10.322  11.778  66.669  1.00  0.00    -0.251 C  
BRANCH   5   6
HETATM    6  C   UNL     1     -10.430  10.620  65.686  1.00  0.00    -0.235 C  
BRANCH   6   7
HETATM    7  C   UNL     1      -9.151  10.408  64.900  1.00  0.00    -0.208 C  
HETATM    8  O   UNL     1      -8.063  10.232  65.453  1.00  0.00    -0.138 OA 
BRANCH   7   9
HETATM    9  C   UNL     1      -9.280  10.509  63.380  1.00  0.00    -0.276 C  
HETATM   10  N   UNL     1      -8.128   9.881  62.730  1.00  0.00    -0.126 NA 
HETATM   11  H1  UNL     1      -8.214   9.949  61.715  1.00  0.00     0.000 HD 
HETATM   12  H2  UNL     1      -7.996   8.918  63.037  1.00  0.00     0.000 HD 
ENDBRANCH   7   9
ENDBRANCH   6   7
ENDBRANCH   5   6
ENDBRANCH   3   5
ENDBRANCH   2   3
TORSDOF 5
ENDMDL
MODEL      193
REMARK 921   NORMALIZED FREE ENERGY PREDICTED BY IDOCK:   -1.94 KCAL/MOL
REMARK 922        TOTAL FREE ENERGY PREDICTED BY IDOCK:   -2.94 KCAL/MOL
REMARK 923 INTER-LIGAND FREE ENERGY PREDICTED BY IDOCK:   -2.70 KCAL/MOL
REMARK 924 INTRA-LIGAND FREE ENERGY PREDICTED BY IDOCK:   -0.24 KCAL/MOL
REMARK 927      BINDING AFFINITY PREDICTED BY RF-SCORE:    0.00 PKD
ROOT
HETATM    1  C   UNL     1     -10.504   7.667  69.684  1.00  0.00    -0.235 C  
HETATM    2  O   UNL     1      -9.937   8.787  70.367  1.00  0.00    -0.177 OA 
ENDROOT
BRANCH   2   3
HETATM    3  C   UNL     1      -9.815   8.611  71.713  1.00  0.00    -0.295 C  
HETATM    4  O   UNL     1      -8.832   8.912  72.377  1.00  0.00    -0.396 OA 
BRANCH   3   5
HETATM    5  C   UNL     1     -11.076   7.998  72.264  1.00  0.00    -0.393 C  
BRANCH   5   6
HETATM    6  C   UNL     1     -10.780   7.177  73.512  1.00  0.00    -0.375 C  
BRANCH   6   7
HETATM    7  C   UNL     1     -10.738   5.689  73.228  1.00  0.00    -0.269 C  
HETATM    8  O   UNL     1     -11.763   5.009  73.138  1.00  0.00    -0.313 OA 
BRANCH   7   9
HETATM    9  C   UNL     1      -9.344   5.067  73.141  1.00  0.00    -0.128 C  
HETATM   10  N   UNL     1      -9.141   4.456  71.826  1.00  0.00    -0.123 NA 
HETATM   11  H1  UNL     1      -8.211   4.041  71.768  1.00  0.00     0.000 HD 
HETATM   12  H2  UNL     1      -9.310   5.118  71.069  1.00  0.00     0.000 HD 
ENDBRANCH   7   9
ENDBRANCH   6   7
ENDBRANCH   5   6
ENDBRANCH   3   5
ENDBRANCH   2   3
TORSDOF 5
ENDMDL
MODEL      194
REMARK 921   NORMALIZED FREE ENERGY PREDICTED BY IDOCK:   -1.93 KCAL/MOL
REMARK 922        TOTAL FREE ENERGY PREDICTED BY IDOCK:   -2.93 KCAL/MOL
REMARK 923 INTER-LIGAND FREE ENERGY PREDICTED BY IDOCK:   -2.57 KCAL/MOL
REMARK 924 INTRA-LIGAND FREE ENERGY PREDICTED BY IDOCK:   -0.36 KCAL/MOL
REMARK 927      BINDING AFFINITY PREDICTED BY RF-SCORE:    0.00 PKD
ROOT
HETATM    1  C   UNL     1      -8.915   9.768  65.496  1.00  0.00    -0.176 C  
HETATM    2  O   UNL     1     -10.209  10.374  65.484  1.00  0.00    -0.278 OA 
ENDROOT
BRANCH   2   3
HETATM    3  C   UNL     1     -10.745  10.561  66.722  1.00  0.00    -0.188 C  
HETATM    4  O   UNL     1     -10.699   9.752  67.639  1.00  0.00    -0.260 OA 
BRANCH   3   5
HETATM    5  C   UNL     1     -11.396  11.917  66.797  1.00  0.00    -0.393 C  
BRANCH   5   6
HETATM    6  C   UNL     1     -10.633  12.833  67.746  1.00  0.00    -0.231 C  
BRANCH   6   7
HETATM    7  C   UNL     1      -9.450  13.502  67.075  1.00  0.00    -0.251 C  
HETATM    8  O   UNL     1      -9.590  14.336  66.178  1.00  0.00    -0.301 OA 
BRANCH   7   9
HETATM    9  C   UNL     1      -8.070  13.019  67.523  1.00  0.00    -0.179 C  
HETATM   10  N   UNL     1      -8.193  12.140  68.687  1.00  0.00    -0.315 NA 
HETATM   11  H1  UNL     1      -7.272  11.817  68.986  1.00  0.00     0.000 HD 
HETATM   12  H2  UNL     1      -8.830  11.363  68.512  1.00  0.00     0.000 HD 
ENDBRANCH   7   9
ENDBRANCH   6   7
ENDBRANCH   5   6
ENDBRANCH   3   5
ENDBRANCH   2   3
TORSDOF 5
ENDMDL
MODEL      195
REMARK 921   NORMALIZED FREE ENERGY PREDICTED BY IDOCK:   -1.92 KCAL/MOL
REMARK 922        TOTAL FREE ENERGY PREDICTED BY IDOCK:   -2.92 KCAL/MOL
REMARK 923 INTER-LIGAND FREE ENERGY PREDICTED BY IDOCK:   -2.82 KCAL/MOL
REMARK 924 INTRA-LIGAND FREE ENERGY PREDICTED BY IDOCK:   -0.10 KCAL/MOL
REMARK 927      BINDING AFFINITY PREDICTED BY RF-SCORE:    0.00 PKD
ROOT
HETATM    1  C   UNL     1      -6.396  14.331  68.819  1.00  0.00    -0.087 C  
HETATM    2  O   UNL     1      -6.038  14.876  67.547  1.00  0.00    -0.307 OA 
ENDROOT
BRANCH   2   3
HETATM    3  C   UNL     1      -6.919  15.801  67.073  1.00  0.00    -0.093 C  
HETATM    4  O   UNL     1      -6.628  16.747  66.354  1.00  0.00    -0.211 OA 
BRANCH   3   5
HETATM    5  C   UNL     1      -8.308  15.479  67.561  1.00  0.00    -0.190 C  
BRANCH   5   6
HETATM    6  C   UNL     1      -9.333  15.690  66.454  1.00  0.00    -0.332 C  
BRANCH   6   7
HETATM    7  C   UNL     1     -10.741  15.343  66.898  1.00  0.00    -0.314 C  
HETATM    8  O   UNL     1     -11.184  15.683  67.997  1.00  0.00    -0.329 OA 
BRANCH   7   9
HETATM    9  C   UNL     1     -11.548  14.476  65.932  1.00  0.00    -0.349 C  
HETATM   10  N   UNL     1     -11.073  14.663  64.561  1.00  0.00    -0.610 NA 
HETATM   11  H1  UNL     1     -11.612  14.085  63.916  1.00  0.00     0.000 HD 
HETATM   12  H2  UNL     1     -10.071  14.492  64.479  1.00  0.00     0.000 HD 
ENDBRANCH   7   9
ENDBRANCH   6   7
ENDBRANCH   5   6
ENDBRANCH   3   5
ENDBRANCH   2   3
TORSDOF 5
ENDMDL
MODEL      196
REMARK 921   NORMALIZED FREE ENERGY PREDICTED BY IDOCK:   -1.92 KCAL/MOL
REMARK 922        TOTAL FREE ENERGY PREDICTED BY IDOCK:   -2.92 KCAL/MOL
REMARK 923 INTER-LIGAND FREE ENERGY PREDICTED BY IDOCK:   -2.74 KCAL/MOL
REMARK 924 INTRA-LIGAND FREE ENERGY PREDICTED BY IDOCK:   -0.18 KCAL/MOL
REMARK 927      BINDING AFFINITY PREDICTED BY RF-SCORE:    0.00 PKD
ROOT
HETATM    1  C   UNL     1      -5.560  20.650  68.740  1.00  0.00    -0.334 C  
HETATM    2  O   UNL     1      -6.537  21.022  67.766  1.00  0.00    -0.337 OA 
ENDROOT
BRANCH   2   3
HETATM    3  C   UNL     1      -7.022  19.976  67.041  1.00  0.00    -0.219 C  
HETATM    4  O   UNL     1      -6.822  19.792  65.848  1.00  0.00    -0.236 OA 
BRANCH   3   5
HETATM    5  C   UNL     1      -7.838  19.073  67.930  1.00  0.00    -0.301 C  
BRANCH   5   6
HETATM    6  C   UNL     1      -7.515  17.609  67.660  1.00  0.00    -0.206 C  
BRANCH   6   7
HETATM    7  C   UNL     1      -8.578  16.928  66.823  1.00  0.00    -0.225 C  
HETATM    8  O   UNL     1      -8.550  16.941  65.590  1.00  0.00    -0.443 OA 
BRANCH   7   9
HETATM    9  C   UNL     1      -9.733  16.294  67.600  1.00  0.00    -0.234 C  
HETATM   10  N   UNL     1      -9.624  14.835  67.571  1.00  0.00    -0.207 NA 
HETATM   11  H1  UNL     1     -10.395  14.412  68.089  1.00  0.00     0.000 HD 
HETATM   12  H2  UNL     1      -8.717  14.514  67.908  1.00  0.00     0.000 HD 
ENDBRANCH   7   9
ENDBRANCH   6   7
ENDBRANCH   5   6
ENDBRANCH   3   5
ENDBRANCH   2   3
TORSDOF 5
ENDMDL
MODEL      197
REMARK 921   NORMALIZED FREE ENERGY PREDICTED BY IDOCK:   -1.92 KCAL/MOL
REMARK 922        TOTAL FREE ENERGY PREDICTED BY IDOCK:   -2.92 KCAL/MOL
REMARK 923 INTER-LIGAND FREE ENERGY PREDICTED BY IDOCK:   -2.77 KCAL/MOL
REMARK 924 INTRA-LIGAND FREE ENERGY PREDICTED BY IDOCK:   -0.14 KCAL/MOL
REMARK 927      BINDING AFFINITY PREDICTED BY RF-SCORE:    0.00 PKD
ROOT
HETATM    1  C   UNL     1      -8.328  15.406  68.898  1.00  0.00    -0.203 C  
HETATM    2  O   UNL     1      -8.553  14.050  68.507  1.00  0.00    -0.169 OA 
ENDROOT
BRANCH   2   3
HETATM    3  C   UNL     1      -9.740  13.847  67.872  1.00  0.00    -0.231 C  
HETATM    4  O   UNL     1     -10.644  14.667  67.787  1.00  0.00    -0.247 OA 
BRANCH   3   5
HETATM    5  C   UNL     1      -9.772  12.461  67.281  1.00  0.00    -0.201 C  
BRANCH   5   6
HETATM    6  C   UNL     1      -9.728  11.403  68.377  1.00  0.00    -0.203 C  
BRANCH   6   7
HETATM    7  C   UNL     1     -11.070  10.732  68.587  1.00  0.00    -0.259 C  
HETATM    8  O   UNL     1     -12.099  11.137  68.040  1.00  0.00    -0.635 OA 
BRANCH   7   9
HETATM    9  C   UNL     1     -11.086   9.572  69.583  1.00  0.00    -0.171 C  
HETATM   10  N   UNL     1     -12.176   9.742  70.544  1.00  0.00    -0.454 NA 
HETATM   11  H1  UNL     1     -12.187   8.968  71.209  1.00  0.00     0.000 HD 
HETATM   12  H2  UNL     1     -13.077   9.858  70.081  1.00  0.00     0.000 HD 
ENDBRANCH   7   9
ENDBRANCH   6   7
ENDBRANCH   5   6
ENDBRANCH   3   5
ENDBRANCH   2   3
TORSDOF 5
ENDMDL
MODEL      198
REMARK 921   NORMALIZED FREE ENERGY PREDICTED BY IDOCK:   -1.91 KCAL/MOL
REMARK 922        TOTAL FREE ENERGY PREDICTED BY IDOCK:   -2.91 KCAL/MOL
REMARK 923 INTER-LIGAND FREE ENERGY PREDICTED BY IDOCK:   -2.78 KCAL/MOL
REMARK 924 INTRA-LIGAND FREE ENERGY PREDICTED BY IDOCK:   -0.13 KCAL/MOL
REMARK 927      BINDING AFFINITY PREDICTED BY RF-SCORE:    0.00 PKD
ROOT
HETATM    1  C   UNL     1      -8.732   9.268  66.784  1.00  0.00    -0.127 C  
HETATM    2  O   UNL     1      -9.770  10.233  66.599  1.00  0.00    -0.172 OA 
ENDROOT
BRANCH   2   3
HETATM    3  C   UNL     1      -9.590  11.383  67.307  1.00  0.00    -0.174 C  
HETATM    4  O   UNL     1      -9.137  12.425  66.855  1.00  0.00    -0.200 OA 
BRANCH   3   5
HETATM    5  C   UNL     1     -10.040  11.181  68.730  1.00  0.00    -0.211 C  
BRANCH   5   6
HETATM    6  C   UNL     1     -11.516  10.807  68.785  1.00  0.00    -0.364 C  
BRANCH   6   7
HETATM    7  C   UNL     1     -12.206  11.357  70.017  1.00  0.00    -0.301 C  
HETATM    8  O   UNL     1     -12.074  12.530  70.374  1.00  0.00    -0.362 OA 
BRANCH   7   9
HETATM    9  C   UNL     1     -13.009  10.346  70.837  1.00  0.00    -0.387 C  
HETATM   10  N   UNL     1     -12.323   9.054  70.864  1.00  0.00    -0.476 NA 
HETATM   11  H1  UNL     1     -12.859   8.379  71.411  1.00  0.00     0.000 HD 
HETATM   12  H2  UNL     1     -11.364   9.139  71.200  1.00  0.00     0.000 HD 
ENDBRANCH   7   9
ENDBRANCH   6   7
ENDBRANCH   5   6
ENDBRANCH   3   5
ENDBRANCH   2   3
TORSDOF 5
ENDMDL
MODEL      199
REMARK 921   NORMALIZED FREE ENERGY PREDICTED BY IDOCK:   -1.91 KCAL/MOL
REMARK 922        TOTAL FREE ENERGY PREDICTED BY IDOCK:   -2.90 KCAL/MOL
REMARK 923 INTER-LIGAND FREE ENERGY PREDICTED BY IDOCK:   -2.77 KCAL/MOL
REMARK 924 INTRA-LIGAND FREE ENERGY PREDICTED BY IDOCK:   -0.13 KCAL/MOL
REMARK 927      BINDING AFFINITY PREDICTED BY RF-SCORE:    0.00 PKD
ROOT
HETATM    1  C   UNL     1     -11.441   5.141  72.940  1.00  0.00    -0.254 C  
HETATM    2  O   UNL     1     -11.654   6.368  72.239  1.00  0.00    -0.285 OA 
ENDROOT
BRANCH   2   3
HETATM    3  C   UNL     1     -11.182   7.467  72.890  1.00  0.00    -0.346 C  
HETATM    4  O   UNL     1     -10.327   7.455  73.765  1.00  0.00    -0.348 OA 
BRANCH   3   5
HETATM    5  C   UNL     1     -11.864   8.704  72.364  1.00  0.00    -0.402 C  
BRANCH   5   6
HETATM    6  C   UNL     1     -11.849   8.726  70.841  1.00  0.00    -0.267 C  
BRANCH   6   7
HETATM    7  C   UNL     1     -10.747   9.607  70.287  1.00  0.00    -0.281 C  
HETATM    8  O   UNL     1     -10.961  10.756  69.892  1.00  0.00    -0.267 OA 
BRANCH   7   9
HETATM    9  C   UNL     1      -9.369   8.955  70.172  1.00  0.00    -0.180 C  
HETATM   10  N   UNL     1      -9.151   8.464  68.810  1.00  0.00    -0.143 NA 
HETATM   11  H1  UNL     1      -8.231   8.029  68.733  1.00  0.00     0.000 HD 
HETATM   12  H2  UNL     1      -9.284   9.198  68.115  1.00  0.00     0.000 HD 
ENDBRANCH   7   9
ENDBRANCH   6   7
ENDBRANCH   5   6
ENDBRANCH   3   5
ENDBRANCH   2   3
TORSDOF 5
ENDMDL
MODEL      200
REMARK 921   NORMALIZED FREE ENERGY PREDICTED BY IDOCK:   -1.91 KCAL/MOL
REMARK 922        TOTAL FREE ENERGY PREDICTED BY IDOCK:   -2.90 KCAL/MOL
REMARK 923 INTER-LIGAND FREE ENERGY PREDICTED BY IDOCK:   -2.79 KCAL/MOL
REMARK 924 INTRA-LIGAND FREE ENERGY PREDICTED BY IDOCK:   -0.11 KCAL/MOL
REMARK 927      BINDING AFFINITY PREDICTED BY RF-SCORE:    0.00 PKD
ROOT
HETATM    1  C   UNL     1      -7.963   8.378  69.878  1.00  0.00    -0.107 C  
HETATM    2  O   UNL     1      -8.175   7.789  71.162  1.00  0.00    -0.096 OA 
ENDROOT
BRANCH   2   3
HETATM    3  C   UNL     1      -9.243   8.301  71.837  1.00  0.00    -0.208 C  
HETATM    4  O   UNL     1      -9.280   8.511  73.041  1.00  0.00    -0.233 OA 
BRANCH   3   5
HETATM    5  C   UNL     1     -10.369   8.577  70.875  1.00  0.00    -0.245 C  
BRANCH   5   6
HETATM    6  C   UNL     1     -11.376   9.545  71.484  1.00  0.00    -0.456 C  
BRANCH   6   7
HETATM    7  C   UNL     1     -11.877  10.563  70.479  1.00  0.00    -0.347 C  
HETATM    8  O   UNL     1     -11.623  10.477  69.275  1.00  0.00    -0.261 OA 
BRANCH   7   9
HETATM    9  C   UNL     1     -12.649  11.748  71.061  1.00  0.00    -0.310 C  
HETATM   10  N   UNL     1     -12.036  13.009  70.643  1.00  0.00    -0.528 NA 
HETATM   11  H1  UNL     1     -12.551  13.800  71.031  1.00  0.00     0.000 HD 
HETATM   12  H2  UNL     1     -11.949  13.072  69.629  1.00  0.00     0.000 HD 
ENDBRANCH   7   9
ENDBRANCH   6   7
ENDBRANCH   5   6
ENDBRANCH   3   5
ENDBRANCH   2   3
TORSDOF 5
ENDMDL
MODEL      201
REMARK 921   NORMALIZED FREE ENERGY PREDICTED BY IDOCK:   -1.89 KCAL/MOL
REMARK 922        TOTAL FREE ENERGY PREDICTED BY IDOCK:   -2.89 KCAL/MOL
REMARK 923 INTER-LIGAND FREE ENERGY PREDICTED BY IDOCK:   -2.77 KCAL/MOL
REMARK 924 INTRA-LIGAND FREE ENERGY PREDICTED BY IDOCK:   -0.12 KCAL/MOL
REMARK 927      BINDING AFFINITY PREDICTED BY RF-SCORE:    0.00 PKD
ROOT
HETATM    1  C   UNL     1      -7.483  11.533  67.808  1.00  0.00    -0.101 C  
HETATM    2  O   UNL     1      -7.372  12.695  68.632  1.00  0.00    -0.108 OA 
ENDROOT
BRANCH   2   3
HETATM    3  C   UNL     1      -8.350  13.619  68.421  1.00  0.00    -0.147 C  
HETATM    4  O   UNL     1      -8.413  14.715  68.961  1.00  0.00    -0.157 OA 
BRANCH   3   5
HETATM    5  C   UNL     1      -9.340  13.093  67.414  1.00  0.00    -0.213 C  
BRANCH   5   6
HETATM    6  C   UNL     1     -10.754  13.550  67.754  1.00  0.00    -0.262 C  
BRANCH   6   7
HETATM    7  C   UNL     1     -11.807  12.810  66.955  1.00  0.00    -0.371 C  
HETATM    8  O   UNL     1     -12.160  11.663  67.238  1.00  0.00    -0.595 OA 
BRANCH   7   9
HETATM    9  C   UNL     1     -12.347  13.542  65.726  1.00  0.00    -0.468 C  
HETATM   10  N   UNL     1     -11.560  13.197  64.542  1.00  0.00    -0.346 NA 
HETATM   11  H1  UNL     1     -11.920  13.686  63.721  1.00  0.00     0.000 HD 
HETATM   12  H2  UNL     1     -11.516  12.189  64.395  1.00  0.00     0.000 HD 
ENDBRANCH   7   9
ENDBRANCH   6   7
ENDBRANCH   5   6
ENDBRANCH   3   5
ENDBRANCH   2   3
TORSDOF 5
ENDMDL
MODEL      202
REMARK 921   NORMALIZED FREE ENERGY PREDICTED BY IDOCK:   -1.89 KCAL/MOL
REMARK 922        TOTAL FREE ENERGY PREDICTED BY IDOCK:   -2.88 KCAL/MOL
REMARK 923 INTER-LIGAND FREE ENERGY PREDICTED BY IDOCK:   -2.78 KCAL/MOL
REMARK 924 INTRA-LIGAND FREE ENERGY PREDICTED BY IDOCK:   -0.10 KCAL/MOL
REMARK 927      BINDING AFFINITY PREDICTED BY RF-SCORE:    0.00 PKD
ROOT
HETATM    1  C   UNL     1     -11.288  11.243  68.665  1.00  0.00    -0.273 C  
HETATM    2  O   UNL     1     -12.573  10.766  69.071  1.00  0.00    -0.303 OA 
ENDROOT
BRANCH   2   3
HETATM    3  C   UNL     1     -12.626  10.355  70.368  1.00  0.00    -0.254 C  
HETATM    4  O   UNL     1     -13.651  10.223  71.024  1.00  0.00    -0.236 OA 
BRANCH   3   5
HETATM    5  C   UNL     1     -11.234  10.079  70.874  1.00  0.00    -0.415 C  
BRANCH   5   6
HETATM    6  C   UNL     1     -11.267   9.115  72.053  1.00  0.00    -0.310 C  
BRANCH   6   7
HETATM    7  C   UNL     1     -10.038   8.230  72.110  1.00  0.00    -0.274 C  
HETATM    8  O   UNL     1      -8.940   8.655  72.477  1.00  0.00    -0.337 OA 
BRANCH   7   9
HETATM    9  C   UNL     1     -10.224   6.799  71.604  1.00  0.00    -0.191 C  
HETATM   10  N   UNL     1     -10.240   6.774  70.141  1.00  0.00    -0.192 NA 
HETATM   11  H1  UNL     1     -10.365   5.819  69.804  1.00  0.00     0.000 HD 
HETATM   12  H2  UNL     1      -9.409   7.212  69.744  1.00  0.00     0.000 HD 
ENDBRANCH   7   9
ENDBRANCH   6   7
ENDBRANCH   5   6
ENDBRANCH   3   5
ENDBRANCH   2   3
TORSDOF 5
ENDMDL
MODEL      203
REMARK 921   NORMALIZED FREE ENERGY PREDICTED BY IDOCK:   -1.88 KCAL/MOL
REMARK 922        TOTAL FREE ENERGY PREDICTED BY IDOCK:   -2.88 KCAL/MOL
REMARK 923 INTER-LIGAND FREE ENERGY PREDICTED BY IDOCK:   -2.69 KCAL/MOL
REMARK 924 INTRA-LIGAND FREE ENERGY PREDICTED BY IDOCK:   -0.18 KCAL/MOL
REMARK 927      BINDING AFFINITY PREDICTED BY RF-SCORE:    0.00 PKD
ROOT
HETATM    1  C   UNL     1      -8.048   7.181  66.249  1.00  0.00    -0.118 C  
HETATM    2  O   UNL     1      -7.363   8.319  66.775  1.00  0.00    -0.080 OA 
ENDROOT
BRANCH   2   3
HETATM    3  C   UNL     1      -8.184   9.353  67.110  1.00  0.00    -0.113 C  
HETATM    4  O   UNL     1      -7.844  10.351  67.732  1.00  0.00    -0.100 OA 
BRANCH   3   5
HETATM    5  C   UNL     1      -9.575   9.089  66.594  1.00  0.00    -0.274 C  
BRANCH   5   6
HETATM    6  C   UNL     1     -10.201  10.365  66.046  1.00  0.00    -0.295 C  
BRANCH   6   7
HETATM    7  C   UNL     1      -9.972  10.527  64.557  1.00  0.00    -0.345 C  
HETATM    8  O   UNL     1      -9.201   9.798  63.928  1.00  0.00    -0.256 OA 
BRANCH   7   9
HETATM    9  C   UNL     1     -10.694  11.702  63.896  1.00  0.00    -0.398 C  
HETATM   10  N   UNL     1      -9.813  12.869  63.832  1.00  0.00    -0.711 NA 
HETATM   11  H1  UNL     1     -10.295  13.653  63.392  1.00  0.00     0.000 HD 
HETATM   12  H2  UNL     1      -8.931  12.655  63.367  1.00  0.00     0.000 HD 
ENDBRANCH   7   9
ENDBRANCH   6   7
ENDBRANCH   5   6
ENDBRANCH   3   5
ENDBRANCH   2   3
TORSDOF 5
ENDMDL
MODEL      204
REMARK 921   NORMALIZED FREE ENERGY PREDICTED BY IDOCK:   -1.88 KCAL/MOL
REMARK 922        TOTAL FREE ENERGY PREDICTED BY IDOCK:   -2.87 KCAL/MOL
REMARK 923 INTER-LIGAND FREE ENERGY PREDICTED BY IDOCK:   -2.67 KCAL/MOL
REMARK 924 INTRA-LIGAND FREE ENERGY PREDICTED BY IDOCK:   -0.20 KCAL/MOL
REMARK 927      BINDING AFFINITY PREDICTED BY RF-SCORE:    0.00 PKD
ROOT
HETATM    1  C   UNL     1     -10.487  11.511  68.746  1.00  0.00    -0.204 C  
HETATM    2  O   UNL     1     -10.945  10.223  69.161  1.00  0.00    -0.216 OA 
ENDROOT
BRANCH   2   3
HETATM    3  C   UNL     1     -11.117  10.104  70.507  1.00  0.00    -0.327 C  
HETATM    4  O   UNL     1     -11.965  10.693  71.164  1.00  0.00    -0.342 OA 
BRANCH   3   5
HETATM    5  C   UNL     1     -10.112   9.132  71.066  1.00  0.00    -0.373 C  
BRANCH   5   6
HETATM    6  C   UNL     1      -9.887   7.971  70.105  1.00  0.00    -0.184 C  
BRANCH   6   7
HETATM    7  C   UNL     1     -10.710   6.751  70.471  1.00  0.00    -0.238 C  
HETATM    8  O   UNL     1     -11.625   6.339  69.754  1.00  0.00    -0.436 OA 
BRANCH   7   9
HETATM    9  C   UNL     1     -10.389   6.113  71.822  1.00  0.00    -0.210 C  
HETATM   10  N   UNL     1      -9.015   5.610  71.834  1.00  0.00    -0.139 NA 
HETATM   11  H1  UNL     1      -8.801   5.183  72.736  1.00  0.00     0.000 HD 
HETATM   12  H2  UNL     1      -8.342   6.335  71.587  1.00  0.00     0.000 HD 
ENDBRANCH   7   9
ENDBRANCH   6   7
ENDBRANCH   5   6
ENDBRANCH   3   5
ENDBRANCH   2   3
TORSDOF 5
ENDMDL
MODEL      205
REMARK 921   NORMALIZED FREE ENERGY PREDICTED BY IDOCK:   -1.88 KCAL/MOL
REMARK 922        TOTAL FREE ENERGY PREDICTED BY IDOCK:   -2.86 KCAL/MOL
REMARK 923 INTER-LIGAND FREE ENERGY PREDICTED BY IDOCK:   -2.73 KCAL/MOL
REMARK 924 INTRA-LIGAND FREE ENERGY PREDICTED BY IDOCK:   -0.13 KCAL/MOL
REMARK 927      BINDING AFFINITY PREDICTED BY RF-SCORE:    0.00 PKD
ROOT
HETATM    1  C   UNL     1      -5.424  15.921  70.447  1.00  0.00    -0.158 C  
HETATM    2  O   UNL     1      -6.410  16.164  69.443  1.00  0.00    -0.156 OA 
ENDROOT
BRANCH   2   3
HETATM    3  C   UNL     1      -6.408  17.439  68.962  1.00  0.00    -0.220 C  
HETATM    4  O   UNL     1      -5.419  18.150  68.854  1.00  0.00    -0.185 OA 
BRANCH   3   5
HETATM    5  C   UNL     1      -7.808  17.840  68.575  1.00  0.00    -0.290 C  
BRANCH   5   6
HETATM    6  C   UNL     1      -8.774  16.675  68.747  1.00  0.00    -0.260 C  
BRANCH   6   7
HETATM    7  C   UNL     1     -10.217  17.128  68.829  1.00  0.00    -0.332 C  
HETATM    8  O   UNL     1     -10.660  18.039  68.125  1.00  0.00    -0.378 OA 
BRANCH   7   9
HETATM    9  C   UNL     1     -11.071  16.443  69.897  1.00  0.00    -0.310 C  
HETATM   10  N   UNL     1     -10.306  15.382  70.555  1.00  0.00    -0.440 NA 
HETATM   11  H1  UNL     1     -10.876  14.925  71.267  1.00  0.00     0.000 HD 
HETATM   12  H2  UNL     1      -9.426  15.728  70.936  1.00  0.00     0.000 HD 
ENDBRANCH   7   9
ENDBRANCH   6   7
ENDBRANCH   5   6
ENDBRANCH   3   5
ENDBRANCH   2   3
TORSDOF 5
ENDMDL
MODEL      206
REMARK 921   NORMALIZED FREE ENERGY PREDICTED BY IDOCK:   -1.87 KCAL/MOL
REMARK 922        TOTAL FREE ENERGY PREDICTED BY IDOCK:   -2.86 KCAL/MOL
REMARK 923 INTER-LIGAND FREE ENERGY PREDICTED BY IDOCK:   -2.71 KCAL/MOL
REMARK 924 INTRA-LIGAND FREE ENERGY PREDICTED BY IDOCK:   -0.14 KCAL/MOL
REMARK 927      BINDING AFFINITY PREDICTED BY RF-SCORE:    0.00 PKD
ROOT
HETATM    1  C   UNL     1      -7.206  14.629  69.576  1.00  0.00    -0.131 C  
HETATM    2  O   UNL     1      -8.441  14.188  69.009  1.00  0.00    -0.054 OA 
ENDROOT
BRANCH   2   3
HETATM    3  C   UNL     1      -9.425  15.131  69.022  1.00  0.00    -0.221 C  
HETATM    4  O   UNL     1     -10.120  15.411  69.989  1.00  0.00    -0.287 OA 
BRANCH   3   5
HETATM    5  C   UNL     1      -9.524  15.784  67.668  1.00  0.00    -0.218 C  
BRANCH   5   6
HETATM    6  C   UNL     1     -10.856  15.458  67.004  1.00  0.00    -0.320 C  
BRANCH   6   7
HETATM    7  C   UNL     1     -11.147  13.970  66.994  1.00  0.00    -0.304 C  
HETATM    8  O   UNL     1     -11.993  13.462  67.735  1.00  0.00    -0.351 OA 
BRANCH   7   9
HETATM    9  C   UNL     1     -10.271  13.127  66.067  1.00  0.00    -0.286 C  
HETATM   10  N   UNL     1     -10.363  13.620  64.692  1.00  0.00    -0.540 NA 
HETATM   11  H1  UNL     1      -9.778  13.057  64.074  1.00  0.00     0.000 HD 
HETATM   12  H2  UNL     1     -10.139  14.613  64.628  1.00  0.00     0.000 HD 
ENDBRANCH   7   9
ENDBRANCH   6   7
ENDBRANCH   5   6
ENDBRANCH   3   5
ENDBRANCH   2   3
TORSDOF 5
ENDMDL
MODEL      207
REMARK 921   NORMALIZED FREE ENERGY PREDICTED BY IDOCK:   -1.86 KCAL/MOL
REMARK 922        TOTAL FREE ENERGY PREDICTED BY IDOCK:   -2.85 KCAL/MOL
REMARK 923 INTER-LIGAND FREE ENERGY PREDICTED BY IDOCK:   -2.68 KCAL/MOL
REMARK 924 INTRA-LIGAND FREE ENERGY PREDICTED BY IDOCK:   -0.17 KCAL/MOL
REMARK 927      BINDING AFFINITY PREDICTED BY RF-SCORE:    0.00 PKD
ROOT
HETATM    1  C   UNL     1     -12.949  11.358  71.470  1.00  0.00    -0.399 C  
HETATM    2  O   UNL     1     -12.068  11.107  70.374  1.00  0.00    -0.326 OA 
ENDROOT
BRANCH   2   3
HETATM    3  C   UNL     1     -11.365   9.945  70.483  1.00  0.00    -0.327 C  
HETATM    4  O   UNL     1     -11.111   9.371  71.533  1.00  0.00    -0.355 OA 
BRANCH   3   5
HETATM    5  C   UNL     1     -10.954   9.467  69.114  1.00  0.00    -0.148 C  
BRANCH   5   6
HETATM    6  C   UNL     1     -10.026   8.263  69.216  1.00  0.00    -0.192 C  
BRANCH   6   7
HETATM    7  C   UNL     1     -10.711   6.970  68.823  1.00  0.00    -0.194 C  
HETATM    8  O   UNL     1     -11.570   6.441  69.532  1.00  0.00    -0.404 OA 
BRANCH   7   9
HETATM    9  C   UNL     1     -10.214   6.319  67.532  1.00  0.00    -0.173 C  
HETATM   10  N   UNL     1      -9.372   7.253  66.783  1.00  0.00    -0.156 NA 
HETATM   11  H1  UNL     1      -9.040   6.818  65.921  1.00  0.00     0.000 HD 
HETATM   12  H2  UNL     1      -8.603   7.611  67.349  1.00  0.00     0.000 HD 
ENDBRANCH   7   9
ENDBRANCH   6   7
ENDBRANCH   5   6
ENDBRANCH   3   5
ENDBRANCH   2   3
TORSDOF 5
ENDMDL
MODEL      208
REMARK 921   NORMALIZED FREE ENERGY PREDICTED BY IDOCK:   -1.86 KCAL/MOL
REMARK 922        TOTAL FREE ENERGY PREDICTED BY IDOCK:   -2.84 KCAL/MOL
REMARK 923 INTER-LIGAND FREE ENERGY PREDICTED BY IDOCK:   -2.77 KCAL/MOL
REMARK 924 INTRA-LIGAND FREE ENERGY PREDICTED BY IDOCK:   -0.07 KCAL/MOL
REMARK 927      BINDING AFFINITY PREDICTED BY RF-SCORE:    0.00 PKD
ROOT
HETATM    1  C   UNL     1      -9.887  15.756  68.065  1.00  0.00    -0.217 C  
HETATM    2  O   UNL     1     -11.289  15.483  68.111  1.00  0.00    -0.328 OA 
ENDROOT
BRANCH   2   3
HETATM    3  C   UNL     1     -11.728  15.045  69.324  1.00  0.00    -0.323 C  
HETATM    4  O   UNL     1     -11.799  15.728  70.337  1.00  0.00    -0.332 OA 
BRANCH   3   5
HETATM    5  C   UNL     1     -12.120  13.593  69.231  1.00  0.00    -0.360 C  
BRANCH   5   6
HETATM    6  C   UNL     1     -12.272  12.982  70.619  1.00  0.00    -0.390 C  
BRANCH   6   7
HETATM    7  C   UNL     1     -12.287  11.467  70.584  1.00  0.00    -0.364 C  
HETATM    8  O   UNL     1     -12.382  10.836  69.529  1.00  0.00    -0.305 OA 
BRANCH   7   9
HETATM    9  C   UNL     1     -12.258  10.770  71.945  1.00  0.00     0.293 C  
HETATM   10  N   UNL     1     -13.274   9.718  71.998  1.00  0.00    -0.444 NA 
HETATM   11  H1  UNL     1     -13.255   9.252  72.906  1.00  0.00     0.000 HD 
HETATM   12  H2  UNL     1     -13.176   9.055  71.229  1.00  0.00     0.000 HD 
ENDBRANCH   7   9
ENDBRANCH   6   7
ENDBRANCH   5   6
ENDBRANCH   3   5
ENDBRANCH   2   3
TORSDOF 5
ENDMDL
MODEL      209
REMARK 921   NORMALIZED FREE ENERGY PREDICTED BY IDOCK:   -1.86 KCAL/MOL
REMARK 922        TOTAL FREE ENERGY PREDICTED BY IDOCK:   -2.84 KCAL/MOL
REMARK 923 INTER-LIGAND FREE ENERGY PREDICTED BY IDOCK:   -2.82 KCAL/MOL
REMARK 924 INTRA-LIGAND FREE ENERGY PREDICTED BY IDOCK:   -0.02 KCAL/MOL
REMARK 927      BINDING AFFINITY PREDICTED BY RF-SCORE:    0.00 PKD
ROOT
HETATM    1  C   UNL     1     -11.906  14.430  68.993  1.00  0.00    -0.323 C  
HETATM    2  O   UNL     1     -11.021  13.437  68.470  1.00  0.00    -0.249 OA 
ENDROOT
BRANCH   2   3
HETATM    3  C   UNL     1     -11.634  12.505  67.688  1.00  0.00    -0.355 C  
HETATM    4  O   UNL     1     -12.106  12.716  66.579  1.00  0.00    -0.525 OA 
BRANCH   3   5
HETATM    5  C   UNL     1     -11.637  11.172  68.390  1.00  0.00    -0.376 C  
BRANCH   5   6
HETATM    6  C   UNL     1     -10.247  10.830  68.911  1.00  0.00    -0.219 C  
BRANCH   6   7
HETATM    7  C   UNL     1     -10.241   9.575  69.760  1.00  0.00    -0.228 C  
HETATM    8  O   UNL     1      -9.830   9.572  70.923  1.00  0.00    -0.275 OA 
BRANCH   7   9
HETATM    9  C   UNL     1     -10.700   8.295  69.060  1.00  0.00    -0.079 C  
HETATM   10  N   UNL     1     -10.158   8.237  67.702  1.00  0.00    -0.193 NA 
HETATM   11  H1  UNL     1     -10.464   7.383  67.235  1.00  0.00     0.000 HD 
HETATM   12  H2  UNL     1      -9.143   8.332  67.693  1.00  0.00     0.000 HD 
ENDBRANCH   7   9
ENDBRANCH   6   7
ENDBRANCH   5   6
ENDBRANCH   3   5
ENDBRANCH   2   3
TORSDOF 5
ENDMDL
MODEL      210
REMARK 921   NORMALIZED FREE ENERGY PREDICTED BY IDOCK:   -1.84 KCAL/MOL
REMARK 922        TOTAL FREE ENERGY PREDICTED BY IDOCK:   -2.82 KCAL/MOL
REMARK 923 INTER-LIGAND FREE ENERGY PREDICTED BY IDOCK:   -2.64 KCAL/MOL
REMARK 924 INTRA-LIGAND FREE ENERGY PREDICTED BY IDOCK:   -0.19 KCAL/MOL
REMARK 927      BINDING AFFINITY PREDICTED BY RF-SCORE:    0.00 PKD
ROOT
HETATM    1  C   UNL     1      -8.937   5.499  67.894  1.00  0.00    -0.108 C  
HETATM    2  O   UNL     1      -9.143   6.908  68.017  1.00  0.00    -0.122 OA 
ENDROOT
BRANCH   2   3
HETATM    3  C   UNL     1     -10.245   7.366  67.359  1.00  0.00    -0.246 C  
HETATM    4  O   UNL     1     -11.275   6.731  67.183  1.00  0.00    -0.379 OA 
BRANCH   3   5
HETATM    5  C   UNL     1     -10.007   8.777  66.887  1.00  0.00    -0.327 C  
BRANCH   5   6
HETATM    6  C   UNL     1     -10.837   9.766  67.695  1.00  0.00    -0.301 C  
BRANCH   6   7
HETATM    7  C   UNL     1     -10.192  10.111  69.023  1.00  0.00    -0.206 C  
HETATM    8  O   UNL     1      -8.983  10.329  69.128  1.00  0.00    -0.160 OA 
BRANCH   7   9
HETATM    9  C   UNL     1     -11.119  10.092  70.238  1.00  0.00    -0.318 C  
HETATM   10  N   UNL     1     -11.668  11.427  70.481  1.00  0.00    -0.470 NA 
HETATM   11  H1  UNL     1     -12.287  11.414  71.292  1.00  0.00     0.000 HD 
HETATM   12  H2  UNL     1     -12.132  11.803  69.655  1.00  0.00     0.000 HD 
ENDBRANCH   7   9
ENDBRANCH   6   7
ENDBRANCH   5   6
ENDBRANCH   3   5
ENDBRANCH   2   3
TORSDOF 5
ENDMDL
MODEL      211
REMARK 921   NORMALIZED FREE ENERGY PREDICTED BY IDOCK:   -1.84 KCAL/MOL
REMARK 922        TOTAL FREE ENERGY PREDICTED BY IDOCK:   -2.81 KCAL/MOL
REMARK 923 INTER-LIGAND FREE ENERGY PREDICTED BY IDOCK:   -2.66 KCAL/MOL
REMARK 924 INTRA-LIGAND FREE ENERGY PREDICTED BY IDOCK:   -0.15 KCAL/MOL
REMARK 927      BINDING AFFINITY PREDICTED BY RF-SCORE:    0.00 PKD
ROOT
HETATM    1  C   UNL     1      -5.800  16.894  67.632  1.00  0.00    -0.140 C  
HETATM    2  O   UNL     1      -6.651  17.942  67.165  1.00  0.00    -0.165 OA 
ENDROOT
BRANCH   2   3
HETATM    3  C   UNL     1      -7.526  18.403  68.102  1.00  0.00    -0.267 C  
HETATM    4  O   UNL     1      -7.587  19.557  68.502  1.00  0.00    -0.320 OA 
BRANCH   3   5
HETATM    5  C   UNL     1      -8.417  17.279  68.566  1.00  0.00    -0.267 C  
BRANCH   5   6
HETATM    6  C   UNL     1      -9.441  16.922  67.496  1.00  0.00    -0.241 C  
BRANCH   6   7
HETATM    7  C   UNL     1      -9.716  15.433  67.434  1.00  0.00    -0.215 C  
HETATM    8  O   UNL     1      -8.870  14.596  67.759  1.00  0.00    -0.167 OA 
BRANCH   7   9
HETATM    9  C   UNL     1     -11.077  15.031  66.866  1.00  0.00    -0.331 C  
HETATM   10  N   UNL     1     -12.029  14.785  67.951  1.00  0.00    -0.548 NA 
HETATM   11  H1  UNL     1     -12.937  14.516  67.573  1.00  0.00     0.000 HD 
HETATM   12  H2  UNL     1     -12.100  15.583  68.582  1.00  0.00     0.000 HD 
ENDBRANCH   7   9
ENDBRANCH   6   7
ENDBRANCH   5   6
ENDBRANCH   3   5
ENDBRANCH   2   3
TORSDOF 5
ENDMDL
MODEL      212
REMARK 921   NORMALIZED FREE ENERGY PREDICTED BY IDOCK:   -1.83 KCAL/MOL
REMARK 922        TOTAL FREE ENERGY PREDICTED BY IDOCK:   -2.81 KCAL/MOL
REMARK 923 INTER-LIGAND FREE ENERGY PREDICTED BY IDOCK:   -2.65 KCAL/MOL
REMARK 924 INTRA-LIGAND FREE ENERGY PREDICTED BY IDOCK:   -0.15 KCAL/MOL
REMARK 927      BINDING AFFINITY PREDICTED BY RF-SCORE:    0.00 PKD
ROOT
HETATM    1  C   UNL     1      -8.554   6.792  67.098  1.00  0.00    -0.120 C  
HETATM    2  O   UNL     1      -9.926   7.149  66.922  1.00  0.00    -0.194 OA 
ENDROOT
BRANCH   2   3
HETATM    3  C   UNL     1     -10.240   8.389  67.391  1.00  0.00    -0.260 C  
HETATM    4  O   UNL     1     -10.262   9.412  66.720  1.00  0.00    -0.238 OA 
BRANCH   3   5
HETATM    5  C   UNL     1     -10.565   8.312  68.860  1.00  0.00    -0.160 C  
BRANCH   5   6
HETATM    6  C   UNL     1     -10.013   9.523  69.602  1.00  0.00    -0.220 C  
BRANCH   6   7
HETATM    7  C   UNL     1     -11.110  10.407  70.160  1.00  0.00    -0.314 C  
HETATM    8  O   UNL     1     -11.325  11.540  69.723  1.00  0.00    -0.266 OA 
BRANCH   7   9
HETATM    9  C   UNL     1     -11.880   9.840  71.353  1.00  0.00    -0.408 C  
HETATM   10  N   UNL     1     -12.933  10.769  71.766  1.00  0.00    -0.474 NA 
HETATM   11  H1  UNL     1     -13.447  10.390  72.563  1.00  0.00     0.000 HD 
HETATM   12  H2  UNL     1     -13.553  11.009  70.993  1.00  0.00     0.000 HD 
ENDBRANCH   7   9
ENDBRANCH   6   7
ENDBRANCH   5   6
ENDBRANCH   3   5
ENDBRANCH   2   3
TORSDOF 5
ENDMDL
MODEL      213
REMARK 921   NORMALIZED FREE ENERGY PREDICTED BY IDOCK:   -1.83 KCAL/MOL
REMARK 922        TOTAL FREE ENERGY PREDICTED BY IDOCK:   -2.80 KCAL/MOL
REMARK 923 INTER-LIGAND FREE ENERGY PREDICTED BY IDOCK:   -2.63 KCAL/MOL
REMARK 924 INTRA-LIGAND FREE ENERGY PREDICTED BY IDOCK:   -0.18 KCAL/MOL
REMARK 927      BINDING AFFINITY PREDICTED BY RF-SCORE:    0.00 PKD
ROOT
HETATM    1  C   UNL     1      -7.533   7.462  73.562  1.00  0.00    -0.095 C  
HETATM    2  O   UNL     1      -8.870   7.061  73.870  1.00  0.00    -0.150 OA 
ENDROOT
BRANCH   2   3
HETATM    3  C   UNL     1      -9.361   6.094  73.046  1.00  0.00    -0.139 C  
HETATM    4  O   UNL     1      -8.687   5.262  72.455  1.00  0.00    -0.124 OA 
BRANCH   3   5
HETATM    5  C   UNL     1     -10.863   6.197  72.977  1.00  0.00    -0.284 C  
BRANCH   5   6
HETATM    6  C   UNL     1     -11.290   7.579  72.498  1.00  0.00    -0.384 C  
BRANCH   6   7
HETATM    7  C   UNL     1     -11.334   7.678  70.987  1.00  0.00    -0.272 C  
HETATM    8  O   UNL     1     -11.218   8.755  70.396  1.00  0.00    -0.253 OA 
BRANCH   7   9
HETATM    9  C   UNL     1     -11.613   6.372  70.242  1.00  0.00    -0.383 C  
HETATM   10  N   UNL     1     -11.210   6.491  68.839  1.00  0.00    -0.542 NA 
HETATM   11  H1  UNL     1     -11.396   5.619  68.342  1.00  0.00     0.000 HD 
HETATM   12  H2  UNL     1     -10.237   6.781  68.746  1.00  0.00     0.000 HD 
ENDBRANCH   7   9
ENDBRANCH   6   7
ENDBRANCH   5   6
ENDBRANCH   3   5
ENDBRANCH   2   3
TORSDOF 5
ENDMDL
MODEL      214
REMARK 921   NORMALIZED FREE ENERGY PREDICTED BY IDOCK:   -1.82 KCAL/MOL
REMARK 922        TOTAL FREE ENERGY PREDICTED BY IDOCK:   -2.79 KCAL/MOL
REMARK 923 INTER-LIGAND FREE ENERGY PREDICTED BY IDOCK:   -2.65 KCAL/MOL
REMARK 924 INTRA-LIGAND FREE ENERGY PREDICTED BY IDOCK:   -0.14 KCAL/MOL
REMARK 927      BINDING AFFINITY PREDICTED BY RF-SCORE:    0.00 PKD
ROOT
HETATM    1  C   UNL     1     -12.822  10.761  71.741  1.00  0.00    -0.423 C  
HETATM    2  O   UNL     1     -12.094  11.722  70.973  1.00  0.00    -0.277 OA 
ENDROOT
BRANCH   2   3
HETATM    3  C   UNL     1     -11.617  11.239  69.792  1.00  0.00    -0.333 C  
HETATM    4  O   UNL     1     -11.783  10.100  69.377  1.00  0.00    -0.153 OA 
BRANCH   3   5
HETATM    5  C   UNL     1     -10.861  12.322  69.067  1.00  0.00    -0.197 C  
BRANCH   5   6
HETATM    6  C   UNL     1     -11.818  13.345  68.469  1.00  0.00    -0.401 C  
BRANCH   6   7
HETATM    7  C   UNL     1     -11.674  14.712  69.107  1.00  0.00    -0.309 C  
HETATM    8  O   UNL     1     -12.651  15.388  69.438  1.00  0.00    -0.096 OA 
BRANCH   7   9
HETATM    9  C   UNL     1     -10.244  15.237  69.240  1.00  0.00    -0.250 C  
HETATM   10  N   UNL     1      -9.667  15.482  67.918  1.00  0.00    -0.211 NA 
HETATM   11  H1  UNL     1      -8.712  15.832  68.007  1.00  0.00     0.000 HD 
HETATM   12  H2  UNL     1     -10.249  16.103  67.357  1.00  0.00     0.000 HD 
ENDBRANCH   7   9
ENDBRANCH   6   7
ENDBRANCH   5   6
ENDBRANCH   3   5
ENDBRANCH   2   3
TORSDOF 5
ENDMDL
MODEL      215
REMARK 921   NORMALIZED FREE ENERGY PREDICTED BY IDOCK:   -1.82 KCAL/MOL
REMARK 922        TOTAL FREE ENERGY PREDICTED BY IDOCK:   -2.79 KCAL/MOL
REMARK 923 INTER-LIGAND FREE ENERGY PREDICTED BY IDOCK:   -2.62 KCAL/MOL
REMARK 924 INTRA-LIGAND FREE ENERGY PREDICTED BY IDOCK:   -0.17 KCAL/MOL
REMARK 927      BINDING AFFINITY PREDICTED BY RF-SCORE:    0.00 PKD
ROOT
HETATM    1  C   UNL     1     -12.610  10.214  71.430  1.00  0.00    -0.422 C  
HETATM    2  O   UNL     1     -11.473   9.488  71.900  1.00  0.00    -0.355 OA 
ENDROOT
BRANCH   2   3
HETATM    3  C   UNL     1     -10.592   9.144  70.919  1.00  0.00    -0.273 C  
HETATM    4  O   UNL     1     -10.330   9.826  69.937  1.00  0.00    -0.219 OA 
BRANCH   3   5
HETATM    5  C   UNL     1      -9.981   7.803  71.229  1.00  0.00    -0.199 C  
BRANCH   5   6
HETATM    6  C   UNL     1      -9.991   7.535  72.728  1.00  0.00    -0.280 C  
BRANCH   6   7
HETATM    7  C   UNL     1     -10.808   6.311  73.091  1.00  0.00    -0.254 C  
HETATM    8  O   UNL     1     -11.770   5.941  72.414  1.00  0.00    -0.309 OA 
BRANCH   7   9
HETATM    9  C   UNL     1     -10.418   5.612  74.393  1.00  0.00    -0.192 C  
HETATM   10  N   UNL     1      -9.181   4.851  74.211  1.00  0.00    -0.116 NA 
HETATM   11  H1  UNL     1      -8.920   4.384  75.080  1.00  0.00     0.000 HD 
HETATM   12  H2  UNL     1      -8.425   5.434  73.851  1.00  0.00     0.000 HD 
ENDBRANCH   7   9
ENDBRANCH   6   7
ENDBRANCH   5   6
ENDBRANCH   3   5
ENDBRANCH   2   3
TORSDOF 5
ENDMDL
MODEL      216
REMARK 921   NORMALIZED FREE ENERGY PREDICTED BY IDOCK:   -1.80 KCAL/MOL
REMARK 922        TOTAL FREE ENERGY PREDICTED BY IDOCK:   -2.77 KCAL/MOL
REMARK 923 INTER-LIGAND FREE ENERGY PREDICTED BY IDOCK:   -2.62 KCAL/MOL
REMARK 924 INTRA-LIGAND FREE ENERGY PREDICTED BY IDOCK:   -0.15 KCAL/MOL
REMARK 927      BINDING AFFINITY PREDICTED BY RF-SCORE:    0.00 PKD
ROOT
HETATM    1  C   UNL     1      -8.049  10.889  68.179  1.00  0.00    -0.119 C  
HETATM    2  O   UNL     1      -9.404  11.303  67.989  1.00  0.00    -0.156 OA 
ENDROOT
BRANCH   2   3
HETATM    3  C   UNL     1     -10.317  10.519  68.627  1.00  0.00    -0.185 C  
HETATM    4  O   UNL     1     -11.454  10.860  68.923  1.00  0.00    -0.255 OA 
BRANCH   3   5
HETATM    5  C   UNL     1      -9.720   9.164  68.907  1.00  0.00    -0.165 C  
BRANCH   5   6
HETATM    6  C   UNL     1     -10.725   8.263  69.613  1.00  0.00    -0.196 C  
BRANCH   6   7
HETATM    7  C   UNL     1     -10.907   6.935  68.905  1.00  0.00    -0.207 C  
HETATM    8  O   UNL     1     -11.347   5.939  69.484  1.00  0.00    -0.361 OA 
BRANCH   7   9
HETATM    9  C   UNL     1     -10.434   6.885  67.452  1.00  0.00    -0.269 C  
HETATM   10  N   UNL     1     -11.389   6.137  66.632  1.00  0.00    -0.706 NA 
HETATM   11  H1  UNL     1     -11.073   6.103  65.663  1.00  0.00     0.000 HD 
HETATM   12  H2  UNL     1     -12.334   6.512  66.712  1.00  0.00     0.000 HD 
ENDBRANCH   7   9
ENDBRANCH   6   7
ENDBRANCH   5   6
ENDBRANCH   3   5
ENDBRANCH   2   3
TORSDOF 5
ENDMDL
MODEL      217
REMARK 921   NORMALIZED FREE ENERGY PREDICTED BY IDOCK:   -1.80 KCAL/MOL
REMARK 922        TOTAL FREE ENERGY PREDICTED BY IDOCK:   -2.76 KCAL/MOL
REMARK 923 INTER-LIGAND FREE ENERGY PREDICTED BY IDOCK:   -2.41 KCAL/MOL
REMARK 924 INTRA-LIGAND FREE ENERGY PREDICTED BY IDOCK:   -0.35 KCAL/MOL
REMARK 927      BINDING AFFINITY PREDICTED BY RF-SCORE:    0.00 PKD
ROOT
HETATM    1  C   UNL     1      -6.371   7.045  69.475  1.00  0.00    -0.035 C  
HETATM    2  O   UNL     1      -7.290   8.118  69.260  1.00  0.00    -0.073 OA 
ENDROOT
BRANCH   2   3
HETATM    3  C   UNL     1      -8.573   7.826  69.614  1.00  0.00    -0.135 C  
HETATM    4  O   UNL     1      -9.233   6.898  69.168  1.00  0.00    -0.142 OA 
BRANCH   3   5
HETATM    5  C   UNL     1      -9.056   8.814  70.644  1.00  0.00    -0.221 C  
BRANCH   5   6
HETATM    6  C   UNL     1      -9.291   8.130  71.984  1.00  0.00    -0.266 C  
BRANCH   6   7
HETATM    7  C   UNL     1     -10.761   8.052  72.343  1.00  0.00    -0.320 C  
HETATM    8  O   UNL     1     -11.147   7.667  73.450  1.00  0.00    -0.337 OA 
BRANCH   7   9
HETATM    9  C   UNL     1     -11.740   8.400  71.221  1.00  0.00    -0.285 C  
HETATM   10  N   UNL     1     -12.186   7.185  70.539  1.00  0.00    -0.593 NA 
HETATM   11  H1  UNL     1     -12.839   7.417  69.790  1.00  0.00     0.000 HD 
HETATM   12  H2  UNL     1     -12.581   6.506  71.191  1.00  0.00     0.000 HD 
ENDBRANCH   7   9
ENDBRANCH   6   7
ENDBRANCH   5   6
ENDBRANCH   3   5
ENDBRANCH   2   3
TORSDOF 5
ENDMDL
MODEL      218
REMARK 921   NORMALIZED FREE ENERGY PREDICTED BY IDOCK:   -1.80 KCAL/MOL
REMARK 922        TOTAL FREE ENERGY PREDICTED BY IDOCK:   -2.76 KCAL/MOL
REMARK 923 INTER-LIGAND FREE ENERGY PREDICTED BY IDOCK:   -2.59 KCAL/MOL
REMARK 924 INTRA-LIGAND FREE ENERGY PREDICTED BY IDOCK:   -0.17 KCAL/MOL
REMARK 927      BINDING AFFINITY PREDICTED BY RF-SCORE:    0.00 PKD
ROOT
HETATM    1  C   UNL     1     -14.397   7.941  71.607  1.00  0.00    -0.479 C  
HETATM    2  O   UNL     1     -13.296   7.123  71.206  1.00  0.00    -0.368 OA 
ENDROOT
BRANCH   2   3
HETATM    3  C   UNL     1     -12.076   7.667  71.474  1.00  0.00    -0.310 C  
HETATM    4  O   UNL     1     -11.617   8.667  70.938  1.00  0.00    -0.277 OA 
BRANCH   3   5
HETATM    5  C   UNL     1     -11.378   6.858  72.536  1.00  0.00    -0.291 C  
BRANCH   5   6
HETATM    6  C   UNL     1     -10.181   7.616  73.097  1.00  0.00    -0.401 C  
BRANCH   6   7
HETATM    7  C   UNL     1      -8.879   7.208  72.439  1.00  0.00    -0.127 C  
HETATM    8  O   UNL     1      -8.340   7.895  71.568  1.00  0.00    -0.104 OA 
BRANCH   7   9
HETATM    9  C   UNL     1      -8.316   5.851  72.863  1.00  0.00    -0.118 C  
HETATM   10  N   UNL     1      -8.144   4.985  71.695  1.00  0.00    -0.112 NA 
HETATM   11  H1  UNL     1      -7.769   4.079  71.978  1.00  0.00     0.000 HD 
HETATM   12  H2  UNL     1      -7.572   5.425  70.975  1.00  0.00     0.000 HD 
ENDBRANCH   7   9
ENDBRANCH   6   7
ENDBRANCH   5   6
ENDBRANCH   3   5
ENDBRANCH   2   3
TORSDOF 5
ENDMDL
MODEL      219
REMARK 921   NORMALIZED FREE ENERGY PREDICTED BY IDOCK:   -1.79 KCAL/MOL
REMARK 922        TOTAL FREE ENERGY PREDICTED BY IDOCK:   -2.75 KCAL/MOL
REMARK 923 INTER-LIGAND FREE ENERGY PREDICTED BY IDOCK:   -2.59 KCAL/MOL
REMARK 924 INTRA-LIGAND FREE ENERGY PREDICTED BY IDOCK:   -0.17 KCAL/MOL
REMARK 927      BINDING AFFINITY PREDICTED BY RF-SCORE:    0.00 PKD
ROOT
HETATM    1  C   UNL     1     -10.302  14.770  68.013  1.00  0.00    -0.237 C  
HETATM    2  O   UNL     1     -11.022  15.675  67.174  1.00  0.00    -0.319 OA 
ENDROOT
BRANCH   2   3
HETATM    3  C   UNL     1     -10.369  16.846  66.934  1.00  0.00    -0.304 C  
HETATM    4  O   UNL     1     -10.803  17.961  67.192  1.00  0.00    -0.284 OA 
BRANCH   3   5
HETATM    5  C   UNL     1      -9.027  16.564  66.309  1.00  0.00    -0.359 C  
BRANCH   5   6
HETATM    6  C   UNL     1      -7.952  17.465  66.904  1.00  0.00    -0.257 C  
BRANCH   6   7
HETATM    7  C   UNL     1      -6.802  16.677  67.498  1.00  0.00    -0.151 C  
HETATM    8  O   UNL     1      -6.564  15.513  67.167  1.00  0.00    -0.283 OA 
BRANCH   7   9
HETATM    9  C   UNL     1      -6.004  17.386  68.592  1.00  0.00    -0.168 C  
HETATM   10  N   UNL     1      -6.311  18.817  68.599  1.00  0.00    -0.226 NA 
HETATM   11  H1  UNL     1      -5.779  19.291  69.330  1.00  0.00     0.000 HD 
HETATM   12  H2  UNL     1      -7.312  18.991  68.685  1.00  0.00     0.000 HD 
ENDBRANCH   7   9
ENDBRANCH   6   7
ENDBRANCH   5   6
ENDBRANCH   3   5
ENDBRANCH   2   3
TORSDOF 5
ENDMDL
MODEL      220
REMARK 921   NORMALIZED FREE ENERGY PREDICTED BY IDOCK:   -1.79 KCAL/MOL
REMARK 922        TOTAL FREE ENERGY PREDICTED BY IDOCK:   -2.75 KCAL/MOL
REMARK 923 INTER-LIGAND FREE ENERGY PREDICTED BY IDOCK:   -2.51 KCAL/MOL
REMARK 924 INTRA-LIGAND FREE ENERGY PREDICTED BY IDOCK:   -0.24 KCAL/MOL
REMARK 927      BINDING AFFINITY PREDICTED BY RF-SCORE:    0.00 PKD
ROOT
HETATM    1  C   UNL     1      -8.153  11.004  67.648  1.00  0.00    -0.116 C  
HETATM    2  O   UNL     1      -8.724  10.758  68.935  1.00  0.00    -0.153 OA 
ENDROOT
BRANCH   2   3
HETATM    3  C   UNL     1      -9.680   9.788  68.940  1.00  0.00    -0.171 C  
HETATM    4  O   UNL     1      -9.715   8.829  68.181  1.00  0.00    -0.150 OA 
BRANCH   3   5
HETATM    5  C   UNL     1     -10.684  10.067  70.028  1.00  0.00    -0.348 C  
BRANCH   5   6
HETATM    6  C   UNL     1     -10.282   9.381  71.327  1.00  0.00    -0.340 C  
BRANCH   6   7
HETATM    7  C   UNL     1     -10.680   7.919  71.355  1.00  0.00    -0.224 C  
HETATM    8  O   UNL     1      -9.872   7.024  71.617  1.00  0.00    -0.165 OA 
BRANCH   7   9
HETATM    9  C   UNL     1     -12.125   7.614  70.958  1.00  0.00    -0.258 C  
HETATM   10  N   UNL     1     -12.158   6.633  69.872  1.00  0.00    -0.579 NA 
HETATM   11  H1  UNL     1     -13.122   6.430  69.607  1.00  0.00     0.000 HD 
HETATM   12  H2  UNL     1     -11.642   5.786  70.109  1.00  0.00     0.000 HD 
ENDBRANCH   7   9
ENDBRANCH   6   7
ENDBRANCH   5   6
ENDBRANCH   3   5
ENDBRANCH   2   3
TORSDOF 5
ENDMDL
MODEL      221
REMARK 921   NORMALIZED FREE ENERGY PREDICTED BY IDOCK:   -1.76 KCAL/MOL
REMARK 922        TOTAL FREE ENERGY PREDICTED BY IDOCK:   -2.72 KCAL/MOL
REMARK 923 INTER-LIGAND FREE ENERGY PREDICTED BY IDOCK:   -2.36 KCAL/MOL
REMARK 924 INTRA-LIGAND FREE ENERGY PREDICTED BY IDOCK:   -0.36 KCAL/MOL
REMARK 927      BINDING AFFINITY PREDICTED BY RF-SCORE:    0.00 PKD
ROOT
HETATM    1  C   UNL     1     -10.246   4.930  69.886  1.00  0.00    -0.229 C  
HETATM    2  O   UNL     1      -9.489   6.108  69.605  1.00  0.00    -0.144 OA 
ENDROOT
BRANCH   2   3
HETATM    3  C   UNL     1      -8.506   6.364  70.513  1.00  0.00    -0.138 C  
HETATM    4  O   UNL     1      -7.312   6.441  70.257  1.00  0.00    -0.083 OA 
BRANCH   3   5
HETATM    5  C   UNL     1      -9.110   6.549  71.881  1.00  0.00    -0.148 C  
BRANCH   5   6
HETATM    6  C   UNL     1      -9.063   8.012  72.303  1.00  0.00    -0.237 C  
BRANCH   6   7
HETATM    7  C   UNL     1      -9.854   8.907  71.371  1.00  0.00    -0.306 C  
HETATM    8  O   UNL     1      -9.306   9.635  70.539  1.00  0.00    -0.253 OA 
BRANCH   7   9
HETATM    9  C   UNL     1     -11.368   8.914  71.581  1.00  0.00    -0.337 C  
HETATM   10  N   UNL     1     -12.026   8.085  70.570  1.00  0.00    -0.483 NA 
HETATM   11  H1  UNL     1     -13.037   8.090  70.710  1.00  0.00     0.000 HD 
HETATM   12  H2  UNL     1     -11.649   7.138  70.551  1.00  0.00     0.000 HD 
ENDBRANCH   7   9
ENDBRANCH   6   7
ENDBRANCH   5   6
ENDBRANCH   3   5
ENDBRANCH   2   3
TORSDOF 5
ENDMDL
MODEL      222
REMARK 921   NORMALIZED FREE ENERGY PREDICTED BY IDOCK:   -1.76 KCAL/MOL
REMARK 922        TOTAL FREE ENERGY PREDICTED BY IDOCK:   -2.71 KCAL/MOL
REMARK 923 INTER-LIGAND FREE ENERGY PREDICTED BY IDOCK:   -2.59 KCAL/MOL
REMARK 924 INTRA-LIGAND FREE ENERGY PREDICTED BY IDOCK:   -0.13 KCAL/MOL
REMARK 927      BINDING AFFINITY PREDICTED BY RF-SCORE:    0.00 PKD
ROOT
HETATM    1  C   UNL     1     -11.026   6.711  67.238  1.00  0.00    -0.385 C  
HETATM    2  O   UNL     1     -10.392   7.913  66.796  1.00  0.00    -0.309 OA 
ENDROOT
BRANCH   2   3
HETATM    3  C   UNL     1      -9.259   8.227  67.484  1.00  0.00    -0.137 C  
HETATM    4  O   UNL     1      -8.651   7.466  68.225  1.00  0.00    -0.124 OA 
BRANCH   3   5
HETATM    5  C   UNL     1      -8.861   9.650  67.191  1.00  0.00    -0.141 C  
BRANCH   5   6
HETATM    6  C   UNL     1     -10.091  10.523  66.971  1.00  0.00    -0.259 C  
BRANCH   6   7
HETATM    7  C   UNL     1     -10.125  11.717  67.904  1.00  0.00    -0.187 C  
HETATM    8  O   UNL     1      -9.141  12.064  68.561  1.00  0.00    -0.178 OA 
BRANCH   7   9
HETATM    9  C   UNL     1     -11.478  12.414  68.043  1.00  0.00    -0.322 C  
HETATM   10  N   UNL     1     -12.152  12.480  66.745  1.00  0.00    -0.546 NA 
HETATM   11  H1  UNL     1     -13.056  12.945  66.838  1.00  0.00     0.000 HD 
HETATM   12  H2  UNL     1     -12.241  11.559  66.316  1.00  0.00     0.000 HD 
ENDBRANCH   7   9
ENDBRANCH   6   7
ENDBRANCH   5   6
ENDBRANCH   3   5
ENDBRANCH   2   3
TORSDOF 5
ENDMDL
MODEL      223
REMARK 921   NORMALIZED FREE ENERGY PREDICTED BY IDOCK:   -1.76 KCAL/MOL
REMARK 922        TOTAL FREE ENERGY PREDICTED BY IDOCK:   -2.71 KCAL/MOL
REMARK 923 INTER-LIGAND FREE ENERGY PREDICTED BY IDOCK:   -2.44 KCAL/MOL
REMARK 924 INTRA-LIGAND FREE ENERGY PREDICTED BY IDOCK:   -0.27 KCAL/MOL
REMARK 927      BINDING AFFINITY PREDICTED BY RF-SCORE:    0.00 PKD
ROOT
HETATM    1  C   UNL     1     -11.587   9.162  71.805  1.00  0.00    -0.387 C  
HETATM    2  O   UNL     1     -11.296   7.978  72.550  1.00  0.00    -0.353 OA 
ENDROOT
BRANCH   2   3
HETATM    3  C   UNL     1     -11.741   6.831  71.964  1.00  0.00    -0.306 C  
HETATM    4  O   UNL     1     -12.314   6.768  70.885  1.00  0.00    -0.381 OA 
BRANCH   3   5
HETATM    5  C   UNL     1     -11.415   5.650  72.841  1.00  0.00    -0.297 C  
BRANCH   5   6
HETATM    6  C   UNL     1     -10.385   4.748  72.174  1.00  0.00    -0.256 C  
BRANCH   6   7
HETATM    7  C   UNL     1      -8.977   5.298  72.285  1.00  0.00    -0.129 C  
HETATM    8  O   UNL     1      -8.219   5.361  71.314  1.00  0.00    -0.115 OA 
BRANCH   7   9
HETATM    9  C   UNL     1      -8.527   5.695  73.691  1.00  0.00    -0.114 C  
HETATM   10  N   UNL     1      -7.962   7.046  73.682  1.00  0.00    -0.102 NA 
HETATM   11  H1  UNL     1      -7.661   7.311  74.620  1.00  0.00     0.000 HD 
HETATM   12  H2  UNL     1      -8.609   7.726  73.283  1.00  0.00     0.000 HD 
ENDBRANCH   7   9
ENDBRANCH   6   7
ENDBRANCH   5   6
ENDBRANCH   3   5
ENDBRANCH   2   3
TORSDOF 5
ENDMDL
MODEL      224
REMARK 921   NORMALIZED FREE ENERGY PREDICTED BY IDOCK:   -1.75 KCAL/MOL
REMARK 922        TOTAL FREE ENERGY PREDICTED BY IDOCK:   -2.70 KCAL/MOL
REMARK 923 INTER-LIGAND FREE ENERGY PREDICTED BY IDOCK:   -2.52 KCAL/MOL
REMARK 924 INTRA-LIGAND FREE ENERGY PREDICTED BY IDOCK:   -0.18 KCAL/MOL
REMARK 927      BINDING AFFINITY PREDICTED BY RF-SCORE:    0.00 PKD
ROOT
HETATM    1  C   UNL     1     -10.675   9.805  70.217  1.00  0.00    -0.302 C  
HETATM    2  O   UNL     1     -10.144  10.286  68.981  1.00  0.00    -0.190 OA 
ENDROOT
BRANCH   2   3
HETATM    3  C   UNL     1     -11.094  10.624  68.064  1.00  0.00    -0.301 C  
HETATM    4  O   UNL     1     -12.141  11.206  68.316  1.00  0.00    -0.620 OA 
BRANCH   3   5
HETATM    5  C   UNL     1     -10.659  10.181  66.691  1.00  0.00    -0.214 C  
BRANCH   5   6
HETATM    6  C   UNL     1      -9.267  10.707  66.367  1.00  0.00    -0.190 C  
BRANCH   6   7
HETATM    7  C   UNL     1      -8.279   9.592  66.086  1.00  0.00    -0.115 C  
HETATM    8  O   UNL     1      -7.521   9.153  66.954  1.00  0.00    -0.089 OA 
BRANCH   7   9
HETATM    9  C   UNL     1      -8.224   9.101  64.639  1.00  0.00    -0.152 C  
HETATM   10  N   UNL     1      -8.729   7.731  64.548  1.00  0.00    -0.344 NA 
HETATM   11  H1  UNL     1      -8.692   7.403  63.582  1.00  0.00     0.000 HD 
HETATM   12  H2  UNL     1      -9.665   7.643  64.944  1.00  0.00     0.000 HD 
ENDBRANCH   7   9
ENDBRANCH   6   7
ENDBRANCH   5   6
ENDBRANCH   3   5
ENDBRANCH   2   3
TORSDOF 5
ENDMDL
MODEL      225
REMARK 921   NORMALIZED FREE ENERGY PREDICTED BY IDOCK:   -1.74 KCAL/MOL
REMARK 922        TOTAL FREE ENERGY PREDICTED BY IDOCK:   -2.69 KCAL/MOL
REMARK 923 INTER-LIGAND FREE ENERGY PREDICTED BY IDOCK:   -2.58 KCAL/MOL
REMARK 924 INTRA-LIGAND FREE ENERGY PREDICTED BY IDOCK:   -0.11 KCAL/MOL
REMARK 927      BINDING AFFINITY PREDICTED BY RF-SCORE:    0.00 PKD
ROOT
HETATM    1  C   UNL     1      -9.195   5.835  66.410  1.00  0.00    -0.151 C  
HETATM    2  O   UNL     1      -8.859   7.016  65.678  1.00  0.00    -0.118 OA 
ENDROOT
BRANCH   2   3
HETATM    3  C   UNL     1      -9.352   8.163  66.222  1.00  0.00    -0.196 C  
HETATM    4  O   UNL     1      -9.714   8.294  67.383  1.00  0.00    -0.155 OA 
BRANCH   3   5
HETATM    5  C   UNL     1      -9.378   9.252  65.181  1.00  0.00    -0.239 C  
BRANCH   5   6
HETATM    6  C   UNL     1      -8.893  10.573  65.765  1.00  0.00    -0.190 C  
BRANCH   6   7
HETATM    7  C   UNL     1      -9.944  11.662  65.680  1.00  0.00    -0.240 C  
HETATM    8  O   UNL     1     -10.460  12.155  66.686  1.00  0.00    -0.215 OA 
BRANCH   7   9
HETATM    9  C   UNL     1     -10.386  12.052  64.269  1.00  0.00    -0.322 C  
HETATM   10  N   UNL     1     -10.265  13.499  64.081  1.00  0.00    -0.758 NA 
HETATM   11  H1  UNL     1     -10.560  13.760  63.139  1.00  0.00     0.000 HD 
HETATM   12  H2  UNL     1      -9.325  13.833  64.292  1.00  0.00     0.000 HD 
ENDBRANCH   7   9
ENDBRANCH   6   7
ENDBRANCH   5   6
ENDBRANCH   3   5
ENDBRANCH   2   3
TORSDOF 5
ENDMDL
MODEL      226
REMARK 921   NORMALIZED FREE ENERGY PREDICTED BY IDOCK:   -1.72 KCAL/MOL
REMARK 922        TOTAL FREE ENERGY PREDICTED BY IDOCK:   -2.67 KCAL/MOL
REMARK 923 INTER-LIGAND FREE ENERGY PREDICTED BY IDOCK:   -2.54 KCAL/MOL
REMARK 924 INTRA-LIGAND FREE ENERGY PREDICTED BY IDOCK:   -0.13 KCAL/MOL
REMARK 927      BINDING AFFINITY PREDICTED BY RF-SCORE:    0.00 PKD
ROOT
HETATM    1  C   UNL     1     -10.519   5.498  66.624  1.00  0.00    -0.294 C  
HETATM    2  O   UNL     1      -9.563   6.535  66.398  1.00  0.00    -0.163 OA 
ENDROOT
BRANCH   2   3
HETATM    3  C   UNL     1      -9.941   7.751  66.882  1.00  0.00    -0.261 C  
HETATM    4  O   UNL     1     -10.810   7.936  67.724  1.00  0.00    -0.152 OA 
BRANCH   3   5
HETATM    5  C   UNL     1      -9.124   8.837  66.231  1.00  0.00    -0.240 C  
BRANCH   5   6
HETATM    6  C   UNL     1     -10.009  10.001  65.804  1.00  0.00    -0.346 C  
BRANCH   6   7
HETATM    7  C   UNL     1     -10.003  11.131  66.813  1.00  0.00    -0.208 C  
HETATM    8  O   UNL     1     -11.010  11.445  67.453  1.00  0.00    -0.240 OA 
BRANCH   7   9
HETATM    9  C   UNL     1      -8.694  11.912  66.931  1.00  0.00    -0.191 C  
HETATM   10  N   UNL     1      -8.875  13.283  66.451  1.00  0.00    -0.444 NA 
HETATM   11  H1  UNL     1      -8.002  13.804  66.529  1.00  0.00     0.000 HD 
HETATM   12  H2  UNL     1      -9.644  13.755  66.927  1.00  0.00     0.000 HD 
ENDBRANCH   7   9
ENDBRANCH   6   7
ENDBRANCH   5   6
ENDBRANCH   3   5
ENDBRANCH   2   3
TORSDOF 5
ENDMDL
MODEL      227
REMARK 921   NORMALIZED FREE ENERGY PREDICTED BY IDOCK:   -1.69 KCAL/MOL
REMARK 922        TOTAL FREE ENERGY PREDICTED BY IDOCK:   -2.62 KCAL/MOL
REMARK 923 INTER-LIGAND FREE ENERGY PREDICTED BY IDOCK:   -2.48 KCAL/MOL
REMARK 924 INTRA-LIGAND FREE ENERGY PREDICTED BY IDOCK:   -0.14 KCAL/MOL
REMARK 927      BINDING AFFINITY PREDICTED BY RF-SCORE:    0.00 PKD
ROOT
HETATM    1  C   UNL     1      -9.597  17.322  67.976  1.00  0.00    -0.274 C  
HETATM    2  O   UNL     1      -9.911  16.885  66.653  1.00  0.00    -0.271 OA 
ENDROOT
BRANCH   2   3
HETATM    3  C   UNL     1     -10.391  15.612  66.588  1.00  0.00    -0.289 C  
HETATM    4  O   UNL     1     -11.450  15.283  66.071  1.00  0.00    -0.239 OA 
BRANCH   3   5
HETATM    5  C   UNL     1      -9.418  14.666  67.243  1.00  0.00    -0.221 C  
BRANCH   5   6
HETATM    6  C   UNL     1      -9.322  13.361  66.463  1.00  0.00    -0.225 C  
BRANCH   6   7
HETATM    7  C   UNL     1      -9.336  12.145  67.368  1.00  0.00    -0.181 C  
HETATM    8  O   UNL     1      -8.430  11.308  67.356  1.00  0.00    -0.131 OA 
BRANCH   7   9
HETATM    9  C   UNL     1     -10.581  11.977  68.238  1.00  0.00    -0.212 C  
HETATM   10  N   UNL     1     -10.254  11.234  69.456  1.00  0.00    -0.435 NA 
HETATM   11  H1  UNL     1     -11.086  11.122  70.037  1.00  0.00     0.000 HD 
HETATM   12  H2  UNL     1      -9.486  11.665  69.970  1.00  0.00     0.000 HD 
ENDBRANCH   7   9
ENDBRANCH   6   7
ENDBRANCH   5   6
ENDBRANCH   3   5
ENDBRANCH   2   3
TORSDOF 5
ENDMDL
MODEL      228
REMARK 921   NORMALIZED FREE ENERGY PREDICTED BY IDOCK:   -1.65 KCAL/MOL
REMARK 922        TOTAL FREE ENERGY PREDICTED BY IDOCK:   -2.58 KCAL/MOL
REMARK 923 INTER-LIGAND FREE ENERGY PREDICTED BY IDOCK:   -2.47 KCAL/MOL
REMARK 924 INTRA-LIGAND FREE ENERGY PREDICTED BY IDOCK:   -0.10 KCAL/MOL
REMARK 927      BINDING AFFINITY PREDICTED BY RF-SCORE:    0.00 PKD
ROOT
HETATM    1  C   UNL     1     -11.637  12.837  64.840  1.00  0.00    -0.330 C  
HETATM    2  O   UNL     1     -11.549  11.935  65.945  1.00  0.00    -0.359 OA 
ENDROOT
BRANCH   2   3
HETATM    3  C   UNL     1     -10.442  11.141  65.926  1.00  0.00    -0.253 C  
HETATM    4  O   UNL     1      -9.470  11.306  65.202  1.00  0.00    -0.219 OA 
BRANCH   3   5
HETATM    5  C   UNL     1     -10.591  10.033  66.936  1.00  0.00    -0.261 C  
BRANCH   5   6
HETATM    6  C   UNL     1      -9.461   9.020  66.799  1.00  0.00    -0.238 C  
BRANCH   6   7
HETATM    7  C   UNL     1      -9.853   7.647  67.306  1.00  0.00    -0.186 C  
HETATM    8  O   UNL     1     -10.671   6.938  66.714  1.00  0.00    -0.297 OA 
BRANCH   7   9
HETATM    9  C   UNL     1      -9.234   7.227  68.639  1.00  0.00    -0.136 C  
HETATM   10  N   UNL     1     -10.078   7.665  69.752  1.00  0.00    -0.192 NA 
HETATM   11  H1  UNL     1      -9.664   7.386  70.642  1.00  0.00     0.000 HD 
HETATM   12  H2  UNL     1     -11.037   7.332  69.657  1.00  0.00     0.000 HD 
ENDBRANCH   7   9
ENDBRANCH   6   7
ENDBRANCH   5   6
ENDBRANCH   3   5
ENDBRANCH   2   3
TORSDOF 5
ENDMDL
MODEL      229
REMARK 921   NORMALIZED FREE ENERGY PREDICTED BY IDOCK:   -1.63 KCAL/MOL
REMARK 922        TOTAL FREE ENERGY PREDICTED BY IDOCK:   -2.55 KCAL/MOL
REMARK 923 INTER-LIGAND FREE ENERGY PREDICTED BY IDOCK:   -2.07 KCAL/MOL
REMARK 924 INTRA-LIGAND FREE ENERGY PREDICTED BY IDOCK:   -0.47 KCAL/MOL
REMARK 927      BINDING AFFINITY PREDICTED BY RF-SCORE:    0.00 PKD
ROOT
HETATM    1  C   UNL     1      -8.277   8.931  69.088  1.00  0.00    -0.118 C  
HETATM    2  O   UNL     1      -8.888   7.720  68.639  1.00  0.00    -0.131 OA 
ENDROOT
BRANCH   2   3
HETATM    3  C   UNL     1     -10.196   7.858  68.283  1.00  0.00    -0.203 C  
HETATM    4  O   UNL     1     -10.596   8.128  67.159  1.00  0.00    -0.322 OA 
BRANCH   3   5
HETATM    5  C   UNL     1     -11.078   7.619  69.480  1.00  0.00    -0.031 C  
BRANCH   5   6
HETATM    6  C   UNL     1     -11.227   6.128  69.756  1.00  0.00    -0.494 C  
BRANCH   6   7
HETATM    7  C   UNL     1     -10.595   5.717  71.070  1.00  0.00    -0.253 C  
HETATM    8  O   UNL     1     -11.061   6.062  72.159  1.00  0.00    -0.252 OA 
BRANCH   7   9
HETATM    9  C   UNL     1      -9.295   4.918  70.963  1.00  0.00    -0.153 C  
HETATM   10  N   UNL     1      -8.141   5.816  71.016  1.00  0.00    -0.118 NA 
HETATM   11  H1  UNL     1      -7.273   5.283  70.944  1.00  0.00     0.000 HD 
HETATM   12  H2  UNL     1      -8.156   6.407  71.847  1.00  0.00     0.000 HD 
ENDBRANCH   7   9
ENDBRANCH   6   7
ENDBRANCH   5   6
ENDBRANCH   3   5
ENDBRANCH   2   3
TORSDOF 5
ENDMDL
MODEL      230
REMARK 921   NORMALIZED FREE ENERGY PREDICTED BY IDOCK:   -1.59 KCAL/MOL
REMARK 922        TOTAL FREE ENERGY PREDICTED BY IDOCK:   -2.50 KCAL/MOL
REMARK 923 INTER-LIGAND FREE ENERGY PREDICTED BY IDOCK:   -2.39 KCAL/MOL
REMARK 924 INTRA-LIGAND FREE ENERGY PREDICTED BY IDOCK:   -0.11 KCAL/MOL
REMARK 927      BINDING AFFINITY PREDICTED BY RF-SCORE:    0.00 PKD
ROOT
HETATM    1  C   UNL     1      -7.917   5.848  73.920  1.00  0.00    -0.102 C  
HETATM    2  O   UNL     1      -9.342   5.902  73.840  1.00  0.00    -0.129 OA 
ENDROOT
BRANCH   2   3
HETATM    3  C   UNL     1      -9.877   5.057  72.914  1.00  0.00    -0.153 C  
HETATM    4  O   UNL     1      -9.411   3.969  72.601  1.00  0.00    -0.121 OA 
BRANCH   3   5
HETATM    5  C   UNL     1     -11.133   5.657  72.340  1.00  0.00    -0.324 C  
BRANCH   5   6
HETATM    6  C   UNL     1     -11.285   7.111  72.770  1.00  0.00    -0.314 C  
BRANCH   6   7
HETATM    7  C   UNL     1     -12.165   7.904  71.824  1.00  0.00    -0.310 C  
HETATM    8  O   UNL     1     -13.391   7.766  71.798  1.00  0.00    -0.332 OA 
BRANCH   7   9
HETATM    9  C   UNL     1     -11.433   8.825  70.848  1.00  0.00    -0.284 C  
HETATM   10  N   UNL     1     -12.061  10.147  70.829  1.00  0.00    -0.318 NA 
HETATM   11  H1  UNL     1     -11.573  10.762  70.177  1.00  0.00     0.000 HD 
HETATM   12  H2  UNL     1     -12.123  10.553  71.762  1.00  0.00     0.000 HD 
ENDBRANCH   7   9
ENDBRANCH   6   7
ENDBRANCH   5   6
ENDBRANCH   3   5
ENDBRANCH   2   3
TORSDOF 5
ENDMDL
MODEL      231
REMARK 921   NORMALIZED FREE ENERGY PREDICTED BY IDOCK:   -1.59 KCAL/MOL
REMARK 922        TOTAL FREE ENERGY PREDICTED BY IDOCK:   -2.50 KCAL/MOL
REMARK 923 INTER-LIGAND FREE ENERGY PREDICTED BY IDOCK:   -2.34 KCAL/MOL
REMARK 924 INTRA-LIGAND FREE ENERGY PREDICTED BY IDOCK:   -0.16 KCAL/MOL
REMARK 927      BINDING AFFINITY PREDICTED BY RF-SCORE:    0.00 PKD
ROOT
HETATM    1  C   UNL     1     -12.173   6.641  71.887  1.00  0.00    -0.335 C  
HETATM    2  O   UNL     1     -10.835   6.435  71.428  1.00  0.00    -0.236 OA 
ENDROOT
BRANCH   2   3
HETATM    3  C   UNL     1      -9.941   7.348  71.900  1.00  0.00    -0.170 C  
HETATM    4  O   UNL     1      -8.937   7.081  72.547  1.00  0.00    -0.128 OA 
BRANCH   3   5
HETATM    5  C   UNL     1     -10.367   8.736  71.499  1.00  0.00    -0.374 C  
BRANCH   5   6
HETATM    6  C   UNL     1      -9.363   9.355  70.535  1.00  0.00    -0.319 C  
BRANCH   6   7
HETATM    7  C   UNL     1      -9.980   9.685  69.191  1.00  0.00    -0.185 C  
HETATM    8  O   UNL     1     -11.095   9.271  68.861  1.00  0.00    -0.080 OA 
BRANCH   7   9
HETATM    9  C   UNL     1      -9.103  10.495  68.236  1.00  0.00    -0.146 C  
HETATM   10  N   UNL     1      -8.311  11.475  68.981  1.00  0.00    -0.368 NA 
HETATM   11  H1  UNL     1      -7.726  12.016  68.344  1.00  0.00     0.000 HD 
HETATM   12  H2  UNL     1      -7.764  11.038  69.722  1.00  0.00     0.000 HD 
ENDBRANCH   7   9
ENDBRANCH   6   7
ENDBRANCH   5   6
ENDBRANCH   3   5
ENDBRANCH   2   3
TORSDOF 5
ENDMDL
MODEL      232
REMARK 921   NORMALIZED FREE ENERGY PREDICTED BY IDOCK:   -1.59 KCAL/MOL
REMARK 922        TOTAL FREE ENERGY PREDICTED BY IDOCK:   -2.50 KCAL/MOL
REMARK 923 INTER-LIGAND FREE ENERGY PREDICTED BY IDOCK:   -2.33 KCAL/MOL
REMARK 924 INTRA-LIGAND FREE ENERGY PREDICTED BY IDOCK:   -0.17 KCAL/MOL
REMARK 927      BINDING AFFINITY PREDICTED BY RF-SCORE:    0.00 PKD
ROOT
HETATM    1  C   UNL     1     -11.962  11.019  69.206  1.00  0.00    -0.339 C  
HETATM    2  O   UNL     1     -11.189   9.835  69.408  1.00  0.00    -0.205 OA 
ENDROOT
BRANCH   2   3
HETATM    3  C   UNL     1     -10.363   9.529  68.369  1.00  0.00    -0.206 C  
HETATM    4  O   UNL     1     -10.582   9.791  67.194  1.00  0.00    -0.252 OA 
BRANCH   3   5
HETATM    5  C   UNL     1      -9.134   8.825  68.884  1.00  0.00    -0.141 C  
BRANCH   5   6
HETATM    6  C   UNL     1      -8.547   7.908  67.819  1.00  0.00    -0.128 C  
BRANCH   6   7
HETATM    7  C   UNL     1      -9.331   6.620  67.671  1.00  0.00    -0.119 C  
HETATM    8  O   UNL     1      -9.634   5.921  68.641  1.00  0.00    -0.119 OA 
BRANCH   7   9
HETATM    9  C   UNL     1      -9.650   6.196  66.237  1.00  0.00    -0.085 C  
HETATM   10  N   UNL     1     -11.026   5.705  66.147  1.00  0.00    -0.735 NA 
HETATM   11  H1  UNL     1     -11.240   5.422  65.190  1.00  0.00     0.000 HD 
HETATM   12  H2  UNL     1     -11.697   6.386  66.500  1.00  0.00     0.000 HD 
ENDBRANCH   7   9
ENDBRANCH   6   7
ENDBRANCH   5   6
ENDBRANCH   3   5
ENDBRANCH   2   3
TORSDOF 5
ENDMDL
MODEL      233
REMARK 921   NORMALIZED FREE ENERGY PREDICTED BY IDOCK:   -1.59 KCAL/MOL
REMARK 922        TOTAL FREE ENERGY PREDICTED BY IDOCK:   -2.49 KCAL/MOL
REMARK 923 INTER-LIGAND FREE ENERGY PREDICTED BY IDOCK:   -2.39 KCAL/MOL
REMARK 924 INTRA-LIGAND FREE ENERGY PREDICTED BY IDOCK:   -0.10 KCAL/MOL
REMARK 927      BINDING AFFINITY PREDICTED BY RF-SCORE:    0.00 PKD
ROOT
HETATM    1  C   UNL     1      -7.454   8.051  65.638  1.00  0.00    -0.081 C  
HETATM    2  O   UNL     1      -8.860   7.814  65.560  1.00  0.00    -0.118 OA 
ENDROOT
BRANCH   2   3
HETATM    3  C   UNL     1      -9.616   8.757  66.190  1.00  0.00    -0.253 C  
HETATM    4  O   UNL     1      -9.592   9.956  65.948  1.00  0.00    -0.201 OA 
BRANCH   3   5
HETATM    5  C   UNL     1     -10.493   8.100  67.224  1.00  0.00    -0.379 C  
BRANCH   5   6
HETATM    6  C   UNL     1      -9.815   8.098  68.588  1.00  0.00    -0.191 C  
BRANCH   6   7
HETATM    7  C   UNL     1     -10.806   7.961  69.726  1.00  0.00    -0.202 C  
HETATM    8  O   UNL     1     -11.153   8.925  70.414  1.00  0.00    -0.240 OA 
BRANCH   7   9
HETATM    9  C   UNL     1     -11.289   6.541  70.021  1.00  0.00    -0.410 C  
HETATM   10  N   UNL     1     -11.723   6.430  71.415  1.00  0.00    -0.317 NA 
HETATM   11  H1  UNL     1     -12.044   5.482  71.612  1.00  0.00     0.000 HD 
HETATM   12  H2  UNL     1     -12.428   7.128  71.650  1.00  0.00     0.000 HD 
ENDBRANCH   7   9
ENDBRANCH   6   7
ENDBRANCH   5   6
ENDBRANCH   3   5
ENDBRANCH   2   3
TORSDOF 5
ENDMDL
MODEL      234
REMARK 921   NORMALIZED FREE ENERGY PREDICTED BY IDOCK:   -1.58 KCAL/MOL
REMARK 922        TOTAL FREE ENERGY PREDICTED BY IDOCK:   -2.49 KCAL/MOL
REMARK 923 INTER-LIGAND FREE ENERGY PREDICTED BY IDOCK:   -2.21 KCAL/MOL
REMARK 924 INTRA-LIGAND FREE ENERGY PREDICTED BY IDOCK:   -0.28 KCAL/MOL
REMARK 927      BINDING AFFINITY PREDICTED BY RF-SCORE:    0.00 PKD
ROOT
HETATM    1  C   UNL     1     -10.424  12.889  65.717  1.00  0.00    -0.278 C  
HETATM    2  O   UNL     1     -10.797  14.219  65.351  1.00  0.00    -0.310 OA 
ENDROOT
BRANCH   2   3
HETATM    3  C   UNL     1     -10.105  15.189  66.011  1.00  0.00    -0.302 C  
HETATM    4  O   UNL     1      -9.533  16.132  65.480  1.00  0.00    -0.428 OA 
BRANCH   3   5
HETATM    5  C   UNL     1     -10.155  14.933  67.494  1.00  0.00    -0.228 C  
BRANCH   5   6
HETATM    6  C   UNL     1      -8.894  15.446  68.177  1.00  0.00    -0.170 C  
BRANCH   6   7
HETATM    7  C   UNL     1      -7.728  14.488  68.032  1.00  0.00    -0.135 C  
HETATM    8  O   UNL     1      -6.712  14.783  67.398  1.00  0.00    -0.247 OA 
BRANCH   7   9
HETATM    9  C   UNL     1      -7.923  13.104  68.652  1.00  0.00    -0.033 C  
HETATM   10  N   UNL     1      -6.641  12.405  68.748  1.00  0.00    -0.082 NA 
HETATM   11  H1  UNL     1      -6.771  11.481  69.161  1.00  0.00     0.000 HD 
HETATM   12  H2  UNL     1      -5.945  12.953  69.253  1.00  0.00     0.000 HD 
ENDBRANCH   7   9
ENDBRANCH   6   7
ENDBRANCH   5   6
ENDBRANCH   3   5
ENDBRANCH   2   3
TORSDOF 5
ENDMDL
MODEL      235
REMARK 921   NORMALIZED FREE ENERGY PREDICTED BY IDOCK:   -1.58 KCAL/MOL
REMARK 922        TOTAL FREE ENERGY PREDICTED BY IDOCK:   -2.48 KCAL/MOL
REMARK 923 INTER-LIGAND FREE ENERGY PREDICTED BY IDOCK:   -2.36 KCAL/MOL
REMARK 924 INTRA-LIGAND FREE ENERGY PREDICTED BY IDOCK:   -0.12 KCAL/MOL
REMARK 927      BINDING AFFINITY PREDICTED BY RF-SCORE:    0.00 PKD
ROOT
HETATM    1  C   UNL     1     -12.945   9.704  71.624  1.00  0.00    -0.407 C  
HETATM    2  O   UNL     1     -11.582   9.505  72.004  1.00  0.00    -0.311 OA 
ENDROOT
BRANCH   2   3
HETATM    3  C   UNL     1     -10.694   9.653  70.981  1.00  0.00    -0.323 C  
HETATM    4  O   UNL     1     -10.823  10.428  70.043  1.00  0.00    -0.275 OA 
BRANCH   3   5
HETATM    5  C   UNL     1      -9.526   8.723  71.180  1.00  0.00    -0.306 C  
BRANCH   5   6
HETATM    6  C   UNL     1      -9.261   8.496  72.663  1.00  0.00    -0.269 C  
BRANCH   6   7
HETATM    7  C   UNL     1      -8.325   7.330  72.910  1.00  0.00    -0.110 C  
HETATM    8  O   UNL     1      -8.236   6.382  72.126  1.00  0.00    -0.108 OA 
BRANCH   7   9
HETATM    9  C   UNL     1      -7.559   7.359  74.233  1.00  0.00    -0.130 C  
HETATM   10  N   UNL     1      -6.460   8.323  74.163  1.00  0.00    -0.120 NA 
HETATM   11  H1  UNL     1      -5.948   8.343  75.045  1.00  0.00     0.000 HD 
HETATM   12  H2  UNL     1      -6.784   9.250  73.890  1.00  0.00     0.000 HD 
ENDBRANCH   7   9
ENDBRANCH   6   7
ENDBRANCH   5   6
ENDBRANCH   3   5
ENDBRANCH   2   3
TORSDOF 5
ENDMDL
MODEL      236
REMARK 921   NORMALIZED FREE ENERGY PREDICTED BY IDOCK:   -1.57 KCAL/MOL
REMARK 922        TOTAL FREE ENERGY PREDICTED BY IDOCK:   -2.46 KCAL/MOL
REMARK 923 INTER-LIGAND FREE ENERGY PREDICTED BY IDOCK:   -2.38 KCAL/MOL
REMARK 924 INTRA-LIGAND FREE ENERGY PREDICTED BY IDOCK:   -0.09 KCAL/MOL
REMARK 927      BINDING AFFINITY PREDICTED BY RF-SCORE:    0.00 PKD
ROOT
HETATM    1  C   UNL     1     -10.343  13.589  68.284  1.00  0.00    -0.252 C  
HETATM    2  O   UNL     1      -9.574  12.400  68.088  1.00  0.00    -0.208 OA 
ENDROOT
BRANCH   2   3
HETATM    3  C   UNL     1     -10.326  11.281  67.891  1.00  0.00    -0.182 C  
HETATM    4  O   UNL     1     -11.513  11.173  68.163  1.00  0.00    -0.284 OA 
BRANCH   3   5
HETATM    5  C   UNL     1      -9.477  10.198  67.279  1.00  0.00    -0.178 C  
BRANCH   5   6
HETATM    6  C   UNL     1      -9.674   8.876  68.010  1.00  0.00    -0.181 C  
BRANCH   6   7
HETATM    7  C   UNL     1      -9.948   7.726  67.061  1.00  0.00    -0.244 C  
HETATM    8  O   UNL     1     -10.998   7.079  67.102  1.00  0.00    -0.357 OA 
BRANCH   7   9
HETATM    9  C   UNL     1      -8.811   7.366  66.105  1.00  0.00    -0.160 C  
HETATM   10  N   UNL     1      -9.207   6.254  65.240  1.00  0.00    -0.331 NA 
HETATM   11  H1  UNL     1      -8.448   6.013  64.602  1.00  0.00     0.000 HD 
HETATM   12  H2  UNL     1     -10.075   6.450  64.742  1.00  0.00     0.000 HD 
ENDBRANCH   7   9
ENDBRANCH   6   7
ENDBRANCH   5   6
ENDBRANCH   3   5
ENDBRANCH   2   3
TORSDOF 5
ENDMDL
MODEL      237
REMARK 921   NORMALIZED FREE ENERGY PREDICTED BY IDOCK:   -1.56 KCAL/MOL
REMARK 922        TOTAL FREE ENERGY PREDICTED BY IDOCK:   -2.45 KCAL/MOL
REMARK 923 INTER-LIGAND FREE ENERGY PREDICTED BY IDOCK:   -2.37 KCAL/MOL
REMARK 924 INTRA-LIGAND FREE ENERGY PREDICTED BY IDOCK:   -0.08 KCAL/MOL
REMARK 927      BINDING AFFINITY PREDICTED BY RF-SCORE:    0.00 PKD
ROOT
HETATM    1  C   UNL     1     -10.526  11.179  65.630  1.00  0.00    -0.248 C  
HETATM    2  O   UNL     1      -9.180  11.636  65.493  1.00  0.00    -0.194 OA 
ENDROOT
BRANCH   2   3
HETATM    3  C   UNL     1      -8.688  12.249  66.606  1.00  0.00    -0.132 C  
HETATM    4  O   UNL     1      -7.665  11.926  67.195  1.00  0.00    -0.151 OA 
BRANCH   3   5
HETATM    5  C   UNL     1      -9.587  13.392  66.999  1.00  0.00    -0.244 C  
BRANCH   5   6
HETATM    6  C   UNL     1      -8.781  14.665  67.223  1.00  0.00    -0.224 C  
BRANCH   6   7
HETATM    7  C   UNL     1      -9.579  15.916  66.911  1.00  0.00    -0.229 C  
HETATM    8  O   UNL     1      -9.743  16.318  65.756  1.00  0.00    -0.401 OA 
BRANCH   7   9
HETATM    9  C   UNL     1     -10.097  16.694  68.121  1.00  0.00    -0.267 C  
HETATM   10  N   UNL     1      -9.247  17.857  68.380  1.00  0.00    -0.281 NA 
HETATM   11  H1  UNL     1      -9.593  18.376  69.187  1.00  0.00     0.000 HD 
HETATM   12  H2  UNL     1      -9.155  18.451  67.556  1.00  0.00     0.000 HD 
ENDBRANCH   7   9
ENDBRANCH   6   7
ENDBRANCH   5   6
ENDBRANCH   3   5
ENDBRANCH   2   3
TORSDOF 5
ENDMDL
MODEL      238
REMARK 921   NORMALIZED FREE ENERGY PREDICTED BY IDOCK:   -1.54 KCAL/MOL
REMARK 922        TOTAL FREE ENERGY PREDICTED BY IDOCK:   -2.43 KCAL/MOL
REMARK 923 INTER-LIGAND FREE ENERGY PREDICTED BY IDOCK:   -2.28 KCAL/MOL
REMARK 924 INTRA-LIGAND FREE ENERGY PREDICTED BY IDOCK:   -0.16 KCAL/MOL
REMARK 927      BINDING AFFINITY PREDICTED BY RF-SCORE:    0.00 PKD
ROOT
HETATM    1  C   UNL     1     -10.178  13.749  68.548  1.00  0.00    -0.235 C  
HETATM    2  O   UNL     1      -9.734  12.398  68.409  1.00  0.00    -0.217 OA 
ENDROOT
BRANCH   2   3
HETATM    3  C   UNL     1     -10.746  11.492  68.299  1.00  0.00    -0.211 C  
HETATM    4  O   UNL     1     -11.894  11.668  68.682  1.00  0.00    -0.309 OA 
BRANCH   3   5
HETATM    5  C   UNL     1     -10.241  10.242  67.627  1.00  0.00    -0.247 C  
BRANCH   5   6
HETATM    6  C   UNL     1     -10.628  10.224  66.154  1.00  0.00    -0.124 C  
BRANCH   6   7
HETATM    7  C   UNL     1      -9.521  10.743  65.259  1.00  0.00    -0.218 C  
HETATM    8  O   UNL     1      -9.664  11.741  64.549  1.00  0.00    -0.223 OA 
BRANCH   7   9
HETATM    9  C   UNL     1      -8.243   9.904  65.227  1.00  0.00    -0.145 C  
HETATM   10  N   UNL     1      -7.279  10.482  64.289  1.00  0.00    -0.348 NA 
HETATM   11  H1  UNL     1      -6.425   9.922  64.268  1.00  0.00     0.000 HD 
HETATM   12  H2  UNL     1      -7.086  11.461  64.497  1.00  0.00     0.000 HD 
ENDBRANCH   7   9
ENDBRANCH   6   7
ENDBRANCH   5   6
ENDBRANCH   3   5
ENDBRANCH   2   3
TORSDOF 5
ENDMDL
MODEL      239
REMARK 921   NORMALIZED FREE ENERGY PREDICTED BY IDOCK:   -1.52 KCAL/MOL
REMARK 922        TOTAL FREE ENERGY PREDICTED BY IDOCK:   -2.40 KCAL/MOL
REMARK 923 INTER-LIGAND FREE ENERGY PREDICTED BY IDOCK:   -2.00 KCAL/MOL
REMARK 924 INTRA-LIGAND FREE ENERGY PREDICTED BY IDOCK:   -0.41 KCAL/MOL
REMARK 927      BINDING AFFINITY PREDICTED BY RF-SCORE:    0.00 PKD
ROOT
HETATM    1  C   UNL     1     -10.696  10.827  68.858  1.00  0.00    -0.222 C  
HETATM    2  O   UNL     1     -10.346   9.977  67.764  1.00  0.00    -0.186 OA 
ENDROOT
BRANCH   2   3
HETATM    3  C   UNL     1     -10.341   8.650  68.073  1.00  0.00    -0.223 C  
HETATM    4  O   UNL     1     -10.133   8.186  69.186  1.00  0.00    -0.191 OA 
BRANCH   3   5
HETATM    5  C   UNL     1     -10.638   7.838  66.839  1.00  0.00    -0.347 C  
BRANCH   5   6
HETATM    6  C   UNL     1      -9.421   7.024  66.419  1.00  0.00    -0.176 C  
BRANCH   6   7
HETATM    7  C   UNL     1      -9.614   5.538  66.646  1.00  0.00    -0.151 C  
HETATM    8  O   UNL     1     -10.528   4.906  66.109  1.00  0.00    -0.283 OA 
BRANCH   7   9
HETATM    9  C   UNL     1      -8.657   4.887  67.645  1.00  0.00    -0.103 C  
HETATM   10  N   UNL     1      -9.047   5.223  69.015  1.00  0.00    -0.112 NA 
HETATM   11  H1  UNL     1      -8.408   4.789  69.682  1.00  0.00     0.000 HD 
HETATM   12  H2  UNL     1     -10.018   4.979  69.205  1.00  0.00     0.000 HD 
ENDBRANCH   7   9
ENDBRANCH   6   7
ENDBRANCH   5   6
ENDBRANCH   3   5
ENDBRANCH   2   3
TORSDOF 5
ENDMDL
MODEL      240
REMARK 921   NORMALIZED FREE ENERGY PREDICTED BY IDOCK:   -1.51 KCAL/MOL
REMARK 922        TOTAL FREE ENERGY PREDICTED BY IDOCK:   -2.40 KCAL/MOL
REMARK 923 INTER-LIGAND FREE ENERGY PREDICTED BY IDOCK:   -2.33 KCAL/MOL
REMARK 924 INTRA-LIGAND FREE ENERGY PREDICTED BY IDOCK:   -0.07 KCAL/MOL
REMARK 927      BINDING AFFINITY PREDICTED BY RF-SCORE:    0.00 PKD
ROOT
HETATM    1  C   UNL     1     -10.988   6.030  69.516  1.00  0.00    -0.397 C  
HETATM    2  O   UNL     1     -11.159   7.417  69.812  1.00  0.00    -0.234 OA 
ENDROOT
BRANCH   2   3
HETATM    3  C   UNL     1     -11.634   7.661  71.066  1.00  0.00    -0.282 C  
HETATM    4  O   UNL     1     -12.817   7.728  71.371  1.00  0.00    -0.328 OA 
BRANCH   3   5
HETATM    5  C   UNL     1     -10.483   7.829  72.023  1.00  0.00    -0.277 C  
BRANCH   5   6
HETATM    6  C   UNL     1      -9.360   8.637  71.385  1.00  0.00    -0.305 C  
BRANCH   6   7
HETATM    7  C   UNL     1      -8.055   8.512  72.145  1.00  0.00    -0.101 C  
HETATM    8  O   UNL     1      -8.018   8.428  73.376  1.00  0.00    -0.303 OA 
BRANCH   7   9
HETATM    9  C   UNL     1      -6.783   8.578  71.300  1.00  0.00    -0.066 C  
HETATM   10  N   UNL     1      -5.709   7.812  71.935  1.00  0.00    -0.035 NA 
HETATM   11  H1  UNL     1      -4.860   7.856  71.370  1.00  0.00     0.000 HD 
HETATM   12  H2  UNL     1      -5.990   6.850  72.124  1.00  0.00     0.000 HD 
ENDBRANCH   7   9
ENDBRANCH   6   7
ENDBRANCH   5   6
ENDBRANCH   3   5
ENDBRANCH   2   3
TORSDOF 5
ENDMDL
MODEL      241
REMARK 921   NORMALIZED FREE ENERGY PREDICTED BY IDOCK:   -1.51 KCAL/MOL
REMARK 922        TOTAL FREE ENERGY PREDICTED BY IDOCK:   -2.39 KCAL/MOL
REMARK 923 INTER-LIGAND FREE ENERGY PREDICTED BY IDOCK:   -2.09 KCAL/MOL
REMARK 924 INTRA-LIGAND FREE ENERGY PREDICTED BY IDOCK:   -0.30 KCAL/MOL
REMARK 927      BINDING AFFINITY PREDICTED BY RF-SCORE:    0.00 PKD
ROOT
HETATM    1  C   UNL     1     -12.256   6.545  71.950  1.00  0.00    -0.324 C  
HETATM    2  O   UNL     1     -12.327   7.808  71.284  1.00  0.00    -0.310 OA 
ENDROOT
BRANCH   2   3
HETATM    3  C   UNL     1     -11.124   8.435  71.159  1.00  0.00    -0.256 C  
HETATM    4  O   UNL     1     -10.558   9.057  72.048  1.00  0.00    -0.345 OA 
BRANCH   3   5
HETATM    5  C   UNL     1     -10.590   8.243  69.764  1.00  0.00    -0.228 C  
BRANCH   5   6
HETATM    6  C   UNL     1      -9.172   7.687  69.797  1.00  0.00    -0.147 C  
BRANCH   6   7
HETATM    7  C   UNL     1      -9.140   6.207  70.126  1.00  0.00    -0.152 C  
HETATM    8  O   UNL     1      -9.749   5.372  69.454  1.00  0.00    -0.140 OA 
BRANCH   7   9
HETATM    9  C   UNL     1      -8.372   5.824  71.391  1.00  0.00    -0.127 C  
HETATM   10  N   UNL     1      -7.212   4.998  71.052  1.00  0.00    -0.058 NA 
HETATM   11  H1  UNL     1      -6.700   4.742  71.896  1.00  0.00     0.000 HD 
HETATM   12  H2  UNL     1      -6.611   5.451  70.364  1.00  0.00     0.000 HD 
ENDBRANCH   7   9
ENDBRANCH   6   7
ENDBRANCH   5   6
ENDBRANCH   3   5
ENDBRANCH   2   3
TORSDOF 5
ENDMDL
MODEL      242
REMARK 921   NORMALIZED FREE ENERGY PREDICTED BY IDOCK:   -1.50 KCAL/MOL
REMARK 922        TOTAL FREE ENERGY PREDICTED BY IDOCK:   -2.37 KCAL/MOL
REMARK 923 INTER-LIGAND FREE ENERGY PREDICTED BY IDOCK:   -2.21 KCAL/MOL
REMARK 924 INTRA-LIGAND FREE ENERGY PREDICTED BY IDOCK:   -0.16 KCAL/MOL
REMARK 927      BINDING AFFINITY PREDICTED BY RF-SCORE:    0.00 PKD
ROOT
HETATM    1  C   UNL     1     -10.923   9.535  71.464  1.00  0.00    -0.299 C  
HETATM    2  O   UNL     1     -10.872   8.680  72.607  1.00  0.00    -0.244 OA 
ENDROOT
BRANCH   2   3
HETATM    3  C   UNL     1     -11.309   7.411  72.369  1.00  0.00    -0.297 C  
HETATM    4  O   UNL     1     -12.068   7.085  71.467  1.00  0.00    -0.311 OA 
BRANCH   3   5
HETATM    5  C   UNL     1     -10.709   6.467  73.379  1.00  0.00    -0.295 C  
BRANCH   5   6
HETATM    6  C   UNL     1      -9.416   5.858  72.852  1.00  0.00    -0.154 C  
BRANCH   6   7
HETATM    7  C   UNL     1      -9.668   4.737  71.863  1.00  0.00    -0.163 C  
HETATM    8  O   UNL     1     -10.386   3.772  72.134  1.00  0.00    -0.149 OA 
BRANCH   7   9
HETATM    9  C   UNL     1      -8.911   4.837  70.538  1.00  0.00    -0.107 C  
HETATM   10  N   UNL     1      -9.575   4.033  69.511  1.00  0.00    -0.195 NA 
HETATM   11  H1  UNL     1      -9.070   4.099  68.627  1.00  0.00     0.000 HD 
HETATM   12  H2  UNL     1     -10.558   4.285  69.407  1.00  0.00     0.000 HD 
ENDBRANCH   7   9
ENDBRANCH   6   7
ENDBRANCH   5   6
ENDBRANCH   3   5
ENDBRANCH   2   3
TORSDOF 5
ENDMDL
MODEL      243
REMARK 921   NORMALIZED FREE ENERGY PREDICTED BY IDOCK:   -1.49 KCAL/MOL
REMARK 922        TOTAL FREE ENERGY PREDICTED BY IDOCK:   -2.37 KCAL/MOL
REMARK 923 INTER-LIGAND FREE ENERGY PREDICTED BY IDOCK:   -2.29 KCAL/MOL
REMARK 924 INTRA-LIGAND FREE ENERGY PREDICTED BY IDOCK:   -0.08 KCAL/MOL
REMARK 927      BINDING AFFINITY PREDICTED BY RF-SCORE:    0.00 PKD
ROOT
HETATM    1  C   UNL     1      -7.089  10.020  68.945  1.00  0.00    -0.068 C  
HETATM    2  O   UNL     1      -7.305  11.298  68.343  1.00  0.00    -0.084 OA 
ENDROOT
BRANCH   2   3
HETATM    3  C   UNL     1      -8.608  11.552  68.034  1.00  0.00    -0.150 C  
HETATM    4  O   UNL     1      -9.479  10.703  67.901  1.00  0.00    -0.155 OA 
BRANCH   3   5
HETATM    5  C   UNL     1      -8.818  13.037  67.888  1.00  0.00    -0.193 C  
BRANCH   5   6
HETATM    6  C   UNL     1     -10.224  13.339  67.387  1.00  0.00    -0.229 C  
BRANCH   6   7
HETATM    7  C   UNL     1     -10.398  14.793  66.996  1.00  0.00    -0.255 C  
HETATM    8  O   UNL     1     -11.289  15.499  67.474  1.00  0.00    -0.314 OA 
BRANCH   7   9
HETATM    9  C   UNL     1      -9.452  15.308  65.911  1.00  0.00    -0.316 C  
HETATM   10  N   UNL     1      -9.525  16.767  65.823  1.00  0.00    -0.527 NA 
HETATM   11  H1  UNL     1      -8.894  17.111  65.099  1.00  0.00     0.000 HD 
HETATM   12  H2  UNL     1      -9.349  17.212  66.724  1.00  0.00     0.000 HD 
ENDBRANCH   7   9
ENDBRANCH   6   7
ENDBRANCH   5   6
ENDBRANCH   3   5
ENDBRANCH   2   3
TORSDOF 5
ENDMDL
MODEL      244
REMARK 921   NORMALIZED FREE ENERGY PREDICTED BY IDOCK:   -1.49 KCAL/MOL
REMARK 922        TOTAL FREE ENERGY PREDICTED BY IDOCK:   -2.37 KCAL/MOL
REMARK 923 INTER-LIGAND FREE ENERGY PREDICTED BY IDOCK:   -2.12 KCAL/MOL
REMARK 924 INTRA-LIGAND FREE ENERGY PREDICTED BY IDOCK:   -0.25 KCAL/MOL
REMARK 927      BINDING AFFINITY PREDICTED BY RF-SCORE:    0.00 PKD
ROOT
HETATM    1  C   UNL     1      -8.132  10.559  69.160  1.00  0.00    -0.152 C  
HETATM    2  O   UNL     1      -9.403   9.907  69.209  1.00  0.00    -0.181 OA 
ENDROOT
BRANCH   2   3
HETATM    3  C   UNL     1      -9.326   8.548  69.272  1.00  0.00    -0.154 C  
HETATM    4  O   UNL     1      -8.457   7.918  69.859  1.00  0.00    -0.125 OA 
BRANCH   3   5
HETATM    5  C   UNL     1     -10.476   7.936  68.515  1.00  0.00    -0.202 C  
BRANCH   5   6
HETATM    6  C   UNL     1     -10.629   8.582  67.144  1.00  0.00    -0.314 C  
BRANCH   6   7
HETATM    7  C   UNL     1      -9.490   8.228  66.209  1.00  0.00    -0.203 C  
HETATM    8  O   UNL     1      -8.998   7.097  66.173  1.00  0.00    -0.159 OA 
BRANCH   7   9
HETATM    9  C   UNL     1      -8.934   9.379  65.370  1.00  0.00    -0.206 C  
HETATM   10  N   UNL     1      -8.960   9.032  63.949  1.00  0.00    -0.421 NA 
HETATM   11  H1  UNL     1      -8.588   9.800  63.389  1.00  0.00     0.000 HD 
HETATM   12  H2  UNL     1      -9.891   8.753  63.642  1.00  0.00     0.000 HD 
ENDBRANCH   7   9
ENDBRANCH   6   7
ENDBRANCH   5   6
ENDBRANCH   3   5
ENDBRANCH   2   3
TORSDOF 5
ENDMDL
MODEL      245
REMARK 921   NORMALIZED FREE ENERGY PREDICTED BY IDOCK:   -1.49 KCAL/MOL
REMARK 922        TOTAL FREE ENERGY PREDICTED BY IDOCK:   -2.36 KCAL/MOL
REMARK 923 INTER-LIGAND FREE ENERGY PREDICTED BY IDOCK:   -2.26 KCAL/MOL
REMARK 924 INTRA-LIGAND FREE ENERGY PREDICTED BY IDOCK:   -0.10 KCAL/MOL
REMARK 927      BINDING AFFINITY PREDICTED BY RF-SCORE:    0.00 PKD
ROOT
HETATM    1  C   UNL     1      -8.187   8.737  62.900  1.00  0.00    -0.190 C  
HETATM    2  O   UNL     1      -9.185   9.519  63.558  1.00  0.00    -0.197 OA 
ENDROOT
BRANCH   2   3
HETATM    3  C   UNL     1      -8.799   9.999  64.774  1.00  0.00    -0.195 C  
HETATM    4  O   UNL     1      -7.647  10.245  65.101  1.00  0.00    -0.139 OA 
BRANCH   3   5
HETATM    5  C   UNL     1     -10.007  10.189  65.654  1.00  0.00    -0.348 C  
BRANCH   5   6
HETATM    6  C   UNL     1      -9.775  11.310  66.659  1.00  0.00    -0.222 C  
BRANCH   6   7
HETATM    7  C   UNL     1     -10.379  11.003  68.015  1.00  0.00    -0.185 C  
HETATM    8  O   UNL     1      -9.779  10.342  68.866  1.00  0.00    -0.171 OA 
BRANCH   7   9
HETATM    9  C   UNL     1     -11.811  11.493  68.233  1.00  0.00    -0.256 C  
HETATM   10  N   UNL     1     -11.898  12.933  67.987  1.00  0.00    -0.355 NA 
HETATM   11  H1  UNL     1     -12.853  13.261  68.132  1.00  0.00     0.000 HD 
HETATM   12  H2  UNL     1     -11.546  13.183  67.063  1.00  0.00     0.000 HD 
ENDBRANCH   7   9
ENDBRANCH   6   7
ENDBRANCH   5   6
ENDBRANCH   3   5
ENDBRANCH   2   3
TORSDOF 5
ENDMDL
MODEL      246
REMARK 921   NORMALIZED FREE ENERGY PREDICTED BY IDOCK:   -1.47 KCAL/MOL
REMARK 922        TOTAL FREE ENERGY PREDICTED BY IDOCK:   -2.34 KCAL/MOL
REMARK 923 INTER-LIGAND FREE ENERGY PREDICTED BY IDOCK:   -2.36 KCAL/MOL
REMARK 924 INTRA-LIGAND FREE ENERGY PREDICTED BY IDOCK:    0.03 KCAL/MOL
REMARK 927      BINDING AFFINITY PREDICTED BY RF-SCORE:    0.00 PKD
ROOT
HETATM    1  C   UNL     1     -11.806  11.926  63.336  1.00  0.00    -0.413 C  
HETATM    2  O   UNL     1     -11.795  12.599  64.596  1.00  0.00    -0.342 OA 
ENDROOT
BRANCH   2   3
HETATM    3  C   UNL     1     -10.683  12.354  65.344  1.00  0.00    -0.282 C  
HETATM    4  O   UNL     1     -10.096  11.282  65.404  1.00  0.00    -0.238 OA 
BRANCH   3   5
HETATM    5  C   UNL     1     -10.278  13.604  66.082  1.00  0.00    -0.306 C  
BRANCH   5   6
HETATM    6  C   UNL     1     -10.272  13.368  67.587  1.00  0.00    -0.228 C  
BRANCH   6   7
HETATM    7  C   UNL     1      -9.121  12.486  68.028  1.00  0.00    -0.200 C  
HETATM    8  O   UNL     1      -7.966  12.669  67.634  1.00  0.00    -0.144 OA 
BRANCH   7   9
HETATM    9  C   UNL     1      -9.492  11.306  68.926  1.00  0.00    -0.089 C  
HETATM   10  N   UNL     1      -8.733  10.116  68.542  1.00  0.00    -0.119 NA 
HETATM   11  H1  UNL     1      -8.981   9.328  69.142  1.00  0.00     0.000 HD 
HETATM   12  H2  UNL     1      -7.728  10.290  68.539  1.00  0.00     0.000 HD 
ENDBRANCH   7   9
ENDBRANCH   6   7
ENDBRANCH   5   6
ENDBRANCH   3   5
ENDBRANCH   2   3
TORSDOF 5
ENDMDL
MODEL      247
REMARK 921   NORMALIZED FREE ENERGY PREDICTED BY IDOCK:   -1.47 KCAL/MOL
REMARK 922        TOTAL FREE ENERGY PREDICTED BY IDOCK:   -2.33 KCAL/MOL
REMARK 923 INTER-LIGAND FREE ENERGY PREDICTED BY IDOCK:   -2.19 KCAL/MOL
REMARK 924 INTRA-LIGAND FREE ENERGY PREDICTED BY IDOCK:   -0.14 KCAL/MOL
REMARK 927      BINDING AFFINITY PREDICTED BY RF-SCORE:    0.00 PKD
ROOT
HETATM    1  C   UNL     1     -11.211   8.936  71.749  1.00  0.00    -0.362 C  
HETATM    2  O   UNL     1     -10.323   9.709  70.939  1.00  0.00    -0.300 OA 
ENDROOT
BRANCH   2   3
HETATM    3  C   UNL     1     -10.059   9.155  69.723  1.00  0.00    -0.199 C  
HETATM    4  O   UNL     1     -10.542   8.112  69.304  1.00  0.00    -0.222 OA 
BRANCH   3   5
HETATM    5  C   UNL     1      -9.088  10.024  68.967  1.00  0.00    -0.172 C  
BRANCH   5   6
HETATM    6  C   UNL     1      -8.520   9.282  67.763  1.00  0.00    -0.116 C  
BRANCH   6   7
HETATM    7  C   UNL     1      -8.773  10.015  66.461  1.00  0.00    -0.132 C  
HETATM    8  O   UNL     1      -7.924  10.743  65.942  1.00  0.00    -0.158 OA 
BRANCH   7   9
HETATM    9  C   UNL     1     -10.176   9.862  65.873  1.00  0.00    -0.194 C  
HETATM   10  N   UNL     1     -10.252  10.509  64.562  1.00  0.00    -0.337 NA 
HETATM   11  H1  UNL     1     -11.188  10.406  64.169  1.00  0.00     0.000 HD 
HETATM   12  H2  UNL     1      -9.533  10.165  63.926  1.00  0.00     0.000 HD 
ENDBRANCH   7   9
ENDBRANCH   6   7
ENDBRANCH   5   6
ENDBRANCH   3   5
ENDBRANCH   2   3
TORSDOF 5
ENDMDL
MODEL      248
REMARK 921   NORMALIZED FREE ENERGY PREDICTED BY IDOCK:   -1.46 KCAL/MOL
REMARK 922        TOTAL FREE ENERGY PREDICTED BY IDOCK:   -2.33 KCAL/MOL
REMARK 923 INTER-LIGAND FREE ENERGY PREDICTED BY IDOCK:   -2.21 KCAL/MOL
REMARK 924 INTRA-LIGAND FREE ENERGY PREDICTED BY IDOCK:   -0.12 KCAL/MOL
REMARK 927      BINDING AFFINITY PREDICTED BY RF-SCORE:    0.00 PKD
ROOT
HETATM    1  C   UNL     1      -9.323   4.531  71.268  1.00  0.00    -0.148 C  
HETATM    2  O   UNL     1      -8.927   5.693  70.536  1.00  0.00    -0.134 OA 
ENDROOT
BRANCH   2   3
HETATM    3  C   UNL     1      -9.969   6.437  70.071  1.00  0.00    -0.169 C  
HETATM    4  O   UNL     1     -10.218   6.641  68.891  1.00  0.00    -0.161 OA 
BRANCH   3   5
HETATM    5  C   UNL     1     -10.775   6.965  71.229  1.00  0.00    -0.249 C  
BRANCH   5   6
HETATM    6  C   UNL     1     -10.101   8.183  71.848  1.00  0.00    -0.285 C  
BRANCH   6   7
HETATM    7  C   UNL     1      -9.401   7.856  73.152  1.00  0.00    -0.272 C  
HETATM    8  O   UNL     1      -8.308   8.342  73.449  1.00  0.00    -0.315 OA 
BRANCH   7   9
HETATM    9  C   UNL     1     -10.096   6.821  74.038  1.00  0.00    -0.359 C  
HETATM   10  N   UNL     1      -9.198   5.697  74.306  1.00  0.00    -0.122 NA 
HETATM   11  H1  UNL     1      -9.661   5.006  74.897  1.00  0.00     0.000 HD 
HETATM   12  H2  UNL     1      -8.311   6.004  74.703  1.00  0.00     0.000 HD 
ENDBRANCH   7   9
ENDBRANCH   6   7
ENDBRANCH   5   6
ENDBRANCH   3   5
ENDBRANCH   2   3
TORSDOF 5
ENDMDL
MODEL      249
REMARK 921   NORMALIZED FREE ENERGY PREDICTED BY IDOCK:   -1.46 KCAL/MOL
REMARK 922        TOTAL FREE ENERGY PREDICTED BY IDOCK:   -2.33 KCAL/MOL
REMARK 923 INTER-LIGAND FREE ENERGY PREDICTED BY IDOCK:   -2.14 KCAL/MOL
REMARK 924 INTRA-LIGAND FREE ENERGY PREDICTED BY IDOCK:   -0.19 KCAL/MOL
REMARK 927      BINDING AFFINITY PREDICTED BY RF-SCORE:    0.00 PKD
ROOT
HETATM    1  C   UNL     1     -10.510   5.579  66.757  1.00  0.00    -0.296 C  
HETATM    2  O   UNL     1      -9.605   6.626  67.107  1.00  0.00    -0.129 OA 
ENDROOT
BRANCH   2   3
HETATM    3  C   UNL     1     -10.104   7.509  68.017  1.00  0.00    -0.183 C  
HETATM    4  O   UNL     1     -10.891   8.411  67.765  1.00  0.00    -0.142 OA 
BRANCH   3   5
HETATM    5  C   UNL     1      -9.548   7.203  69.383  1.00  0.00    -0.153 C  
BRANCH   5   6
HETATM    6  C   UNL     1      -8.979   8.459  70.032  1.00  0.00    -0.138 C  
BRANCH   6   7
HETATM    7  C   UNL     1      -9.839   8.957  71.176  1.00  0.00    -0.275 C  
HETATM    8  O   UNL     1     -10.720   9.805  71.014  1.00  0.00    -0.324 OA 
BRANCH   7   9
HETATM    9  C   UNL     1      -9.491   8.406  72.559  1.00  0.00    -0.289 C  
HETATM   10  N   UNL     1      -8.044   8.224  72.685  1.00  0.00    -0.215 NA 
HETATM   11  H1  UNL     1      -7.812   7.856  73.608  1.00  0.00     0.000 HD 
HETATM   12  H2  UNL     1      -7.534   9.082  72.479  1.00  0.00     0.000 HD 
ENDBRANCH   7   9
ENDBRANCH   6   7
ENDBRANCH   5   6
ENDBRANCH   3   5
ENDBRANCH   2   3
TORSDOF 5
ENDMDL
MODEL      250
REMARK 921   NORMALIZED FREE ENERGY PREDICTED BY IDOCK:   -1.45 KCAL/MOL
REMARK 922        TOTAL FREE ENERGY PREDICTED BY IDOCK:   -2.31 KCAL/MOL
REMARK 923 INTER-LIGAND FREE ENERGY PREDICTED BY IDOCK:   -2.22 KCAL/MOL
REMARK 924 INTRA-LIGAND FREE ENERGY PREDICTED BY IDOCK:   -0.10 KCAL/MOL
REMARK 927      BINDING AFFINITY PREDICTED BY RF-SCORE:    0.00 PKD
ROOT
HETATM    1  C   UNL     1     -10.475   4.978  66.368  1.00  0.00    -0.300 C  
HETATM    2  O   UNL     1      -9.782   5.799  67.310  1.00  0.00    -0.118 OA 
ENDROOT
BRANCH   2   3
HETATM    3  C   UNL     1     -10.554   6.774  67.868  1.00  0.00    -0.242 C  
HETATM    4  O   UNL     1     -10.697   7.903  67.418  1.00  0.00    -0.272 OA 
BRANCH   3   5
HETATM    5  C   UNL     1     -11.212   6.252  69.118  1.00  0.00    -0.439 C  
BRANCH   5   6
HETATM    6  C   UNL     1     -10.804   7.078  70.331  1.00  0.00    -0.283 C  
BRANCH   6   7
HETATM    7  C   UNL     1      -9.494   6.612  70.934  1.00  0.00    -0.164 C  
HETATM    8  O   UNL     1      -9.450   5.799  71.860  1.00  0.00    -0.151 OA 
BRANCH   7   9
HETATM    9  C   UNL     1      -8.233   7.274  70.377  1.00  0.00    -0.125 C  
HETATM   10  N   UNL     1      -8.114   8.644  70.879  1.00  0.00    -0.121 NA 
HETATM   11  H1  UNL     1      -7.272   9.086  70.507  1.00  0.00     0.000 HD 
HETATM   12  H2  UNL     1      -8.144   8.680  71.897  1.00  0.00     0.000 HD 
ENDBRANCH   7   9
ENDBRANCH   6   7
ENDBRANCH   5   6
ENDBRANCH   3   5
ENDBRANCH   2   3
TORSDOF 5
ENDMDL
MODEL      251
REMARK 921   NORMALIZED FREE ENERGY PREDICTED BY IDOCK:   -1.43 KCAL/MOL
REMARK 922        TOTAL FREE ENERGY PREDICTED BY IDOCK:   -2.28 KCAL/MOL
REMARK 923 INTER-LIGAND FREE ENERGY PREDICTED BY IDOCK:   -2.18 KCAL/MOL
REMARK 924 INTRA-LIGAND FREE ENERGY PREDICTED BY IDOCK:   -0.11 KCAL/MOL
REMARK 927      BINDING AFFINITY PREDICTED BY RF-SCORE:    0.00 PKD
ROOT
HETATM    1  C   UNL     1     -10.282   5.344  69.629  1.00  0.00    -0.274 C  
HETATM    2  O   UNL     1     -10.721   6.693  69.805  1.00  0.00    -0.220 OA 
ENDROOT
BRANCH   2   3
HETATM    3  C   UNL     1      -9.719   7.566  70.103  1.00  0.00    -0.172 C  
HETATM    4  O   UNL     1      -9.489   8.022  71.215  1.00  0.00    -0.151 OA 
BRANCH   3   5
HETATM    5  C   UNL     1      -8.930   7.882  68.859  1.00  0.00    -0.141 C  
BRANCH   5   6
HETATM    6  C   UNL     1      -8.861   9.386  68.627  1.00  0.00    -0.132 C  
BRANCH   6   7
HETATM    7  C   UNL     1      -9.984   9.885  67.740  1.00  0.00    -0.165 C  
HETATM    8  O   UNL     1     -11.117  10.102  68.175  1.00  0.00    -0.266 OA 
BRANCH   7   9
HETATM    9  C   UNL     1      -9.646  10.025  66.255  1.00  0.00    -0.202 C  
HETATM   10  N   UNL     1      -9.645   8.712  65.608  1.00  0.00    -0.453 NA 
HETATM   11  H1  UNL     1      -9.420   8.805  64.617  1.00  0.00     0.000 HD 
HETATM   12  H2  UNL     1     -10.524   8.216  65.753  1.00  0.00     0.000 HD 
ENDBRANCH   7   9
ENDBRANCH   6   7
ENDBRANCH   5   6
ENDBRANCH   3   5
ENDBRANCH   2   3
TORSDOF 5
ENDMDL
MODEL      252
REMARK 921   NORMALIZED FREE ENERGY PREDICTED BY IDOCK:   -1.43 KCAL/MOL
REMARK 922        TOTAL FREE ENERGY PREDICTED BY IDOCK:   -2.28 KCAL/MOL
REMARK 923 INTER-LIGAND FREE ENERGY PREDICTED BY IDOCK:   -2.20 KCAL/MOL
REMARK 924 INTRA-LIGAND FREE ENERGY PREDICTED BY IDOCK:   -0.08 KCAL/MOL
REMARK 927      BINDING AFFINITY PREDICTED BY RF-SCORE:    0.00 PKD
ROOT
HETATM    1  C   UNL     1      -7.473  10.820  66.392  1.00  0.00    -0.142 C  
HETATM    2  O   UNL     1      -8.806  11.203  66.734  1.00  0.00    -0.152 OA 
ENDROOT
BRANCH   2   3
HETATM    3  C   UNL     1      -9.736  10.233  66.509  1.00  0.00    -0.193 C  
HETATM    4  O   UNL     1     -10.023   9.774  65.412  1.00  0.00    -0.320 OA 
BRANCH   3   5
HETATM    5  C   UNL     1     -10.352   9.804  67.815  1.00  0.00    -0.274 C  
BRANCH   5   6
HETATM    6  C   UNL     1      -9.541   8.686  68.457  1.00  0.00    -0.162 C  
BRANCH   6   7
HETATM    7  C   UNL     1     -10.198   8.141  69.709  1.00  0.00    -0.203 C  
HETATM    8  O   UNL     1     -10.067   6.966  70.061  1.00  0.00    -0.179 OA 
BRANCH   7   9
HETATM    9  C   UNL     1     -11.102   9.116  70.465  1.00  0.00    -0.260 C  
HETATM   10  N   UNL     1     -11.277   8.677  71.850  1.00  0.00    -0.319 NA 
HETATM   11  H1  UNL     1     -11.880   9.328  72.355  1.00  0.00     0.000 HD 
HETATM   12  H2  UNL     1     -10.383   8.543  72.323  1.00  0.00     0.000 HD 
ENDBRANCH   7   9
ENDBRANCH   6   7
ENDBRANCH   5   6
ENDBRANCH   3   5
ENDBRANCH   2   3
TORSDOF 5
ENDMDL
MODEL      253
REMARK 921   NORMALIZED FREE ENERGY PREDICTED BY IDOCK:   -1.40 KCAL/MOL
REMARK 922        TOTAL FREE ENERGY PREDICTED BY IDOCK:   -2.25 KCAL/MOL
REMARK 923 INTER-LIGAND FREE ENERGY PREDICTED BY IDOCK:   -2.17 KCAL/MOL
REMARK 924 INTRA-LIGAND FREE ENERGY PREDICTED BY IDOCK:   -0.08 KCAL/MOL
REMARK 927      BINDING AFFINITY PREDICTED BY RF-SCORE:    0.00 PKD
ROOT
HETATM    1  C   UNL     1      -7.184  10.713  66.376  1.00  0.00    -0.134 C  
HETATM    2  O   UNL     1      -8.589  10.958  66.460  1.00  0.00    -0.145 OA 
ENDROOT
BRANCH   2   3
HETATM    3  C   UNL     1      -9.335  10.206  65.603  1.00  0.00    -0.199 C  
HETATM    4  O   UNL     1      -9.423  10.392  64.397  1.00  0.00    -0.236 OA 
BRANCH   3   5
HETATM    5  C   UNL     1     -10.029   9.105  66.361  1.00  0.00    -0.358 C  
BRANCH   5   6
HETATM    6  C   UNL     1      -9.360   7.761  66.100  1.00  0.00    -0.162 C  
BRANCH   6   7
HETATM    7  C   UNL     1     -10.126   6.606  66.713  1.00  0.00    -0.175 C  
HETATM    8  O   UNL     1     -11.329   6.683  66.977  1.00  0.00    -0.348 OA 
BRANCH   7   9
HETATM    9  C   UNL     1      -9.299   5.368  67.060  1.00  0.00    -0.121 C  
HETATM   10  N   UNL     1      -9.849   4.186  66.395  1.00  0.00    -0.289 NA 
HETATM   11  H1  UNL     1      -9.297   3.360  66.627  1.00  0.00     0.000 HD 
HETATM   12  H2  UNL     1      -9.930   4.320  65.388  1.00  0.00     0.000 HD 
ENDBRANCH   7   9
ENDBRANCH   6   7
ENDBRANCH   5   6
ENDBRANCH   3   5
ENDBRANCH   2   3
TORSDOF 5
ENDMDL
MODEL      254
REMARK 921   NORMALIZED FREE ENERGY PREDICTED BY IDOCK:   -1.40 KCAL/MOL
REMARK 922        TOTAL FREE ENERGY PREDICTED BY IDOCK:   -2.24 KCAL/MOL
REMARK 923 INTER-LIGAND FREE ENERGY PREDICTED BY IDOCK:   -2.06 KCAL/MOL
REMARK 924 INTRA-LIGAND FREE ENERGY PREDICTED BY IDOCK:   -0.19 KCAL/MOL
REMARK 927      BINDING AFFINITY PREDICTED BY RF-SCORE:    0.00 PKD
ROOT
HETATM    1  C   UNL     1      -9.371   7.532  72.591  1.00  0.00    -0.159 C  
HETATM    2  O   UNL     1     -10.218   7.716  71.455  1.00  0.00    -0.186 OA 
ENDROOT
BRANCH   2   3
HETATM    3  C   UNL     1     -10.816   8.939  71.402  1.00  0.00    -0.307 C  
HETATM    4  O   UNL     1     -11.451   9.453  72.313  1.00  0.00    -0.112 OA 
BRANCH   3   5
HETATM    5  C   UNL     1     -10.571   9.569  70.055  1.00  0.00    -0.280 C  
BRANCH   5   6
HETATM    6  C   UNL     1     -10.165   8.517  69.030  1.00  0.00    -0.218 C  
BRANCH   6   7
HETATM    7  C   UNL     1      -8.919   8.910  68.263  1.00  0.00    -0.137 C  
HETATM    8  O   UNL     1      -7.817   9.010  68.808  1.00  0.00    -0.094 OA 
BRANCH   7   9
HETATM    9  C   UNL     1      -9.126   9.256  66.788  1.00  0.00    -0.140 C  
HETATM   10  N   UNL     1     -10.224   8.466  66.230  1.00  0.00    -0.424 NA 
HETATM   11  H1  UNL     1     -10.363   8.697  65.246  1.00  0.00     0.000 HD 
HETATM   12  H2  UNL     1     -11.083   8.573  66.770  1.00  0.00     0.000 HD 
ENDBRANCH   7   9
ENDBRANCH   6   7
ENDBRANCH   5   6
ENDBRANCH   3   5
ENDBRANCH   2   3
TORSDOF 5
ENDMDL
MODEL      255
REMARK 921   NORMALIZED FREE ENERGY PREDICTED BY IDOCK:   -1.38 KCAL/MOL
REMARK 922        TOTAL FREE ENERGY PREDICTED BY IDOCK:   -2.23 KCAL/MOL
REMARK 923 INTER-LIGAND FREE ENERGY PREDICTED BY IDOCK:   -2.14 KCAL/MOL
REMARK 924 INTRA-LIGAND FREE ENERGY PREDICTED BY IDOCK:   -0.09 KCAL/MOL
REMARK 927      BINDING AFFINITY PREDICTED BY RF-SCORE:    0.00 PKD
ROOT
HETATM    1  C   UNL     1     -12.848   7.440  71.897  1.00  0.00    -0.272 C  
HETATM    2  O   UNL     1     -11.851   8.364  72.337  1.00  0.00    -0.372 OA 
ENDROOT
BRANCH   2   3
HETATM    3  C   UNL     1     -10.746   7.773  72.872  1.00  0.00    -0.385 C  
HETATM    4  O   UNL     1     -10.726   7.119  73.906  1.00  0.00    -0.314 OA 
BRANCH   3   5
HETATM    5  C   UNL     1      -9.551   8.038  71.993  1.00  0.00    -0.262 C  
BRANCH   5   6
HETATM    6  C   UNL     1      -8.841   6.738  71.636  1.00  0.00    -0.129 C  
BRANCH   6   7
HETATM    7  C   UNL     1      -8.305   6.744  70.218  1.00  0.00    -0.134 C  
HETATM    8  O   UNL     1      -7.565   7.638  69.801  1.00  0.00    -0.088 OA 
BRANCH   7   9
HETATM    9  C   UNL     1      -8.804   5.617  69.313  1.00  0.00    -0.111 C  
HETATM   10  N   UNL     1      -7.677   4.821  68.825  1.00  0.00    -0.072 NA 
HETATM   11  H1  UNL     1      -8.010   4.069  68.220  1.00  0.00     0.000 HD 
HETATM   12  H2  UNL     1      -7.101   4.468  69.588  1.00  0.00     0.000 HD 
ENDBRANCH   7   9
ENDBRANCH   6   7
ENDBRANCH   5   6
ENDBRANCH   3   5
ENDBRANCH   2   3
TORSDOF 5
ENDMDL
MODEL      256
REMARK 921   NORMALIZED FREE ENERGY PREDICTED BY IDOCK:   -1.37 KCAL/MOL
REMARK 922        TOTAL FREE ENERGY PREDICTED BY IDOCK:   -2.21 KCAL/MOL
REMARK 923 INTER-LIGAND FREE ENERGY PREDICTED BY IDOCK:   -2.05 KCAL/MOL
REMARK 924 INTRA-LIGAND FREE ENERGY PREDICTED BY IDOCK:   -0.16 KCAL/MOL
REMARK 927      BINDING AFFINITY PREDICTED BY RF-SCORE:    0.00 PKD
ROOT
HETATM    1  C   UNL     1     -10.975  10.519  69.773  1.00  0.00    -0.294 C  
HETATM    2  O   UNL     1     -11.386   9.177  69.504  1.00  0.00    -0.042 OA 
ENDROOT
BRANCH   2   3
HETATM    3  C   UNL     1     -10.963   8.272  70.430  1.00  0.00    -0.239 C  
HETATM    4  O   UNL     1     -10.476   8.552  71.517  1.00  0.00    -0.210 OA 
BRANCH   3   5
HETATM    5  C   UNL     1     -11.194   6.873  69.920  1.00  0.00    -0.334 C  
BRANCH   5   6
HETATM    6  C   UNL     1     -11.111   5.861  71.055  1.00  0.00    -0.315 C  
BRANCH   6   7
HETATM    7  C   UNL     1      -9.833   5.047  71.012  1.00  0.00    -0.198 C  
HETATM    8  O   UNL     1      -9.006   5.077  71.926  1.00  0.00    -0.131 OA 
BRANCH   7   9
HETATM    9  C   UNL     1      -9.595   4.251  69.729  1.00  0.00    -0.209 C  
HETATM   10  N   UNL     1      -8.418   4.762  69.025  1.00  0.00    -0.081 NA 
HETATM   11  H1  UNL     1      -8.259   4.231  68.168  1.00  0.00     0.000 HD 
HETATM   12  H2  UNL     1      -7.593   4.776  69.623  1.00  0.00     0.000 HD 
ENDBRANCH   7   9
ENDBRANCH   6   7
ENDBRANCH   5   6
ENDBRANCH   3   5
ENDBRANCH   2   3
TORSDOF 5
ENDMDL
MODEL      257
REMARK 921   NORMALIZED FREE ENERGY PREDICTED BY IDOCK:   -1.36 KCAL/MOL
REMARK 922        TOTAL FREE ENERGY PREDICTED BY IDOCK:   -2.20 KCAL/MOL
REMARK 923 INTER-LIGAND FREE ENERGY PREDICTED BY IDOCK:   -2.05 KCAL/MOL
REMARK 924 INTRA-LIGAND FREE ENERGY PREDICTED BY IDOCK:   -0.14 KCAL/MOL
REMARK 927      BINDING AFFINITY PREDICTED BY RF-SCORE:    0.00 PKD
ROOT
HETATM    1  C   UNL     1      -8.768   7.518  66.027  1.00  0.00    -0.158 C  
HETATM    2  O   UNL     1      -8.101   8.781  66.038  1.00  0.00    -0.106 OA 
ENDROOT
BRANCH   2   3
HETATM    3  C   UNL     1      -8.846   9.796  66.558  1.00  0.00    -0.138 C  
HETATM    4  O   UNL     1      -9.716  10.412  65.958  1.00  0.00    -0.189 OA 
BRANCH   3   5
HETATM    5  C   UNL     1      -8.443  10.043  67.989  1.00  0.00    -0.117 C  
BRANCH   5   6
HETATM    6  C   UNL     1      -9.669  10.141  68.888  1.00  0.00    -0.189 C  
BRANCH   6   7
HETATM    7  C   UNL     1      -9.458   9.462  70.227  1.00  0.00    -0.251 C  
HETATM    8  O   UNL     1      -8.447   9.655  70.908  1.00  0.00    -0.253 OA 
BRANCH   7   9
HETATM    9  C   UNL     1     -10.536   8.462  70.644  1.00  0.00    -0.208 C  
HETATM   10  N   UNL     1     -11.040   7.740  69.474  1.00  0.00    -0.445 NA 
HETATM   11  H1  UNL     1     -11.759   7.072  69.752  1.00  0.00     0.000 HD 
HETATM   12  H2  UNL     1     -10.288   7.293  68.951  1.00  0.00     0.000 HD 
ENDBRANCH   7   9
ENDBRANCH   6   7
ENDBRANCH   5   6
ENDBRANCH   3   5
ENDBRANCH   2   3
TORSDOF 5
ENDMDL
MODEL      258
REMARK 921   NORMALIZED FREE ENERGY PREDICTED BY IDOCK:   -1.36 KCAL/MOL
REMARK 922        TOTAL FREE ENERGY PREDICTED BY IDOCK:   -2.19 KCAL/MOL
REMARK 923 INTER-LIGAND FREE ENERGY PREDICTED BY IDOCK:   -2.07 KCAL/MOL
REMARK 924 INTRA-LIGAND FREE ENERGY PREDICTED BY IDOCK:   -0.12 KCAL/MOL
REMARK 927      BINDING AFFINITY PREDICTED BY RF-SCORE:    0.00 PKD
ROOT
HETATM    1  C   UNL     1      -8.609   6.411  68.064  1.00  0.00    -0.117 C  
HETATM    2  O   UNL     1      -9.651   7.258  68.552  1.00  0.00    -0.140 OA 
ENDROOT
BRANCH   2   3
HETATM    3  C   UNL     1     -10.479   6.656  69.450  1.00  0.00    -0.219 C  
HETATM    4  O   UNL     1     -11.681   6.489  69.298  1.00  0.00    -0.250 OA 
BRANCH   3   5
HETATM    5  C   UNL     1      -9.691   6.219  70.658  1.00  0.00    -0.199 C  
BRANCH   5   6
HETATM    6  C   UNL     1      -9.560   7.357  71.662  1.00  0.00    -0.165 C  
BRANCH   6   7
HETATM    7  C   UNL     1      -9.801   6.901  73.087  1.00  0.00    -0.186 C  
HETATM    8  O   UNL     1     -10.905   6.506  73.471  1.00  0.00    -0.272 OA 
BRANCH   7   9
HETATM    9  C   UNL     1      -8.613   7.037  74.039  1.00  0.00    -0.161 C  
HETATM   10  N   UNL     1      -8.082   8.401  73.997  1.00  0.00    -0.362 NA 
HETATM   11  H1  UNL     1      -7.289   8.492  74.633  1.00  0.00     0.000 HD 
HETATM   12  H2  UNL     1      -8.804   9.096  74.187  1.00  0.00     0.000 HD 
ENDBRANCH   7   9
ENDBRANCH   6   7
ENDBRANCH   5   6
ENDBRANCH   3   5
ENDBRANCH   2   3
TORSDOF 5
ENDMDL
MODEL      259
REMARK 921   NORMALIZED FREE ENERGY PREDICTED BY IDOCK:   -1.35 KCAL/MOL
REMARK 922        TOTAL FREE ENERGY PREDICTED BY IDOCK:   -2.18 KCAL/MOL
REMARK 923 INTER-LIGAND FREE ENERGY PREDICTED BY IDOCK:   -2.04 KCAL/MOL
REMARK 924 INTRA-LIGAND FREE ENERGY PREDICTED BY IDOCK:   -0.14 KCAL/MOL
REMARK 927      BINDING AFFINITY PREDICTED BY RF-SCORE:    0.00 PKD
ROOT
HETATM    1  C   UNL     1      -9.154   2.726  68.540  1.00  0.00    -0.163 C  
HETATM    2  O   UNL     1      -9.612   3.527  69.631  1.00  0.00    -0.174 OA 
ENDROOT
BRANCH   2   3
HETATM    3  C   UNL     1      -9.714   4.854  69.339  1.00  0.00    -0.191 C  
HETATM    4  O   UNL     1      -9.134   5.420  68.423  1.00  0.00    -0.107 OA 
BRANCH   3   5
HETATM    5  C   UNL     1     -10.656   5.519  70.308  1.00  0.00    -0.357 C  
BRANCH   5   6
HETATM    6  C   UNL     1     -10.359   7.009  70.418  1.00  0.00    -0.219 C  
BRANCH   6   7
HETATM    7  C   UNL     1      -9.415   7.328  71.560  1.00  0.00    -0.152 C  
HETATM    8  O   UNL     1      -9.444   6.710  72.627  1.00  0.00    -0.144 OA 
BRANCH   7   9
HETATM    9  C   UNL     1      -8.479   8.516  71.338  1.00  0.00    -0.172 C  
HETATM   10  N   UNL     1      -7.758   8.833  72.572  1.00  0.00    -0.366 NA 
HETATM   11  H1  UNL     1      -7.134   9.626  72.425  1.00  0.00     0.000 HD 
HETATM   12  H2  UNL     1      -7.262   8.022  72.942  1.00  0.00     0.000 HD 
ENDBRANCH   7   9
ENDBRANCH   6   7
ENDBRANCH   5   6
ENDBRANCH   3   5
ENDBRANCH   2   3
TORSDOF 5
ENDMDL
MODEL      260
REMARK 921   NORMALIZED FREE ENERGY PREDICTED BY IDOCK:   -1.35 KCAL/MOL
REMARK 922        TOTAL FREE ENERGY PREDICTED BY IDOCK:   -2.18 KCAL/MOL
REMARK 923 INTER-LIGAND FREE ENERGY PREDICTED BY IDOCK:   -1.99 KCAL/MOL
REMARK 924 INTRA-LIGAND FREE ENERGY PREDICTED BY IDOCK:   -0.19 KCAL/MOL
REMARK 927      BINDING AFFINITY PREDICTED BY RF-SCORE:    0.00 PKD
ROOT
HETATM    1  C   UNL     1      -8.097   6.463  72.385  1.00  0.00    -0.103 C  
HETATM    2  O   UNL     1      -8.539   7.489  71.494  1.00  0.00    -0.114 OA 
ENDROOT
BRANCH   2   3
HETATM    3  C   UNL     1      -9.718   7.210  70.871  1.00  0.00    -0.170 C  
HETATM    4  O   UNL     1     -10.754   7.847  71.007  1.00  0.00    -0.217 OA 
BRANCH   3   5
HETATM    5  C   UNL     1      -9.554   6.005  69.983  1.00  0.00    -0.194 C  
BRANCH   5   6
HETATM    6  C   UNL     1      -9.121   6.418  68.582  1.00  0.00    -0.127 C  
BRANCH   6   7
HETATM    7  C   UNL     1     -10.283   6.898  67.736  1.00  0.00    -0.180 C  
HETATM    8  O   UNL     1     -11.348   6.279  67.672  1.00  0.00    -0.246 OA 
BRANCH   7   9
HETATM    9  C   UNL     1     -10.026   8.155  66.904  1.00  0.00    -0.273 C  
HETATM   10  N   UNL     1      -9.123   7.853  65.793  1.00  0.00    -0.370 NA 
HETATM   11  H1  UNL     1      -8.952   8.691  65.237  1.00  0.00     0.000 HD 
HETATM   12  H2  UNL     1      -9.468   7.082  65.221  1.00  0.00     0.000 HD 
ENDBRANCH   7   9
ENDBRANCH   6   7
ENDBRANCH   5   6
ENDBRANCH   3   5
ENDBRANCH   2   3
TORSDOF 5
ENDMDL
MODEL      261
REMARK 921   NORMALIZED FREE ENERGY PREDICTED BY IDOCK:   -1.33 KCAL/MOL
REMARK 922        TOTAL FREE ENERGY PREDICTED BY IDOCK:   -2.16 KCAL/MOL
REMARK 923 INTER-LIGAND FREE ENERGY PREDICTED BY IDOCK:   -1.93 KCAL/MOL
REMARK 924 INTRA-LIGAND FREE ENERGY PREDICTED BY IDOCK:   -0.23 KCAL/MOL
REMARK 927      BINDING AFFINITY PREDICTED BY RF-SCORE:    0.00 PKD
ROOT
HETATM    1  C   UNL     1     -10.370   5.314  69.731  1.00  0.00    -0.299 C  
HETATM    2  O   UNL     1     -10.316   6.687  70.123  1.00  0.00    -0.194 OA 
ENDROOT
BRANCH   2   3
HETATM    3  C   UNL     1     -10.123   6.874  71.459  1.00  0.00    -0.184 C  
HETATM    4  O   UNL     1     -10.705   7.702  72.146  1.00  0.00    -0.220 OA 
BRANCH   3   5
HETATM    5  C   UNL     1      -9.089   5.902  71.966  1.00  0.00    -0.147 C  
BRANCH   5   6
HETATM    6  C   UNL     1      -9.516   5.305  73.301  1.00  0.00    -0.148 C  
BRANCH   6   7
HETATM    7  C   UNL     1     -10.594   4.251  73.144  1.00  0.00    -0.195 C  
HETATM    8  O   UNL     1     -11.772   4.469  73.438  1.00  0.00    -0.270 OA 
BRANCH   7   9
HETATM    9  C   UNL     1     -10.117   2.875  72.678  1.00  0.00    -0.159 C  
HETATM   10  N   UNL     1     -10.705   1.824  73.510  1.00  0.00    -0.113 NA 
HETATM   11  H1  UNL     1     -10.387   0.906  73.199  1.00  0.00     0.000 HD 
HETATM   12  H2  UNL     1     -11.723   1.885  73.537  1.00  0.00     0.000 HD 
ENDBRANCH   7   9
ENDBRANCH   6   7
ENDBRANCH   5   6
ENDBRANCH   3   5
ENDBRANCH   2   3
TORSDOF 5
ENDMDL
MODEL      262
REMARK 921   NORMALIZED FREE ENERGY PREDICTED BY IDOCK:   -1.27 KCAL/MOL
REMARK 922        TOTAL FREE ENERGY PREDICTED BY IDOCK:   -2.08 KCAL/MOL
REMARK 923 INTER-LIGAND FREE ENERGY PREDICTED BY IDOCK:   -1.88 KCAL/MOL
REMARK 924 INTRA-LIGAND FREE ENERGY PREDICTED BY IDOCK:   -0.19 KCAL/MOL
REMARK 927      BINDING AFFINITY PREDICTED BY RF-SCORE:    0.00 PKD
ROOT
HETATM    1  C   UNL     1     -10.570   5.902  67.661  1.00  0.00    -0.262 C  
HETATM    2  O   UNL     1      -9.517   5.549  66.763  1.00  0.00    -0.129 OA 
ENDROOT
BRANCH   2   3
HETATM    3  C   UNL     1      -8.549   6.500  66.643  1.00  0.00    -0.118 C  
HETATM    4  O   UNL     1      -7.508   6.370  66.013  1.00  0.00    -0.078 OA 
BRANCH   3   5
HETATM    5  C   UNL     1      -8.956   7.740  67.396  1.00  0.00    -0.128 C  
BRANCH   5   6
HETATM    6  C   UNL     1      -8.354   8.985  66.756  1.00  0.00    -0.115 C  
BRANCH   6   7
HETATM    7  C   UNL     1      -9.301   9.644  65.774  1.00  0.00    -0.228 C  
HETATM    8  O   UNL     1     -10.400  10.086  66.117  1.00  0.00    -0.224 OA 
BRANCH   7   9
HETATM    9  C   UNL     1      -8.844   9.655  64.314  1.00  0.00    -0.228 C  
HETATM   10  N   UNL     1      -8.823  11.024  63.798  1.00  0.00    -0.373 NA 
HETATM   11  H1  UNL     1      -8.519  11.032  62.824  1.00  0.00     0.000 HD 
HETATM   12  H2  UNL     1      -8.256  11.641  64.379  1.00  0.00     0.000 HD 
ENDBRANCH   7   9
ENDBRANCH   6   7
ENDBRANCH   5   6
ENDBRANCH   3   5
ENDBRANCH   2   3
TORSDOF 5
ENDMDL
MODEL      263
REMARK 921   NORMALIZED FREE ENERGY PREDICTED BY IDOCK:   -1.26 KCAL/MOL
REMARK 922        TOTAL FREE ENERGY PREDICTED BY IDOCK:   -2.07 KCAL/MOL
REMARK 923 INTER-LIGAND FREE ENERGY PREDICTED BY IDOCK:   -1.85 KCAL/MOL
REMARK 924 INTRA-LIGAND FREE ENERGY PREDICTED BY IDOCK:   -0.22 KCAL/MOL
REMARK 927      BINDING AFFINITY PREDICTED BY RF-SCORE:    0.00 PKD
ROOT
HETATM    1  C   UNL     1     -11.238   6.131  72.257  1.00  0.00    -0.289 C  
HETATM    2  O   UNL     1     -11.876   6.211  70.981  1.00  0.00    -0.236 OA 
ENDROOT
BRANCH   2   3
HETATM    3  C   UNL     1     -11.249   7.039  70.099  1.00  0.00    -0.284 C  
HETATM    4  O   UNL     1     -11.136   8.250  70.228  1.00  0.00    -0.255 OA 
BRANCH   3   5
HETATM    5  C   UNL     1     -10.708   6.238  68.943  1.00  0.00    -0.357 C  
BRANCH   5   6
HETATM    6  C   UNL     1      -9.201   6.422  68.814  1.00  0.00    -0.127 C  
BRANCH   6   7
HETATM    7  C   UNL     1      -8.428   5.210  69.293  1.00  0.00    -0.093 C  
HETATM    8  O   UNL     1      -8.432   4.854  70.473  1.00  0.00    -0.093 OA 
BRANCH   7   9
HETATM    9  C   UNL     1      -7.576   4.504  68.237  1.00  0.00    -0.072 C  
HETATM   10  N   UNL     1      -6.847   3.386  68.837  1.00  0.00    -0.044 NA 
HETATM   11  H1  UNL     1      -6.278   2.915  68.133  1.00  0.00     0.000 HD 
HETATM   12  H2  UNL     1      -7.471   2.738  69.317  1.00  0.00     0.000 HD 
ENDBRANCH   7   9
ENDBRANCH   6   7
ENDBRANCH   5   6
ENDBRANCH   3   5
ENDBRANCH   2   3
TORSDOF 5
ENDMDL
MODEL      264
REMARK 921   NORMALIZED FREE ENERGY PREDICTED BY IDOCK:   -1.25 KCAL/MOL
REMARK 922        TOTAL FREE ENERGY PREDICTED BY IDOCK:   -2.05 KCAL/MOL
REMARK 923 INTER-LIGAND FREE ENERGY PREDICTED BY IDOCK:   -1.89 KCAL/MOL
REMARK 924 INTRA-LIGAND FREE ENERGY PREDICTED BY IDOCK:   -0.17 KCAL/MOL
REMARK 927      BINDING AFFINITY PREDICTED BY RF-SCORE:    0.00 PKD
ROOT
HETATM    1  C   UNL     1      -7.043   8.221  70.624  1.00  0.00    -0.042 C  
HETATM    2  O   UNL     1      -6.705   8.980  69.461  1.00  0.00    -0.046 OA 
ENDROOT
BRANCH   2   3
HETATM    3  C   UNL     1      -7.283  10.213  69.418  1.00  0.00    -0.096 C  
HETATM    4  O   UNL     1      -6.676  11.276  69.413  1.00  0.00    -0.099 OA 
BRANCH   3   5
HETATM    5  C   UNL     1      -8.782  10.073  69.369  1.00  0.00    -0.195 C  
BRANCH   5   6
HETATM    6  C   UNL     1      -9.420  11.292  68.715  1.00  0.00    -0.147 C  
BRANCH   6   7
HETATM    7  C   UNL     1      -9.767  11.052  67.259  1.00  0.00    -0.166 C  
HETATM    8  O   UNL     1      -8.911  10.764  66.419  1.00  0.00    -0.155 OA 
BRANCH   7   9
HETATM    9  C   UNL     1     -11.233  11.267  66.880  1.00  0.00    -0.230 C  
HETATM   10  N   UNL     1     -12.085  11.164  68.065  1.00  0.00    -0.711 NA 
HETATM   11  H1  UNL     1     -13.063  11.307  67.812  1.00  0.00     0.000 HD 
HETATM   12  H2  UNL     1     -11.786  11.799  68.805  1.00  0.00     0.000 HD 
ENDBRANCH   7   9
ENDBRANCH   6   7
ENDBRANCH   5   6
ENDBRANCH   3   5
ENDBRANCH   2   3
TORSDOF 5
ENDMDL
MODEL      265
REMARK 921   NORMALIZED FREE ENERGY PREDICTED BY IDOCK:   -1.25 KCAL/MOL
REMARK 922        TOTAL FREE ENERGY PREDICTED BY IDOCK:   -2.05 KCAL/MOL
REMARK 923 INTER-LIGAND FREE ENERGY PREDICTED BY IDOCK:   -1.96 KCAL/MOL
REMARK 924 INTRA-LIGAND FREE ENERGY PREDICTED BY IDOCK:   -0.10 KCAL/MOL
REMARK 927      BINDING AFFINITY PREDICTED BY RF-SCORE:    0.00 PKD
ROOT
HETATM    1  C   UNL     1      -8.060   6.392  72.169  1.00  0.00    -0.108 C  
HETATM    2  O   UNL     1      -8.915   6.807  71.102  1.00  0.00    -0.146 OA 
ENDROOT
BRANCH   2   3
HETATM    3  C   UNL     1     -10.041   6.051  70.969  1.00  0.00    -0.192 C  
HETATM    4  O   UNL     1     -11.142   6.342  71.416  1.00  0.00    -0.255 OA 
BRANCH   3   5
HETATM    5  C   UNL     1      -9.730   4.806  70.180  1.00  0.00    -0.288 C  
BRANCH   5   6
HETATM    6  C   UNL     1     -10.145   4.968  68.723  1.00  0.00    -0.200 C  
BRANCH   6   7
HETATM    7  C   UNL     1      -9.165   4.317  67.768  1.00  0.00    -0.145 C  
HETATM    8  O   UNL     1      -7.996   4.081  68.086  1.00  0.00    -0.076 OA 
BRANCH   7   9
HETATM    9  C   UNL     1      -9.690   4.046  66.358  1.00  0.00    -0.188 C  
HETATM   10  N   UNL     1      -9.710   5.282  65.576  1.00  0.00    -0.358 NA 
HETATM   11  H1  UNL     1     -10.060   5.101  64.635  1.00  0.00     0.000 HD 
HETATM   12  H2  UNL     1      -8.797   5.737  65.560  1.00  0.00     0.000 HD 
ENDBRANCH   7   9
ENDBRANCH   6   7
ENDBRANCH   5   6
ENDBRANCH   3   5
ENDBRANCH   2   3
TORSDOF 5
ENDMDL
MODEL      266
REMARK 921   NORMALIZED FREE ENERGY PREDICTED BY IDOCK:   -1.24 KCAL/MOL
REMARK 922        TOTAL FREE ENERGY PREDICTED BY IDOCK:   -2.04 KCAL/MOL
REMARK 923 INTER-LIGAND FREE ENERGY PREDICTED BY IDOCK:   -2.58 KCAL/MOL
REMARK 924 INTRA-LIGAND FREE ENERGY PREDICTED BY IDOCK:    0.54 KCAL/MOL
REMARK 927      BINDING AFFINITY PREDICTED BY RF-SCORE:    0.00 PKD
ROOT
HETATM    1  C   UNL     1      -8.362  13.705  68.760  1.00  0.00     0.041 C  
HETATM    2  O   UNL     1      -9.055  12.697  68.022  1.00  0.00    -0.194 OA 
ENDROOT
BRANCH   2   3
HETATM    3  C   UNL     1     -10.407  12.861  67.996  1.00  0.00    -0.227 C  
HETATM    4  O   UNL     1     -11.146  12.779  68.967  1.00  0.00    -0.251 OA 
BRANCH   3   5
HETATM    5  C   UNL     1     -10.857  13.167  66.591  1.00  0.00    -0.292 C  
BRANCH   5   6
HETATM    6  C   UNL     1     -11.788  14.373  66.570  1.00  0.00    -0.406 C  
BRANCH   6   7
HETATM    7  C   UNL     1     -11.402  15.418  67.598  1.00  0.00    -0.290 C  
HETATM    8  O   UNL     1     -11.946  15.481  68.704  1.00  0.00    -0.335 OA 
BRANCH   7   9
HETATM    9  C   UNL     1     -10.356  16.439  67.151  1.00  0.00    -0.290 C  
HETATM   10  N   UNL     1     -10.228  17.505  68.145  1.00  0.00    -0.338 NA 
HETATM   11  H1  UNL     1      -9.530  18.187  67.846  1.00  0.00     0.000 HD 
HETATM   12  H2  UNL     1     -10.027  17.137  69.074  1.00  0.00     0.000 HD 
ENDBRANCH   7   9
ENDBRANCH   6   7
ENDBRANCH   5   6
ENDBRANCH   3   5
ENDBRANCH   2   3
TORSDOF 5
ENDMDL
MODEL      267
REMARK 921   NORMALIZED FREE ENERGY PREDICTED BY IDOCK:   -1.23 KCAL/MOL
REMARK 922        TOTAL FREE ENERGY PREDICTED BY IDOCK:   -2.03 KCAL/MOL
REMARK 923 INTER-LIGAND FREE ENERGY PREDICTED BY IDOCK:   -1.88 KCAL/MOL
REMARK 924 INTRA-LIGAND FREE ENERGY PREDICTED BY IDOCK:   -0.15 KCAL/MOL
REMARK 927      BINDING AFFINITY PREDICTED BY RF-SCORE:    0.00 PKD
ROOT
HETATM    1  C   UNL     1     -10.748   7.192  71.969  1.00  0.00    -0.214 C  
HETATM    2  O   UNL     1     -10.112   8.286  72.632  1.00  0.00    -0.289 OA 
ENDROOT
BRANCH   2   3
HETATM    3  C   UNL     1      -9.155   7.910  73.527  1.00  0.00    -0.282 C  
HETATM    4  O   UNL     1      -8.108   8.508  73.731  1.00  0.00    -0.378 OA 
BRANCH   3   5
HETATM    5  C   UNL     1      -9.584   6.651  74.234  1.00  0.00    -0.296 C  
BRANCH   5   6
HETATM    6  C   UNL     1      -8.406   5.701  74.413  1.00  0.00    -0.105 C  
BRANCH   6   7
HETATM    7  C   UNL     1      -8.643   4.357  73.754  1.00  0.00    -0.099 C  
HETATM    8  O   UNL     1      -9.767   3.858  73.668  1.00  0.00    -0.105 OA 
BRANCH   7   9
HETATM    9  C   UNL     1      -7.391   3.620  73.277  1.00  0.00    -0.057 C  
HETATM   10  N   UNL     1      -7.763   2.436  72.500  1.00  0.00    -0.051 NA 
HETATM   11  H1  UNL     1      -6.927   1.944  72.182  1.00  0.00     0.000 HD 
HETATM   12  H2  UNL     1      -8.385   2.669  71.727  1.00  0.00     0.000 HD 
ENDBRANCH   7   9
ENDBRANCH   6   7
ENDBRANCH   5   6
ENDBRANCH   3   5
ENDBRANCH   2   3
TORSDOF 5
ENDMDL
MODEL      268
REMARK 921   NORMALIZED FREE ENERGY PREDICTED BY IDOCK:   -1.23 KCAL/MOL
REMARK 922        TOTAL FREE ENERGY PREDICTED BY IDOCK:   -2.03 KCAL/MOL
REMARK 923 INTER-LIGAND FREE ENERGY PREDICTED BY IDOCK:   -1.91 KCAL/MOL
REMARK 924 INTRA-LIGAND FREE ENERGY PREDICTED BY IDOCK:   -0.12 KCAL/MOL
REMARK 927      BINDING AFFINITY PREDICTED BY RF-SCORE:    0.00 PKD
ROOT
HETATM    1  C   UNL     1     -10.693  11.089  68.921  1.00  0.00    -0.211 C  
HETATM    2  O   UNL     1     -10.347  10.129  67.921  1.00  0.00    -0.170 OA 
ENDROOT
BRANCH   2   3
HETATM    3  C   UNL     1     -10.489   8.835  68.323  1.00  0.00    -0.187 C  
HETATM    4  O   UNL     1     -10.514   8.457  69.487  1.00  0.00    -0.220 OA 
BRANCH   3   5
HETATM    5  C   UNL     1     -10.618   7.938  67.120  1.00  0.00    -0.383 C  
BRANCH   5   6
HETATM    6  C   UNL     1      -9.300   7.856  66.360  1.00  0.00    -0.247 C  
BRANCH   6   7
HETATM    7  C   UNL     1      -8.855   6.426  66.130  1.00  0.00    -0.150 C  
HETATM    8  O   UNL     1      -8.971   5.555  66.996  1.00  0.00    -0.114 OA 
BRANCH   7   9
HETATM    9  C   UNL     1      -8.177   6.148  64.788  1.00  0.00    -0.112 C  
HETATM   10  N   UNL     1      -7.704   7.397  64.188  1.00  0.00    -0.116 NA 
HETATM   11  H1  UNL     1      -7.252   7.211  63.293  1.00  0.00     0.000 HD 
HETATM   12  H2  UNL     1      -7.097   7.916  64.821  1.00  0.00     0.000 HD 
ENDBRANCH   7   9
ENDBRANCH   6   7
ENDBRANCH   5   6
ENDBRANCH   3   5
ENDBRANCH   2   3
TORSDOF 5
ENDMDL
MODEL      269
REMARK 921   NORMALIZED FREE ENERGY PREDICTED BY IDOCK:   -1.21 KCAL/MOL
REMARK 922        TOTAL FREE ENERGY PREDICTED BY IDOCK:   -2.01 KCAL/MOL
REMARK 923 INTER-LIGAND FREE ENERGY PREDICTED BY IDOCK:   -1.83 KCAL/MOL
REMARK 924 INTRA-LIGAND FREE ENERGY PREDICTED BY IDOCK:   -0.18 KCAL/MOL
REMARK 927      BINDING AFFINITY PREDICTED BY RF-SCORE:    0.00 PKD
ROOT
HETATM    1  C   UNL     1      -5.951   6.878  69.367  1.00  0.00    -0.019 C  
HETATM    2  O   UNL     1      -6.292   7.936  68.470  1.00  0.00    -0.045 OA 
ENDROOT
BRANCH   2   3
HETATM    3  C   UNL     1      -7.623   8.022  68.195  1.00  0.00    -0.109 C  
HETATM    4  O   UNL     1      -8.352   7.074  67.938  1.00  0.00    -0.117 OA 
BRANCH   3   5
HETATM    5  C   UNL     1      -8.067   9.460  68.264  1.00  0.00    -0.109 C  
BRANCH   5   6
HETATM    6  C   UNL     1      -9.043   9.673  69.414  1.00  0.00    -0.194 C  
BRANCH   6   7
HETATM    7  C   UNL     1     -10.481   9.756  68.942  1.00  0.00    -0.214 C  
HETATM    8  O   UNL     1     -10.790   9.629  67.755  1.00  0.00    -0.270 OA 
BRANCH   7   9
HETATM    9  C   UNL     1     -11.516  10.087  70.017  1.00  0.00    -0.248 C  
HETATM   10  N   UNL     1     -11.580  11.533  70.234  1.00  0.00    -0.504 NA 
HETATM   11  H1  UNL     1     -12.271  11.754  70.952  1.00  0.00     0.000 HD 
HETATM   12  H2  UNL     1     -11.756  12.040  69.367  1.00  0.00     0.000 HD 
ENDBRANCH   7   9
ENDBRANCH   6   7
ENDBRANCH   5   6
ENDBRANCH   3   5
ENDBRANCH   2   3
TORSDOF 5
ENDMDL
MODEL      270
REMARK 921   NORMALIZED FREE ENERGY PREDICTED BY IDOCK:   -1.21 KCAL/MOL
REMARK 922        TOTAL FREE ENERGY PREDICTED BY IDOCK:   -2.00 KCAL/MOL
REMARK 923 INTER-LIGAND FREE ENERGY PREDICTED BY IDOCK:   -1.89 KCAL/MOL
REMARK 924 INTRA-LIGAND FREE ENERGY PREDICTED BY IDOCK:   -0.11 KCAL/MOL
REMARK 927      BINDING AFFINITY PREDICTED BY RF-SCORE:    0.00 PKD
ROOT
HETATM    1  C   UNL     1      -8.814   2.072  68.323  1.00  0.00    -0.109 C  
HETATM    2  O   UNL     1      -9.089   2.875  69.473  1.00  0.00    -0.101 OA 
ENDROOT
BRANCH   2   3
HETATM    3  C   UNL     1      -8.625   4.152  69.381  1.00  0.00    -0.077 C  
HETATM    4  O   UNL     1      -7.717   4.521  68.648  1.00  0.00    -0.070 OA 
BRANCH   3   5
HETATM    5  C   UNL     1      -9.402   5.046  70.311  1.00  0.00    -0.212 C  
BRANCH   5   6
HETATM    6  C   UNL     1      -9.424   6.479  69.794  1.00  0.00    -0.155 C  
BRANCH   6   7
HETATM    7  C   UNL     1     -10.794   6.894  69.298  1.00  0.00    -0.237 C  
HETATM    8  O   UNL     1     -11.833   6.463  69.804  1.00  0.00    -0.357 OA 
BRANCH   7   9
HETATM    9  C   UNL     1     -10.810   7.815  68.078  1.00  0.00     0.021 C  
HETATM   10  N   UNL     1     -10.964   7.032  66.851  1.00  0.00    -0.598 NA 
HETATM   11  H1  UNL     1     -10.974   7.647  66.036  1.00  0.00     0.000 HD 
HETATM   12  H2  UNL     1     -11.787   6.431  66.884  1.00  0.00     0.000 HD 
ENDBRANCH   7   9
ENDBRANCH   6   7
ENDBRANCH   5   6
ENDBRANCH   3   5
ENDBRANCH   2   3
TORSDOF 5
ENDMDL
MODEL      271
REMARK 921   NORMALIZED FREE ENERGY PREDICTED BY IDOCK:   -1.20 KCAL/MOL
REMARK 922        TOTAL FREE ENERGY PREDICTED BY IDOCK:   -2.00 KCAL/MOL
REMARK 923 INTER-LIGAND FREE ENERGY PREDICTED BY IDOCK:   -1.84 KCAL/MOL
REMARK 924 INTRA-LIGAND FREE ENERGY PREDICTED BY IDOCK:   -0.16 KCAL/MOL
REMARK 927      BINDING AFFINITY PREDICTED BY RF-SCORE:    0.00 PKD
ROOT
HETATM    1  C   UNL     1      -5.672   6.822  69.289  1.00  0.00    -0.018 C  
HETATM    2  O   UNL     1      -6.741   7.523  68.650  1.00  0.00    -0.051 OA 
ENDROOT
BRANCH   2   3
HETATM    3  C   UNL     1      -7.872   6.781  68.489  1.00  0.00    -0.118 C  
HETATM    4  O   UNL     1      -8.530   6.293  69.398  1.00  0.00    -0.122 OA 
BRANCH   3   5
HETATM    5  C   UNL     1      -8.197   6.658  67.023  1.00  0.00    -0.113 C  
BRANCH   5   6
HETATM    6  C   UNL     1      -8.247   8.029  66.361  1.00  0.00    -0.113 C  
BRANCH   6   7
HETATM    7  C   UNL     1      -9.651   8.600  66.319  1.00  0.00    -0.252 C  
HETATM    8  O   UNL     1     -10.623   7.981  66.759  1.00  0.00    -0.320 OA 
BRANCH   7   9
HETATM    9  C   UNL     1      -9.799   9.954  65.625  1.00  0.00    -0.298 C  
HETATM   10  N   UNL     1      -9.882   9.775  64.174  1.00  0.00    -0.432 NA 
HETATM   11  H1  UNL     1      -9.981  10.678  63.711  1.00  0.00     0.000 HD 
HETATM   12  H2  UNL     1     -10.628   9.130  63.913  1.00  0.00     0.000 HD 
ENDBRANCH   7   9
ENDBRANCH   6   7
ENDBRANCH   5   6
ENDBRANCH   3   5
ENDBRANCH   2   3
TORSDOF 5
ENDMDL
MODEL      272
REMARK 921   NORMALIZED FREE ENERGY PREDICTED BY IDOCK:   -1.20 KCAL/MOL
REMARK 922        TOTAL FREE ENERGY PREDICTED BY IDOCK:   -1.99 KCAL/MOL
REMARK 923 INTER-LIGAND FREE ENERGY PREDICTED BY IDOCK:   -1.88 KCAL/MOL
REMARK 924 INTRA-LIGAND FREE ENERGY PREDICTED BY IDOCK:   -0.11 KCAL/MOL
REMARK 927      BINDING AFFINITY PREDICTED BY RF-SCORE:    0.00 PKD
ROOT
HETATM    1  C   UNL     1      -7.049   7.783  68.918  1.00  0.00    -0.075 C  
HETATM    2  O   UNL     1      -7.790   7.375  70.070  1.00  0.00    -0.100 OA 
ENDROOT
BRANCH   2   3
HETATM    3  C   UNL     1      -7.599   6.071  70.418  1.00  0.00    -0.095 C  
HETATM    4  O   UNL     1      -6.707   5.352  69.990  1.00  0.00    -0.044 OA 
BRANCH   3   5
HETATM    5  C   UNL     1      -8.646   5.650  71.415  1.00  0.00    -0.132 C  
BRANCH   5   6
HETATM    6  C   UNL     1      -8.753   6.662  72.549  1.00  0.00    -0.126 C  
BRANCH   6   7
HETATM    7  C   UNL     1     -10.078   6.573  73.280  1.00  0.00    -0.205 C  
HETATM    8  O   UNL     1     -10.394   5.585  73.948  1.00  0.00    -0.218 OA 
BRANCH   7   9
HETATM    9  C   UNL     1     -11.033   7.748  73.071  1.00  0.00    -0.381 C  
HETATM   10  N   UNL     1     -12.313   7.275  72.542  1.00  0.00    -0.503 NA 
HETATM   11  H1  UNL     1     -12.951   8.059  72.402  1.00  0.00     0.000 HD 
HETATM   12  H2  UNL     1     -12.724   6.551  73.131  1.00  0.00     0.000 HD 
ENDBRANCH   7   9
ENDBRANCH   6   7
ENDBRANCH   5   6
ENDBRANCH   3   5
ENDBRANCH   2   3
TORSDOF 5
ENDMDL
MODEL      273
REMARK 921   NORMALIZED FREE ENERGY PREDICTED BY IDOCK:   -1.19 KCAL/MOL
REMARK 922        TOTAL FREE ENERGY PREDICTED BY IDOCK:   -1.98 KCAL/MOL
REMARK 923 INTER-LIGAND FREE ENERGY PREDICTED BY IDOCK:   -1.77 KCAL/MOL
REMARK 924 INTRA-LIGAND FREE ENERGY PREDICTED BY IDOCK:   -0.21 KCAL/MOL
REMARK 927      BINDING AFFINITY PREDICTED BY RF-SCORE:    0.00 PKD
ROOT
HETATM    1  C   UNL     1      -8.472  11.336  68.517  1.00  0.00    -0.156 C  
HETATM    2  O   UNL     1      -7.980  10.725  67.323  1.00  0.00    -0.113 OA 
ENDROOT
BRANCH   2   3
HETATM    3  C   UNL     1      -7.286   9.572  67.536  1.00  0.00    -0.090 C  
HETATM    4  O   UNL     1      -6.225   9.490  68.138  1.00  0.00    -0.055 OA 
BRANCH   3   5
HETATM    5  C   UNL     1      -8.027   8.411  66.926  1.00  0.00    -0.099 C  
BRANCH   5   6
HETATM    6  C   UNL     1      -8.473   7.427  68.001  1.00  0.00    -0.123 C  
BRANCH   6   7
HETATM    7  C   UNL     1      -9.958   7.520  68.289  1.00  0.00    -0.173 C  
HETATM    8  O   UNL     1     -10.809   7.189  67.460  1.00  0.00    -0.257 OA 
BRANCH   7   9
HETATM    9  C   UNL     1     -10.337   8.127  69.640  1.00  0.00    -0.221 C  
HETATM   10  N   UNL     1     -11.551   7.496  70.158  1.00  0.00    -0.488 NA 
HETATM   11  H1  UNL     1     -11.805   7.901  71.060  1.00  0.00     0.000 HD 
HETATM   12  H2  UNL     1     -11.461   6.481  70.209  1.00  0.00     0.000 HD 
ENDBRANCH   7   9
ENDBRANCH   6   7
ENDBRANCH   5   6
ENDBRANCH   3   5
ENDBRANCH   2   3
TORSDOF 5
ENDMDL
MODEL      274
REMARK 921   NORMALIZED FREE ENERGY PREDICTED BY IDOCK:   -1.16 KCAL/MOL
REMARK 922        TOTAL FREE ENERGY PREDICTED BY IDOCK:   -1.94 KCAL/MOL
REMARK 923 INTER-LIGAND FREE ENERGY PREDICTED BY IDOCK:   -1.81 KCAL/MOL
REMARK 924 INTRA-LIGAND FREE ENERGY PREDICTED BY IDOCK:   -0.12 KCAL/MOL
REMARK 927      BINDING AFFINITY PREDICTED BY RF-SCORE:    0.00 PKD
ROOT
HETATM    1  C   UNL     1      -5.818  10.050  69.179  1.00  0.00    -0.037 C  
HETATM    2  O   UNL     1      -6.577  10.602  68.101  1.00  0.00    -0.062 OA 
ENDROOT
BRANCH   2   3
HETATM    3  C   UNL     1      -7.754   9.957  67.866  1.00  0.00    -0.090 C  
HETATM    4  O   UNL     1      -8.279   9.827  66.769  1.00  0.00    -0.119 OA 
BRANCH   3   5
HETATM    5  C   UNL     1      -8.310   9.422  69.160  1.00  0.00    -0.125 C  
BRANCH   5   6
HETATM    6  C   UNL     1      -9.108   8.146  68.921  1.00  0.00    -0.147 C  
BRANCH   6   7
HETATM    7  C   UNL     1     -10.392   8.109  69.724  1.00  0.00    -0.216 C  
HETATM    8  O   UNL     1     -10.791   9.083  70.368  1.00  0.00    -0.229 OA 
BRANCH   7   9
HETATM    9  C   UNL     1     -11.121   6.765  69.754  1.00  0.00    -0.316 C  
HETATM   10  N   UNL     1     -11.284   6.246  68.395  1.00  0.00    -0.471 NA 
HETATM   11  H1  UNL     1     -11.770   5.349  68.415  1.00  0.00     0.000 HD 
HETATM   12  H2  UNL     1     -10.394   6.185  67.902  1.00  0.00     0.000 HD 
ENDBRANCH   7   9
ENDBRANCH   6   7
ENDBRANCH   5   6
ENDBRANCH   3   5
ENDBRANCH   2   3
TORSDOF 5
ENDMDL
MODEL      275
REMARK 921   NORMALIZED FREE ENERGY PREDICTED BY IDOCK:   -1.16 KCAL/MOL
REMARK 922        TOTAL FREE ENERGY PREDICTED BY IDOCK:   -1.93 KCAL/MOL
REMARK 923 INTER-LIGAND FREE ENERGY PREDICTED BY IDOCK:   -1.85 KCAL/MOL
REMARK 924 INTRA-LIGAND FREE ENERGY PREDICTED BY IDOCK:   -0.08 KCAL/MOL
REMARK 927      BINDING AFFINITY PREDICTED BY RF-SCORE:    0.00 PKD
ROOT
HETATM    1  C   UNL     1      -7.297   5.682  73.486  1.00  0.00    -0.087 C  
HETATM    2  O   UNL     1      -8.622   5.434  73.013  1.00  0.00    -0.121 OA 
ENDROOT
BRANCH   2   3
HETATM    3  C   UNL     1      -8.677   4.629  71.916  1.00  0.00    -0.122 C  
HETATM    4  O   UNL     1      -7.953   3.664  71.712  1.00  0.00    -0.060 OA 
BRANCH   3   5
HETATM    5  C   UNL     1      -9.770   5.100  70.992  1.00  0.00    -0.245 C  
BRANCH   5   6
HETATM    6  C   UNL     1      -9.185   5.743  69.742  1.00  0.00    -0.161 C  
BRANCH   6   7
HETATM    7  C   UNL     1     -10.195   5.846  68.617  1.00  0.00    -0.192 C  
HETATM    8  O   UNL     1     -11.195   6.564  68.697  1.00  0.00    -0.289 OA 
BRANCH   7   9
HETATM    9  C   UNL     1      -9.943   4.942  67.410  1.00  0.00    -0.168 C  
HETATM   10  N   UNL     1     -10.240   5.656  66.168  1.00  0.00    -0.406 NA 
HETATM   11  H1  UNL     1     -10.072   5.053  65.363  1.00  0.00     0.000 HD 
HETATM   12  H2  UNL     1      -9.725   6.534  66.101  1.00  0.00     0.000 HD 
ENDBRANCH   7   9
ENDBRANCH   6   7
ENDBRANCH   5   6
ENDBRANCH   3   5
ENDBRANCH   2   3
TORSDOF 5
ENDMDL
MODEL      276
REMARK 921   NORMALIZED FREE ENERGY PREDICTED BY IDOCK:   -1.15 KCAL/MOL
REMARK 922        TOTAL FREE ENERGY PREDICTED BY IDOCK:   -1.92 KCAL/MOL
REMARK 923 INTER-LIGAND FREE ENERGY PREDICTED BY IDOCK:   -1.81 KCAL/MOL
REMARK 924 INTRA-LIGAND FREE ENERGY PREDICTED BY IDOCK:   -0.11 KCAL/MOL
REMARK 927      BINDING AFFINITY PREDICTED BY RF-SCORE:    0.00 PKD
ROOT
HETATM    1  C   UNL     1      -9.296   5.455  69.858  1.00  0.00    -0.140 C  
HETATM    2  O   UNL     1      -9.297   5.395  68.430  1.00  0.00    -0.109 OA 
ENDROOT
BRANCH   2   3
HETATM    3  C   UNL     1      -8.776   6.501  67.829  1.00  0.00    -0.115 C  
HETATM    4  O   UNL     1      -7.976   6.489  66.903  1.00  0.00    -0.109 OA 
BRANCH   3   5
HETATM    5  C   UNL     1      -9.337   7.743  68.471  1.00  0.00    -0.147 C  
BRANCH   5   6
HETATM    6  C   UNL     1     -10.480   8.314  67.640  1.00  0.00    -0.303 C  
BRANCH   6   7
HETATM    7  C   UNL     1     -10.563   9.824  67.733  1.00  0.00    -0.266 C  
HETATM    8  O   UNL     1     -11.295  10.391  68.548  1.00  0.00    -0.264 OA 
BRANCH   7   9
HETATM    9  C   UNL     1      -9.747  10.601  66.700  1.00  0.00    -0.184 C  
HETATM   10  N   UNL     1      -9.194  11.816  67.298  1.00  0.00    -0.169 NA 
HETATM   11  H1  UNL     1      -8.649  12.335  66.609  1.00  0.00     0.000 HD 
HETATM   12  H2  UNL     1      -8.651  11.614  68.138  1.00  0.00     0.000 HD 
ENDBRANCH   7   9
ENDBRANCH   6   7
ENDBRANCH   5   6
ENDBRANCH   3   5
ENDBRANCH   2   3
TORSDOF 5
ENDMDL
MODEL      277
REMARK 921   NORMALIZED FREE ENERGY PREDICTED BY IDOCK:   -1.14 KCAL/MOL
REMARK 922        TOTAL FREE ENERGY PREDICTED BY IDOCK:   -1.92 KCAL/MOL
REMARK 923 INTER-LIGAND FREE ENERGY PREDICTED BY IDOCK:   -1.76 KCAL/MOL
REMARK 924 INTRA-LIGAND FREE ENERGY PREDICTED BY IDOCK:   -0.16 KCAL/MOL
REMARK 927      BINDING AFFINITY PREDICTED BY RF-SCORE:    0.00 PKD
ROOT
HETATM    1  C   UNL     1     -10.875   8.448  71.190  1.00  0.00    -0.237 C  
HETATM    2  O   UNL     1     -10.065   8.766  70.056  1.00  0.00    -0.182 OA 
ENDROOT
BRANCH   2   3
HETATM    3  C   UNL     1     -10.231   7.919  69.002  1.00  0.00    -0.209 C  
HETATM    4  O   UNL     1     -10.510   8.261  67.861  1.00  0.00    -0.224 OA 
BRANCH   3   5
HETATM    5  C   UNL     1     -10.012   6.497  69.450  1.00  0.00    -0.178 C  
BRANCH   5   6
HETATM    6  C   UNL     1     -10.461   5.515  68.376  1.00  0.00    -0.227 C  
BRANCH   6   7
HETATM    7  C   UNL     1      -9.320   5.083  67.476  1.00  0.00    -0.125 C  
HETATM    8  O   UNL     1      -8.268   4.623  67.925  1.00  0.00    -0.098 OA 
BRANCH   7   9
HETATM    9  C   UNL     1      -9.523   5.329  65.980  1.00  0.00    -0.156 C  
HETATM   10  N   UNL     1      -8.232   5.369  65.292  1.00  0.00    -0.126 NA 
HETATM   11  H1  UNL     1      -8.367   5.534  64.294  1.00  0.00     0.000 HD 
HETATM   12  H2  UNL     1      -7.681   4.529  65.468  1.00  0.00     0.000 HD 
ENDBRANCH   7   9
ENDBRANCH   6   7
ENDBRANCH   5   6
ENDBRANCH   3   5
ENDBRANCH   2   3
TORSDOF 5
ENDMDL
MODEL      278
REMARK 921   NORMALIZED FREE ENERGY PREDICTED BY IDOCK:   -1.13 KCAL/MOL
REMARK 922        TOTAL FREE ENERGY PREDICTED BY IDOCK:   -1.90 KCAL/MOL
REMARK 923 INTER-LIGAND FREE ENERGY PREDICTED BY IDOCK:   -1.74 KCAL/MOL
REMARK 924 INTRA-LIGAND FREE ENERGY PREDICTED BY IDOCK:   -0.16 KCAL/MOL
REMARK 927      BINDING AFFINITY PREDICTED BY RF-SCORE:    0.00 PKD
ROOT
HETATM    1  C   UNL     1      -8.830   7.172  73.282  1.00  0.00    -0.138 C  
HETATM    2  O   UNL     1      -9.037   8.309  72.441  1.00  0.00    -0.192 OA 
ENDROOT
BRANCH   2   3
HETATM    3  C   UNL     1      -9.995   8.127  71.490  1.00  0.00    -0.182 C  
HETATM    4  O   UNL     1     -10.117   7.127  70.795  1.00  0.00    -0.190 OA 
BRANCH   3   5
HETATM    5  C   UNL     1     -10.887   9.338  71.426  1.00  0.00    -0.434 C  
BRANCH   5   6
HETATM    6  C   UNL     1     -11.482   9.501  70.032  1.00  0.00    -0.149 C  
BRANCH   6   7
HETATM    7  C   UNL     1     -10.618  10.362  69.133  1.00  0.00    -0.228 C  
HETATM    8  O   UNL     1     -10.043   9.905  68.142  1.00  0.00    -0.154 OA 
BRANCH   7   9
HETATM    9  C   UNL     1     -10.436  11.814  69.576  1.00  0.00     0.290 C  
HETATM   10  N   UNL     1      -9.739  12.579  68.541  1.00  0.00    -0.361 NA 
HETATM   11  H1  UNL     1      -9.617  13.548  68.837  1.00  0.00     0.000 HD 
HETATM   12  H2  UNL     1     -10.208  12.513  67.638  1.00  0.00     0.000 HD 
ENDBRANCH   7   9
ENDBRANCH   6   7
ENDBRANCH   5   6
ENDBRANCH   3   5
ENDBRANCH   2   3
TORSDOF 5
ENDMDL
MODEL      279
REMARK 921   NORMALIZED FREE ENERGY PREDICTED BY IDOCK:   -1.12 KCAL/MOL
REMARK 922        TOTAL FREE ENERGY PREDICTED BY IDOCK:   -1.89 KCAL/MOL
REMARK 923 INTER-LIGAND FREE ENERGY PREDICTED BY IDOCK:   -1.69 KCAL/MOL
REMARK 924 INTRA-LIGAND FREE ENERGY PREDICTED BY IDOCK:   -0.21 KCAL/MOL
REMARK 927      BINDING AFFINITY PREDICTED BY RF-SCORE:    0.00 PKD
ROOT
HETATM    1  C   UNL     1      -7.077   8.564  69.011  1.00  0.00    -0.065 C  
HETATM    2  O   UNL     1      -8.098   8.726  68.025  1.00  0.00    -0.106 OA 
ENDROOT
BRANCH   2   3
HETATM    3  C   UNL     1      -9.339   8.945  68.544  1.00  0.00    -0.140 C  
HETATM    4  O   UNL     1     -10.309   9.335  67.909  1.00  0.00    -0.202 OA 
BRANCH   3   5
HETATM    5  C   UNL     1      -9.340   8.627  70.017  1.00  0.00    -0.165 C  
BRANCH   5   6
HETATM    6  C   UNL     1     -10.370   7.552  70.339  1.00  0.00    -0.216 C  
BRANCH   6   7
HETATM    7  C   UNL     1      -9.730   6.263  70.816  1.00  0.00    -0.180 C  
HETATM    8  O   UNL     1      -9.037   5.562  70.075  1.00  0.00    -0.131 OA 
BRANCH   7   9
HETATM    9  C   UNL     1     -10.065   5.844  72.247  1.00  0.00    -0.182 C  
HETATM   10  N   UNL     1     -11.514   5.730  72.418  1.00  0.00    -0.300 NA 
HETATM   11  H1  UNL     1     -11.738   5.450  73.374  1.00  0.00     0.000 HD 
HETATM   12  H2  UNL     1     -11.930   5.102  71.731  1.00  0.00     0.000 HD 
ENDBRANCH   7   9
ENDBRANCH   6   7
ENDBRANCH   5   6
ENDBRANCH   3   5
ENDBRANCH   2   3
TORSDOF 5
ENDMDL
MODEL      280
REMARK 921   NORMALIZED FREE ENERGY PREDICTED BY IDOCK:   -1.11 KCAL/MOL
REMARK 922        TOTAL FREE ENERGY PREDICTED BY IDOCK:   -1.88 KCAL/MOL
REMARK 923 INTER-LIGAND FREE ENERGY PREDICTED BY IDOCK:   -1.79 KCAL/MOL
REMARK 924 INTRA-LIGAND FREE ENERGY PREDICTED BY IDOCK:   -0.09 KCAL/MOL
REMARK 927      BINDING AFFINITY PREDICTED BY RF-SCORE:    0.00 PKD
ROOT
HETATM    1  C   UNL     1      -6.637   8.839  74.509  1.00  0.00    -0.096 C  
HETATM    2  O   UNL     1      -7.891   8.183  74.315  1.00  0.00    -0.202 OA 
ENDROOT
BRANCH   2   3
HETATM    3  C   UNL     1      -7.845   7.152  73.425  1.00  0.00    -0.095 C  
HETATM    4  O   UNL     1      -7.710   5.972  73.720  1.00  0.00    -0.096 OA 
BRANCH   3   5
HETATM    5  C   UNL     1      -7.994   7.681  72.023  1.00  0.00    -0.112 C  
BRANCH   5   6
HETATM    6  C   UNL     1      -9.174   7.024  71.317  1.00  0.00    -0.152 C  
BRANCH   6   7
HETATM    7  C   UNL     1     -10.247   8.023  70.934  1.00  0.00    -0.192 C  
HETATM    8  O   UNL     1      -9.985   9.070  70.335  1.00  0.00    -0.179 OA 
BRANCH   7   9
HETATM    9  C   UNL     1     -11.663   7.694  71.406  1.00  0.00    -0.283 C  
HETATM   10  N   UNL     1     -12.649   8.409  70.594  1.00  0.00    -0.379 NA 
HETATM   11  H1  UNL     1     -13.594   8.189  70.910  1.00  0.00     0.000 HD 
HETATM   12  H2  UNL     1     -12.528   8.224  69.599  1.00  0.00     0.000 HD 
ENDBRANCH   7   9
ENDBRANCH   6   7
ENDBRANCH   5   6
ENDBRANCH   3   5
ENDBRANCH   2   3
TORSDOF 5
ENDMDL
MODEL      281
REMARK 921   NORMALIZED FREE ENERGY PREDICTED BY IDOCK:   -1.08 KCAL/MOL
REMARK 922        TOTAL FREE ENERGY PREDICTED BY IDOCK:   -1.84 KCAL/MOL
REMARK 923 INTER-LIGAND FREE ENERGY PREDICTED BY IDOCK:   -1.67 KCAL/MOL
REMARK 924 INTRA-LIGAND FREE ENERGY PREDICTED BY IDOCK:   -0.17 KCAL/MOL
REMARK 927      BINDING AFFINITY PREDICTED BY RF-SCORE:    0.00 PKD
ROOT
HETATM    1  C   UNL     1      -9.849   4.689  69.919  1.00  0.00    -0.226 C  
HETATM    2  O   UNL     1      -9.688   5.968  70.537  1.00  0.00    -0.169 OA 
ENDROOT
BRANCH   2   3
HETATM    3  C   UNL     1      -8.417   6.226  70.954  1.00  0.00    -0.131 C  
HETATM    4  O   UNL     1      -7.943   5.876  72.026  1.00  0.00    -0.105 OA 
BRANCH   3   5
HETATM    5  C   UNL     1      -7.678   6.999  69.893  1.00  0.00    -0.108 C  
BRANCH   5   6
HETATM    6  C   UNL     1      -7.813   8.499  70.123  1.00  0.00    -0.099 C  
BRANCH   6   7
HETATM    7  C   UNL     1      -8.629   9.178  69.041  1.00  0.00    -0.133 C  
HETATM    8  O   UNL     1      -9.413   8.554  68.321  1.00  0.00    -0.134 OA 
BRANCH   7   9
HETATM    9  C   UNL     1      -8.361  10.670  68.843  1.00  0.00    -0.150 C  
HETATM   10  N   UNL     1      -9.564  11.447  69.144  1.00  0.00    -0.410 NA 
HETATM   11  H1  UNL     1      -9.386  12.443  69.012  1.00  0.00     0.000 HD 
HETATM   12  H2  UNL     1      -9.923  11.246  70.077  1.00  0.00     0.000 HD 
ENDBRANCH   7   9
ENDBRANCH   6   7
ENDBRANCH   5   6
ENDBRANCH   3   5
ENDBRANCH   2   3
TORSDOF 5
ENDMDL
MODEL      282
REMARK 921   NORMALIZED FREE ENERGY PREDICTED BY IDOCK:   -1.07 KCAL/MOL
REMARK 922        TOTAL FREE ENERGY PREDICTED BY IDOCK:   -1.82 KCAL/MOL
REMARK 923 INTER-LIGAND FREE ENERGY PREDICTED BY IDOCK:   -2.25 KCAL/MOL
REMARK 924 INTRA-LIGAND FREE ENERGY PREDICTED BY IDOCK:    0.42 KCAL/MOL
REMARK 927      BINDING AFFINITY PREDICTED BY RF-SCORE:    0.00 PKD
ROOT
HETATM    1  C   UNL     1     -13.475  10.084  71.152  1.00  0.00    -0.230 C  
HETATM    2  O   UNL     1     -13.257  10.672  69.869  1.00  0.00    -0.030 OA 
ENDROOT
BRANCH   2   3
HETATM    3  C   UNL     1     -11.947  10.919  69.588  1.00  0.00    -0.343 C  
HETATM    4  O   UNL     1     -10.995  10.396  70.152  1.00  0.00    -0.284 OA 
BRANCH   3   5
HETATM    5  C   UNL     1     -11.845  11.928  68.474  1.00  0.00    -0.357 C  
BRANCH   5   6
HETATM    6  C   UNL     1     -10.419  12.010  67.946  1.00  0.00    -0.221 C  
BRANCH   6   7
HETATM    7  C   UNL     1     -10.058  10.828  67.069  1.00  0.00    -0.208 C  
HETATM    8  O   UNL     1     -10.352  10.784  65.872  1.00  0.00    -0.254 OA 
BRANCH   7   9
HETATM    9  C   UNL     1      -9.379   9.656  67.779  1.00  0.00    -0.127 C  
HETATM   10  N   UNL     1      -9.825   8.386  67.204  1.00  0.00    -0.194 NA 
HETATM   11  H1  UNL     1      -9.372   7.604  67.678  1.00  0.00     0.000 HD 
HETATM   12  H2  UNL     1      -9.681   8.354  66.195  1.00  0.00     0.000 HD 
ENDBRANCH   7   9
ENDBRANCH   6   7
ENDBRANCH   5   6
ENDBRANCH   3   5
ENDBRANCH   2   3
TORSDOF 5
ENDMDL
MODEL      283
REMARK 921   NORMALIZED FREE ENERGY PREDICTED BY IDOCK:   -1.07 KCAL/MOL
REMARK 922        TOTAL FREE ENERGY PREDICTED BY IDOCK:   -1.82 KCAL/MOL
REMARK 923 INTER-LIGAND FREE ENERGY PREDICTED BY IDOCK:   -1.88 KCAL/MOL
REMARK 924 INTRA-LIGAND FREE ENERGY PREDICTED BY IDOCK:    0.06 KCAL/MOL
REMARK 927      BINDING AFFINITY PREDICTED BY RF-SCORE:    0.00 PKD
ROOT
HETATM    1  C   UNL     1      -7.802  11.298  68.912  1.00  0.00    -0.114 C  
HETATM    2  O   UNL     1      -8.911  10.442  69.194  1.00  0.00    -0.169 OA 
ENDROOT
BRANCH   2   3
HETATM    3  C   UNL     1      -8.601   9.115  69.191  1.00  0.00    -0.133 C  
HETATM    4  O   UNL     1      -7.546   8.637  69.586  1.00  0.00    -0.076 OA 
BRANCH   3   5
HETATM    5  C   UNL     1      -9.755   8.322  68.636  1.00  0.00    -0.162 C  
BRANCH   5   6
HETATM    6  C   UNL     1     -10.672   7.843  69.754  1.00  0.00    -0.233 C  
BRANCH   6   7
HETATM    7  C   UNL     1     -11.426   8.982  70.410  1.00  0.00    -0.173 C  
HETATM    8  O   UNL     1     -11.933   9.896  69.755  1.00  0.00    -0.051 OA 
BRANCH   7   9
HETATM    9  C   UNL     1     -11.450   8.972  71.939  1.00  0.00    -0.370 C  
HETATM   10  N   UNL     1     -12.830   8.938  72.426  1.00  0.00    -0.399 NA 
HETATM   11  H1  UNL     1     -12.846   8.932  73.446  1.00  0.00     0.000 HD 
HETATM   12  H2  UNL     1     -13.354   8.157  72.032  1.00  0.00     0.000 HD 
ENDBRANCH   7   9
ENDBRANCH   6   7
ENDBRANCH   5   6
ENDBRANCH   3   5
ENDBRANCH   2   3
TORSDOF 5
ENDMDL
MODEL      284
REMARK 921   NORMALIZED FREE ENERGY PREDICTED BY IDOCK:   -1.07 KCAL/MOL
REMARK 922        TOTAL FREE ENERGY PREDICTED BY IDOCK:   -1.82 KCAL/MOL
REMARK 923 INTER-LIGAND FREE ENERGY PREDICTED BY IDOCK:   -1.62 KCAL/MOL
REMARK 924 INTRA-LIGAND FREE ENERGY PREDICTED BY IDOCK:   -0.20 KCAL/MOL
REMARK 927      BINDING AFFINITY PREDICTED BY RF-SCORE:    0.00 PKD
ROOT
HETATM    1  C   UNL     1      -9.208   2.751  68.563  1.00  0.00    -0.183 C  
HETATM    2  O   UNL     1      -9.629   3.503  69.704  1.00  0.00    -0.174 OA 
ENDROOT
BRANCH   2   3
HETATM    3  C   UNL     1      -9.842   4.824  69.448  1.00  0.00    -0.212 C  
HETATM    4  O   UNL     1     -10.939   5.344  69.298  1.00  0.00    -0.168 OA 
BRANCH   3   5
HETATM    5  C   UNL     1      -8.524   5.552  69.388  1.00  0.00    -0.105 C  
BRANCH   5   6
HETATM    6  C   UNL     1      -8.646   6.825  68.561  1.00  0.00    -0.125 C  
BRANCH   6   7
HETATM    7  C   UNL     1      -8.366   6.588  67.090  1.00  0.00    -0.113 C  
HETATM    8  O   UNL     1      -7.504   5.794  66.707  1.00  0.00    -0.081 OA 
BRANCH   7   9
HETATM    9  C   UNL     1      -9.160   7.455  66.113  1.00  0.00    -0.126 C  
HETATM   10  N   UNL     1      -8.675   7.257  64.747  1.00  0.00    -0.331 NA 
HETATM   11  H1  UNL     1      -9.205   7.836  64.095  1.00  0.00     0.000 HD 
HETATM   12  H2  UNL     1      -8.686   6.273  64.478  1.00  0.00     0.000 HD 
ENDBRANCH   7   9
ENDBRANCH   6   7
ENDBRANCH   5   6
ENDBRANCH   3   5
ENDBRANCH   2   3
TORSDOF 5
ENDMDL
MODEL      285
REMARK 921   NORMALIZED FREE ENERGY PREDICTED BY IDOCK:   -1.06 KCAL/MOL
REMARK 922        TOTAL FREE ENERGY PREDICTED BY IDOCK:   -1.81 KCAL/MOL
REMARK 923 INTER-LIGAND FREE ENERGY PREDICTED BY IDOCK:   -1.58 KCAL/MOL
REMARK 924 INTRA-LIGAND FREE ENERGY PREDICTED BY IDOCK:   -0.23 KCAL/MOL
REMARK 927      BINDING AFFINITY PREDICTED BY RF-SCORE:    0.00 PKD
ROOT
HETATM    1  C   UNL     1      -6.818   8.709  68.982  1.00  0.00    -0.056 C  
HETATM    2  O   UNL     1      -6.714   7.896  70.152  1.00  0.00    -0.037 OA 
ENDROOT
BRANCH   2   3
HETATM    3  C   UNL     1      -7.519   8.294  71.177  1.00  0.00    -0.076 C  
HETATM    4  O   UNL     1      -7.555   9.423  71.646  1.00  0.00    -0.310 OA 
BRANCH   3   5
HETATM    5  C   UNL     1      -8.366   7.137  71.640  1.00  0.00    -0.110 C  
BRANCH   5   6
HETATM    6  C   UNL     1      -9.845   7.418  71.403  1.00  0.00    -0.194 C  
BRANCH   6   7
HETATM    7  C   UNL     1     -10.433   6.541  70.317  1.00  0.00    -0.216 C  
HETATM    8  O   UNL     1     -10.716   5.356  70.513  1.00  0.00    -0.263 OA 
BRANCH   7   9
HETATM    9  C   UNL     1     -10.576   7.191  68.941  1.00  0.00    -0.201 C  
HETATM   10  N   UNL     1      -9.499   6.749  68.055  1.00  0.00    -0.120 NA 
HETATM   11  H1  UNL     1      -9.594   7.183  67.136  1.00  0.00     0.000 HD 
HETATM   12  H2  UNL     1      -9.450   5.732  67.992  1.00  0.00     0.000 HD 
ENDBRANCH   7   9
ENDBRANCH   6   7
ENDBRANCH   5   6
ENDBRANCH   3   5
ENDBRANCH   2   3
TORSDOF 5
ENDMDL
MODEL      286
REMARK 921   NORMALIZED FREE ENERGY PREDICTED BY IDOCK:   -1.04 KCAL/MOL
REMARK 922        TOTAL FREE ENERGY PREDICTED BY IDOCK:   -1.79 KCAL/MOL
REMARK 923 INTER-LIGAND FREE ENERGY PREDICTED BY IDOCK:   -1.69 KCAL/MOL
REMARK 924 INTRA-LIGAND FREE ENERGY PREDICTED BY IDOCK:   -0.09 KCAL/MOL
REMARK 927      BINDING AFFINITY PREDICTED BY RF-SCORE:    0.00 PKD
ROOT
HETATM    1  C   UNL     1      -7.575   8.795  62.923  1.00  0.00    -0.110 C  
HETATM    2  O   UNL     1      -8.311   8.873  64.145  1.00  0.00    -0.165 OA 
ENDROOT
BRANCH   2   3
HETATM    3  C   UNL     1      -7.709   8.249  65.195  1.00  0.00    -0.102 C  
HETATM    4  O   UNL     1      -6.596   8.515  65.628  1.00  0.00    -0.058 OA 
BRANCH   3   5
HETATM    5  C   UNL     1      -8.622   7.187  65.750  1.00  0.00    -0.143 C  
BRANCH   5   6
HETATM    6  C   UNL     1      -9.439   7.729  66.916  1.00  0.00    -0.238 C  
BRANCH   6   7
HETATM    7  C   UNL     1     -10.479   6.739  67.401  1.00  0.00    -0.262 C  
HETATM    8  O   UNL     1     -11.233   6.146  66.625  1.00  0.00    -0.232 OA 
BRANCH   7   9
HETATM    9  C   UNL     1     -10.593   6.582  68.917  1.00  0.00    -0.241 C  
HETATM   10  N   UNL     1      -9.264   6.438  69.515  1.00  0.00    -0.144 NA 
HETATM   11  H1  UNL     1      -9.340   6.333  70.527  1.00  0.00     0.000 HD 
HETATM   12  H2  UNL     1      -8.646   7.207  69.257  1.00  0.00     0.000 HD 
ENDBRANCH   7   9
ENDBRANCH   6   7
ENDBRANCH   5   6
ENDBRANCH   3   5
ENDBRANCH   2   3
TORSDOF 5
ENDMDL
MODEL      287
REMARK 921   NORMALIZED FREE ENERGY PREDICTED BY IDOCK:   -1.04 KCAL/MOL
REMARK 922        TOTAL FREE ENERGY PREDICTED BY IDOCK:   -1.78 KCAL/MOL
REMARK 923 INTER-LIGAND FREE ENERGY PREDICTED BY IDOCK:   -1.62 KCAL/MOL
REMARK 924 INTRA-LIGAND FREE ENERGY PREDICTED BY IDOCK:   -0.16 KCAL/MOL
REMARK 927      BINDING AFFINITY PREDICTED BY RF-SCORE:    0.00 PKD
ROOT
HETATM    1  C   UNL     1      -8.078   8.725  69.082  1.00  0.00    -0.118 C  
HETATM    2  O   UNL     1      -8.568   7.651  68.278  1.00  0.00    -0.124 OA 
ENDROOT
BRANCH   2   3
HETATM    3  C   UNL     1      -9.919   7.659  68.105  1.00  0.00    -0.175 C  
HETATM    4  O   UNL     1     -10.539   8.477  67.440  1.00  0.00    -0.277 OA 
BRANCH   3   5
HETATM    5  C   UNL     1     -10.536   6.504  68.851  1.00  0.00    -0.249 C  
BRANCH   5   6
HETATM    6  C   UNL     1     -10.230   5.184  68.155  1.00  0.00    -0.177 C  
BRANCH   6   7
HETATM    7  C   UNL     1      -9.443   4.235  69.037  1.00  0.00    -0.172 C  
HETATM    8  O   UNL     1      -8.992   4.580  70.132  1.00  0.00    -0.083 OA 
BRANCH   7   9
HETATM    9  C   UNL     1      -9.174   2.849  68.450  1.00  0.00    -0.189 C  
HETATM   10  N   UNL     1      -7.885   2.833  67.757  1.00  0.00    -0.060 NA 
HETATM   11  H1  UNL     1      -7.705   1.908  67.364  1.00  0.00     0.000 HD 
HETATM   12  H2  UNL     1      -7.124   3.145  68.360  1.00  0.00     0.000 HD 
ENDBRANCH   7   9
ENDBRANCH   6   7
ENDBRANCH   5   6
ENDBRANCH   3   5
ENDBRANCH   2   3
TORSDOF 5
ENDMDL
MODEL      288
REMARK 921   NORMALIZED FREE ENERGY PREDICTED BY IDOCK:   -1.03 KCAL/MOL
REMARK 922        TOTAL FREE ENERGY PREDICTED BY IDOCK:   -1.77 KCAL/MOL
REMARK 923 INTER-LIGAND FREE ENERGY PREDICTED BY IDOCK:   -1.56 KCAL/MOL
REMARK 924 INTRA-LIGAND FREE ENERGY PREDICTED BY IDOCK:   -0.22 KCAL/MOL
REMARK 927      BINDING AFFINITY PREDICTED BY RF-SCORE:    0.00 PKD
ROOT
HETATM    1  C   UNL     1      -6.824   9.779  69.044  1.00  0.00    -0.050 C  
HETATM    2  O   UNL     1      -8.181   9.401  69.280  1.00  0.00    -0.101 OA 
ENDROOT
BRANCH   2   3
HETATM    3  C   UNL     1      -8.330   8.437  70.230  1.00  0.00    -0.124 C  
HETATM    4  O   UNL     1      -7.419   7.786  70.724  1.00  0.00    -0.068 OA 
BRANCH   3   5
HETATM    5  C   UNL     1      -9.787   8.296  70.591  1.00  0.00    -0.203 C  
BRANCH   5   6
HETATM    6  C   UNL     1      -9.946   7.746  72.002  1.00  0.00    -0.231 C  
BRANCH   6   7
HETATM    7  C   UNL     1     -10.647   6.403  72.023  1.00  0.00    -0.213 C  
HETATM    8  O   UNL     1     -11.602   6.174  72.769  1.00  0.00    -0.231 OA 
BRANCH   7   9
HETATM    9  C   UNL     1     -10.045   5.324  71.123  1.00  0.00    -0.217 C  
HETATM   10  N   UNL     1      -8.891   4.703  71.775  1.00  0.00    -0.121 NA 
HETATM   11  H1  UNL     1      -8.490   3.983  71.173  1.00  0.00     0.000 HD 
HETATM   12  H2  UNL     1      -9.125   4.341  72.698  1.00  0.00     0.000 HD 
ENDBRANCH   7   9
ENDBRANCH   6   7
ENDBRANCH   5   6
ENDBRANCH   3   5
ENDBRANCH   2   3
TORSDOF 5
ENDMDL
MODEL      289
REMARK 921   NORMALIZED FREE ENERGY PREDICTED BY IDOCK:   -1.02 KCAL/MOL
REMARK 922        TOTAL FREE ENERGY PREDICTED BY IDOCK:   -1.75 KCAL/MOL
REMARK 923 INTER-LIGAND FREE ENERGY PREDICTED BY IDOCK:   -1.62 KCAL/MOL
REMARK 924 INTRA-LIGAND FREE ENERGY PREDICTED BY IDOCK:   -0.13 KCAL/MOL
REMARK 927      BINDING AFFINITY PREDICTED BY RF-SCORE:    0.00 PKD
ROOT
HETATM    1  C   UNL     1     -10.135   5.405  66.702  1.00  0.00    -0.216 C  
HETATM    2  O   UNL     1      -9.077   5.916  65.888  1.00  0.00    -0.159 OA 
ENDROOT
BRANCH   2   3
HETATM    3  C   UNL     1      -8.211   6.730  66.553  1.00  0.00    -0.117 C  
HETATM    4  O   UNL     1      -7.450   7.529  66.025  1.00  0.00    -0.079 OA 
BRANCH   3   5
HETATM    5  C   UNL     1      -8.335   6.504  68.037  1.00  0.00    -0.116 C  
BRANCH   5   6
HETATM    6  C   UNL     1      -8.451   7.829  68.779  1.00  0.00    -0.129 C  
BRANCH   6   7
HETATM    7  C   UNL     1      -9.717   7.917  69.609  1.00  0.00    -0.173 C  
HETATM    8  O   UNL     1     -10.748   8.440  69.180  1.00  0.00    -0.200 OA 
BRANCH   7   9
HETATM    9  C   UNL     1      -9.612   7.391  71.041  1.00  0.00    -0.161 C  
HETATM   10  N   UNL     1      -9.624   8.502  71.993  1.00  0.00    -0.275 NA 
HETATM   11  H1  UNL     1      -9.553   8.151  72.949  1.00  0.00     0.000 HD 
HETATM   12  H2  UNL     1     -10.439   9.102  71.867  1.00  0.00     0.000 HD 
ENDBRANCH   7   9
ENDBRANCH   6   7
ENDBRANCH   5   6
ENDBRANCH   3   5
ENDBRANCH   2   3
TORSDOF 5
ENDMDL
MODEL      290
REMARK 921   NORMALIZED FREE ENERGY PREDICTED BY IDOCK:   -1.00 KCAL/MOL
REMARK 922        TOTAL FREE ENERGY PREDICTED BY IDOCK:   -1.73 KCAL/MOL
REMARK 923 INTER-LIGAND FREE ENERGY PREDICTED BY IDOCK:   -1.45 KCAL/MOL
REMARK 924 INTRA-LIGAND FREE ENERGY PREDICTED BY IDOCK:   -0.28 KCAL/MOL
REMARK 927      BINDING AFFINITY PREDICTED BY RF-SCORE:    0.00 PKD
ROOT
HETATM    1  C   UNL     1     -11.094   6.343  67.491  1.00  0.00    -0.306 C  
HETATM    2  O   UNL     1     -10.970   5.492  66.350  1.00  0.00    -0.232 OA 
ENDROOT
BRANCH   2   3
HETATM    3  C   UNL     1      -9.946   4.598  66.435  1.00  0.00    -0.245 C  
HETATM    4  O   UNL     1      -9.360   4.105  65.481  1.00  0.00    -0.141 OA 
BRANCH   3   5
HETATM    5  C   UNL     1      -9.637   4.311  67.882  1.00  0.00    -0.207 C  
BRANCH   5   6
HETATM    6  C   UNL     1      -8.133   4.247  68.113  1.00  0.00    -0.089 C  
BRANCH   6   7
HETATM    7  C   UNL     1      -7.501   5.623  68.185  1.00  0.00    -0.074 C  
HETATM    8  O   UNL     1      -7.822   6.448  69.044  1.00  0.00    -0.106 OA 
BRANCH   7   9
HETATM    9  C   UNL     1      -6.500   5.955  67.078  1.00  0.00    -0.050 C  
HETATM   10  N   UNL     1      -5.243   6.432  67.656  1.00  0.00    -0.004 NA 
HETATM   11  H1  UNL     1      -4.574   6.654  66.917  1.00  0.00     0.000 HD 
HETATM   12  H2  UNL     1      -4.858   5.771  68.331  1.00  0.00     0.000 HD 
ENDBRANCH   7   9
ENDBRANCH   6   7
ENDBRANCH   5   6
ENDBRANCH   3   5
ENDBRANCH   2   3
TORSDOF 5
ENDMDL
MODEL      291
REMARK 921   NORMALIZED FREE ENERGY PREDICTED BY IDOCK:   -0.99 KCAL/MOL
REMARK 922        TOTAL FREE ENERGY PREDICTED BY IDOCK:   -1.71 KCAL/MOL
REMARK 923 INTER-LIGAND FREE ENERGY PREDICTED BY IDOCK:   -1.58 KCAL/MOL
REMARK 924 INTRA-LIGAND FREE ENERGY PREDICTED BY IDOCK:   -0.14 KCAL/MOL
REMARK 927      BINDING AFFINITY PREDICTED BY RF-SCORE:    0.00 PKD
ROOT
HETATM    1  C   UNL     1      -7.466   7.810  65.817  1.00  0.00    -0.078 C  
HETATM    2  O   UNL     1      -7.831   6.610  66.502  1.00  0.00    -0.100 OA 
ENDROOT
BRANCH   2   3
HETATM    3  C   UNL     1      -7.098   5.520  66.139  1.00  0.00    -0.068 C  
HETATM    4  O   UNL     1      -5.918   5.540  65.817  1.00  0.00    -0.024 OA 
BRANCH   3   5
HETATM    5  C   UNL     1      -7.957   4.284  66.200  1.00  0.00    -0.098 C  
BRANCH   5   6
HETATM    6  C   UNL     1      -9.297   4.520  65.514  1.00  0.00    -0.162 C  
BRANCH   6   7
HETATM    7  C   UNL     1      -9.302   4.043  64.076  1.00  0.00    -0.155 C  
HETATM    8  O   UNL     1      -8.272   3.989  63.399  1.00  0.00    -0.087 OA 
BRANCH   7   9
HETATM    9  C   UNL     1     -10.673   3.709  63.489  1.00  0.00    -0.239 C  
HETATM   10  N   UNL     1     -11.073   2.353  63.869  1.00  0.00    -0.567 NA 
HETATM   11  H1  UNL     1     -11.989   2.130  63.477  1.00  0.00     0.000 HD 
HETATM   12  H2  UNL     1     -11.048   2.218  64.879  1.00  0.00     0.000 HD 
ENDBRANCH   7   9
ENDBRANCH   6   7
ENDBRANCH   5   6
ENDBRANCH   3   5
ENDBRANCH   2   3
TORSDOF 5
ENDMDL
MODEL      292
REMARK 921   NORMALIZED FREE ENERGY PREDICTED BY IDOCK:   -0.98 KCAL/MOL
REMARK 922        TOTAL FREE ENERGY PREDICTED BY IDOCK:   -1.71 KCAL/MOL
REMARK 923 INTER-LIGAND FREE ENERGY PREDICTED BY IDOCK:   -1.40 KCAL/MOL
REMARK 924 INTRA-LIGAND FREE ENERGY PREDICTED BY IDOCK:   -0.31 KCAL/MOL
REMARK 927      BINDING AFFINITY PREDICTED BY RF-SCORE:    0.00 PKD
ROOT
HETATM    1  C   UNL     1      -8.286   6.581  72.590  1.00  0.00    -0.117 C  
HETATM    2  O   UNL     1      -9.313   6.511  71.598  1.00  0.00    -0.148 OA 
ENDROOT
BRANCH   2   3
HETATM    3  C   UNL     1     -10.172   5.467  71.763  1.00  0.00    -0.206 C  
HETATM    4  O   UNL     1     -11.093   5.432  72.568  1.00  0.00    -0.246 OA 
BRANCH   3   5
HETATM    5  C   UNL     1      -9.822   4.362  70.801  1.00  0.00    -0.273 C  
BRANCH   5   6
HETATM    6  C   UNL     1      -9.772   3.017  71.514  1.00  0.00    -0.223 C  
BRANCH   6   7
HETATM    7  C   UNL     1      -8.497   2.835  72.314  1.00  0.00    -0.066 C  
HETATM    8  O   UNL     1      -8.427   3.125  73.511  1.00  0.00    -0.073 OA 
BRANCH   7   9
HETATM    9  C   UNL     1      -7.281   2.347  71.526  1.00  0.00    -0.032 C  
HETATM   10  N   UNL     1      -6.357   3.455  71.279  1.00  0.00    -0.018 NA 
HETATM   11  H1  UNL     1      -5.545   3.130  70.754  1.00  0.00     0.000 HD 
HETATM   12  H2  UNL     1      -6.088   3.925  72.143  1.00  0.00     0.000 HD 
ENDBRANCH   7   9
ENDBRANCH   6   7
ENDBRANCH   5   6
ENDBRANCH   3   5
ENDBRANCH   2   3
TORSDOF 5
ENDMDL
MODEL      293
REMARK 921   NORMALIZED FREE ENERGY PREDICTED BY IDOCK:   -0.89 KCAL/MOL
REMARK 922        TOTAL FREE ENERGY PREDICTED BY IDOCK:   -1.58 KCAL/MOL
REMARK 923 INTER-LIGAND FREE ENERGY PREDICTED BY IDOCK:   -1.45 KCAL/MOL
REMARK 924 INTRA-LIGAND FREE ENERGY PREDICTED BY IDOCK:   -0.14 KCAL/MOL
REMARK 927      BINDING AFFINITY PREDICTED BY RF-SCORE:    0.00 PKD
ROOT
HETATM    1  C   UNL     1      -9.130   5.409  69.800  1.00  0.00    -0.128 C  
HETATM    2  O   UNL     1      -8.840   4.825  68.529  1.00  0.00    -0.097 OA 
ENDROOT
BRANCH   2   3
HETATM    3  C   UNL     1      -7.977   5.555  67.768  1.00  0.00    -0.101 C  
HETATM    4  O   UNL     1      -7.284   5.108  66.865  1.00  0.00    -0.074 OA 
BRANCH   3   5
HETATM    5  C   UNL     1      -8.009   6.997  68.202  1.00  0.00    -0.119 C  
BRANCH   5   6
HETATM    6  C   UNL     1      -7.536   7.912  67.079  1.00  0.00    -0.092 C  
BRANCH   6   7
HETATM    7  C   UNL     1      -8.688   8.502  66.290  1.00  0.00    -0.142 C  
HETATM    8  O   UNL     1      -8.527   9.020  65.183  1.00  0.00    -0.147 OA 
BRANCH   7   9
HETATM    9  C   UNL     1     -10.048   8.488  66.988  1.00  0.00    -0.277 C  
HETATM   10  N   UNL     1     -10.865   7.382  66.488  1.00  0.00    -0.269 NA 
HETATM   11  H1  UNL     1     -11.773   7.373  66.954  1.00  0.00     0.000 HD 
HETATM   12  H2  UNL     1     -10.385   6.486  66.573  1.00  0.00     0.000 HD 
ENDBRANCH   7   9
ENDBRANCH   6   7
ENDBRANCH   5   6
ENDBRANCH   3   5
ENDBRANCH   2   3
TORSDOF 5
ENDMDL
MODEL      294
REMARK 921   NORMALIZED FREE ENERGY PREDICTED BY IDOCK:   -0.87 KCAL/MOL
REMARK 922        TOTAL FREE ENERGY PREDICTED BY IDOCK:   -1.56 KCAL/MOL
REMARK 923 INTER-LIGAND FREE ENERGY PREDICTED BY IDOCK:   -1.46 KCAL/MOL
REMARK 924 INTRA-LIGAND FREE ENERGY PREDICTED BY IDOCK:   -0.10 KCAL/MOL
REMARK 927      BINDING AFFINITY PREDICTED BY RF-SCORE:    0.00 PKD
ROOT
HETATM    1  C   UNL     1      -7.693   8.724  62.968  1.00  0.00    -0.118 C  
HETATM    2  O   UNL     1      -8.639   8.821  64.034  1.00  0.00    -0.156 OA 
ENDROOT
BRANCH   2   3
HETATM    3  C   UNL     1      -8.142   8.459  65.250  1.00  0.00    -0.140 C  
HETATM    4  O   UNL     1      -7.071   8.829  65.712  1.00  0.00    -0.078 OA 
BRANCH   3   5
HETATM    5  C   UNL     1      -9.113   7.541  65.945  1.00  0.00    -0.086 C  
BRANCH   5   6
HETATM    6  C   UNL     1      -8.619   6.100  65.907  1.00  0.00    -0.147 C  
BRANCH   6   7
HETATM    7  C   UNL     1      -9.747   5.099  66.051  1.00  0.00    -0.165 C  
HETATM    8  O   UNL     1     -10.739   5.324  66.748  1.00  0.00    -0.273 OA 
BRANCH   7   9
HETATM    9  C   UNL     1      -9.542   3.758  65.344  1.00  0.00    -0.174 C  
HETATM   10  N   UNL     1      -8.960   3.967  64.017  1.00  0.00    -0.120 NA 
HETATM   11  H1  UNL     1      -8.823   3.072  63.546  1.00  0.00     0.000 HD 
HETATM   12  H2  UNL     1      -8.098   4.510  64.061  1.00  0.00     0.000 HD 
ENDBRANCH   7   9
ENDBRANCH   6   7
ENDBRANCH   5   6
ENDBRANCH   3   5
ENDBRANCH   2   3
TORSDOF 5
ENDMDL
MODEL      295
REMARK 921   NORMALIZED FREE ENERGY PREDICTED BY IDOCK:   -0.85 KCAL/MOL
REMARK 922        TOTAL FREE ENERGY PREDICTED BY IDOCK:   -1.54 KCAL/MOL
REMARK 923 INTER-LIGAND FREE ENERGY PREDICTED BY IDOCK:   -1.24 KCAL/MOL
REMARK 924 INTRA-LIGAND FREE ENERGY PREDICTED BY IDOCK:   -0.30 KCAL/MOL
REMARK 927      BINDING AFFINITY PREDICTED BY RF-SCORE:    0.00 PKD
ROOT
HETATM    1  C   UNL     1      -9.020   6.842  66.091  1.00  0.00    -0.134 C  
HETATM    2  O   UNL     1      -8.672   7.837  65.126  1.00  0.00    -0.062 OA 
ENDROOT
BRANCH   2   3
HETATM    3  C   UNL     1      -9.002   9.106  65.495  1.00  0.00    -0.205 C  
HETATM    4  O   UNL     1     -10.065   9.438  66.002  1.00  0.00    -0.300 OA 
BRANCH   3   5
HETATM    5  C   UNL     1      -7.859  10.039  65.193  1.00  0.00    -0.136 C  
BRANCH   5   6
HETATM    6  C   UNL     1      -7.271  10.611  66.476  1.00  0.00    -0.134 C  
BRANCH   6   7
HETATM    7  C   UNL     1      -6.430   9.599  67.228  1.00  0.00    -0.069 C  
HETATM    8  O   UNL     1      -5.795   8.714  66.649  1.00  0.00    -0.049 OA 
BRANCH   7   9
HETATM    9  C   UNL     1      -6.483   9.691  68.753  1.00  0.00    -0.047 C  
HETATM   10  N   UNL     1      -7.823  10.085  69.193  1.00  0.00    -0.102 NA 
HETATM   11  H1  UNL     1      -7.858  10.146  70.211  1.00  0.00     0.000 HD 
HETATM   12  H2  UNL     1      -8.542   9.464  68.824  1.00  0.00     0.000 HD 
ENDBRANCH   7   9
ENDBRANCH   6   7
ENDBRANCH   5   6
ENDBRANCH   3   5
ENDBRANCH   2   3
TORSDOF 5
ENDMDL
MODEL      296
REMARK 921   NORMALIZED FREE ENERGY PREDICTED BY IDOCK:   -0.78 KCAL/MOL
REMARK 922        TOTAL FREE ENERGY PREDICTED BY IDOCK:   -1.45 KCAL/MOL
REMARK 923 INTER-LIGAND FREE ENERGY PREDICTED BY IDOCK:   -1.28 KCAL/MOL
REMARK 924 INTRA-LIGAND FREE ENERGY PREDICTED BY IDOCK:   -0.18 KCAL/MOL
REMARK 927      BINDING AFFINITY PREDICTED BY RF-SCORE:    0.00 PKD
ROOT
HETATM    1  C   UNL     1      -7.905  10.605  67.983  1.00  0.00    -0.105 C  
HETATM    2  O   UNL     1      -9.229  10.102  68.175  1.00  0.00    -0.134 OA 
ENDROOT
BRANCH   2   3
HETATM    3  C   UNL     1      -9.276   8.781  68.508  1.00  0.00    -0.141 C  
HETATM    4  O   UNL     1     -10.004   8.296  69.362  1.00  0.00    -0.180 OA 
BRANCH   3   5
HETATM    5  C   UNL     1      -8.301   8.006  67.661  1.00  0.00    -0.128 C  
BRANCH   5   6
HETATM    6  C   UNL     1      -8.191   6.564  68.141  1.00  0.00    -0.117 C  
BRANCH   6   7
HETATM    7  C   UNL     1      -8.813   5.583  67.168  1.00  0.00    -0.106 C  
HETATM    8  O   UNL     1     -10.025   5.354  67.151  1.00  0.00    -0.144 OA 
BRANCH   7   9
HETATM    9  C   UNL     1      -7.835   4.832  66.263  1.00  0.00    -0.099 C  
HETATM   10  N   UNL     1      -8.459   4.538  64.973  1.00  0.00    -0.123 NA 
HETATM   11  H1  UNL     1      -7.806   4.037  64.369  1.00  0.00     0.000 HD 
HETATM   12  H2  UNL     1      -8.822   5.379  64.525  1.00  0.00     0.000 HD 
ENDBRANCH   7   9
ENDBRANCH   6   7
ENDBRANCH   5   6
ENDBRANCH   3   5
ENDBRANCH   2   3
TORSDOF 5
ENDMDL
MODEL      297
REMARK 921   NORMALIZED FREE ENERGY PREDICTED BY IDOCK:   -0.73 KCAL/MOL
REMARK 922        TOTAL FREE ENERGY PREDICTED BY IDOCK:   -1.38 KCAL/MOL
REMARK 923 INTER-LIGAND FREE ENERGY PREDICTED BY IDOCK:   -1.23 KCAL/MOL
REMARK 924 INTRA-LIGAND FREE ENERGY PREDICTED BY IDOCK:   -0.15 KCAL/MOL
REMARK 927      BINDING AFFINITY PREDICTED BY RF-SCORE:    0.00 PKD
ROOT
HETATM    1  C   UNL     1      -7.192   8.971  63.890  1.00  0.00    -0.096 C  
HETATM    2  O   UNL     1      -7.829   8.611  65.118  1.00  0.00    -0.099 OA 
ENDROOT
BRANCH   2   3
HETATM    3  C   UNL     1      -7.233   7.572  65.767  1.00  0.00    -0.066 C  
HETATM    4  O   UNL     1      -6.092   7.179  65.569  1.00  0.00    -0.036 OA 
BRANCH   3   5
HETATM    5  C   UNL     1      -8.189   6.983  66.771  1.00  0.00    -0.111 C  
BRANCH   5   6
HETATM    6  C   UNL     1      -7.814   7.402  68.187  1.00  0.00    -0.122 C  
BRANCH   6   7
HETATM    7  C   UNL     1      -8.773   8.425  68.760  1.00  0.00    -0.136 C  
HETATM    8  O   UNL     1      -9.329   9.271  68.054  1.00  0.00    -0.134 OA 
BRANCH   7   9
HETATM    9  C   UNL     1      -8.947   8.398  70.279  1.00  0.00    -0.147 C  
HETATM   10  N   UNL     1      -9.858   9.461  70.705  1.00  0.00    -0.281 NA 
HETATM   11  H1  UNL     1      -9.974   9.443  71.719  1.00  0.00     0.000 HD 
HETATM   12  H2  UNL     1     -10.753   9.413  70.219  1.00  0.00     0.000 HD 
ENDBRANCH   7   9
ENDBRANCH   6   7
ENDBRANCH   5   6
ENDBRANCH   3   5
ENDBRANCH   2   3
TORSDOF 5
ENDMDL
MODEL      298
REMARK 921   NORMALIZED FREE ENERGY PREDICTED BY IDOCK:   -0.69 KCAL/MOL
REMARK 922        TOTAL FREE ENERGY PREDICTED BY IDOCK:   -1.33 KCAL/MOL
REMARK 923 INTER-LIGAND FREE ENERGY PREDICTED BY IDOCK:   -1.14 KCAL/MOL
REMARK 924 INTRA-LIGAND FREE ENERGY PREDICTED BY IDOCK:   -0.19 KCAL/MOL
REMARK 927      BINDING AFFINITY PREDICTED BY RF-SCORE:    0.00 PKD
ROOT
HETATM    1  C   UNL     1      -9.292   2.350  68.399  1.00  0.00    -0.204 C  
HETATM    2  O   UNL     1      -9.909   2.966  69.531  1.00  0.00     0.039 OA 
ENDROOT
BRANCH   2   3
HETATM    3  C   UNL     1      -9.698   4.309  69.614  1.00  0.00    -0.214 C  
HETATM    4  O   UNL     1      -9.588   5.065  68.658  1.00  0.00    -0.131 OA 
BRANCH   3   5
HETATM    5  C   UNL     1      -9.629   4.728  71.059  1.00  0.00    -0.242 C  
BRANCH   5   6
HETATM    6  C   UNL     1      -8.197   4.663  71.575  1.00  0.00    -0.103 C  
BRANCH   6   7
HETATM    7  C   UNL     1      -7.429   5.941  71.308  1.00  0.00    -0.089 C  
HETATM    8  O   UNL     1      -6.487   5.987  70.513  1.00  0.00    -0.034 OA 
BRANCH   7   9
HETATM    9  C   UNL     1      -7.840   7.152  72.146  1.00  0.00    -0.091 C  
HETATM   10  N   UNL     1      -6.932   7.316  73.283  1.00  0.00    -0.071 NA 
HETATM   11  H1  UNL     1      -7.206   8.124  73.842  1.00  0.00     0.000 HD 
HETATM   12  H2  UNL     1      -5.958   7.371  72.987  1.00  0.00     0.000 HD 
ENDBRANCH   7   9
ENDBRANCH   6   7
ENDBRANCH   5   6
ENDBRANCH   3   5
ENDBRANCH   2   3
TORSDOF 5
ENDMDL
MODEL      299
REMARK 921   NORMALIZED FREE ENERGY PREDICTED BY IDOCK:   -0.63 KCAL/MOL
REMARK 922        TOTAL FREE ENERGY PREDICTED BY IDOCK:   -1.25 KCAL/MOL
REMARK 923 INTER-LIGAND FREE ENERGY PREDICTED BY IDOCK:   -1.18 KCAL/MOL
REMARK 924 INTRA-LIGAND FREE ENERGY PREDICTED BY IDOCK:   -0.07 KCAL/MOL
REMARK 927      BINDING AFFINITY PREDICTED BY RF-SCORE:    0.00 PKD
ROOT
HETATM    1  C   UNL     1     -11.367   5.256  72.516  1.00  0.00    -0.179 C  
HETATM    2  O   UNL     1     -10.307   5.355  71.562  1.00  0.00    -0.211 OA 
ENDROOT
BRANCH   2   3
HETATM    3  C   UNL     1      -9.804   6.613  71.422  1.00  0.00    -0.179 C  
HETATM    4  O   UNL     1     -10.474   7.631  71.312  1.00  0.00    -0.206 OA 
BRANCH   3   5
HETATM    5  C   UNL     1      -8.299   6.565  71.431  1.00  0.00    -0.125 C  
BRANCH   5   6
HETATM    6  C   UNL     1      -7.803   5.135  71.608  1.00  0.00    -0.109 C  
BRANCH   6   7
HETATM    7  C   UNL     1      -6.408   5.076  72.196  1.00  0.00    -0.035 C  
HETATM    8  O   UNL     1      -5.401   4.979  71.490  1.00  0.00    -0.004 OA 
BRANCH   7   9
HETATM    9  C   UNL     1      -6.329   5.063  73.723  1.00  0.00    -0.061 C  
HETATM   10  N   UNL     1      -6.300   6.431  74.243  1.00  0.00    -0.069 NA 
HETATM   11  H1  UNL     1      -6.248   6.422  75.262  1.00  0.00     0.000 HD 
HETATM   12  H2  UNL     1      -7.090   6.982  73.907  1.00  0.00     0.000 HD 
ENDBRANCH   7   9
ENDBRANCH   6   7
ENDBRANCH   5   6
ENDBRANCH   3   5
ENDBRANCH   2   3
TORSDOF 5
ENDMDL
MODEL      300
REMARK 921   NORMALIZED FREE ENERGY PREDICTED BY IDOCK:   -0.51 KCAL/MOL
REMARK 922        TOTAL FREE ENERGY PREDICTED BY IDOCK:   -1.10 KCAL/MOL
REMARK 923 INTER-LIGAND FREE ENERGY PREDICTED BY IDOCK:   -1.14 KCAL/MOL
REMARK 924 INTRA-LIGAND FREE ENERGY PREDICTED BY IDOCK:    0.04 KCAL/MOL
REMARK 927      BINDING AFFINITY PREDICTED BY RF-SCORE:    0.00 PKD
ROOT
HETATM    1  C   UNL     1      -9.260   2.346  68.407  1.00  0.00    -0.198 C  
HETATM    2  O   UNL     1      -9.761   3.009  69.569  1.00  0.00    -0.087 OA 
ENDROOT
BRANCH   2   3
HETATM    3  C   UNL     1      -9.422   4.326  69.645  1.00  0.00    -0.188 C  
HETATM    4  O   UNL     1      -9.317   5.083  68.690  1.00  0.00    -0.117 OA 
BRANCH   3   5
HETATM    5  C   UNL     1      -9.201   4.715  71.084  1.00  0.00    -0.193 C  
BRANCH   5   6
HETATM    6  C   UNL     1      -9.377   3.513  72.003  1.00  0.00    -0.185 C  
BRANCH   6   7
HETATM    7  C   UNL     1      -8.100   2.711  72.156  1.00  0.00    -0.054 C  
HETATM    8  O   UNL     1      -7.983   1.571  71.700  1.00  0.00    -0.040 OA 
BRANCH   7   9
HETATM    9  C   UNL     1      -6.994   3.370  72.981  1.00  0.00    -0.040 C  
HETATM   10  N   UNL     1      -7.005   2.854  74.350  1.00  0.00    -0.039 NA 
HETATM   11  H1  UNL     1      -6.267   3.295  74.901  1.00  0.00     0.000 HD 
HETATM   12  H2  UNL     1      -6.941   1.837  74.374  1.00  0.00     0.000 HD 
ENDBRANCH   7   9
ENDBRANCH   6   7
ENDBRANCH   5   6
ENDBRANCH   3   5
ENDBRANCH   2   3
TORSDOF 5
ENDMDL
MODEL      301
REMARK 921   NORMALIZED FREE ENERGY PREDICTED BY IDOCK:   -0.49 KCAL/MOL
REMARK 922        TOTAL FREE ENERGY PREDICTED BY IDOCK:   -1.07 KCAL/MOL
REMARK 923 INTER-LIGAND FREE ENERGY PREDICTED BY IDOCK:   -0.84 KCAL/MOL
REMARK 924 INTRA-LIGAND FREE ENERGY PREDICTED BY IDOCK:   -0.22 KCAL/MOL
REMARK 927      BINDING AFFINITY PREDICTED BY RF-SCORE:    0.00 PKD
ROOT
HETATM    1  C   UNL     1      -9.154   5.417  69.754  1.00  0.00    -0.128 C  
HETATM    2  O   UNL     1      -8.878   4.777  68.507  1.00  0.00    -0.097 OA 
ENDROOT
BRANCH   2   3
HETATM    3  C   UNL     1      -8.053   5.490  67.690  1.00  0.00    -0.101 C  
HETATM    4  O   UNL     1      -7.302   5.008  66.852  1.00  0.00    -0.083 OA 
BRANCH   3   5
HETATM    5  C   UNL     1      -8.209   6.963  67.966  1.00  0.00    -0.115 C  
BRANCH   5   6
HETATM    6  C   UNL     1      -6.849   7.641  68.078  1.00  0.00    -0.067 C  
BRANCH   6   7
HETATM    7  C   UNL     1      -6.413   8.279  66.774  1.00  0.00    -0.056 C  
HETATM    8  O   UNL     1      -5.251   8.641  66.578  1.00  0.00    -0.033 OA 
BRANCH   7   9
HETATM    9  C   UNL     1      -7.521   8.521  65.748  1.00  0.00    -0.081 C  
HETATM   10  N   UNL     1      -7.459   7.515  64.687  1.00  0.00    -0.082 NA 
HETATM   11  H1  UNL     1      -8.199   7.676  64.002  1.00  0.00     0.000 HD 
HETATM   12  H2  UNL     1      -7.487   6.566  65.060  1.00  0.00     0.000 HD 
ENDBRANCH   7   9
ENDBRANCH   6   7
ENDBRANCH   5   6
ENDBRANCH   3   5
ENDBRANCH   2   3
TORSDOF 5
ENDMDL
MODEL      302
REMARK 921   NORMALIZED FREE ENERGY PREDICTED BY IDOCK:    0.08 KCAL/MOL
REMARK 922        TOTAL FREE ENERGY PREDICTED BY IDOCK:   -0.33 KCAL/MOL
REMARK 923 INTER-LIGAND FREE ENERGY PREDICTED BY IDOCK:   -0.26 KCAL/MOL
REMARK 924 INTRA-LIGAND FREE ENERGY PREDICTED BY IDOCK:   -0.08 KCAL/MOL
REMARK 927      BINDING AFFINITY PREDICTED BY RF-SCORE:    0.00 PKD
ROOT
HETATM    1  C   UNL     1      -9.690   2.090  68.292  1.00  0.00     0.095 C  
HETATM    2  O   UNL     1      -8.930   2.205  69.496  1.00  0.00    -0.078 OA 
ENDROOT
BRANCH   2   3
HETATM    3  C   UNL     1      -7.806   2.964  69.371  1.00  0.00    -0.045 C  
HETATM    4  O   UNL     1      -7.456   3.543  68.351  1.00  0.00    -0.053 OA 
BRANCH   3   5
HETATM    5  C   UNL     1      -7.061   2.993  70.680  1.00  0.00    -0.033 C  
BRANCH   5   6
HETATM    6  C   UNL     1      -6.104   4.177  70.734  1.00  0.00    -0.015 C  
BRANCH   6   7
HETATM    7  C   UNL     1      -6.315   5.033  71.967  1.00  0.00    -0.034 C  
HETATM    8  O   UNL     1      -6.143   6.254  71.955  1.00  0.00    -0.040 OA 
BRANCH   7   9
HETATM    9  C   UNL     1      -6.672   4.278  73.248  1.00  0.00    -0.053 C  
HETATM   10  N   UNL     1      -5.504   3.558  73.757  1.00  0.00     0.000 NA 
HETATM   11  H1  UNL     1      -5.743   3.055  74.612  1.00  0.00     0.000 HD 
HETATM   12  H2  UNL     1      -4.705   4.177  73.891  1.00  0.00     0.000 HD 
ENDBRANCH   7   9
ENDBRANCH   6   7
ENDBRANCH   5   6
ENDBRANCH   3   5
ENDBRANCH   2   3
TORSDOF 5
ENDMDL
MODEL      303
REMARK 921   NORMALIZED FREE ENERGY PREDICTED BY IDOCK:    1.96 KCAL/MOL
REMARK 922        TOTAL FREE ENERGY PREDICTED BY IDOCK:    2.09 KCAL/MOL
REMARK 923 INTER-LIGAND FREE ENERGY PREDICTED BY IDOCK:    0.30 KCAL/MOL
REMARK 924 INTRA-LIGAND FREE ENERGY PREDICTED BY IDOCK:    1.80 KCAL/MOL
REMARK 927      BINDING AFFINITY PREDICTED BY RF-SCORE:    0.00 PKD
ROOT
HETATM    1  C   UNL     1      -8.939  18.968  68.595  1.00  0.00    -0.363 C  
HETATM    2  O   UNL     1      -8.384  17.710  68.207  1.00  0.00    -0.256 OA 
ENDROOT
BRANCH   2   3
HETATM    3  C   UNL     1      -8.679  16.688  69.058  1.00  0.00    -0.193 C  
HETATM    4  O   UNL     1      -9.722  16.048  69.056  1.00  0.00    -0.217 OA 
BRANCH   3   5
HETATM    5  C   UNL     1      -7.526  16.458  70.000  1.00  0.00     0.863 C  
BRANCH   5   6
HETATM    6  C   UNL     1      -6.593  15.380  69.462  1.00  0.00    -0.166 C  
BRANCH   6   7
HETATM    7  C   UNL     1      -7.079  14.799  68.149  1.00  0.00    -0.121 C  
HETATM    8  O   UNL     1      -8.233  14.391  67.999  1.00  0.00    -0.131 OA 
BRANCH   7   9
HETATM    9  C   UNL     1      -6.027  14.675  67.046  1.00  0.00     1.149 C  
HETATM   10  N   UNL     1      -5.138  15.837  67.059  1.00  0.00    -0.268 NA 
HETATM   11  H1  UNL     1      -4.436  15.754  66.322  1.00  0.00     0.000 HD 
HETATM   12  H2  UNL     1      -4.713  15.982  67.974  1.00  0.00     0.000 HD 
ENDBRANCH   7   9
ENDBRANCH   6   7
ENDBRANCH   5   6
ENDBRANCH   3   5
ENDBRANCH   2   3
TORSDOF 5
ENDMDL
MODEL      304
REMARK 921   NORMALIZED FREE ENERGY PREDICTED BY IDOCK:    6.98 KCAL/MOL
REMARK 922        TOTAL FREE ENERGY PREDICTED BY IDOCK:    8.58 KCAL/MOL
REMARK 923 INTER-LIGAND FREE ENERGY PREDICTED BY IDOCK:    8.70 KCAL/MOL
REMARK 924 INTRA-LIGAND FREE ENERGY PREDICTED BY IDOCK:   -0.12 KCAL/MOL
REMARK 927      BINDING AFFINITY PREDICTED BY RF-SCORE:    0.00 PKD
ROOT
HETATM    1  C   UNL     1     -11.510   1.519  67.913  1.00  0.00     8.669 C  
HETATM    2  O   UNL     1     -10.619   1.485  69.029  1.00  0.00     1.174 OA 
ENDROOT
BRANCH   2   3
HETATM    3  C   UNL     1      -9.424   2.097  68.804  1.00  0.00    -0.122 C  
HETATM    4  O   UNL     1      -8.765   2.001  67.777  1.00  0.00    -0.081 OA 
BRANCH   3   5
HETATM    5  C   UNL     1      -9.037   2.920  70.005  1.00  0.00    -0.193 C  
BRANCH   5   6
HETATM    6  C   UNL     1      -8.611   4.322  69.588  1.00  0.00    -0.103 C  
BRANCH   6   7
HETATM    7  C   UNL     1      -9.300   5.400  70.402  1.00  0.00    -0.159 C  
HETATM    8  O   UNL     1     -10.528   5.466  70.498  1.00  0.00    -0.260 OA 
BRANCH   7   9
HETATM    9  C   UNL     1      -8.381   6.450  71.028  1.00  0.00    -0.123 C  
HETATM   10  N   UNL     1      -7.768   5.925  72.249  1.00  0.00    -0.101 NA 
HETATM   11  H1  UNL     1      -7.155   6.626  72.667  1.00  0.00     0.000 HD 
HETATM   12  H2  UNL     1      -7.281   5.045  72.082  1.00  0.00     0.000 HD 
ENDBRANCH   7   9
ENDBRANCH   6   7
ENDBRANCH   5   6
ENDBRANCH   3   5
ENDBRANCH   2   3
TORSDOF 5
ENDMDL
MODEL      305
REMARK 921   NORMALIZED FREE ENERGY PREDICTED BY IDOCK:    7.39 KCAL/MOL
REMARK 922        TOTAL FREE ENERGY PREDICTED BY IDOCK:    9.11 KCAL/MOL
REMARK 923 INTER-LIGAND FREE ENERGY PREDICTED BY IDOCK:    9.20 KCAL/MOL
REMARK 924 INTRA-LIGAND FREE ENERGY PREDICTED BY IDOCK:   -0.09 KCAL/MOL
REMARK 927      BINDING AFFINITY PREDICTED BY RF-SCORE:    0.00 PKD
ROOT
HETATM    1  C   UNL     1     -11.510   1.519  67.913  1.00  0.00     8.669 C  
HETATM    2  O   UNL     1     -10.619   1.485  69.029  1.00  0.00     1.174 OA 
ENDROOT
BRANCH   2   3
HETATM    3  C   UNL     1      -9.424   2.097  68.804  1.00  0.00    -0.122 C  
HETATM    4  O   UNL     1      -9.138   2.737  67.800  1.00  0.00    -0.146 OA 
BRANCH   3   5
HETATM    5  C   UNL     1      -8.507   1.877  69.978  1.00  0.00    -0.083 C  
BRANCH   5   6
HETATM    6  C   UNL     1      -7.872   3.188  70.425  1.00  0.00    -0.046 C  
BRANCH   6   7
HETATM    7  C   UNL     1      -7.992   3.408  71.919  1.00  0.00    -0.062 C  
HETATM    8  O   UNL     1      -7.987   4.536  72.418  1.00  0.00    -0.090 OA 
BRANCH   7   9
HETATM    9  C   UNL     1      -8.036   2.144  72.777  1.00  0.00    -0.054 C  
HETATM   10  N   UNL     1      -7.397   2.384  74.071  1.00  0.00    -0.036 NA 
HETATM   11  H1  UNL     1      -7.426   1.540  74.644  1.00  0.00     0.000 HD 
HETATM   12  H2  UNL     1      -7.803   3.186  74.554  1.00  0.00     0.000 HD 
ENDBRANCH   7   9
ENDBRANCH   6   7
ENDBRANCH   5   6
ENDBRANCH   3   5
ENDBRANCH   2   3
TORSDOF 5
ENDMDL
MODEL      306
REMARK 921   NORMALIZED FREE ENERGY PREDICTED BY IDOCK:   11.12 KCAL/MOL
REMARK 922        TOTAL FREE ENERGY PREDICTED BY IDOCK:   13.93 KCAL/MOL
REMARK 923 INTER-LIGAND FREE ENERGY PREDICTED BY IDOCK:    7.65 KCAL/MOL
REMARK 924 INTRA-LIGAND FREE ENERGY PREDICTED BY IDOCK:    6.28 KCAL/MOL
REMARK 927      BINDING AFFINITY PREDICTED BY RF-SCORE:    0.00 PKD
ROOT
HETATM    1  C   UNL     1      -9.012  19.601  68.286  1.00  0.00    -0.323 C  
HETATM    2  O   UNL     1      -8.473  19.877  66.991  1.00  0.00    -0.302 OA 
ENDROOT
BRANCH   2   3
HETATM    3  C   UNL     1      -7.132  19.657  66.891  1.00  0.00    -0.213 C  
HETATM    4  O   UNL     1      -6.559  18.631  67.233  1.00  0.00    -0.197 OA 
BRANCH   3   5
HETATM    5  C   UNL     1      -6.461  20.863  66.289  1.00  0.00    -0.291 C  
BRANCH   5   6
HETATM    6  C   UNL     1      -6.686  20.914  64.783  1.00  0.00    -0.092 C  
BRANCH   6   7
HETATM    7  C   UNL     1      -7.224  19.607  64.235  1.00  0.00     1.739 C  
HETATM    8  O   UNL     1      -8.071  19.571  63.339  1.00  0.00     6.693 OA 
BRANCH   7   9
HETATM    9  C   UNL     1      -6.712  18.339  64.918  1.00  0.00     0.797 C  
HETATM   10  N   UNL     1      -5.363  18.553  65.444  1.00  0.00    -0.160 NA 
HETATM   11  H1  UNL     1      -5.022  17.706  65.900  1.00  0.00     0.000 HD 
HETATM   12  H2  UNL     1      -5.321  19.362  66.063  1.00  0.00     0.000 HD 
ENDBRANCH   7   9
ENDBRANCH   6   7
ENDBRANCH   5   6
ENDBRANCH   3   5
ENDBRANCH   2   3
TORSDOF 5
ENDMDL
