MODEL        1
REMARK 921   NORMALIZED FREE ENERGY PREDICTED BY IDOCK:   -5.78 KCAL/MOL
REMARK 922        TOTAL FREE ENERGY PREDICTED BY IDOCK:   -9.39 KCAL/MOL
REMARK 923 INTER-LIGAND FREE ENERGY PREDICTED BY IDOCK:   -8.14 KCAL/MOL
REMARK 924 INTRA-LIGAND FREE ENERGY PREDICTED BY IDOCK:   -1.25 KCAL/MOL
REMARK 927      BINDING AFFINITY PREDICTED BY RF-SCORE:    0.00 PKD
ROOT
HETATM    1  C   UNL     1      -6.944  15.801  67.994  1.00  0.00    -0.137 C  
HETATM    2  C   UNL     1      -8.052  15.682  69.034  1.00  0.00    -0.222 C  
ENDROOT
BRANCH   2   3
HETATM    3  C   UNL     1      -9.227  14.871  68.504  1.00  0.00    -0.192 C  
HETATM    4  O   UNL     1      -9.142  13.635  68.534  1.00  0.00    -0.183 OA 
BRANCH   3   5
HETATM    5  C   UNL     1     -10.554  15.613  68.041  1.00  0.00    -0.271 C  
BRANCH   5   6
HETATM    6  C   UNL     1     -10.996  14.840  66.735  1.00  0.00    -0.327 A  
HETATM    7  C   UNL     1     -10.617  14.008  64.462  1.00  0.00    -0.332 A  
HETATM    8  C   UNL     1     -12.307  14.326  66.644  1.00  0.00    -0.320 A  
HETATM    9  C   UNL     1     -10.161  14.658  65.615  1.00  0.00    -0.389 A  
HETATM   10  C   UNL     1     -12.765  13.683  65.489  1.00  0.00    -0.514 A  
HETATM   11  C   UNL     1     -11.918  13.524  64.398  1.00  0.00    -0.466 A  
ENDBRANCH   5   6
BRANCH   5  12
HETATM   12  C   UNL     1     -11.694  15.514  69.148  1.00  0.00    -0.380 C  
BRANCH  12  13
HETATM   13  C   UNL     1     -11.402  15.144  70.645  1.00  0.00    -0.293 C  
HETATM   14  C   UNL     1     -11.697  16.319  71.590  1.00  0.00    -0.490 C  
BRANCH  13  15
HETATM   15  N   UNL     1     -12.225  13.956  71.065  1.00  0.00    -0.356 NA 
HETATM   16  C   UNL     1     -13.653  14.255  71.222  1.00  0.00    -0.288 C  
HETATM   17  C   UNL     1     -12.103  12.822  70.133  1.00  0.00    -0.298 C  
ENDBRANCH  13  15
ENDBRANCH  12  13
ENDBRANCH   5  12
BRANCH   5  18
HETATM   18  C   UNL     1     -10.321  17.118  67.693  1.00  0.00    -0.344 A  
HETATM   19  C   UNL     1     -10.326  17.535  66.344  1.00  0.00    -0.334 A  
HETATM   20  C   UNL     1     -10.178  19.485  68.326  1.00  0.00    -0.552 A  
HETATM   21  C   UNL     1     -10.254  19.867  66.994  1.00  0.00    -0.588 A  
HETATM   22  C   UNL     1     -10.315  18.893  66.002  1.00  0.00    -0.485 A  
HETATM   23  C   UNL     1     -10.213  18.129  68.671  1.00  0.00    -0.382 A  
ENDBRANCH   5  18
ENDBRANCH   3   5
ENDBRANCH   2   3
TORSDOF 7
ENDMDL
MODEL        2
REMARK 921   NORMALIZED FREE ENERGY PREDICTED BY IDOCK:   -5.48 KCAL/MOL
REMARK 922        TOTAL FREE ENERGY PREDICTED BY IDOCK:   -8.97 KCAL/MOL
REMARK 923 INTER-LIGAND FREE ENERGY PREDICTED BY IDOCK:   -8.13 KCAL/MOL
REMARK 924 INTRA-LIGAND FREE ENERGY PREDICTED BY IDOCK:   -0.84 KCAL/MOL
REMARK 927      BINDING AFFINITY PREDICTED BY RF-SCORE:    0.00 PKD
ROOT
HETATM    1  C   UNL     1      -6.747  16.767  68.468  1.00  0.00    -0.161 C  
HETATM    2  C   UNL     1      -7.655  16.136  67.418  1.00  0.00    -0.191 C  
ENDROOT
BRANCH   2   3
HETATM    3  C   UNL     1      -8.714  15.250  68.060  1.00  0.00    -0.160 C  
HETATM    4  O   UNL     1      -8.333  14.311  68.774  1.00  0.00    -0.148 OA 
BRANCH   3   5
HETATM    5  C   UNL     1     -10.252  15.613  67.896  1.00  0.00    -0.239 C  
BRANCH   5   6
HETATM    6  C   UNL     1     -10.255  17.168  67.612  1.00  0.00    -0.329 A  
HETATM    7  C   UNL     1     -10.191  19.513  68.320  1.00  0.00    -0.552 A  
HETATM    8  C   UNL     1     -10.427  17.631  66.290  1.00  0.00    -0.292 A  
HETATM    9  C   UNL     1     -10.133  18.146  68.619  1.00  0.00    -0.406 A  
HETATM   10  C   UNL     1     -10.492  18.996  65.992  1.00  0.00    -0.530 A  
HETATM   11  C   UNL     1     -10.373  19.937  67.009  1.00  0.00    -0.592 A  
ENDBRANCH   5   6
BRANCH   5  12
HETATM   12  C   UNL     1     -10.909  14.833  66.674  1.00  0.00    -0.319 C  
BRANCH  12  13
HETATM   13  C   UNL     1     -10.122  13.794  65.801  1.00  0.00    -0.307 C  
HETATM   14  C   UNL     1     -10.207  12.375  66.388  1.00  0.00    -0.253 C  
BRANCH  13  15
HETATM   15  N   UNL     1     -10.654  13.776  64.394  1.00  0.00    -0.379 NA 
HETATM   16  C   UNL     1     -10.602  12.453  63.761  1.00  0.00    -0.452 C  
HETATM   17  C   UNL     1     -12.041  14.262  64.305  1.00  0.00    -0.441 C  
ENDBRANCH  13  15
ENDBRANCH  12  13
ENDBRANCH   5  12
BRANCH   5  18
HETATM   18  C   UNL     1     -11.087  15.325  69.185  1.00  0.00    -0.266 A  
HETATM   19  C   UNL     1     -11.833  14.130  69.285  1.00  0.00    -0.381 A  
HETATM   20  C   UNL     1     -11.673  15.777  71.524  1.00  0.00    -0.523 A  
HETATM   21  C   UNL     1     -12.342  14.564  71.613  1.00  0.00    -0.420 A  
HETATM   22  C   UNL     1     -12.433  13.746  70.490  1.00  0.00    -0.409 A  
HETATM   23  C   UNL     1     -11.052  16.151  70.327  1.00  0.00    -0.375 A  
ENDBRANCH   5  18
ENDBRANCH   3   5
ENDBRANCH   2   3
TORSDOF 7
ENDMDL
MODEL        3
REMARK 921   NORMALIZED FREE ENERGY PREDICTED BY IDOCK:   -5.46 KCAL/MOL
REMARK 922        TOTAL FREE ENERGY PREDICTED BY IDOCK:   -8.95 KCAL/MOL
REMARK 923 INTER-LIGAND FREE ENERGY PREDICTED BY IDOCK:   -8.03 KCAL/MOL
REMARK 924 INTRA-LIGAND FREE ENERGY PREDICTED BY IDOCK:   -0.92 KCAL/MOL
REMARK 927      BINDING AFFINITY PREDICTED BY RF-SCORE:    0.00 PKD
ROOT
HETATM    1  C   UNL     1      -7.415  14.880  67.489  1.00  0.00    -0.224 C  
HETATM    2  C   UNL     1      -8.544  13.963  67.948  1.00  0.00    -0.180 C  
ENDROOT
BRANCH   2   3
HETATM    3  C   UNL     1      -9.524  14.699  68.852  1.00  0.00    -0.173 C  
HETATM    4  O   UNL     1      -9.080  15.242  69.873  1.00  0.00    -0.145 OA 
BRANCH   3   5
HETATM    5  C   UNL     1     -11.044  14.849  68.412  1.00  0.00    -0.282 C  
BRANCH   5   6
HETATM    6  C   UNL     1     -11.863  14.479  69.712  1.00  0.00    -0.367 A  
HETATM    7  C   UNL     1     -12.765  12.884  71.339  1.00  0.00    -0.366 A  
HETATM    8  C   UNL     1     -12.549  15.494  70.412  1.00  0.00    -0.421 A  
HETATM    9  C   UNL     1     -11.987  13.166  70.210  1.00  0.00    -0.366 A  
HETATM   10  C   UNL     1     -13.332  15.211  71.537  1.00  0.00    -0.533 A  
HETATM   11  C   UNL     1     -13.439  13.904  71.999  1.00  0.00    -0.543 A  
ENDBRANCH   5   6
BRANCH   5  12
HETATM   12  C   UNL     1     -11.376  16.339  67.962  1.00  0.00    -0.205 C  
BRANCH  12  13
HETATM   13  C   UNL     1     -10.313  17.294  67.314  1.00  0.00    -0.331 C  
HETATM   14  C   UNL     1      -9.949  16.855  65.886  1.00  0.00    -0.274 C  
BRANCH  13  15
HETATM   15  N   UNL     1     -10.826  18.708  67.277  1.00  0.00    -0.394 NA 
HETATM   16  C   UNL     1     -10.370  19.529  68.405  1.00  0.00    -0.377 C  
HETATM   17  C   UNL     1     -10.464  19.411  66.035  1.00  0.00    -0.505 C  
ENDBRANCH  13  15
ENDBRANCH  12  13
ENDBRANCH   5  12
BRANCH   5  18
HETATM   18  C   UNL     1     -11.443  13.874  67.259  1.00  0.00    -0.369 A  
HETATM   19  C   UNL     1     -12.282  14.327  66.216  1.00  0.00    -0.433 A  
HETATM   20  C   UNL     1     -11.159  11.789  65.998  1.00  0.00    -0.363 A  
HETATM   21  C   UNL     1     -11.932  12.287  64.958  1.00  0.00    -0.413 A  
HETATM   22  C   UNL     1     -12.504  13.551  65.072  1.00  0.00    -0.462 A  
HETATM   23  C   UNL     1     -10.916  12.572  67.131  1.00  0.00    -0.302 A  
ENDBRANCH   5  18
ENDBRANCH   3   5
ENDBRANCH   2   3
TORSDOF 7
ENDMDL
MODEL        4
REMARK 921   NORMALIZED FREE ENERGY PREDICTED BY IDOCK:   -5.41 KCAL/MOL
REMARK 922        TOTAL FREE ENERGY PREDICTED BY IDOCK:   -8.88 KCAL/MOL
REMARK 923 INTER-LIGAND FREE ENERGY PREDICTED BY IDOCK:   -8.03 KCAL/MOL
REMARK 924 INTRA-LIGAND FREE ENERGY PREDICTED BY IDOCK:   -0.85 KCAL/MOL
REMARK 927      BINDING AFFINITY PREDICTED BY RF-SCORE:    0.00 PKD
ROOT
HETATM    1  C   UNL     1     -12.617  12.023  63.414  1.00  0.00    -0.592 C  
HETATM    2  C   UNL     1     -11.668  13.043  64.035  1.00  0.00    -0.497 C  
ENDROOT
BRANCH   2   3
HETATM    3  C   UNL     1     -12.114  13.434  65.438  1.00  0.00    -0.421 C  
HETATM    4  O   UNL     1     -13.228  13.959  65.570  1.00  0.00    -0.698 OA 
BRANCH   3   5
HETATM    5  C   UNL     1     -11.205  13.060  66.687  1.00  0.00    -0.341 C  
BRANCH   5   6
HETATM    6  C   UNL     1     -10.020  14.105  66.632  1.00  0.00    -0.280 A  
HETATM    7  C   UNL     1      -7.760  14.868  67.189  1.00  0.00    -0.177 A  
HETATM    8  C   UNL     1     -10.220  15.346  65.990  1.00  0.00    -0.343 A  
HETATM    9  C   UNL     1      -8.760  13.889  67.225  1.00  0.00    -0.225 A  
HETATM   10  C   UNL     1      -9.222  16.326  65.961  1.00  0.00    -0.351 A  
HETATM   11  C   UNL     1      -7.991  16.086  66.561  1.00  0.00    -0.271 A  
ENDBRANCH   5   6
BRANCH   5  12
HETATM   12  C   UNL     1     -12.004  13.212  68.056  1.00  0.00    -0.345 C  
BRANCH  12  13
HETATM   13  C   UNL     1     -11.543  14.166  69.213  1.00  0.00    -0.304 C  
HETATM   14  C   UNL     1     -12.036  15.606  68.995  1.00  0.00    -0.323 C  
BRANCH  13  15
HETATM   15  N   UNL     1     -12.050  13.669  70.540  1.00  0.00    -0.349 NA 
HETATM   16  C   UNL     1     -13.287  14.325  70.982  1.00  0.00    -0.265 C  
HETATM   17  C   UNL     1     -12.285  12.216  70.550  1.00  0.00    -0.304 C  
ENDBRANCH  13  15
ENDBRANCH  12  13
ENDBRANCH   5  12
BRANCH   5  18
HETATM   18  C   UNL     1     -10.619  11.615  66.604  1.00  0.00    -0.281 A  
HETATM   19  C   UNL     1     -10.965  10.660  67.586  1.00  0.00    -0.370 A  
HETATM   20  C   UNL     1      -9.473   9.815  65.392  1.00  0.00    -0.333 A  
HETATM   21  C   UNL     1      -9.885   8.887  66.338  1.00  0.00    -0.353 A  
HETATM   22  C   UNL     1     -10.620   9.310  67.442  1.00  0.00    -0.324 A  
HETATM   23  C   UNL     1      -9.837  11.160  65.522  1.00  0.00    -0.281 A  
ENDBRANCH   5  18
ENDBRANCH   3   5
ENDBRANCH   2   3
TORSDOF 7
ENDMDL
MODEL        5
REMARK 921   NORMALIZED FREE ENERGY PREDICTED BY IDOCK:   -5.31 KCAL/MOL
REMARK 922        TOTAL FREE ENERGY PREDICTED BY IDOCK:   -8.74 KCAL/MOL
REMARK 923 INTER-LIGAND FREE ENERGY PREDICTED BY IDOCK:   -7.50 KCAL/MOL
REMARK 924 INTRA-LIGAND FREE ENERGY PREDICTED BY IDOCK:   -1.24 KCAL/MOL
REMARK 927      BINDING AFFINITY PREDICTED BY RF-SCORE:    0.00 PKD
ROOT
HETATM    1  C   UNL     1      -6.414  13.892  68.333  1.00  0.00    -0.103 C  
HETATM    2  C   UNL     1      -7.640  14.431  69.062  1.00  0.00    -0.106 C  
ENDROOT
BRANCH   2   3
HETATM    3  C   UNL     1      -8.928  13.896  68.450  1.00  0.00    -0.178 C  
HETATM    4  O   UNL     1      -9.046  12.670  68.320  1.00  0.00    -0.199 OA 
BRANCH   3   5
HETATM    5  C   UNL     1     -10.115  14.898  68.109  1.00  0.00    -0.222 C  
BRANCH   5   6
HETATM    6  C   UNL     1     -11.102  14.762  69.337  1.00  0.00    -0.302 A  
HETATM    7  C   UNL     1     -12.579  13.483  70.814  1.00  0.00    -0.382 A  
HETATM    8  C   UNL     1     -11.479  15.919  70.052  1.00  0.00    -0.354 A  
HETATM    9  C   UNL     1     -11.671  13.542  69.750  1.00  0.00    -0.363 A  
HETATM   10  C   UNL     1     -12.392  15.861  71.111  1.00  0.00    -0.435 A  
HETATM   11  C   UNL     1     -12.942  14.641  71.492  1.00  0.00    -0.410 A  
ENDBRANCH   5   6
BRANCH   5  12
HETATM   12  C   UNL     1      -9.595  16.398  67.987  1.00  0.00    -0.226 C  
BRANCH  12  13
HETATM   13  C   UNL     1     -10.052  17.370  66.843  1.00  0.00    -0.314 C  
HETATM   14  C   UNL     1     -10.766  18.611  67.402  1.00  0.00    -0.456 C  
BRANCH  13  15
HETATM   15  N   UNL     1      -8.870  17.810  66.022  1.00  0.00    -0.512 NA 
HETATM   16  C   UNL     1      -8.502  19.216  66.226  1.00  0.00    -0.304 C  
HETATM   17  C   UNL     1      -7.671  16.991  66.268  1.00  0.00    -0.311 C  
ENDBRANCH  13  15
ENDBRANCH  12  13
ENDBRANCH   5  12
BRANCH   5  18
HETATM   18  C   UNL     1     -10.873  14.520  66.797  1.00  0.00    -0.305 A  
HETATM   19  C   UNL     1     -10.142  14.180  65.637  1.00  0.00    -0.350 A  
HETATM   20  C   UNL     1     -12.909  13.878  65.587  1.00  0.00    -0.467 A  
HETATM   21  C   UNL     1     -12.157  13.488  64.487  1.00  0.00    -0.460 A  
HETATM   22  C   UNL     1     -10.775  13.652  64.506  1.00  0.00    -0.420 A  
HETATM   23  C   UNL     1     -12.275  14.384  66.727  1.00  0.00    -0.319 A  
ENDBRANCH   5  18
ENDBRANCH   3   5
ENDBRANCH   2   3
TORSDOF 7
ENDMDL
MODEL        6
REMARK 921   NORMALIZED FREE ENERGY PREDICTED BY IDOCK:   -5.29 KCAL/MOL
REMARK 922        TOTAL FREE ENERGY PREDICTED BY IDOCK:   -8.71 KCAL/MOL
REMARK 923 INTER-LIGAND FREE ENERGY PREDICTED BY IDOCK:   -7.61 KCAL/MOL
REMARK 924 INTRA-LIGAND FREE ENERGY PREDICTED BY IDOCK:   -1.10 KCAL/MOL
REMARK 927      BINDING AFFINITY PREDICTED BY RF-SCORE:    0.00 PKD
ROOT
HETATM    1  C   UNL     1      -7.377  11.724  67.392  1.00  0.00    -0.136 C  
HETATM    2  C   UNL     1      -8.482  12.407  68.190  1.00  0.00    -0.180 C  
ENDROOT
BRANCH   2   3
HETATM    3  C   UNL     1      -8.999  13.647  67.473  1.00  0.00    -0.209 C  
HETATM    4  O   UNL     1      -8.169  14.463  67.049  1.00  0.00    -0.189 OA 
BRANCH   3   5
HETATM    5  C   UNL     1     -10.555  13.804  67.190  1.00  0.00    -0.277 C  
BRANCH   5   6
HETATM    6  C   UNL     1     -11.247  13.194  68.474  1.00  0.00    -0.307 A  
HETATM    7  C   UNL     1     -12.184  13.361  70.731  1.00  0.00    -0.409 A  
HETATM    8  C   UNL     1     -11.482  11.804  68.539  1.00  0.00    -0.353 A  
HETATM    9  C   UNL     1     -11.619  13.958  69.598  1.00  0.00    -0.347 A  
HETATM   10  C   UNL     1     -12.041  11.207  69.675  1.00  0.00    -0.406 A  
HETATM   11  C   UNL     1     -12.392  11.988  70.771  1.00  0.00    -0.403 A  
ENDBRANCH   5   6
BRANCH   5  12
HETATM   12  C   UNL     1     -10.966  15.333  67.021  1.00  0.00    -0.324 C  
BRANCH  12  13
HETATM   13  C   UNL     1     -10.269  16.297  65.997  1.00  0.00    -0.358 C  
HETATM   14  C   UNL     1     -11.118  16.494  64.731  1.00  0.00    -0.197 C  
BRANCH  13  15
HETATM   15  N   UNL     1     -10.009  17.638  66.628  1.00  0.00    -0.313 NA 
HETATM   16  C   UNL     1     -10.625  18.758  65.906  1.00  0.00    -0.352 C  
HETATM   17  C   UNL     1     -10.462  17.704  68.028  1.00  0.00    -0.394 C  
ENDBRANCH  13  15
ENDBRANCH  12  13
ENDBRANCH   5  12
BRANCH   5  18
HETATM   18  C   UNL     1     -11.027  13.013  65.928  1.00  0.00    -0.292 A  
HETATM   19  C   UNL     1     -12.390  13.027  65.561  1.00  0.00    -0.527 A  
HETATM   20  C   UNL     1     -10.573  11.811  63.837  1.00  0.00    -0.445 A  
HETATM   21  C   UNL     1     -11.909  11.900  63.471  1.00  0.00    -0.560 A  
HETATM   22  C   UNL     1     -12.820  12.496  64.339  1.00  0.00    -0.366 A  
HETATM   23  C   UNL     1     -10.138  12.362  65.047  1.00  0.00    -0.269 A  
ENDBRANCH   5  18
ENDBRANCH   3   5
ENDBRANCH   2   3
TORSDOF 7
ENDMDL
MODEL        7
REMARK 921   NORMALIZED FREE ENERGY PREDICTED BY IDOCK:   -5.26 KCAL/MOL
REMARK 922        TOTAL FREE ENERGY PREDICTED BY IDOCK:   -8.67 KCAL/MOL
REMARK 923 INTER-LIGAND FREE ENERGY PREDICTED BY IDOCK:   -7.80 KCAL/MOL
REMARK 924 INTRA-LIGAND FREE ENERGY PREDICTED BY IDOCK:   -0.87 KCAL/MOL
REMARK 927      BINDING AFFINITY PREDICTED BY RF-SCORE:    0.00 PKD
ROOT
HETATM    1  C   UNL     1     -10.542  18.909  66.167  1.00  0.00    -0.476 C  
HETATM    2  C   UNL     1      -9.769  17.614  66.385  1.00  0.00    -0.303 C  
ENDROOT
BRANCH   2   3
HETATM    3  C   UNL     1     -10.503  16.422  65.786  1.00  0.00    -0.354 C  
HETATM    4  O   UNL     1     -11.111  16.587  64.719  1.00  0.00    -0.624 OA 
BRANCH   3   5
HETATM    5  C   UNL     1     -10.378  14.992  66.471  1.00  0.00    -0.287 C  
BRANCH   5   6
HETATM    6  C   UNL     1     -11.013  14.000  65.416  1.00  0.00    -0.321 A  
HETATM    7  C   UNL     1     -12.907  12.851  64.370  1.00  0.00    -0.235 A  
HETATM    8  C   UNL     1     -10.165  13.254  64.570  1.00  0.00    -0.332 A  
HETATM    9  C   UNL     1     -12.398  13.779  65.288  1.00  0.00    -0.491 A  
HETATM   10  C   UNL     1     -10.674  12.323  63.658  1.00  0.00    -0.513 A  
HETATM   11  C   UNL     1     -12.046  12.123  63.559  1.00  0.00    -0.649 A  
ENDBRANCH   5   6
BRANCH   5  12
HETATM   12  C   UNL     1      -8.858  14.605  66.740  1.00  0.00    -0.269 C  
BRANCH  12  13
HETATM   13  C   UNL     1      -8.326  14.160  68.147  1.00  0.00    -0.161 C  
HETATM   14  C   UNL     1      -7.755  12.733  68.115  1.00  0.00    -0.137 C  
BRANCH  13  15
HETATM   15  N   UNL     1      -7.260  15.105  68.632  1.00  0.00    -0.112 NA 
HETATM   16  C   UNL     1      -6.270  15.453  67.606  1.00  0.00    -0.142 C  
HETATM   17  C   UNL     1      -7.814  16.361  69.165  1.00  0.00    -0.214 C  
ENDBRANCH  13  15
ENDBRANCH  12  13
ENDBRANCH   5  12
BRANCH   5  18
HETATM   18  C   UNL     1     -11.169  14.889  67.814  1.00  0.00    -0.329 A  
HETATM   19  C   UNL     1     -11.592  13.626  68.284  1.00  0.00    -0.374 A  
HETATM   20  C   UNL     1     -11.955  15.837  69.936  1.00  0.00    -0.346 A  
HETATM   21  C   UNL     1     -12.298  14.573  70.398  1.00  0.00    -0.400 A  
HETATM   22  C   UNL     1     -12.130  13.469  69.567  1.00  0.00    -0.352 A  
HETATM   23  C   UNL     1     -11.396  15.992  68.663  1.00  0.00    -0.383 A  
ENDBRANCH   5  18
ENDBRANCH   3   5
ENDBRANCH   2   3
TORSDOF 7
ENDMDL
MODEL        8
REMARK 921   NORMALIZED FREE ENERGY PREDICTED BY IDOCK:   -5.25 KCAL/MOL
REMARK 922        TOTAL FREE ENERGY PREDICTED BY IDOCK:   -8.64 KCAL/MOL
REMARK 923 INTER-LIGAND FREE ENERGY PREDICTED BY IDOCK:   -7.61 KCAL/MOL
REMARK 924 INTRA-LIGAND FREE ENERGY PREDICTED BY IDOCK:   -1.03 KCAL/MOL
REMARK 927      BINDING AFFINITY PREDICTED BY RF-SCORE:    0.00 PKD
ROOT
HETATM    1  C   UNL     1      -8.915  15.775  66.507  1.00  0.00    -0.341 C  
HETATM    2  C   UNL     1      -8.846  14.307  66.915  1.00  0.00    -0.234 C  
ENDROOT
BRANCH   2   3
HETATM    3  C   UNL     1      -9.632  14.048  68.193  1.00  0.00    -0.220 C  
HETATM    4  O   UNL     1      -9.175  14.489  69.257  1.00  0.00    -0.049 OA 
BRANCH   3   5
HETATM    5  C   UNL     1     -11.050  13.334  68.117  1.00  0.00    -0.286 C  
BRANCH   5   6
HETATM    6  C   UNL     1     -10.807  11.918  68.775  1.00  0.00    -0.270 A  
HETATM    7  C   UNL     1     -11.533   9.948  70.037  1.00  0.00    -0.274 A  
HETATM    8  C   UNL     1      -9.512  11.358  68.756  1.00  0.00    -0.128 A  
HETATM    9  C   UNL     1     -11.812  11.177  69.427  1.00  0.00    -0.415 A  
HETATM   10  C   UNL     1      -9.232  10.133  69.372  1.00  0.00    -0.229 A  
HETATM   11  C   UNL     1     -10.245   9.429  70.013  1.00  0.00    -0.262 A  
ENDBRANCH   5   6
BRANCH   5  12
HETATM   12  C   UNL     1     -12.152  14.137  68.937  1.00  0.00    -0.339 C  
BRANCH  12  13
HETATM   13  C   UNL     1     -12.087  14.331  70.493  1.00  0.00    -0.343 C  
HETATM   14  C   UNL     1     -11.704  15.770  70.873  1.00  0.00    -0.441 C  
BRANCH  13  15
HETATM   15  N   UNL     1     -13.411  13.992  71.123  1.00  0.00    -0.243 NA 
HETATM   16  C   UNL     1     -13.311  13.024  72.222  1.00  0.00    -0.506 C  
HETATM   17  C   UNL     1     -14.117  15.179  71.634  1.00  0.00    -0.549 C  
ENDBRANCH  13  15
ENDBRANCH  12  13
ENDBRANCH   5  12
BRANCH   5  18
HETATM   18  C   UNL     1     -11.556  13.139  66.652  1.00  0.00    -0.403 A  
HETATM   19  C   UNL     1     -12.238  14.190  65.999  1.00  0.00    -0.464 A  
HETATM   20  C   UNL     1     -11.588  11.921  64.522  1.00  0.00    -0.344 A  
HETATM   21  C   UNL     1     -12.197  12.998  63.891  1.00  0.00    -0.511 A  
HETATM   22  C   UNL     1     -12.534  14.127  64.632  1.00  0.00    -0.375 A  
HETATM   23  C   UNL     1     -11.270  11.992  65.882  1.00  0.00    -0.385 A  
ENDBRANCH   5  18
ENDBRANCH   3   5
ENDBRANCH   2   3
TORSDOF 7
ENDMDL
MODEL        9
REMARK 921   NORMALIZED FREE ENERGY PREDICTED BY IDOCK:   -5.23 KCAL/MOL
REMARK 922        TOTAL FREE ENERGY PREDICTED BY IDOCK:   -8.63 KCAL/MOL
REMARK 923 INTER-LIGAND FREE ENERGY PREDICTED BY IDOCK:   -7.34 KCAL/MOL
REMARK 924 INTRA-LIGAND FREE ENERGY PREDICTED BY IDOCK:   -1.29 KCAL/MOL
REMARK 927      BINDING AFFINITY PREDICTED BY RF-SCORE:    0.00 PKD
ROOT
HETATM    1  C   UNL     1     -12.076  13.003  63.447  1.00  0.00    -0.591 C  
HETATM    2  C   UNL     1     -12.388  12.310  64.768  1.00  0.00    -0.416 C  
ENDROOT
BRANCH   2   3
HETATM    3  C   UNL     1     -12.074  13.210  65.955  1.00  0.00    -0.436 C  
HETATM    4  O   UNL     1     -12.835  14.161  66.182  1.00  0.00    -0.377 OA 
BRANCH   3   5
HETATM    5  C   UNL     1     -10.868  12.847  66.925  1.00  0.00    -0.278 C  
BRANCH   5   6
HETATM    6  C   UNL     1     -11.511  12.871  68.369  1.00  0.00    -0.347 A  
HETATM    7  C   UNL     1     -12.438  14.021  70.323  1.00  0.00    -0.403 A  
HETATM    8  C   UNL     1     -11.661  11.661  69.080  1.00  0.00    -0.378 A  
HETATM    9  C   UNL     1     -11.919  14.050  69.023  1.00  0.00    -0.392 A  
HETATM   10  C   UNL     1     -12.173  11.633  70.382  1.00  0.00    -0.434 A  
HETATM   11  C   UNL     1     -12.562  12.815  71.003  1.00  0.00    -0.362 A  
ENDBRANCH   5   6
BRANCH   5  12
HETATM   12  C   UNL     1     -10.282  11.401  66.611  1.00  0.00    -0.258 C  
BRANCH  12  13
HETATM   13  C   UNL     1      -9.186  11.143  65.518  1.00  0.00    -0.216 C  
HETATM   14  C   UNL     1      -7.830  10.779  66.145  1.00  0.00    -0.155 C  
BRANCH  13  15
HETATM   15  N   UNL     1      -9.613  10.035  64.594  1.00  0.00    -0.306 NA 
HETATM   16  C   UNL     1      -9.454  10.360  63.171  1.00  0.00    -0.327 C  
HETATM   17  C   UNL     1      -8.896   8.774  64.849  1.00  0.00    -0.074 C  
ENDBRANCH  13  15
ENDBRANCH  12  13
ENDBRANCH   5  12
BRANCH   5  18
HETATM   18  C   UNL     1      -9.704  13.887  66.865  1.00  0.00    -0.268 A  
HETATM   19  C   UNL     1      -9.746  14.934  65.918  1.00  0.00    -0.366 A  
HETATM   20  C   UNL     1      -7.710  14.955  67.817  1.00  0.00    -0.174 A  
HETATM   21  C   UNL     1      -7.818  16.007  66.917  1.00  0.00    -0.284 A  
HETATM   22  C   UNL     1      -8.828  15.990  65.959  1.00  0.00    -0.314 A  
HETATM   23  C   UNL     1      -8.642  13.911  67.792  1.00  0.00    -0.182 A  
ENDBRANCH   5  18
ENDBRANCH   3   5
ENDBRANCH   2   3
TORSDOF 7
ENDMDL
MODEL       10
REMARK 921   NORMALIZED FREE ENERGY PREDICTED BY IDOCK:   -5.23 KCAL/MOL
REMARK 922        TOTAL FREE ENERGY PREDICTED BY IDOCK:   -8.63 KCAL/MOL
REMARK 923 INTER-LIGAND FREE ENERGY PREDICTED BY IDOCK:   -7.59 KCAL/MOL
REMARK 924 INTRA-LIGAND FREE ENERGY PREDICTED BY IDOCK:   -1.04 KCAL/MOL
REMARK 927      BINDING AFFINITY PREDICTED BY RF-SCORE:    0.00 PKD
ROOT
HETATM    1  C   UNL     1     -12.261  12.103  63.360  1.00  0.00    -0.635 C  
HETATM    2  C   UNL     1     -11.356  13.063  64.124  1.00  0.00    -0.442 C  
ENDROOT
BRANCH   2   3
HETATM    3  C   UNL     1     -12.039  13.591  65.379  1.00  0.00    -0.415 C  
HETATM    4  O   UNL     1     -13.241  13.882  65.309  1.00  0.00    -0.774 OA 
BRANCH   3   5
HETATM    5  C   UNL     1     -11.238  13.646  66.751  1.00  0.00    -0.327 C  
BRANCH   5   6
HETATM    6  C   UNL     1     -10.922  15.181  66.955  1.00  0.00    -0.323 A  
HETATM    7  C   UNL     1     -10.840  17.230  68.296  1.00  0.00    -0.287 A  
HETATM    8  C   UNL     1     -10.485  15.950  65.855  1.00  0.00    -0.373 A  
HETATM    9  C   UNL     1     -11.087  15.856  68.180  1.00  0.00    -0.338 A  
HETATM   10  C   UNL     1     -10.244  17.324  65.970  1.00  0.00    -0.314 A  
HETATM   11  C   UNL     1     -10.422  17.963  67.192  1.00  0.00    -0.359 A  
ENDBRANCH   5   6
BRANCH   5  12
HETATM   12  C   UNL     1     -12.117  13.102  67.961  1.00  0.00    -0.240 C  
BRANCH  12  13
HETATM   13  C   UNL     1     -11.495  12.611  69.316  1.00  0.00    -0.294 C  
HETATM   14  C   UNL     1     -12.111  13.339  70.522  1.00  0.00    -0.391 C  
BRANCH  13  15
HETATM   15  N   UNL     1     -11.695  11.129  69.482  1.00  0.00    -0.303 NA 
HETATM   16  C   UNL     1     -10.443  10.381  69.647  1.00  0.00    -0.243 C  
HETATM   17  C   UNL     1     -12.569  10.798  70.619  1.00  0.00    -0.357 C  
ENDBRANCH  13  15
ENDBRANCH  12  13
ENDBRANCH   5  12
BRANCH   5  18
HETATM   18  C   UNL     1      -9.896  12.847  66.705  1.00  0.00    -0.250 A  
HETATM   19  C   UNL     1      -8.736  13.389  67.300  1.00  0.00    -0.219 A  
HETATM   20  C   UNL     1      -8.621  10.786  66.320  1.00  0.00    -0.163 A  
HETATM   21  C   UNL     1      -7.519  11.322  66.972  1.00  0.00    -0.139 A  
HETATM   22  C   UNL     1      -7.571  12.628  67.450  1.00  0.00    -0.150 A  
HETATM   23  C   UNL     1      -9.794  11.538  66.191  1.00  0.00    -0.250 A  
ENDBRANCH   5  18
ENDBRANCH   3   5
ENDBRANCH   2   3
TORSDOF 7
ENDMDL
MODEL       11
REMARK 921   NORMALIZED FREE ENERGY PREDICTED BY IDOCK:   -5.23 KCAL/MOL
REMARK 922        TOTAL FREE ENERGY PREDICTED BY IDOCK:   -8.63 KCAL/MOL
REMARK 923 INTER-LIGAND FREE ENERGY PREDICTED BY IDOCK:   -7.29 KCAL/MOL
REMARK 924 INTRA-LIGAND FREE ENERGY PREDICTED BY IDOCK:   -1.33 KCAL/MOL
REMARK 927      BINDING AFFINITY PREDICTED BY RF-SCORE:    0.00 PKD
ROOT
HETATM    1  C   UNL     1     -12.771  12.858  64.836  1.00  0.00    -0.474 C  
HETATM    2  C   UNL     1     -12.554  14.020  65.798  1.00  0.00    -0.512 C  
ENDROOT
BRANCH   2   3
HETATM    3  C   UNL     1     -11.093  14.450  65.829  1.00  0.00    -0.316 C  
HETATM    4  O   UNL     1     -10.576  14.833  64.770  1.00  0.00    -0.413 OA 
BRANCH   3   5
HETATM    5  C   UNL     1     -10.315  14.507  67.214  1.00  0.00    -0.260 C  
BRANCH   5   6
HETATM    6  C   UNL     1      -9.248  13.345  67.106  1.00  0.00    -0.240 A  
HETATM    7  C   UNL     1      -8.516  11.115  66.404  1.00  0.00    -0.167 A  
HETATM    8  C   UNL     1      -8.000  13.490  67.750  1.00  0.00    -0.168 A  
HETATM    9  C   UNL     1      -9.478  12.133  66.427  1.00  0.00    -0.238 A  
HETATM   10  C   UNL     1      -7.042  12.471  67.732  1.00  0.00    -0.126 A  
HETATM   11  C   UNL     1      -7.302  11.283  67.057  1.00  0.00    -0.136 A  
ENDBRANCH   5   6
BRANCH   5  12
HETATM   12  C   UNL     1      -9.584  15.906  67.415  1.00  0.00    -0.221 C  
BRANCH  12  13
HETATM   13  C   UNL     1      -9.919  17.177  66.559  1.00  0.00    -0.302 C  
HETATM   14  C   UNL     1     -10.613  18.262  67.397  1.00  0.00    -0.425 C  
BRANCH  13  15
HETATM   15  N   UNL     1      -8.667  17.750  65.952  1.00  0.00    -0.511 NA 
HETATM   16  C   UNL     1      -8.486  19.182  66.219  1.00  0.00    -0.304 C  
HETATM   17  C   UNL     1      -7.449  17.053  66.399  1.00  0.00    -0.301 C  
ENDBRANCH  13  15
ENDBRANCH  12  13
ENDBRANCH   5  12
BRANCH   5  18
HETATM   18  C   UNL     1     -11.241  14.241  68.443  1.00  0.00    -0.291 A  
HETATM   19  C   UNL     1     -11.412  12.923  68.921  1.00  0.00    -0.350 A  
HETATM   20  C   UNL     1     -12.524  15.011  70.388  1.00  0.00    -0.407 A  
HETATM   21  C   UNL     1     -12.616  13.712  70.868  1.00  0.00    -0.421 A  
HETATM   22  C   UNL     1     -12.072  12.666  70.129  1.00  0.00    -0.368 A  
HETATM   23  C   UNL     1     -11.843  15.272  69.194  1.00  0.00    -0.345 A  
ENDBRANCH   5  18
ENDBRANCH   3   5
ENDBRANCH   2   3
TORSDOF 7
ENDMDL
MODEL       12
REMARK 921   NORMALIZED FREE ENERGY PREDICTED BY IDOCK:   -5.22 KCAL/MOL
REMARK 922        TOTAL FREE ENERGY PREDICTED BY IDOCK:   -8.60 KCAL/MOL
REMARK 923 INTER-LIGAND FREE ENERGY PREDICTED BY IDOCK:   -7.58 KCAL/MOL
REMARK 924 INTRA-LIGAND FREE ENERGY PREDICTED BY IDOCK:   -1.03 KCAL/MOL
REMARK 927      BINDING AFFINITY PREDICTED BY RF-SCORE:    0.00 PKD
ROOT
HETATM    1  C   UNL     1      -6.174  13.337  67.609  1.00  0.00    -0.153 C  
HETATM    2  C   UNL     1      -7.585  13.811  67.940  1.00  0.00    -0.157 C  
ENDROOT
BRANCH   2   3
HETATM    3  C   UNL     1      -8.636  12.930  67.277  1.00  0.00    -0.205 C  
HETATM    4  O   UNL     1      -8.319  11.771  66.976  1.00  0.00    -0.160 OA 
BRANCH   3   5
HETATM    5  C   UNL     1     -10.120  13.471  67.098  1.00  0.00    -0.245 C  
BRANCH   5   6
HETATM    6  C   UNL     1     -10.877  12.960  68.389  1.00  0.00    -0.276 A  
HETATM    7  C   UNL     1     -11.760  11.197  69.843  1.00  0.00    -0.433 A  
HETATM    8  C   UNL     1     -11.467  13.898  69.263  1.00  0.00    -0.348 A  
HETATM    9  C   UNL     1     -11.038  11.598  68.712  1.00  0.00    -0.283 A  
HETATM   10  C   UNL     1     -12.194  13.496  70.389  1.00  0.00    -0.426 A  
HETATM   11  C   UNL     1     -12.340  12.144  70.678  1.00  0.00    -0.385 A  
ENDBRANCH   5   6
BRANCH   5  12
HETATM   12  C   UNL     1     -10.159  15.061  67.035  1.00  0.00    -0.244 C  
BRANCH  12  13
HETATM   13  C   UNL     1      -9.729  15.876  65.765  1.00  0.00    -0.325 C  
HETATM   14  C   UNL     1     -10.881  16.009  64.756  1.00  0.00    -0.315 C  
BRANCH  13  15
HETATM   15  N   UNL     1      -9.256  17.250  66.155  1.00  0.00    -0.467 NA 
HETATM   16  C   UNL     1     -10.192  17.970  67.026  1.00  0.00    -0.362 C  
HETATM   17  C   UNL     1      -7.944  17.230  66.825  1.00  0.00    -0.241 C  
ENDBRANCH  13  15
ENDBRANCH  12  13
ENDBRANCH   5  12
BRANCH   5  18
HETATM   18  C   UNL     1     -10.828  12.899  65.828  1.00  0.00    -0.292 A  
HETATM   19  C   UNL     1     -12.238  12.902  65.749  1.00  0.00    -0.498 A  
HETATM   20  C   UNL     1     -10.792  12.127  63.499  1.00  0.00    -0.518 A  
HETATM   21  C   UNL     1     -12.177  12.206  63.430  1.00  0.00    -0.635 A  
HETATM   22  C   UNL     1     -12.901  12.581  64.559  1.00  0.00    -0.352 A  
HETATM   23  C   UNL     1     -10.127  12.471  64.681  1.00  0.00    -0.258 A  
ENDBRANCH   5  18
ENDBRANCH   3   5
ENDBRANCH   2   3
TORSDOF 7
ENDMDL
MODEL       13
REMARK 921   NORMALIZED FREE ENERGY PREDICTED BY IDOCK:   -5.19 KCAL/MOL
REMARK 922        TOTAL FREE ENERGY PREDICTED BY IDOCK:   -8.57 KCAL/MOL
REMARK 923 INTER-LIGAND FREE ENERGY PREDICTED BY IDOCK:   -7.64 KCAL/MOL
REMARK 924 INTRA-LIGAND FREE ENERGY PREDICTED BY IDOCK:   -0.93 KCAL/MOL
REMARK 927      BINDING AFFINITY PREDICTED BY RF-SCORE:    0.00 PKD
ROOT
HETATM    1  C   UNL     1     -10.418  19.011  66.161  1.00  0.00    -0.541 C  
HETATM    2  C   UNL     1     -10.649  17.731  66.957  1.00  0.00    -0.266 C  
ENDROOT
BRANCH   2   3
HETATM    3  C   UNL     1     -10.643  16.506  66.053  1.00  0.00    -0.253 C  
HETATM    4  O   UNL     1     -10.540  16.684  64.831  1.00  0.00    -0.694 OA 
BRANCH   3   5
HETATM    5  C   UNL     1     -10.650  15.052  66.694  1.00  0.00    -0.301 C  
BRANCH   5   6
HETATM    6  C   UNL     1      -9.139  14.788  67.075  1.00  0.00    -0.257 A  
HETATM    7  C   UNL     1      -6.832  15.513  67.470  1.00  0.00    -0.225 A  
HETATM    8  C   UNL     1      -8.700  13.464  67.291  1.00  0.00    -0.219 A  
HETATM    9  C   UNL     1      -8.170  15.806  67.177  1.00  0.00    -0.237 A  
HETATM   10  C   UNL     1      -7.361  13.172  67.576  1.00  0.00    -0.153 A  
HETATM   11  C   UNL     1      -6.428  14.198  67.666  1.00  0.00    -0.153 A  
ENDBRANCH   5   6
BRANCH   5  12
HETATM   12  C   UNL     1     -11.561  14.993  67.998  1.00  0.00    -0.356 C  
BRANCH  12  13
HETATM   13  C   UNL     1     -10.971  14.884  69.448  1.00  0.00    -0.271 C  
HETATM   14  C   UNL     1     -11.228  16.160  70.266  1.00  0.00    -0.389 C  
BRANCH  13  15
HETATM   15  N   UNL     1     -11.567  13.707  70.173  1.00  0.00    -0.195 NA 
HETATM   16  C   UNL     1     -12.784  14.034  70.926  1.00  0.00    -0.350 C  
HETATM   17  C   UNL     1     -11.885  12.587  69.272  1.00  0.00    -0.304 C  
ENDBRANCH  13  15
ENDBRANCH  12  13
ENDBRANCH   5  12
BRANCH   5  18
HETATM   18  C   UNL     1     -11.128  13.949  65.697  1.00  0.00    -0.298 A  
HETATM   19  C   UNL     1     -12.456  13.471  65.762  1.00  0.00    -0.514 A  
HETATM   20  C   UNL     1     -10.846  12.609  63.660  1.00  0.00    -0.437 A  
HETATM   21  C   UNL     1     -12.175  12.211  63.713  1.00  0.00    -0.630 A  
HETATM   22  C   UNL     1     -12.977  12.631  64.770  1.00  0.00    -0.191 A  
HETATM   23  C   UNL     1     -10.331  13.468  64.637  1.00  0.00    -0.406 A  
ENDBRANCH   5  18
ENDBRANCH   3   5
ENDBRANCH   2   3
TORSDOF 7
ENDMDL
MODEL       14
REMARK 921   NORMALIZED FREE ENERGY PREDICTED BY IDOCK:   -5.18 KCAL/MOL
REMARK 922        TOTAL FREE ENERGY PREDICTED BY IDOCK:   -8.56 KCAL/MOL
REMARK 923 INTER-LIGAND FREE ENERGY PREDICTED BY IDOCK:   -7.35 KCAL/MOL
REMARK 924 INTRA-LIGAND FREE ENERGY PREDICTED BY IDOCK:   -1.21 KCAL/MOL
REMARK 927      BINDING AFFINITY PREDICTED BY RF-SCORE:    0.00 PKD
ROOT
HETATM    1  C   UNL     1      -7.127  13.513  67.482  1.00  0.00    -0.159 C  
HETATM    2  C   UNL     1      -8.275  13.648  68.476  1.00  0.00    -0.112 C  
ENDROOT
BRANCH   2   3
HETATM    3  C   UNL     1      -9.456  12.771  68.083  1.00  0.00    -0.219 C  
HETATM    4  O   UNL     1      -9.337  11.544  68.207  1.00  0.00    -0.178 OA 
BRANCH   3   5
HETATM    5  C   UNL     1     -10.827  13.443  67.641  1.00  0.00    -0.273 C  
BRANCH   5   6
HETATM    6  C   UNL     1     -11.088  12.874  66.189  1.00  0.00    -0.314 A  
HETATM    7  C   UNL     1     -10.351  11.907  64.062  1.00  0.00    -0.403 A  
HETATM    8  C   UNL     1     -12.394  12.912  65.656  1.00  0.00    -0.482 A  
HETATM    9  C   UNL     1     -10.075  12.354  65.360  1.00  0.00    -0.289 A  
HETATM   10  C   UNL     1     -12.669  12.471  64.356  1.00  0.00    -0.447 A  
HETATM   11  C   UNL     1     -11.645  11.969  63.560  1.00  0.00    -0.553 A  
ENDBRANCH   5   6
BRANCH   5  12
HETATM   12  C   UNL     1     -12.018  13.032  68.613  1.00  0.00    -0.298 C  
BRANCH  12  13
HETATM   13  C   UNL     1     -11.798  12.641  70.116  1.00  0.00    -0.249 C  
HETATM   14  C   UNL     1     -12.535  13.598  71.068  1.00  0.00    -0.456 C  
BRANCH  13  15
HETATM   15  N   UNL     1     -12.271  11.235  70.371  1.00  0.00    -0.351 NA 
HETATM   16  C   UNL     1     -11.179  10.269  70.541  1.00  0.00    -0.330 C  
HETATM   17  C   UNL     1     -13.147  11.135  71.550  1.00  0.00    -0.385 C  
ENDBRANCH  13  15
ENDBRANCH  12  13
ENDBRANCH   5  12
BRANCH   5  18
HETATM   18  C   UNL     1     -10.746  15.002  67.574  1.00  0.00    -0.284 A  
HETATM   19  C   UNL     1     -10.925  15.765  68.749  1.00  0.00    -0.291 A  
HETATM   20  C   UNL     1     -10.157  17.087  66.423  1.00  0.00    -0.325 A  
HETATM   21  C   UNL     1     -10.274  17.800  67.609  1.00  0.00    -0.359 A  
HETATM   22  C   UNL     1     -10.670  17.141  68.769  1.00  0.00    -0.289 A  
HETATM   23  C   UNL     1     -10.388  15.707  66.407  1.00  0.00    -0.303 A  
ENDBRANCH   5  18
ENDBRANCH   3   5
ENDBRANCH   2   3
TORSDOF 7
ENDMDL
MODEL       15
REMARK 921   NORMALIZED FREE ENERGY PREDICTED BY IDOCK:   -5.17 KCAL/MOL
REMARK 922        TOTAL FREE ENERGY PREDICTED BY IDOCK:   -8.54 KCAL/MOL
REMARK 923 INTER-LIGAND FREE ENERGY PREDICTED BY IDOCK:   -7.41 KCAL/MOL
REMARK 924 INTRA-LIGAND FREE ENERGY PREDICTED BY IDOCK:   -1.12 KCAL/MOL
REMARK 927      BINDING AFFINITY PREDICTED BY RF-SCORE:    0.00 PKD
ROOT
HETATM    1  C   UNL     1     -11.814  12.274  64.292  1.00  0.00    -0.482 C  
HETATM    2  C   UNL     1     -12.559  13.006  65.402  1.00  0.00    -0.481 C  
ENDROOT
BRANCH   2   3
HETATM    3  C   UNL     1     -11.936  12.731  66.764  1.00  0.00    -0.319 C  
HETATM    4  O   UNL     1     -11.923  11.562  67.173  1.00  0.00    -0.581 OA 
BRANCH   3   5
HETATM    5  C   UNL     1     -11.228  13.910  67.562  1.00  0.00    -0.323 C  
BRANCH   5   6
HETATM    6  C   UNL     1      -9.703  13.495  67.594  1.00  0.00    -0.229 A  
HETATM    7  C   UNL     1      -7.795  12.146  66.857  1.00  0.00    -0.069 A  
HETATM    8  C   UNL     1      -8.841  14.099  68.534  1.00  0.00    -0.173 A  
HETATM    9  C   UNL     1      -9.143  12.512  66.754  1.00  0.00    -0.214 A  
HETATM   10  C   UNL     1      -7.496  13.728  68.641  1.00  0.00    -0.116 A  
HETATM   11  C   UNL     1      -6.974  12.750  67.801  1.00  0.00    -0.131 A  
ENDBRANCH   5   6
BRANCH   5  12
HETATM   12  C   UNL     1     -11.399  15.305  66.814  1.00  0.00    -0.183 C  
BRANCH  12  13
HETATM   13  C   UNL     1     -10.482  15.755  65.623  1.00  0.00    -0.383 C  
HETATM   14  C   UNL     1     -11.298  16.036  64.351  1.00  0.00    -0.253 C  
BRANCH  13  15
HETATM   15  N   UNL     1      -9.705  16.989  65.992  1.00  0.00    -0.483 NA 
HETATM   16  C   UNL     1     -10.182  17.641  67.218  1.00  0.00    -0.343 C  
HETATM   17  C   UNL     1      -8.265  16.727  66.154  1.00  0.00    -0.264 C  
ENDBRANCH  13  15
ENDBRANCH  12  13
ENDBRANCH   5  12
BRANCH   5  18
HETATM   18  C   UNL     1     -11.752  14.056  69.026  1.00  0.00    -0.368 A  
HETATM   19  C   UNL     1     -12.083  15.333  69.529  1.00  0.00    -0.320 A  
HETATM   20  C   UNL     1     -12.656  13.108  71.101  1.00  0.00    -0.403 A  
HETATM   21  C   UNL     1     -13.032  14.370  71.539  1.00  0.00    -0.406 A  
HETATM   22  C   UNL     1     -12.734  15.484  70.759  1.00  0.00    -0.511 A  
HETATM   23  C   UNL     1     -12.027  12.952  69.861  1.00  0.00    -0.377 A  
ENDBRANCH   5  18
ENDBRANCH   3   5
ENDBRANCH   2   3
TORSDOF 7
ENDMDL
MODEL       16
REMARK 921   NORMALIZED FREE ENERGY PREDICTED BY IDOCK:   -5.16 KCAL/MOL
REMARK 922        TOTAL FREE ENERGY PREDICTED BY IDOCK:   -8.53 KCAL/MOL
REMARK 923 INTER-LIGAND FREE ENERGY PREDICTED BY IDOCK:   -7.41 KCAL/MOL
REMARK 924 INTRA-LIGAND FREE ENERGY PREDICTED BY IDOCK:   -1.12 KCAL/MOL
REMARK 927      BINDING AFFINITY PREDICTED BY RF-SCORE:    0.00 PKD
ROOT
HETATM    1  C   UNL     1      -9.812  19.369  68.321  1.00  0.00    -0.500 C  
HETATM    2  C   UNL     1     -10.788  18.514  67.522  1.00  0.00    -0.337 C  
ENDROOT
BRANCH   2   3
HETATM    3  C   UNL     1     -10.113  17.264  66.974  1.00  0.00    -0.303 C  
HETATM    4  O   UNL     1      -9.175  17.410  66.177  1.00  0.00    -0.424 OA 
BRANCH   3   5
HETATM    5  C   UNL     1     -10.541  15.832  67.515  1.00  0.00    -0.309 C  
BRANCH   5   6
HETATM    6  C   UNL     1      -9.208  15.228  68.111  1.00  0.00    -0.183 A  
HETATM    7  C   UNL     1      -7.652  13.384  68.541  1.00  0.00    -0.127 A  
HETATM    8  C   UNL     1      -8.358  16.050  68.882  1.00  0.00    -0.231 A  
HETATM    9  C   UNL     1      -8.820  13.883  67.951  1.00  0.00    -0.184 A  
HETATM   10  C   UNL     1      -7.195  15.550  69.477  1.00  0.00    -0.201 A  
HETATM   11  C   UNL     1      -6.842  14.215  69.305  1.00  0.00    -0.118 A  
ENDBRANCH   5   6
BRANCH   5  12
HETATM   12  C   UNL     1     -11.647  15.947  68.655  1.00  0.00    -0.383 C  
BRANCH  12  13
HETATM   13  C   UNL     1     -11.557  15.168  70.014  1.00  0.00    -0.294 C  
HETATM   14  C   UNL     1     -11.402  16.122  71.209  1.00  0.00    -0.347 C  
BRANCH  13  15
HETATM   15  N   UNL     1     -12.784  14.320  70.218  1.00  0.00    -0.314 NA 
HETATM   16  C   UNL     1     -12.492  12.973  70.724  1.00  0.00    -0.302 C  
HETATM   17  C   UNL     1     -13.757  14.941  71.132  1.00  0.00    -0.386 C  
ENDBRANCH  13  15
ENDBRANCH  12  13
ENDBRANCH   5  12
BRANCH   5  18
HETATM   18  C   UNL     1     -11.074  14.890  66.390  1.00  0.00    -0.342 A  
HETATM   19  C   UNL     1     -10.270  14.621  65.260  1.00  0.00    -0.421 A  
HETATM   20  C   UNL     1     -12.659  13.218  65.542  1.00  0.00    -0.505 A  
HETATM   21  C   UNL     1     -11.815  12.927  64.479  1.00  0.00    -0.429 A  
HETATM   22  C   UNL     1     -10.627  13.637  64.330  1.00  0.00    -0.360 A  
HETATM   23  C   UNL     1     -12.292  14.184  66.486  1.00  0.00    -0.405 A  
ENDBRANCH   5  18
ENDBRANCH   3   5
ENDBRANCH   2   3
TORSDOF 7
ENDMDL
MODEL       17
REMARK 921   NORMALIZED FREE ENERGY PREDICTED BY IDOCK:   -5.15 KCAL/MOL
REMARK 922        TOTAL FREE ENERGY PREDICTED BY IDOCK:   -8.51 KCAL/MOL
REMARK 923 INTER-LIGAND FREE ENERGY PREDICTED BY IDOCK:   -7.34 KCAL/MOL
REMARK 924 INTRA-LIGAND FREE ENERGY PREDICTED BY IDOCK:   -1.18 KCAL/MOL
REMARK 927      BINDING AFFINITY PREDICTED BY RF-SCORE:    0.00 PKD
ROOT
HETATM    1  C   UNL     1     -10.975  10.081  69.970  1.00  0.00    -0.352 C  
HETATM    2  C   UNL     1     -11.450  10.901  68.776  1.00  0.00    -0.376 C  
ENDROOT
BRANCH   2   3
HETATM    3  C   UNL     1     -10.352  11.823  68.263  1.00  0.00    -0.206 C  
HETATM    4  O   UNL     1      -9.179  11.430  68.337  1.00  0.00    -0.173 OA 
BRANCH   3   5
HETATM    5  C   UNL     1     -10.738  13.192  67.553  1.00  0.00    -0.248 C  
BRANCH   5   6
HETATM    6  C   UNL     1     -11.222  12.758  66.112  1.00  0.00    -0.336 A  
HETATM    7  C   UNL     1     -12.883  12.640  64.314  1.00  0.00    -0.306 A  
HETATM    8  C   UNL     1     -10.380  11.958  65.310  1.00  0.00    -0.316 A  
HETATM    9  C   UNL     1     -12.483  13.092  65.578  1.00  0.00    -0.496 A  
HETATM   10  C   UNL     1     -10.783  11.502  64.050  1.00  0.00    -0.445 A  
HETATM   11  C   UNL     1     -12.036  11.844  63.553  1.00  0.00    -0.567 A  
ENDBRANCH   5   6
BRANCH   5  12
HETATM   12  C   UNL     1     -11.914  13.938  68.324  1.00  0.00    -0.392 C  
BRANCH  12  13
HETATM   13  C   UNL     1     -11.766  14.482  69.788  1.00  0.00    -0.303 C  
HETATM   14  C   UNL     1     -11.513  15.998  69.809  1.00  0.00    -0.318 C  
BRANCH  13  15
HETATM   15  N   UNL     1     -13.001  14.178  70.592  1.00  0.00    -0.286 NA 
HETATM   16  C   UNL     1     -12.830  13.071  71.539  1.00  0.00    -0.290 C  
HETATM   17  C   UNL     1     -13.488  15.344  71.348  1.00  0.00    -0.522 C  
ENDBRANCH  13  15
ENDBRANCH  12  13
ENDBRANCH   5  12
BRANCH   5  18
HETATM   18  C   UNL     1      -9.528  14.169  67.415  1.00  0.00    -0.220 A  
HETATM   19  C   UNL     1      -9.427  15.006  66.281  1.00  0.00    -0.342 A  
HETATM   20  C   UNL     1      -7.593  15.357  68.347  1.00  0.00    -0.116 A  
HETATM   21  C   UNL     1      -7.562  16.209  67.251  1.00  0.00    -0.217 A  
HETATM   22  C   UNL     1      -8.470  16.025  66.212  1.00  0.00    -0.337 A  
HETATM   23  C   UNL     1      -8.564  14.353  68.428  1.00  0.00    -0.174 A  
ENDBRANCH   5  18
ENDBRANCH   3   5
ENDBRANCH   2   3
TORSDOF 7
ENDMDL
MODEL       18
REMARK 921   NORMALIZED FREE ENERGY PREDICTED BY IDOCK:   -5.15 KCAL/MOL
REMARK 922        TOTAL FREE ENERGY PREDICTED BY IDOCK:   -8.51 KCAL/MOL
REMARK 923 INTER-LIGAND FREE ENERGY PREDICTED BY IDOCK:   -7.39 KCAL/MOL
REMARK 924 INTRA-LIGAND FREE ENERGY PREDICTED BY IDOCK:   -1.12 KCAL/MOL
REMARK 927      BINDING AFFINITY PREDICTED BY RF-SCORE:    0.00 PKD
ROOT
HETATM    1  C   UNL     1      -9.298  14.119  68.205  1.00  0.00    -0.206 C  
HETATM    2  C   UNL     1      -8.729  13.011  67.326  1.00  0.00    -0.209 C  
ENDROOT
BRANCH   2   3
HETATM    3  C   UNL     1      -9.160  11.635  67.817  1.00  0.00    -0.175 C  
HETATM    4  O   UNL     1      -8.529  11.128  68.755  1.00  0.00    -0.156 OA 
BRANCH   3   5
HETATM    5  C   UNL     1     -10.456  10.949  67.204  1.00  0.00    -0.281 C  
BRANCH   5   6
HETATM    6  C   UNL     1      -9.974   9.497  66.806  1.00  0.00    -0.297 A  
HETATM    7  C   UNL     1     -10.162   7.054  66.831  1.00  0.00    -0.318 A  
HETATM    8  C   UNL     1      -8.774   9.340  66.080  1.00  0.00    -0.175 A  
HETATM    9  C   UNL     1     -10.659   8.320  67.167  1.00  0.00    -0.340 A  
HETATM   10  C   UNL     1      -8.275   8.075  65.750  1.00  0.00    -0.132 A  
HETATM   11  C   UNL     1      -8.971   6.932  66.127  1.00  0.00    -0.157 A  
ENDBRANCH   5   6
BRANCH   5  12
HETATM   12  C   UNL     1     -11.631  10.861  68.274  1.00  0.00    -0.335 C  
BRANCH  12  13
HETATM   13  C   UNL     1     -11.440  11.236  69.785  1.00  0.00    -0.310 C  
HETATM   14  C   UNL     1     -12.104  12.580  70.127  1.00  0.00    -0.368 C  
BRANCH  13  15
HETATM   15  N   UNL     1     -12.015  10.165  70.672  1.00  0.00    -0.309 NA 
HETATM   16  C   UNL     1     -10.999   9.397  71.402  1.00  0.00    -0.373 C  
HETATM   17  C   UNL     1     -12.970  10.696  71.659  1.00  0.00    -0.477 C  
ENDBRANCH  13  15
ENDBRANCH  12  13
ENDBRANCH   5  12
BRANCH   5  18
HETATM   18  C   UNL     1     -10.988  11.680  65.930  1.00  0.00    -0.334 A  
HETATM   19  C   UNL     1     -10.555  11.267  64.651  1.00  0.00    -0.392 A  
HETATM   20  C   UNL     1     -12.561  13.191  64.806  1.00  0.00    -0.426 A  
HETATM   21  C   UNL     1     -12.163  12.715  63.564  1.00  0.00    -0.638 A  
HETATM   22  C   UNL     1     -11.151  11.763  63.486  1.00  0.00    -0.503 A  
HETATM   23  C   UNL     1     -11.983  12.678  65.973  1.00  0.00    -0.478 A  
ENDBRANCH   5  18
ENDBRANCH   3   5
ENDBRANCH   2   3
TORSDOF 7
ENDMDL
MODEL       19
REMARK 921   NORMALIZED FREE ENERGY PREDICTED BY IDOCK:   -5.13 KCAL/MOL
REMARK 922        TOTAL FREE ENERGY PREDICTED BY IDOCK:   -8.48 KCAL/MOL
REMARK 923 INTER-LIGAND FREE ENERGY PREDICTED BY IDOCK:   -7.43 KCAL/MOL
REMARK 924 INTRA-LIGAND FREE ENERGY PREDICTED BY IDOCK:   -1.05 KCAL/MOL
REMARK 927      BINDING AFFINITY PREDICTED BY RF-SCORE:    0.00 PKD
ROOT
HETATM    1  C   UNL     1     -12.059  12.902  63.555  1.00  0.00    -0.633 C  
HETATM    2  C   UNL     1     -11.036  13.668  64.387  1.00  0.00    -0.378 C  
ENDROOT
BRANCH   2   3
HETATM    3  C   UNL     1     -11.449  13.733  65.852  1.00  0.00    -0.322 C  
HETATM    4  O   UNL     1     -12.657  13.807  66.114  1.00  0.00    -0.438 OA 
BRANCH   3   5
HETATM    5  C   UNL     1     -10.348  13.590  66.989  1.00  0.00    -0.252 C  
BRANCH   5   6
HETATM    6  C   UNL     1     -11.127  13.913  68.326  1.00  0.00    -0.280 A  
HETATM    7  C   UNL     1     -12.044  15.453  69.996  1.00  0.00    -0.388 A  
HETATM    8  C   UNL     1     -11.559  12.852  69.149  1.00  0.00    -0.375 A  
HETATM    9  C   UNL     1     -11.392  15.221  68.779  1.00  0.00    -0.318 A  
HETATM   10  C   UNL     1     -12.204  13.085  70.369  1.00  0.00    -0.386 A  
HETATM   11  C   UNL     1     -12.446  14.387  70.792  1.00  0.00    -0.423 A  
ENDBRANCH   5   6
BRANCH   5  12
HETATM   12  C   UNL     1      -9.754  12.114  67.045  1.00  0.00    -0.208 C  
BRANCH  12  13
HETATM   13  C   UNL     1     -10.570  10.848  66.605  1.00  0.00    -0.249 C  
HETATM   14  C   UNL     1     -10.011  10.229  65.314  1.00  0.00    -0.387 C  
BRANCH  13  15
HETATM   15  N   UNL     1     -10.558   9.809  67.694  1.00  0.00    -0.259 NA 
HETATM   16  C   UNL     1     -10.401   8.437  67.196  1.00  0.00    -0.311 C  
HETATM   17  C   UNL     1      -9.504  10.046  68.694  1.00  0.00    -0.156 C  
ENDBRANCH  13  15
ENDBRANCH  12  13
ENDBRANCH   5  12
BRANCH   5  18
HETATM   18  C   UNL     1      -9.168  14.601  66.825  1.00  0.00    -0.285 A  
HETATM   19  C   UNL     1      -9.375  15.815  66.135  1.00  0.00    -0.381 A  
HETATM   20  C   UNL     1      -6.933  15.426  67.413  1.00  0.00    -0.222 A  
HETATM   21  C   UNL     1      -7.191  16.636  66.784  1.00  0.00    -0.272 A  
HETATM   22  C   UNL     1      -8.407  16.826  66.134  1.00  0.00    -0.301 A  
HETATM   23  C   UNL     1      -7.909  14.423  67.435  1.00  0.00    -0.211 A  
ENDBRANCH   5  18
ENDBRANCH   3   5
ENDBRANCH   2   3
TORSDOF 7
ENDMDL
MODEL       20
REMARK 921   NORMALIZED FREE ENERGY PREDICTED BY IDOCK:   -5.12 KCAL/MOL
REMARK 922        TOTAL FREE ENERGY PREDICTED BY IDOCK:   -8.47 KCAL/MOL
REMARK 923 INTER-LIGAND FREE ENERGY PREDICTED BY IDOCK:   -7.61 KCAL/MOL
REMARK 924 INTRA-LIGAND FREE ENERGY PREDICTED BY IDOCK:   -0.86 KCAL/MOL
REMARK 927      BINDING AFFINITY PREDICTED BY RF-SCORE:    0.00 PKD
ROOT
HETATM    1  C   UNL     1      -7.838  12.515  68.029  1.00  0.00    -0.147 C  
HETATM    2  C   UNL     1      -8.191  13.854  67.392  1.00  0.00    -0.198 C  
ENDROOT
BRANCH   2   3
HETATM    3  C   UNL     1      -9.009  14.722  68.340  1.00  0.00    -0.187 C  
HETATM    4  O   UNL     1      -8.479  15.086  69.399  1.00  0.00    -0.191 OA 
BRANCH   3   5
HETATM    5  C   UNL     1     -10.451  15.225  67.903  1.00  0.00    -0.253 C  
BRANCH   5   6
HETATM    6  C   UNL     1     -11.373  14.882  69.140  1.00  0.00    -0.309 A  
HETATM    7  C   UNL     1     -12.833  15.500  71.008  1.00  0.00    -0.543 A  
HETATM    8  C   UNL     1     -11.495  13.541  69.562  1.00  0.00    -0.318 A  
HETATM    9  C   UNL     1     -12.068  15.852  69.889  1.00  0.00    -0.245 A  
HETATM   10  C   UNL     1     -12.254  13.191  70.685  1.00  0.00    -0.402 A  
HETATM   11  C   UNL     1     -12.924  14.173  71.407  1.00  0.00    -0.422 A  
ENDBRANCH   5   6
BRANCH   5  12
HETATM   12  C   UNL     1     -10.464  16.793  67.629  1.00  0.00    -0.328 C  
BRANCH  12  13
HETATM   13  C   UNL     1      -9.160  17.626  67.369  1.00  0.00    -0.239 C  
HETATM   14  C   UNL     1      -8.468  17.208  66.062  1.00  0.00    -0.154 C  
BRANCH  13  15
HETATM   15  N   UNL     1      -9.475  19.096  67.311  1.00  0.00    -0.307 NA 
HETATM   16  C   UNL     1     -10.369  19.464  66.207  1.00  0.00    -0.493 C  
HETATM   17  C   UNL     1     -10.073  19.599  68.559  1.00  0.00    -0.453 C  
ENDBRANCH  13  15
ENDBRANCH  12  13
ENDBRANCH   5  12
BRANCH   5  18
HETATM   18  C   UNL     1     -10.996  14.489  66.637  1.00  0.00    -0.321 A  
HETATM   19  C   UNL     1     -11.338  13.121  66.714  1.00  0.00    -0.353 A  
HETATM   20  C   UNL     1     -11.927  14.498  64.367  1.00  0.00    -0.467 A  
HETATM   21  C   UNL     1     -12.313  13.171  64.497  1.00  0.00    -0.447 A  
HETATM   22  C   UNL     1     -12.006  12.478  65.665  1.00  0.00    -0.492 A  
HETATM   23  C   UNL     1     -11.280  15.149  65.423  1.00  0.00    -0.338 A  
ENDBRANCH   5  18
ENDBRANCH   3   5
ENDBRANCH   2   3
TORSDOF 7
ENDMDL
MODEL       21
REMARK 921   NORMALIZED FREE ENERGY PREDICTED BY IDOCK:   -5.11 KCAL/MOL
REMARK 922        TOTAL FREE ENERGY PREDICTED BY IDOCK:   -8.45 KCAL/MOL
REMARK 923 INTER-LIGAND FREE ENERGY PREDICTED BY IDOCK:   -7.43 KCAL/MOL
REMARK 924 INTRA-LIGAND FREE ENERGY PREDICTED BY IDOCK:   -1.02 KCAL/MOL
REMARK 927      BINDING AFFINITY PREDICTED BY RF-SCORE:    0.00 PKD
ROOT
HETATM    1  C   UNL     1     -12.025  13.330  69.633  1.00  0.00    -0.376 C  
HETATM    2  C   UNL     1     -11.049  13.724  68.530  1.00  0.00    -0.292 C  
ENDROOT
BRANCH   2   3
HETATM    3  C   UNL     1     -11.192  15.194  68.161  1.00  0.00    -0.320 C  
HETATM    4  O   UNL     1     -12.148  15.823  68.635  1.00  0.00    -0.269 OA 
BRANCH   3   5
HETATM    5  C   UNL     1     -10.069  15.901  67.286  1.00  0.00    -0.260 C  
BRANCH   5   6
HETATM    6  C   UNL     1      -8.713  15.478  67.980  1.00  0.00    -0.163 A  
HETATM    7  C   UNL     1      -7.308  15.059  69.942  1.00  0.00    -0.060 A  
HETATM    8  C   UNL     1      -7.583  15.204  67.181  1.00  0.00    -0.204 A  
HETATM    9  C   UNL     1      -8.545  15.391  69.376  1.00  0.00    -0.249 A  
HETATM   10  C   UNL     1      -6.345  14.879  67.748  1.00  0.00    -0.174 A  
HETATM   11  C   UNL     1      -6.209  14.807  69.130  1.00  0.00    -0.105 A  
ENDBRANCH   5   6
BRANCH   5  12
HETATM   12  C   UNL     1     -10.095  15.391  65.779  1.00  0.00    -0.391 C  
BRANCH  12  13
HETATM   13  C   UNL     1     -11.286  14.565  65.177  1.00  0.00    -0.367 C  
HETATM   14  C   UNL     1     -12.204  15.440  64.309  1.00  0.00    -0.140 C  
BRANCH  13  15
HETATM   15  N   UNL     1     -10.769  13.421  64.347  1.00  0.00    -0.414 NA 
HETATM   16  C   UNL     1     -10.063  12.398  65.128  1.00  0.00    -0.256 C  
HETATM   17  C   UNL     1     -11.833  12.748  63.583  1.00  0.00    -0.532 C  
ENDBRANCH  13  15
ENDBRANCH  12  13
ENDBRANCH   5  12
BRANCH   5  18
HETATM   18  C   UNL     1     -10.184  17.459  67.292  1.00  0.00    -0.324 A  
HETATM   19  C   UNL     1     -10.025  18.170  68.501  1.00  0.00    -0.408 A  
HETATM   20  C   UNL     1     -10.257  19.624  66.138  1.00  0.00    -0.604 A  
HETATM   21  C   UNL     1     -10.031  20.292  67.334  1.00  0.00    -0.567 A  
HETATM   22  C   UNL     1      -9.928  19.567  68.517  1.00  0.00    -0.538 A  
HETATM   23  C   UNL     1     -10.330  18.227  66.117  1.00  0.00    -0.414 A  
ENDBRANCH   5  18
ENDBRANCH   3   5
ENDBRANCH   2   3
TORSDOF 7
ENDMDL
MODEL       22
REMARK 921   NORMALIZED FREE ENERGY PREDICTED BY IDOCK:   -5.07 KCAL/MOL
REMARK 922        TOTAL FREE ENERGY PREDICTED BY IDOCK:   -8.39 KCAL/MOL
REMARK 923 INTER-LIGAND FREE ENERGY PREDICTED BY IDOCK:   -7.27 KCAL/MOL
REMARK 924 INTRA-LIGAND FREE ENERGY PREDICTED BY IDOCK:   -1.12 KCAL/MOL
REMARK 927      BINDING AFFINITY PREDICTED BY RF-SCORE:    0.00 PKD
ROOT
HETATM    1  C   UNL     1     -12.135  13.045  63.350  1.00  0.00    -0.591 C  
HETATM    2  C   UNL     1     -11.280  13.644  64.461  1.00  0.00    -0.395 C  
ENDROOT
BRANCH   2   3
HETATM    3  C   UNL     1     -11.798  13.246  65.836  1.00  0.00    -0.393 C  
HETATM    4  O   UNL     1     -13.012  13.036  65.963  1.00  0.00    -0.137 OA 
BRANCH   3   5
HETATM    5  C   UNL     1     -10.772  12.999  67.025  1.00  0.00    -0.270 C  
BRANCH   5   6
HETATM    6  C   UNL     1      -9.827  11.849  66.490  1.00  0.00    -0.225 A  
HETATM    7  C   UNL     1      -9.413   9.735  65.324  1.00  0.00    -0.343 A  
HETATM    8  C   UNL     1      -8.452  11.879  66.806  1.00  0.00    -0.167 A  
HETATM    9  C   UNL     1     -10.284  10.753  65.732  1.00  0.00    -0.319 A  
HETATM   10  C   UNL     1      -7.584  10.858  66.404  1.00  0.00    -0.146 A  
HETATM   11  C   UNL     1      -8.067   9.786  65.662  1.00  0.00    -0.120 A  
ENDBRANCH   5   6
BRANCH   5  12
HETATM   12  C   UNL     1      -9.919  14.305  67.340  1.00  0.00    -0.242 C  
BRANCH  12  13
HETATM   13  C   UNL     1     -10.541  15.746  67.368  1.00  0.00    -0.313 C  
HETATM   14  C   UNL     1     -10.284  16.451  68.709  1.00  0.00    -0.258 C  
BRANCH  13  15
HETATM   15  N   UNL     1      -9.976  16.586  66.255  1.00  0.00    -0.310 NA 
HETATM   16  C   UNL     1     -10.233  18.022  66.412  1.00  0.00    -0.393 C  
HETATM   17  C   UNL     1      -8.524  16.405  66.087  1.00  0.00    -0.294 C  
ENDBRANCH  13  15
ENDBRANCH  12  13
ENDBRANCH   5  12
BRANCH   5  18
HETATM   18  C   UNL     1     -11.467  12.522  68.340  1.00  0.00    -0.355 A  
HETATM   19  C   UNL     1     -11.569  11.141  68.618  1.00  0.00    -0.383 A  
HETATM   20  C   UNL     1     -12.369  12.945  70.583  1.00  0.00    -0.385 A  
HETATM   21  C   UNL     1     -12.394  11.583  70.852  1.00  0.00    -0.460 A  
HETATM   22  C   UNL     1     -12.007  10.680  69.866  1.00  0.00    -0.385 A  
HETATM   23  C   UNL     1     -11.909  13.407  69.345  1.00  0.00    -0.390 A  
ENDBRANCH   5  18
ENDBRANCH   3   5
ENDBRANCH   2   3
TORSDOF 7
ENDMDL
MODEL       23
REMARK 921   NORMALIZED FREE ENERGY PREDICTED BY IDOCK:   -5.04 KCAL/MOL
REMARK 922        TOTAL FREE ENERGY PREDICTED BY IDOCK:   -8.36 KCAL/MOL
REMARK 923 INTER-LIGAND FREE ENERGY PREDICTED BY IDOCK:   -7.12 KCAL/MOL
REMARK 924 INTRA-LIGAND FREE ENERGY PREDICTED BY IDOCK:   -1.24 KCAL/MOL
REMARK 927      BINDING AFFINITY PREDICTED BY RF-SCORE:    0.00 PKD
ROOT
HETATM    1  C   UNL     1      -9.010  13.917  67.927  1.00  0.00    -0.191 C  
HETATM    2  C   UNL     1      -8.567  12.679  67.156  1.00  0.00    -0.199 C  
ENDROOT
BRANCH   2   3
HETATM    3  C   UNL     1      -9.094  11.405  67.801  1.00  0.00    -0.158 C  
HETATM    4  O   UNL     1      -8.542  11.004  68.835  1.00  0.00    -0.161 OA 
BRANCH   3   5
HETATM    5  C   UNL     1     -10.389  10.697  67.210  1.00  0.00    -0.265 C  
BRANCH   5   6
HETATM    6  C   UNL     1      -9.925   9.212  66.929  1.00  0.00    -0.304 A  
HETATM    7  C   UNL     1      -8.427   7.548  65.934  1.00  0.00    -0.153 A  
HETATM    8  C   UNL     1     -10.716   8.140  67.394  1.00  0.00    -0.247 A  
HETATM    9  C   UNL     1      -8.768   8.880  66.197  1.00  0.00    -0.177 A  
HETATM   10  C   UNL     1     -10.379   6.809  67.125  1.00  0.00    -0.327 A  
HETATM   11  C   UNL     1      -9.233   6.514  66.394  1.00  0.00    -0.178 A  
ENDBRANCH   5   6
BRANCH   5  12
HETATM   12  C   UNL     1     -11.588  10.707  68.255  1.00  0.00    -0.245 C  
BRANCH  12  13
HETATM   13  C   UNL     1     -11.485  11.383  69.668  1.00  0.00    -0.309 C  
HETATM   14  C   UNL     1     -11.937  12.852  69.631  1.00  0.00    -0.358 C  
BRANCH  13  15
HETATM   15  N   UNL     1     -12.321  10.637  70.672  1.00  0.00    -0.339 NA 
HETATM   16  C   UNL     1     -11.587   9.580  71.379  1.00  0.00    -0.395 C  
HETATM   17  C   UNL     1     -12.917  11.523  71.686  1.00  0.00    -0.394 C  
ENDBRANCH  13  15
ENDBRANCH  12  13
ENDBRANCH   5  12
BRANCH   5  18
HETATM   18  C   UNL     1     -10.879  11.343  65.874  1.00  0.00    -0.292 A  
HETATM   19  C   UNL     1     -11.872  12.347  65.903  1.00  0.00    -0.467 A  
HETATM   20  C   UNL     1     -10.643  11.778  63.471  1.00  0.00    -0.499 A  
HETATM   21  C   UNL     1     -11.573  12.806  63.544  1.00  0.00    -0.565 A  
HETATM   22  C   UNL     1     -12.198  13.082  64.757  1.00  0.00    -0.487 A  
HETATM   23  C   UNL     1     -10.299  11.058  64.620  1.00  0.00    -0.410 A  
ENDBRANCH   5  18
ENDBRANCH   3   5
ENDBRANCH   2   3
TORSDOF 7
ENDMDL
MODEL       24
REMARK 921   NORMALIZED FREE ENERGY PREDICTED BY IDOCK:   -5.04 KCAL/MOL
REMARK 922        TOTAL FREE ENERGY PREDICTED BY IDOCK:   -8.35 KCAL/MOL
REMARK 923 INTER-LIGAND FREE ENERGY PREDICTED BY IDOCK:   -7.11 KCAL/MOL
REMARK 924 INTRA-LIGAND FREE ENERGY PREDICTED BY IDOCK:   -1.25 KCAL/MOL
REMARK 927      BINDING AFFINITY PREDICTED BY RF-SCORE:    0.00 PKD
ROOT
HETATM    1  C   UNL     1      -6.997  12.862  67.358  1.00  0.00    -0.129 C  
HETATM    2  C   UNL     1      -8.183  13.232  68.242  1.00  0.00    -0.156 C  
ENDROOT
BRANCH   2   3
HETATM    3  C   UNL     1      -9.448  12.505  67.806  1.00  0.00    -0.197 C  
HETATM    4  O   UNL     1      -9.474  11.270  67.902  1.00  0.00    -0.169 OA 
BRANCH   3   5
HETATM    5  C   UNL     1     -10.724  13.341  67.358  1.00  0.00    -0.266 C  
BRANCH   5   6
HETATM    6  C   UNL     1     -11.082  12.766  65.930  1.00  0.00    -0.318 A  
HETATM    7  C   UNL     1     -10.500  11.719  63.793  1.00  0.00    -0.466 A  
HETATM    8  C   UNL     1     -12.405  12.877  65.450  1.00  0.00    -0.538 A  
HETATM    9  C   UNL     1     -10.140  12.169  65.069  1.00  0.00    -0.289 A  
HETATM   10  C   UNL     1     -12.762  12.434  64.172  1.00  0.00    -0.446 A  
HETATM   11  C   UNL     1     -11.808  11.854  63.344  1.00  0.00    -0.512 A  
ENDBRANCH   5   6
BRANCH   5  12
HETATM   12  C   UNL     1     -11.944  13.125  68.357  1.00  0.00    -0.324 C  
BRANCH  12  13
HETATM   13  C   UNL     1     -11.755  12.852  69.891  1.00  0.00    -0.254 C  
HETATM   14  C   UNL     1     -12.246  14.033  70.744  1.00  0.00    -0.438 C  
BRANCH  13  15
HETATM   15  N   UNL     1     -12.494  11.608  70.301  1.00  0.00    -0.223 NA 
HETATM   16  C   UNL     1     -11.640  10.418  70.393  1.00  0.00    -0.337 C  
HETATM   17  C   UNL     1     -13.191  11.760  71.589  1.00  0.00    -0.266 C  
ENDBRANCH  13  15
ENDBRANCH  12  13
ENDBRANCH   5  12
BRANCH   5  18
HETATM   18  C   UNL     1     -10.437  14.872  67.237  1.00  0.00    -0.263 A  
HETATM   19  C   UNL     1      -9.717  15.366  66.127  1.00  0.00    -0.347 A  
HETATM   20  C   UNL     1     -10.830  17.202  67.899  1.00  0.00    -0.294 A  
HETATM   21  C   UNL     1     -10.175  17.657  66.762  1.00  0.00    -0.335 A  
HETATM   22  C   UNL     1      -9.607  16.740  65.883  1.00  0.00    -0.211 A  
HETATM   23  C   UNL     1     -10.961  15.829  68.131  1.00  0.00    -0.330 A  
ENDBRANCH   5  18
ENDBRANCH   3   5
ENDBRANCH   2   3
TORSDOF 7
ENDMDL
MODEL       25
REMARK 921   NORMALIZED FREE ENERGY PREDICTED BY IDOCK:   -5.00 KCAL/MOL
REMARK 922        TOTAL FREE ENERGY PREDICTED BY IDOCK:   -8.30 KCAL/MOL
REMARK 923 INTER-LIGAND FREE ENERGY PREDICTED BY IDOCK:   -7.43 KCAL/MOL
REMARK 924 INTRA-LIGAND FREE ENERGY PREDICTED BY IDOCK:   -0.88 KCAL/MOL
REMARK 927      BINDING AFFINITY PREDICTED BY RF-SCORE:    0.00 PKD
ROOT
HETATM    1  C   UNL     1     -10.309   9.921  70.061  1.00  0.00    -0.320 C  
HETATM    2  C   UNL     1      -9.993  11.003  69.034  1.00  0.00    -0.184 C  
ENDROOT
BRANCH   2   3
HETATM    3  C   UNL     1     -11.216  11.858  68.734  1.00  0.00    -0.259 C  
HETATM    4  O   UNL     1     -12.335  11.371  68.949  1.00  0.00    -0.446 OA 
BRANCH   3   5
HETATM    5  C   UNL     1     -11.030  13.367  68.271  1.00  0.00    -0.282 C  
BRANCH   5   6
HETATM    6  C   UNL     1     -11.481  13.367  66.756  1.00  0.00    -0.376 A  
HETATM    7  C   UNL     1     -11.924  12.263  64.614  1.00  0.00    -0.437 A  
HETATM    8  C   UNL     1     -11.784  14.591  66.123  1.00  0.00    -0.355 A  
HETATM    9  C   UNL     1     -11.566  12.203  65.967  1.00  0.00    -0.420 A  
HETATM   10  C   UNL     1     -12.135  14.651  64.769  1.00  0.00    -0.428 A  
HETATM   11  C   UNL     1     -12.205  13.485  64.016  1.00  0.00    -0.458 A  
ENDBRANCH   5   6
BRANCH   5  12
HETATM   12  C   UNL     1     -11.950  14.354  69.115  1.00  0.00    -0.357 C  
BRANCH  12  13
HETATM   13  C   UNL     1     -12.055  14.297  70.680  1.00  0.00    -0.346 C  
HETATM   14  C   UNL     1     -11.698  15.645  71.325  1.00  0.00    -0.478 C  
BRANCH  13  15
HETATM   15  N   UNL     1     -13.444  13.902  71.101  1.00  0.00    -0.200 NA 
HETATM   16  C   UNL     1     -13.472  12.875  72.150  1.00  0.00    -0.522 C  
HETATM   17  C   UNL     1     -14.241  15.047  71.574  1.00  0.00    -0.540 C  
ENDBRANCH  13  15
ENDBRANCH  12  13
ENDBRANCH   5  12
BRANCH   5  18
HETATM   18  C   UNL     1      -9.549  13.855  68.365  1.00  0.00    -0.215 A  
HETATM   19  C   UNL     1      -8.574  13.310  67.501  1.00  0.00    -0.200 A  
HETATM   20  C   UNL     1      -7.841  15.438  69.139  1.00  0.00    -0.212 A  
HETATM   21  C   UNL     1      -6.925  14.926  68.231  1.00  0.00    -0.118 A  
HETATM   22  C   UNL     1      -7.286  13.853  67.421  1.00  0.00    -0.129 A  
HETATM   23  C   UNL     1      -9.136  14.912  69.203  1.00  0.00    -0.140 A  
ENDBRANCH   5  18
ENDBRANCH   3   5
ENDBRANCH   2   3
TORSDOF 7
ENDMDL
MODEL       26
REMARK 921   NORMALIZED FREE ENERGY PREDICTED BY IDOCK:   -4.99 KCAL/MOL
REMARK 922        TOTAL FREE ENERGY PREDICTED BY IDOCK:   -8.29 KCAL/MOL
REMARK 923 INTER-LIGAND FREE ENERGY PREDICTED BY IDOCK:   -7.14 KCAL/MOL
REMARK 924 INTRA-LIGAND FREE ENERGY PREDICTED BY IDOCK:   -1.15 KCAL/MOL
REMARK 927      BINDING AFFINITY PREDICTED BY RF-SCORE:    0.00 PKD
ROOT
HETATM    1  C   UNL     1     -12.089  13.378  63.668  1.00  0.00    -0.513 C  
HETATM    2  C   UNL     1     -11.127  14.113  64.594  1.00  0.00    -0.378 C  
ENDROOT
BRANCH   2   3
HETATM    3  C   UNL     1     -11.546  13.976  66.052  1.00  0.00    -0.357 C  
HETATM    4  O   UNL     1     -12.757  13.936  66.309  1.00  0.00    -0.399 OA 
BRANCH   3   5
HETATM    5  C   UNL     1     -10.440  13.773  67.176  1.00  0.00    -0.272 C  
BRANCH   5   6
HETATM    6  C   UNL     1     -11.235  13.928  68.534  1.00  0.00    -0.298 A  
HETATM    7  C   UNL     1     -12.409  13.027  70.486  1.00  0.00    -0.365 A  
HETATM    8  C   UNL     1     -11.577  15.217  68.993  1.00  0.00    -0.360 A  
HETATM    9  C   UNL     1     -11.665  12.837  69.315  1.00  0.00    -0.376 A  
HETATM   10  C   UNL     1     -12.327  15.406  70.160  1.00  0.00    -0.395 A  
HETATM   11  C   UNL     1     -12.742  14.309  70.906  1.00  0.00    -0.427 A  
ENDBRANCH   5   6
BRANCH   5  12
HETATM   12  C   UNL     1      -9.779  12.328  67.090  1.00  0.00    -0.203 C  
BRANCH  12  13
HETATM   13  C   UNL     1     -10.493  11.100  66.425  1.00  0.00    -0.260 C  
HETATM   14  C   UNL     1      -9.845  10.720  65.084  1.00  0.00    -0.333 C  
BRANCH  13  15
HETATM   15  N   UNL     1     -10.456   9.908  67.343  1.00  0.00    -0.250 NA 
HETATM   16  C   UNL     1     -10.202   8.639  66.651  1.00  0.00    -0.273 C  
HETATM   17  C   UNL     1      -9.453  10.045  68.412  1.00  0.00    -0.141 C  
ENDBRANCH  13  15
ENDBRANCH  12  13
ENDBRANCH   5  12
BRANCH   5  18
HETATM   18  C   UNL     1      -9.309  14.849  67.118  1.00  0.00    -0.227 A  
HETATM   19  C   UNL     1      -8.005  14.520  67.548  1.00  0.00    -0.208 A  
HETATM   20  C   UNL     1      -8.412  17.001  66.353  1.00  0.00    -0.318 A  
HETATM   21  C   UNL     1      -7.129  16.622  66.723  1.00  0.00    -0.271 A  
HETATM   22  C   UNL     1      -6.927  15.387  67.333  1.00  0.00    -0.222 A  
HETATM   23  C   UNL     1      -9.486  16.126  66.545  1.00  0.00    -0.289 A  
ENDBRANCH   5  18
ENDBRANCH   3   5
ENDBRANCH   2   3
TORSDOF 7
ENDMDL
MODEL       27
REMARK 921   NORMALIZED FREE ENERGY PREDICTED BY IDOCK:   -4.97 KCAL/MOL
REMARK 922        TOTAL FREE ENERGY PREDICTED BY IDOCK:   -8.26 KCAL/MOL
REMARK 923 INTER-LIGAND FREE ENERGY PREDICTED BY IDOCK:   -7.16 KCAL/MOL
REMARK 924 INTRA-LIGAND FREE ENERGY PREDICTED BY IDOCK:   -1.10 KCAL/MOL
REMARK 927      BINDING AFFINITY PREDICTED BY RF-SCORE:    0.00 PKD
ROOT
HETATM    1  C   UNL     1     -12.008  13.305  69.976  1.00  0.00    -0.399 C  
HETATM    2  C   UNL     1     -12.112  14.627  69.222  1.00  0.00    -0.307 C  
ENDROOT
BRANCH   2   3
HETATM    3  C   UNL     1     -10.768  15.341  69.166  1.00  0.00    -0.251 C  
HETATM    4  O   UNL     1     -10.162  15.527  70.231  1.00  0.00    -0.294 OA 
BRANCH   3   5
HETATM    5  C   UNL     1     -10.134  15.720  67.759  1.00  0.00    -0.238 C  
BRANCH   5   6
HETATM    6  C   UNL     1      -8.643  15.204  67.854  1.00  0.00    -0.154 A  
HETATM    7  C   UNL     1      -6.924  13.636  68.622  1.00  0.00    -0.103 A  
HETATM    8  C   UNL     1      -7.607  15.969  67.277  1.00  0.00    -0.227 A  
HETATM    9  C   UNL     1      -8.266  14.023  68.524  1.00  0.00    -0.136 A  
HETATM   10  C   UNL     1      -6.265  15.585  67.381  1.00  0.00    -0.072 A  
HETATM   11  C   UNL     1      -5.925  14.416  68.054  1.00  0.00    -0.154 A  
ENDBRANCH   5   6
BRANCH   5  12
HETATM   12  C   UNL     1     -10.890  14.991  66.563  1.00  0.00    -0.320 C  
BRANCH  12  13
HETATM   13  C   UNL     1     -10.326  13.713  65.848  1.00  0.00    -0.301 C  
HETATM   14  C   UNL     1     -10.794  12.421  66.538  1.00  0.00    -0.284 C  
BRANCH  13  15
HETATM   15  N   UNL     1     -10.753  13.683  64.406  1.00  0.00    -0.402 NA 
HETATM   16  C   UNL     1     -10.569  12.375  63.764  1.00  0.00    -0.452 C  
HETATM   17  C   UNL     1     -12.160  14.079  64.222  1.00  0.00    -0.445 C  
ENDBRANCH  13  15
ENDBRANCH  12  13
ENDBRANCH   5  12
BRANCH   5  18
HETATM   18  C   UNL     1     -10.128  17.259  67.487  1.00  0.00    -0.315 A  
HETATM   19  C   UNL     1     -10.396  17.743  66.188  1.00  0.00    -0.340 A  
HETATM   20  C   UNL     1     -10.149  19.588  68.258  1.00  0.00    -0.542 A  
HETATM   21  C   UNL     1     -10.480  20.029  66.984  1.00  0.00    -0.513 A  
HETATM   22  C   UNL     1     -10.590  19.108  65.946  1.00  0.00    -0.495 A  
HETATM   23  C   UNL     1      -9.978  18.222  68.507  1.00  0.00    -0.413 A  
ENDBRANCH   5  18
ENDBRANCH   3   5
ENDBRANCH   2   3
TORSDOF 7
ENDMDL
MODEL       28
REMARK 921   NORMALIZED FREE ENERGY PREDICTED BY IDOCK:   -4.93 KCAL/MOL
REMARK 922        TOTAL FREE ENERGY PREDICTED BY IDOCK:   -8.20 KCAL/MOL
REMARK 923 INTER-LIGAND FREE ENERGY PREDICTED BY IDOCK:   -7.11 KCAL/MOL
REMARK 924 INTRA-LIGAND FREE ENERGY PREDICTED BY IDOCK:   -1.09 KCAL/MOL
REMARK 927      BINDING AFFINITY PREDICTED BY RF-SCORE:    0.00 PKD
ROOT
HETATM    1  C   UNL     1     -12.668  15.094  70.431  1.00  0.00    -0.378 C  
HETATM    2  C   UNL     1     -11.834  14.010  69.757  1.00  0.00    -0.385 C  
ENDROOT
BRANCH   2   3
HETATM    3  C   UNL     1     -11.451  14.406  68.338  1.00  0.00    -0.301 C  
HETATM    4  O   UNL     1     -11.911  15.463  67.883  1.00  0.00    -0.275 OA 
BRANCH   3   5
HETATM    5  C   UNL     1     -10.399  13.529  67.530  1.00  0.00    -0.237 C  
BRANCH   5   6
HETATM    6  C   UNL     1      -9.140  14.473  67.383  1.00  0.00    -0.201 A  
HETATM    7  C   UNL     1      -7.961  16.405  66.445  1.00  0.00    -0.329 A  
HETATM    8  C   UNL     1      -7.944  14.141  68.055  1.00  0.00    -0.149 A  
HETATM    9  C   UNL     1      -9.119  15.630  66.580  1.00  0.00    -0.337 A  
HETATM   10  C   UNL     1      -6.784  14.912  67.915  1.00  0.00    -0.175 A  
HETATM   11  C   UNL     1      -6.795  16.045  67.109  1.00  0.00    -0.223 A  
ENDBRANCH   5   6
BRANCH   5  12
HETATM   12  C   UNL     1     -10.005  12.210  68.328  1.00  0.00    -0.212 C  
BRANCH  12  13
HETATM   13  C   UNL     1     -10.994  11.011  68.539  1.00  0.00    -0.228 C  
HETATM   14  C   UNL     1     -10.760   9.890  67.513  1.00  0.00    -0.333 C  
BRANCH  13  15
HETATM   15  N   UNL     1     -10.850  10.445  69.926  1.00  0.00    -0.286 NA 
HETATM   16  C   UNL     1     -12.082  10.513  70.721  1.00  0.00    -0.370 C  
HETATM   17  C   UNL     1     -10.395   9.045  69.923  1.00  0.00    -0.207 C  
ENDBRANCH  13  15
ENDBRANCH  12  13
ENDBRANCH   5  12
BRANCH   5  18
HETATM   18  C   UNL     1     -10.906  13.126  66.109  1.00  0.00    -0.293 A  
HETATM   19  C   UNL     1      -9.996  12.616  65.157  1.00  0.00    -0.194 A  
HETATM   20  C   UNL     1     -12.707  12.605  64.525  1.00  0.00    -0.439 A  
HETATM   21  C   UNL     1     -11.795  12.048  63.639  1.00  0.00    -0.602 A  
HETATM   22  C   UNL     1     -10.438  12.065  63.948  1.00  0.00    -0.440 A  
HETATM   23  C   UNL     1     -12.269  13.134  65.744  1.00  0.00    -0.514 A  
ENDBRANCH   5  18
ENDBRANCH   3   5
ENDBRANCH   2   3
TORSDOF 7
ENDMDL
MODEL       29
REMARK 921   NORMALIZED FREE ENERGY PREDICTED BY IDOCK:   -4.92 KCAL/MOL
REMARK 922        TOTAL FREE ENERGY PREDICTED BY IDOCK:   -8.18 KCAL/MOL
REMARK 923 INTER-LIGAND FREE ENERGY PREDICTED BY IDOCK:   -7.39 KCAL/MOL
REMARK 924 INTRA-LIGAND FREE ENERGY PREDICTED BY IDOCK:   -0.79 KCAL/MOL
REMARK 927      BINDING AFFINITY PREDICTED BY RF-SCORE:    0.00 PKD
ROOT
HETATM    1  C   UNL     1     -12.094  13.050  63.611  1.00  0.00    -0.604 C  
HETATM    2  C   UNL     1     -12.063  13.993  64.808  1.00  0.00    -0.455 C  
ENDROOT
BRANCH   2   3
HETATM    3  C   UNL     1     -11.912  13.227  66.115  1.00  0.00    -0.418 C  
HETATM    4  O   UNL     1     -12.409  12.095  66.187  1.00  0.00    -0.536 OA 
BRANCH   3   5
HETATM    5  C   UNL     1     -11.038  13.840  67.293  1.00  0.00    -0.319 C  
BRANCH   5   6
HETATM    6  C   UNL     1      -9.726  12.959  67.301  1.00  0.00    -0.220 A  
HETATM    7  C   UNL     1      -7.578  12.256  68.247  1.00  0.00    -0.133 A  
HETATM    8  C   UNL     1      -9.477  12.078  66.226  1.00  0.00    -0.237 A  
HETATM    9  C   UNL     1      -8.748  13.023  68.313  1.00  0.00    -0.173 A  
HETATM   10  C   UNL     1      -8.304  11.317  66.158  1.00  0.00    -0.111 A  
HETATM   11  C   UNL     1      -7.355  11.407  67.170  1.00  0.00    -0.138 A  
ENDBRANCH   5   6
BRANCH   5  12
HETATM   12  C   UNL     1     -10.672  15.364  67.016  1.00  0.00    -0.321 C  
BRANCH  12  13
HETATM   13  C   UNL     1      -9.281  15.990  67.383  1.00  0.00    -0.208 C  
HETATM   14  C   UNL     1      -8.462  16.336  66.129  1.00  0.00    -0.313 C  
BRANCH  13  15
HETATM   15  N   UNL     1      -9.462  17.233  68.210  1.00  0.00    -0.273 NA 
HETATM   16  C   UNL     1      -8.280  18.102  68.235  1.00  0.00    -0.290 C  
HETATM   17  C   UNL     1     -10.608  18.047  67.768  1.00  0.00    -0.394 C  
ENDBRANCH  13  15
ENDBRANCH  12  13
ENDBRANCH   5  12
BRANCH   5  18
HETATM   18  C   UNL     1     -11.735  13.735  68.687  1.00  0.00    -0.391 A  
HETATM   19  C   UNL     1     -11.878  12.475  69.307  1.00  0.00    -0.360 A  
HETATM   20  C   UNL     1     -12.602  14.743  70.750  1.00  0.00    -0.412 A  
HETATM   21  C   UNL     1     -12.667  13.496  71.356  1.00  0.00    -0.423 A  
HETATM   22  C   UNL     1     -12.318  12.360  70.631  1.00  0.00    -0.367 A  
HETATM   23  C   UNL     1     -12.140  14.861  69.434  1.00  0.00    -0.297 A  
ENDBRANCH   5  18
ENDBRANCH   3   5
ENDBRANCH   2   3
TORSDOF 7
ENDMDL
MODEL       30
REMARK 921   NORMALIZED FREE ENERGY PREDICTED BY IDOCK:   -4.91 KCAL/MOL
REMARK 922        TOTAL FREE ENERGY PREDICTED BY IDOCK:   -8.17 KCAL/MOL
REMARK 923 INTER-LIGAND FREE ENERGY PREDICTED BY IDOCK:   -7.17 KCAL/MOL
REMARK 924 INTRA-LIGAND FREE ENERGY PREDICTED BY IDOCK:   -1.00 KCAL/MOL
REMARK 927      BINDING AFFINITY PREDICTED BY RF-SCORE:    0.00 PKD
ROOT
HETATM    1  C   UNL     1      -8.079  15.694  66.896  1.00  0.00    -0.290 C  
HETATM    2  C   UNL     1      -9.075  14.631  66.445  1.00  0.00    -0.242 C  
ENDROOT
BRANCH   2   3
HETATM    3  C   UNL     1      -8.839  13.309  67.163  1.00  0.00    -0.222 C  
HETATM    4  O   UNL     1      -7.730  13.117  67.680  1.00  0.00    -0.140 OA 
BRANCH   3   5
HETATM    5  C   UNL     1     -10.036  12.276  67.328  1.00  0.00    -0.210 C  
BRANCH   5   6
HETATM    6  C   UNL     1     -10.812  12.359  65.953  1.00  0.00    -0.305 A  
HETATM    7  C   UNL     1     -10.935  12.243  63.509  1.00  0.00    -0.521 A  
HETATM    8  C   UNL     1     -12.171  12.740  65.947  1.00  0.00    -0.422 A  
HETATM    9  C   UNL     1     -10.214  12.108  64.702  1.00  0.00    -0.312 A  
HETATM   10  C   UNL     1     -12.888  12.881  64.754  1.00  0.00    -0.359 A  
HETATM   11  C   UNL     1     -12.268  12.632  63.535  1.00  0.00    -0.638 A  
ENDBRANCH   5   6
BRANCH   5  12
HETATM   12  C   UNL     1      -9.500  10.796  67.566  1.00  0.00    -0.168 C  
BRANCH  12  13
HETATM   13  C   UNL     1     -10.088   9.545  66.823  1.00  0.00    -0.245 C  
HETATM   14  C   UNL     1      -9.042   8.876  65.917  1.00  0.00    -0.271 C  
BRANCH  13  15
HETATM   15  N   UNL     1     -10.598   8.534  67.814  1.00  0.00    -0.212 NA 
HETATM   16  C   UNL     1     -10.723   7.180  67.263  1.00  0.00    -0.329 C  
HETATM   17  C   UNL     1      -9.760   8.451  69.022  1.00  0.00    -0.171 C  
ENDBRANCH  13  15
ENDBRANCH  12  13
ENDBRANCH   5  12
BRANCH   5  18
HETATM   18  C   UNL     1     -11.009  12.652  68.490  1.00  0.00    -0.292 A  
HETATM   19  C   UNL     1     -11.618  11.632  69.254  1.00  0.00    -0.385 A  
HETATM   20  C   UNL     1     -11.977  14.273  70.058  1.00  0.00    -0.396 A  
HETATM   21  C   UNL     1     -12.506  13.245  70.827  1.00  0.00    -0.403 A  
HETATM   22  C   UNL     1     -12.338  11.926  70.418  1.00  0.00    -0.334 A  
HETATM   23  C   UNL     1     -11.237  13.980  68.907  1.00  0.00    -0.303 A  
ENDBRANCH   5  18
ENDBRANCH   3   5
ENDBRANCH   2   3
TORSDOF 7
ENDMDL
MODEL       31
REMARK 921   NORMALIZED FREE ENERGY PREDICTED BY IDOCK:   -4.88 KCAL/MOL
REMARK 922        TOTAL FREE ENERGY PREDICTED BY IDOCK:   -8.13 KCAL/MOL
REMARK 923 INTER-LIGAND FREE ENERGY PREDICTED BY IDOCK:   -7.21 KCAL/MOL
REMARK 924 INTRA-LIGAND FREE ENERGY PREDICTED BY IDOCK:   -0.92 KCAL/MOL
REMARK 927      BINDING AFFINITY PREDICTED BY RF-SCORE:    0.00 PKD
ROOT
HETATM    1  C   UNL     1     -12.834  13.782  65.293  1.00  0.00    -0.430 C  
HETATM    2  C   UNL     1     -11.771  13.791  66.386  1.00  0.00    -0.404 C  
ENDROOT
BRANCH   2   3
HETATM    3  C   UNL     1     -10.905  15.040  66.308  1.00  0.00    -0.333 C  
HETATM    4  O   UNL     1     -10.681  15.525  65.190  1.00  0.00    -0.389 OA 
BRANCH   3   5
HETATM    5  C   UNL     1     -10.415  15.746  67.645  1.00  0.00    -0.282 C  
BRANCH   5   6
HETATM    6  C   UNL     1     -10.008  17.204  67.188  1.00  0.00    -0.283 A  
HETATM    7  C   UNL     1      -8.438  18.836  66.253  1.00  0.00    -0.256 A  
HETATM    8  C   UNL     1     -10.901  18.274  67.409  1.00  0.00    -0.281 A  
HETATM    9  C   UNL     1      -8.769  17.519  66.595  1.00  0.00    -0.288 A  
HETATM   10  C   UNL     1     -10.567  19.590  67.074  1.00  0.00    -0.607 A  
HETATM   11  C   UNL     1      -9.334  19.870  66.495  1.00  0.00    -0.501 A  
ENDBRANCH   5   6
BRANCH   5  12
HETATM   12  C   UNL     1     -11.580  15.817  68.728  1.00  0.00    -0.401 C  
BRANCH  12  13
HETATM   13  C   UNL     1     -11.530  15.040  70.089  1.00  0.00    -0.277 C  
HETATM   14  C   UNL     1     -11.823  15.962  71.284  1.00  0.00    -0.502 C  
BRANCH  13  15
HETATM   15  N   UNL     1     -12.520  13.907  70.087  1.00  0.00    -0.321 NA 
HETATM   16  C   UNL     1     -11.977  12.649  69.561  1.00  0.00    -0.270 C  
HETATM   17  C   UNL     1     -13.072  13.633  71.425  1.00  0.00    -0.319 C  
ENDBRANCH  13  15
ENDBRANCH  12  13
ENDBRANCH   5  12
BRANCH   5  18
HETATM   18  C   UNL     1      -9.175  15.044  68.286  1.00  0.00    -0.184 A  
HETATM   19  C   UNL     1      -8.807  13.747  67.864  1.00  0.00    -0.186 A  
HETATM   20  C   UNL     1      -7.118  15.091  69.623  1.00  0.00    -0.193 A  
HETATM   21  C   UNL     1      -6.749  13.843  69.137  1.00  0.00    -0.113 A  
HETATM   22  C   UNL     1      -7.600  13.165  68.269  1.00  0.00    -0.139 A  
HETATM   23  C   UNL     1      -8.313  15.684  69.200  1.00  0.00    -0.251 A  
ENDBRANCH   5  18
ENDBRANCH   3   5
ENDBRANCH   2   3
TORSDOF 7
ENDMDL
MODEL       32
REMARK 921   NORMALIZED FREE ENERGY PREDICTED BY IDOCK:   -4.87 KCAL/MOL
REMARK 922        TOTAL FREE ENERGY PREDICTED BY IDOCK:   -8.12 KCAL/MOL
REMARK 923 INTER-LIGAND FREE ENERGY PREDICTED BY IDOCK:   -6.90 KCAL/MOL
REMARK 924 INTRA-LIGAND FREE ENERGY PREDICTED BY IDOCK:   -1.22 KCAL/MOL
REMARK 927      BINDING AFFINITY PREDICTED BY RF-SCORE:    0.00 PKD
ROOT
HETATM    1  C   UNL     1     -12.307  13.732  70.305  1.00  0.00    -0.407 C  
HETATM    2  C   UNL     1     -11.462  13.806  69.039  1.00  0.00    -0.349 C  
ENDROOT
BRANCH   2   3
HETATM    3  C   UNL     1     -11.367  12.450  68.354  1.00  0.00    -0.285 C  
HETATM    4  O   UNL     1     -12.190  11.579  68.670  1.00  0.00    -0.492 OA 
BRANCH   3   5
HETATM    5  C   UNL     1     -10.310  12.226  67.188  1.00  0.00    -0.234 C  
BRANCH   5   6
HETATM    6  C   UNL     1      -9.319  13.450  67.323  1.00  0.00    -0.233 A  
HETATM    7  C   UNL     1      -8.507  15.676  66.700  1.00  0.00    -0.323 A  
HETATM    8  C   UNL     1      -8.220  13.357  68.203  1.00  0.00    -0.160 A  
HETATM    9  C   UNL     1      -9.441  14.640  66.578  1.00  0.00    -0.319 A  
HETATM   10  C   UNL     1      -7.283  14.390  68.319  1.00  0.00    -0.122 A  
HETATM   11  C   UNL     1      -7.428  15.550  67.566  1.00  0.00    -0.209 A  
ENDBRANCH   5   6
BRANCH   5  12
HETATM   12  C   UNL     1      -9.519  10.858  67.373  1.00  0.00    -0.170 C  
BRANCH  12  13
HETATM   13  C   UNL     1     -10.230   9.494  67.684  1.00  0.00    -0.220 C  
HETATM   14  C   UNL     1      -9.993   8.461  66.571  1.00  0.00    -0.335 C  
BRANCH  13  15
HETATM   15  N   UNL     1      -9.740   8.930  68.991  1.00  0.00    -0.168 NA 
HETATM   16  C   UNL     1      -8.858   9.839  69.731  1.00  0.00    -0.224 C  
HETATM   17  C   UNL     1     -10.841   8.542  69.889  1.00  0.00    -0.205 C  
ENDBRANCH  13  15
ENDBRANCH  12  13
ENDBRANCH   5  12
BRANCH   5  18
HETATM   18  C   UNL     1     -10.958  12.245  65.766  1.00  0.00    -0.338 A  
HETATM   19  C   UNL     1     -10.283  11.646  64.680  1.00  0.00    -0.327 A  
HETATM   20  C   UNL     1     -12.873  12.580  64.270  1.00  0.00    -0.350 A  
HETATM   21  C   UNL     1     -12.210  11.927  63.240  1.00  0.00    -0.487 A  
HETATM   22  C   UNL     1     -10.910  11.472  63.440  1.00  0.00    -0.423 A  
HETATM   23  C   UNL     1     -12.257  12.735  65.516  1.00  0.00    -0.519 A  
ENDBRANCH   5  18
ENDBRANCH   3   5
ENDBRANCH   2   3
TORSDOF 7
ENDMDL
MODEL       33
REMARK 921   NORMALIZED FREE ENERGY PREDICTED BY IDOCK:   -4.87 KCAL/MOL
REMARK 922        TOTAL FREE ENERGY PREDICTED BY IDOCK:   -8.11 KCAL/MOL
REMARK 923 INTER-LIGAND FREE ENERGY PREDICTED BY IDOCK:   -7.11 KCAL/MOL
REMARK 924 INTRA-LIGAND FREE ENERGY PREDICTED BY IDOCK:   -1.00 KCAL/MOL
REMARK 927      BINDING AFFINITY PREDICTED BY RF-SCORE:    0.00 PKD
ROOT
HETATM    1  C   UNL     1      -6.985  11.562  67.092  1.00  0.00    -0.138 C  
HETATM    2  C   UNL     1      -8.433  11.899  66.755  1.00  0.00    -0.167 C  
ENDROOT
BRANCH   2   3
HETATM    3  C   UNL     1      -9.070  12.761  67.838  1.00  0.00    -0.204 C  
HETATM    4  O   UNL     1      -8.328  13.485  68.517  1.00  0.00    -0.155 OA 
BRANCH   3   5
HETATM    5  C   UNL     1     -10.651  12.796  67.990  1.00  0.00    -0.238 C  
BRANCH   5   6
HETATM    6  C   UNL     1     -11.172  13.168  66.545  1.00  0.00    -0.339 A  
HETATM    7  C   UNL     1     -11.499  14.722  64.679  1.00  0.00    -0.381 A  
HETATM    8  C   UNL     1     -11.912  12.218  65.809  1.00  0.00    -0.362 A  
HETATM    9  C   UNL     1     -10.974  14.427  65.943  1.00  0.00    -0.312 A  
HETATM   10  C   UNL     1     -12.442  12.516  64.549  1.00  0.00    -0.539 A  
HETATM   11  C   UNL     1     -12.234  13.770  63.985  1.00  0.00    -0.429 A  
ENDBRANCH   5   6
BRANCH   5  12
HETATM   12  C   UNL     1     -11.227  11.379  68.431  1.00  0.00    -0.324 C  
BRANCH  12  13
HETATM   13  C   UNL     1     -10.512  10.454  69.477  1.00  0.00    -0.247 C  
HETATM   14  C   UNL     1     -11.436  10.102  70.653  1.00  0.00    -0.432 C  
BRANCH  13  15
HETATM   15  N   UNL     1     -10.042   9.182  68.823  1.00  0.00    -0.191 NA 
HETATM   16  C   UNL     1     -10.480   7.966  69.518  1.00  0.00    -0.226 C  
HETATM   17  C   UNL     1     -10.470   9.075  67.418  1.00  0.00    -0.269 C  
ENDBRANCH  13  15
ENDBRANCH  12  13
ENDBRANCH   5  12
BRANCH   5  18
HETATM   18  C   UNL     1     -11.141  13.877  69.006  1.00  0.00    -0.302 A  
HETATM   19  C   UNL     1     -12.245  13.603  69.844  1.00  0.00    -0.367 A  
HETATM   20  C   UNL     1     -10.828  15.964  70.258  1.00  0.00    -0.349 A  
HETATM   21  C   UNL     1     -11.875  15.635  71.109  1.00  0.00    -0.454 A  
HETATM   22  C   UNL     1     -12.592  14.462  70.894  1.00  0.00    -0.422 A  
HETATM   23  C   UNL     1     -10.465  15.096  69.223  1.00  0.00    -0.261 A  
ENDBRANCH   5  18
ENDBRANCH   3   5
ENDBRANCH   2   3
TORSDOF 7
ENDMDL
MODEL       34
REMARK 921   NORMALIZED FREE ENERGY PREDICTED BY IDOCK:   -4.85 KCAL/MOL
REMARK 922        TOTAL FREE ENERGY PREDICTED BY IDOCK:   -8.09 KCAL/MOL
REMARK 923 INTER-LIGAND FREE ENERGY PREDICTED BY IDOCK:   -6.77 KCAL/MOL
REMARK 924 INTRA-LIGAND FREE ENERGY PREDICTED BY IDOCK:   -1.33 KCAL/MOL
REMARK 927      BINDING AFFINITY PREDICTED BY RF-SCORE:    0.00 PKD
ROOT
HETATM    1  C   UNL     1     -10.381  16.177  66.734  1.00  0.00    -0.291 C  
HETATM    2  C   UNL     1      -9.678  14.964  66.134  1.00  0.00    -0.333 C  
ENDROOT
BRANCH   2   3
HETATM    3  C   UNL     1      -9.277  13.965  67.212  1.00  0.00    -0.235 C  
HETATM    4  O   UNL     1      -8.380  14.290  68.002  1.00  0.00    -0.138 OA 
BRANCH   3   5
HETATM    5  C   UNL     1     -10.084  12.604  67.365  1.00  0.00    -0.218 C  
BRANCH   5   6
HETATM    6  C   UNL     1     -10.888  12.475  66.011  1.00  0.00    -0.309 A  
HETATM    7  C   UNL     1     -12.867  12.825  64.609  1.00  0.00    -0.355 A  
HETATM    8  C   UNL     1     -10.323  11.756  64.936  1.00  0.00    -0.334 A  
HETATM    9  C   UNL     1     -12.176  13.010  65.813  1.00  0.00    -0.511 A  
HETATM   10  C   UNL     1     -11.016  11.565  63.735  1.00  0.00    -0.485 A  
HETATM   11  C   UNL     1     -12.289  12.101  63.573  1.00  0.00    -0.682 A  
ENDBRANCH   5   6
BRANCH   5  12
HETATM   12  C   UNL     1      -9.104  11.362  67.541  1.00  0.00    -0.157 C  
BRANCH  12  13
HETATM   13  C   UNL     1      -7.972  11.313  68.626  1.00  0.00    -0.145 C  
HETATM   14  C   UNL     1      -8.148  10.119  69.579  1.00  0.00    -0.176 C  
BRANCH  13  15
HETATM   15  N   UNL     1      -6.619  11.227  67.975  1.00  0.00    -0.057 NA 
HETATM   16  C   UNL     1      -5.746  10.203  68.562  1.00  0.00    -0.038 C  
HETATM   17  C   UNL     1      -6.701  10.969  66.527  1.00  0.00    -0.135 C  
ENDBRANCH  13  15
ENDBRANCH  12  13
ENDBRANCH   5  12
BRANCH   5  18
HETATM   18  C   UNL     1     -11.090  12.624  68.560  1.00  0.00    -0.300 A  
HETATM   19  C   UNL     1     -11.563  11.408  69.100  1.00  0.00    -0.381 A  
HETATM   20  C   UNL     1     -12.244  13.777  70.393  1.00  0.00    -0.433 A  
HETATM   21  C   UNL     1     -12.636  12.562  70.938  1.00  0.00    -0.331 A  
HETATM   22  C   UNL     1     -12.308  11.378  70.285  1.00  0.00    -0.379 A  
HETATM   23  C   UNL     1     -11.479  13.807  69.222  1.00  0.00    -0.344 A  
ENDBRANCH   5  18
ENDBRANCH   3   5
ENDBRANCH   2   3
TORSDOF 7
ENDMDL
MODEL       35
REMARK 921   NORMALIZED FREE ENERGY PREDICTED BY IDOCK:   -4.84 KCAL/MOL
REMARK 922        TOTAL FREE ENERGY PREDICTED BY IDOCK:   -8.08 KCAL/MOL
REMARK 923 INTER-LIGAND FREE ENERGY PREDICTED BY IDOCK:   -7.73 KCAL/MOL
REMARK 924 INTRA-LIGAND FREE ENERGY PREDICTED BY IDOCK:   -0.35 KCAL/MOL
REMARK 927      BINDING AFFINITY PREDICTED BY RF-SCORE:    0.00 PKD
ROOT
HETATM    1  C   UNL     1     -12.729  11.862  63.494  1.00  0.00    -0.530 C  
HETATM    2  C   UNL     1     -11.983  13.159  63.790  1.00  0.00    -0.572 C  
ENDROOT
BRANCH   2   3
HETATM    3  C   UNL     1     -12.257  13.646  65.207  1.00  0.00    -0.439 C  
HETATM    4  O   UNL     1     -13.432  13.878  65.526  1.00  0.00    -0.657 OA 
BRANCH   3   5
HETATM    5  C   UNL     1     -11.067  13.732  66.256  1.00  0.00    -0.302 C  
BRANCH   5   6
HETATM    6  C   UNL     1     -10.515  12.253  66.339  1.00  0.00    -0.263 A  
HETATM    7  C   UNL     1      -8.848  10.520  65.871  1.00  0.00    -0.180 A  
HETATM    8  C   UNL     1     -11.310  11.249  66.931  1.00  0.00    -0.231 A  
HETATM    9  C   UNL     1      -9.269  11.854  65.815  1.00  0.00    -0.110 A  
HETATM   10  C   UNL     1     -10.892   9.915  66.980  1.00  0.00    -0.186 A  
HETATM   11  C   UNL     1      -9.659   9.551  66.449  1.00  0.00    -0.273 A  
ENDBRANCH   5   6
BRANCH   5  12
HETATM   12  C   UNL     1      -9.920  14.717  65.758  1.00  0.00    -0.375 C  
BRANCH  12  13
HETATM   13  C   UNL     1      -9.219  15.759  66.700  1.00  0.00    -0.255 C  
HETATM   14  C   UNL     1      -7.910  15.207  67.285  1.00  0.00    -0.241 C  
BRANCH  13  15
HETATM   15  N   UNL     1      -8.926  17.032  65.953  1.00  0.00    -0.537 NA 
HETATM   16  C   UNL     1      -9.725  18.177  66.404  1.00  0.00    -0.327 C  
HETATM   17  C   UNL     1      -7.507  17.418  66.025  1.00  0.00    -0.220 C  
ENDBRANCH  13  15
ENDBRANCH  12  13
ENDBRANCH   5  12
BRANCH   5  18
HETATM   18  C   UNL     1     -11.537  14.184  67.676  1.00  0.00    -0.394 A  
HETATM   19  C   UNL     1     -11.689  13.227  68.703  1.00  0.00    -0.376 A  
HETATM   20  C   UNL     1     -11.971  15.918  69.357  1.00  0.00    -0.268 A  
HETATM   21  C   UNL     1     -12.046  14.959  70.357  1.00  0.00    -0.386 A  
HETATM   22  C   UNL     1     -11.919  13.612  70.029  1.00  0.00    -0.413 A  
HETATM   23  C   UNL     1     -11.717  15.536  68.035  1.00  0.00    -0.198 A  
ENDBRANCH   5  18
ENDBRANCH   3   5
ENDBRANCH   2   3
TORSDOF 7
ENDMDL
MODEL       36
REMARK 921   NORMALIZED FREE ENERGY PREDICTED BY IDOCK:   -4.82 KCAL/MOL
REMARK 922        TOTAL FREE ENERGY PREDICTED BY IDOCK:   -8.04 KCAL/MOL
REMARK 923 INTER-LIGAND FREE ENERGY PREDICTED BY IDOCK:   -7.04 KCAL/MOL
REMARK 924 INTRA-LIGAND FREE ENERGY PREDICTED BY IDOCK:   -1.00 KCAL/MOL
REMARK 927      BINDING AFFINITY PREDICTED BY RF-SCORE:    0.00 PKD
ROOT
HETATM    1  C   UNL     1     -10.349  17.317  66.110  1.00  0.00    -0.320 C  
HETATM    2  C   UNL     1     -10.202  15.825  65.831  1.00  0.00    -0.377 C  
ENDROOT
BRANCH   2   3
HETATM    3  C   UNL     1     -10.875  14.989  66.912  1.00  0.00    -0.315 C  
HETATM    4  O   UNL     1     -11.733  15.535  67.621  1.00  0.00    -0.229 OA 
BRANCH   3   5
HETATM    5  C   UNL     1     -10.552  13.437  67.025  1.00  0.00    -0.264 C  
BRANCH   5   6
HETATM    6  C   UNL     1     -11.127  12.823  65.686  1.00  0.00    -0.311 A  
HETATM    7  C   UNL     1     -10.894  11.624  63.563  1.00  0.00    -0.497 A  
HETATM    8  C   UNL     1     -12.485  13.022  65.360  1.00  0.00    -0.531 A  
HETATM    9  C   UNL     1     -10.347  12.105  64.758  1.00  0.00    -0.320 A  
HETATM   10  C   UNL     1     -13.030  12.546  64.162  1.00  0.00    -0.233 A  
HETATM   11  C   UNL     1     -12.232  11.847  63.263  1.00  0.00    -0.487 A  
ENDBRANCH   5   6
BRANCH   5  12
HETATM   12  C   UNL     1      -8.986  13.173  67.120  1.00  0.00    -0.228 C  
BRANCH  12  13
HETATM   13  C   UNL     1      -8.206  13.136  68.481  1.00  0.00    -0.076 C  
HETATM   14  C   UNL     1      -7.225  11.954  68.545  1.00  0.00    -0.100 C  
BRANCH  13  15
HETATM   15  N   UNL     1      -7.446  14.417  68.690  1.00  0.00    -0.120 NA 
HETATM   16  C   UNL     1      -8.268  15.510  69.224  1.00  0.00    -0.255 C  
HETATM   17  C   UNL     1      -6.286  14.251  69.582  1.00  0.00    -0.136 C  
ENDBRANCH  13  15
ENDBRANCH  12  13
ENDBRANCH   5  12
BRANCH   5  18
HETATM   18  C   UNL     1     -11.253  12.756  68.244  1.00  0.00    -0.308 A  
HETATM   19  C   UNL     1     -11.280  11.348  68.341  1.00  0.00    -0.324 A  
HETATM   20  C   UNL     1     -12.239  12.836  70.489  1.00  0.00    -0.389 A  
HETATM   21  C   UNL     1     -12.190  11.452  70.583  1.00  0.00    -0.484 A  
HETATM   22  C   UNL     1     -11.723  10.707  69.504  1.00  0.00    -0.356 A  
HETATM   23  C   UNL     1     -11.775  13.479  69.337  1.00  0.00    -0.381 A  
ENDBRANCH   5  18
ENDBRANCH   3   5
ENDBRANCH   2   3
TORSDOF 7
ENDMDL
MODEL       37
REMARK 921   NORMALIZED FREE ENERGY PREDICTED BY IDOCK:   -4.81 KCAL/MOL
REMARK 922        TOTAL FREE ENERGY PREDICTED BY IDOCK:   -8.03 KCAL/MOL
REMARK 923 INTER-LIGAND FREE ENERGY PREDICTED BY IDOCK:   -7.31 KCAL/MOL
REMARK 924 INTRA-LIGAND FREE ENERGY PREDICTED BY IDOCK:   -0.71 KCAL/MOL
REMARK 927      BINDING AFFINITY PREDICTED BY RF-SCORE:    0.00 PKD
ROOT
HETATM    1  C   UNL     1      -7.109  13.468  67.608  1.00  0.00    -0.176 C  
HETATM    2  C   UNL     1      -8.536  13.218  67.133  1.00  0.00    -0.197 C  
ENDROOT
BRANCH   2   3
HETATM    3  C   UNL     1      -9.257  12.226  68.036  1.00  0.00    -0.195 C  
HETATM    4  O   UNL     1      -8.575  11.382  68.634  1.00  0.00    -0.157 OA 
BRANCH   3   5
HETATM    5  C   UNL     1     -10.821  12.369  68.276  1.00  0.00    -0.264 C  
BRANCH   5   6
HETATM    6  C   UNL     1     -11.402  12.719  66.848  1.00  0.00    -0.371 A  
HETATM    7  C   UNL     1     -11.737  12.272  64.463  1.00  0.00    -0.421 A  
HETATM    8  C   UNL     1     -12.088  13.937  66.658  1.00  0.00    -0.485 A  
HETATM    9  C   UNL     1     -11.245  11.893  65.717  1.00  0.00    -0.365 A  
HETATM   10  C   UNL     1     -12.574  14.319  65.403  1.00  0.00    -0.422 A  
HETATM   11  C   UNL     1     -12.398  13.484  64.305  1.00  0.00    -0.392 A  
ENDBRANCH   5   6
BRANCH   5  12
HETATM   12  C   UNL     1     -11.457  11.011  68.808  1.00  0.00    -0.372 C  
BRANCH  12  13
HETATM   13  C   UNL     1     -11.348  10.544  70.302  1.00  0.00    -0.327 C  
HETATM   14  C   UNL     1     -12.699  10.052  70.846  1.00  0.00    -0.414 C  
BRANCH  13  15
HETATM   15  N   UNL     1     -10.333   9.441  70.438  1.00  0.00    -0.242 NA 
HETATM   16  C   UNL     1     -10.320   8.812  71.764  1.00  0.00    -0.343 C  
HETATM   17  C   UNL     1     -10.514   8.376  69.438  1.00  0.00    -0.217 C  
ENDBRANCH  13  15
ENDBRANCH  12  13
ENDBRANCH   5  12
BRANCH   5  18
HETATM   18  C   UNL     1     -11.182  13.518  69.272  1.00  0.00    -0.285 A  
HETATM   19  C   UNL     1     -10.316  14.624  69.411  1.00  0.00    -0.136 A  
HETATM   20  C   UNL     1     -12.769  14.698  70.724  1.00  0.00    -0.422 A  
HETATM   21  C   UNL     1     -11.926  15.799  70.786  1.00  0.00    -0.444 A  
HETATM   22  C   UNL     1     -10.693  15.758  70.141  1.00  0.00    -0.354 A  
HETATM   23  C   UNL     1     -12.403  13.574  69.975  1.00  0.00    -0.315 A  
ENDBRANCH   5  18
ENDBRANCH   3   5
ENDBRANCH   2   3
TORSDOF 7
ENDMDL
MODEL       38
REMARK 921   NORMALIZED FREE ENERGY PREDICTED BY IDOCK:   -4.78 KCAL/MOL
REMARK 922        TOTAL FREE ENERGY PREDICTED BY IDOCK:   -7.99 KCAL/MOL
REMARK 923 INTER-LIGAND FREE ENERGY PREDICTED BY IDOCK:   -7.33 KCAL/MOL
REMARK 924 INTRA-LIGAND FREE ENERGY PREDICTED BY IDOCK:   -0.66 KCAL/MOL
REMARK 927      BINDING AFFINITY PREDICTED BY RF-SCORE:    0.00 PKD
ROOT
HETATM    1  C   UNL     1     -11.295  12.636  63.912  1.00  0.00    -0.501 C  
HETATM    2  C   UNL     1     -11.356  12.144  65.354  1.00  0.00    -0.388 C  
ENDROOT
BRANCH   2   3
HETATM    3  C   UNL     1     -11.930  13.208  66.279  1.00  0.00    -0.415 C  
HETATM    4  O   UNL     1     -12.942  13.819  65.908  1.00  0.00    -0.407 OA 
BRANCH   3   5
HETATM    5  C   UNL     1     -11.300  13.423  67.723  1.00  0.00    -0.325 C  
BRANCH   5   6
HETATM    6  C   UNL     1      -9.988  14.262  67.451  1.00  0.00    -0.242 A  
HETATM    7  C   UNL     1      -7.716  14.994  68.004  1.00  0.00    -0.129 A  
HETATM    8  C   UNL     1      -9.955  15.166  66.368  1.00  0.00    -0.288 A  
HETATM    9  C   UNL     1      -8.835  14.193  68.259  1.00  0.00    -0.187 A  
HETATM   10  C   UNL     1      -8.838  15.971  66.118  1.00  0.00    -0.366 A  
HETATM   11  C   UNL     1      -7.718  15.884  66.937  1.00  0.00    -0.268 A  
ENDBRANCH   5   6
BRANCH   5  12
HETATM   12  C   UNL     1     -12.283  14.237  68.674  1.00  0.00    -0.205 C  
BRANCH  12  13
HETATM   13  C   UNL     1     -11.901  14.661  70.135  1.00  0.00    -0.307 C  
HETATM   14  C   UNL     1     -11.365  16.100  70.190  1.00  0.00    -0.347 C  
BRANCH  13  15
HETATM   15  N   UNL     1     -13.093  14.546  71.047  1.00  0.00    -0.360 NA 
HETATM   16  C   UNL     1     -13.097  13.323  71.859  1.00  0.00    -0.388 C  
HETATM   17  C   UNL     1     -13.222  15.693  71.961  1.00  0.00    -0.457 C  
ENDBRANCH  13  15
ENDBRANCH  12  13
ENDBRANCH   5  12
BRANCH   5  18
HETATM   18  C   UNL     1     -10.916  12.082  68.425  1.00  0.00    -0.276 A  
HETATM   19  C   UNL     1      -9.580  11.625  68.383  1.00  0.00    -0.195 A  
HETATM   20  C   UNL     1     -11.399  10.236  69.968  1.00  0.00    -0.370 A  
HETATM   21  C   UNL     1     -10.065   9.852  69.960  1.00  0.00    -0.308 A  
HETATM   22  C   UNL     1      -9.158  10.537  69.157  1.00  0.00    -0.177 A  
HETATM   23  C   UNL     1     -11.818  11.337  69.213  1.00  0.00    -0.423 A  
ENDBRANCH   5  18
ENDBRANCH   3   5
ENDBRANCH   2   3
TORSDOF 7
ENDMDL
MODEL       39
REMARK 921   NORMALIZED FREE ENERGY PREDICTED BY IDOCK:   -4.77 KCAL/MOL
REMARK 922        TOTAL FREE ENERGY PREDICTED BY IDOCK:   -7.97 KCAL/MOL
REMARK 923 INTER-LIGAND FREE ENERGY PREDICTED BY IDOCK:   -6.92 KCAL/MOL
REMARK 924 INTRA-LIGAND FREE ENERGY PREDICTED BY IDOCK:   -1.05 KCAL/MOL
REMARK 927      BINDING AFFINITY PREDICTED BY RF-SCORE:    0.00 PKD
ROOT
HETATM    1  C   UNL     1      -8.416   8.780  67.351  1.00  0.00    -0.116 C  
HETATM    2  C   UNL     1      -8.929   9.994  66.584  1.00  0.00    -0.156 C  
ENDROOT
BRANCH   2   3
HETATM    3  C   UNL     1      -8.699  11.281  67.364  1.00  0.00    -0.139 C  
HETATM    4  O   UNL     1      -7.622  11.417  67.961  1.00  0.00    -0.100 OA 
BRANCH   3   5
HETATM    5  C   UNL     1      -9.779  12.447  67.299  1.00  0.00    -0.201 C  
BRANCH   5   6
HETATM    6  C   UNL     1     -10.715  12.177  68.544  1.00  0.00    -0.257 A  
HETATM    7  C   UNL     1     -12.036  10.718  70.002  1.00  0.00    -0.427 A  
HETATM    8  C   UNL     1     -11.169  13.267  69.318  1.00  0.00    -0.266 A  
HETATM    9  C   UNL     1     -11.167  10.897  68.919  1.00  0.00    -0.327 A  
HETATM   10  C   UNL     1     -12.043  13.088  70.396  1.00  0.00    -0.391 A  
HETATM   11  C   UNL     1     -12.476  11.812  70.737  1.00  0.00    -0.405 A  
ENDBRANCH   5   6
BRANCH   5  12
HETATM   12  C   UNL     1      -9.098  13.880  67.426  1.00  0.00    -0.217 C  
BRANCH  12  13
HETATM   13  C   UNL     1      -9.449  15.080  66.478  1.00  0.00    -0.282 C  
HETATM   14  C   UNL     1     -10.654  15.882  66.996  1.00  0.00    -0.306 C  
BRANCH  13  15
HETATM   15  N   UNL     1      -8.269  16.002  66.335  1.00  0.00    -0.297 NA 
HETATM   16  C   UNL     1      -8.633  17.424  66.307  1.00  0.00    -0.211 C  
HETATM   17  C   UNL     1      -7.270  15.815  67.399  1.00  0.00    -0.202 C  
ENDBRANCH  13  15
ENDBRANCH  12  13
ENDBRANCH   5  12
BRANCH   5  18
HETATM   18  C   UNL     1     -10.636  12.410  65.994  1.00  0.00    -0.286 A  
HETATM   19  C   UNL     1     -12.021  12.682  66.057  1.00  0.00    -0.478 A  
HETATM   20  C   UNL     1     -10.850  12.373  63.550  1.00  0.00    -0.487 A  
HETATM   21  C   UNL     1     -12.194  12.708  63.641  1.00  0.00    -0.624 A  
HETATM   22  C   UNL     1     -12.783  12.850  64.895  1.00  0.00    -0.474 A  
HETATM   23  C   UNL     1     -10.082  12.229  64.710  1.00  0.00    -0.271 A  
ENDBRANCH   5  18
ENDBRANCH   3   5
ENDBRANCH   2   3
TORSDOF 7
ENDMDL
MODEL       40
REMARK 921   NORMALIZED FREE ENERGY PREDICTED BY IDOCK:   -4.76 KCAL/MOL
REMARK 922        TOTAL FREE ENERGY PREDICTED BY IDOCK:   -7.96 KCAL/MOL
REMARK 923 INTER-LIGAND FREE ENERGY PREDICTED BY IDOCK:   -7.12 KCAL/MOL
REMARK 924 INTRA-LIGAND FREE ENERGY PREDICTED BY IDOCK:   -0.84 KCAL/MOL
REMARK 927      BINDING AFFINITY PREDICTED BY RF-SCORE:    0.00 PKD
ROOT
HETATM    1  C   UNL     1     -12.279  12.366  64.020  1.00  0.00    -0.579 C  
HETATM    2  C   UNL     1     -12.578  13.135  65.302  1.00  0.00    -0.531 C  
ENDROOT
BRANCH   2   3
HETATM    3  C   UNL     1     -11.919  12.480  66.509  1.00  0.00    -0.296 C  
HETATM    4  O   UNL     1     -11.907  11.242  66.565  1.00  0.00    -0.251 OA 
BRANCH   3   5
HETATM    5  C   UNL     1     -11.176  13.380  67.588  1.00  0.00    -0.302 C  
BRANCH   5   6
HETATM    6  C   UNL     1      -9.660  12.946  67.476  1.00  0.00    -0.200 A  
HETATM    7  C   UNL     1      -7.306  13.058  68.147  1.00  0.00    -0.118 A  
HETATM    8  C   UNL     1      -9.269  12.050  66.459  1.00  0.00    -0.216 A  
HETATM    9  C   UNL     1      -8.643  13.436  68.320  1.00  0.00    -0.169 A  
HETATM   10  C   UNL     1      -7.932  11.677  66.282  1.00  0.00     0.082 A  
HETATM   11  C   UNL     1      -6.950  12.183  67.128  1.00  0.00    -0.117 A  
ENDBRANCH   5   6
BRANCH   5  12
HETATM   12  C   UNL     1     -11.328  14.930  67.260  1.00  0.00    -0.355 C  
BRANCH  12  13
HETATM   13  C   UNL     1     -10.242  15.748  66.477  1.00  0.00    -0.286 C  
HETATM   14  C   UNL     1     -10.690  16.059  65.039  1.00  0.00    -0.400 C  
BRANCH  13  15
HETATM   15  N   UNL     1      -9.940  17.039  67.187  1.00  0.00    -0.273 NA 
HETATM   16  C   UNL     1     -10.498  18.223  66.523  1.00  0.00    -0.356 C  
HETATM   17  C   UNL     1     -10.412  17.044  68.582  1.00  0.00    -0.363 C  
ENDBRANCH  13  15
ENDBRANCH  12  13
ENDBRANCH   5  12
BRANCH   5  18
HETATM   18  C   UNL     1     -11.677  13.122  69.045  1.00  0.00    -0.367 A  
HETATM   19  C   UNL     1     -12.211  14.187  69.803  1.00  0.00    -0.397 A  
HETATM   20  C   UNL     1     -12.346  11.617  70.865  1.00  0.00    -0.436 A  
HETATM   21  C   UNL     1     -12.923  12.675  71.555  1.00  0.00    -0.380 A  
HETATM   22  C   UNL     1     -12.844  13.962  71.031  1.00  0.00    -0.394 A  
HETATM   23  C   UNL     1     -11.734  11.838  69.626  1.00  0.00    -0.413 A  
ENDBRANCH   5  18
ENDBRANCH   3   5
ENDBRANCH   2   3
TORSDOF 7
ENDMDL
MODEL       41
REMARK 921   NORMALIZED FREE ENERGY PREDICTED BY IDOCK:   -4.75 KCAL/MOL
REMARK 922        TOTAL FREE ENERGY PREDICTED BY IDOCK:   -7.95 KCAL/MOL
REMARK 923 INTER-LIGAND FREE ENERGY PREDICTED BY IDOCK:   -7.00 KCAL/MOL
REMARK 924 INTRA-LIGAND FREE ENERGY PREDICTED BY IDOCK:   -0.94 KCAL/MOL
REMARK 927      BINDING AFFINITY PREDICTED BY RF-SCORE:    0.00 PKD
ROOT
HETATM    1  C   UNL     1      -8.507  15.872  67.405  1.00  0.00    -0.194 C  
HETATM    2  C   UNL     1      -9.848  16.177  68.064  1.00  0.00    -0.231 C  
ENDROOT
BRANCH   2   3
HETATM    3  C   UNL     1     -10.213  15.118  69.096  1.00  0.00    -0.249 C  
HETATM    4  O   UNL     1      -9.688  15.189  70.215  1.00  0.00     0.008 OA 
BRANCH   3   5
HETATM    5  C   UNL     1     -11.327  14.036  68.755  1.00  0.00    -0.309 C  
BRANCH   5   6
HETATM    6  C   UNL     1     -12.283  14.054  70.014  1.00  0.00    -0.414 A  
HETATM    7  C   UNL     1     -13.369  13.002  71.942  1.00  0.00    -0.539 A  
HETATM    8  C   UNL     1     -13.029  15.217  70.300  1.00  0.00    -0.228 A  
HETATM    9  C   UNL     1     -12.472  12.949  70.868  1.00  0.00    -0.383 A  
HETATM   10  C   UNL     1     -13.930  15.267  71.370  1.00  0.00    -0.601 A  
HETATM   11  C   UNL     1     -14.099  14.157  72.191  1.00  0.00    -0.643 A  
ENDBRANCH   5   6
BRANCH   5  12
HETATM   12  C   UNL     1     -12.140  14.428  67.445  1.00  0.00    -0.348 C  
BRANCH  12  13
HETATM   13  C   UNL     1     -12.035  13.625  66.101  1.00  0.00    -0.416 C  
HETATM   14  C   UNL     1     -13.280  13.820  65.221  1.00  0.00    -0.007 C  
BRANCH  13  15
HETATM   15  N   UNL     1     -10.815  14.049  65.328  1.00  0.00    -0.327 NA 
HETATM   16  C   UNL     1     -10.391  13.074  64.315  1.00  0.00    -0.362 C  
HETATM   17  C   UNL     1     -10.992  15.347  64.654  1.00  0.00    -0.314 C  
ENDBRANCH  13  15
ENDBRANCH  12  13
ENDBRANCH   5  12
BRANCH   5  18
HETATM   18  C   UNL     1     -10.744  12.598  68.574  1.00  0.00    -0.271 A  
HETATM   19  C   UNL     1     -11.613  11.485  68.562  1.00  0.00    -0.377 A  
HETATM   20  C   UNL     1      -8.924  11.064  67.977  1.00  0.00    -0.145 A  
HETATM   21  C   UNL     1      -9.815  10.001  67.906  1.00  0.00    -0.171 A  
HETATM   22  C   UNL     1     -11.157  10.208  68.211  1.00  0.00    -0.285 A  
HETATM   23  C   UNL     1      -9.383  12.344  68.304  1.00  0.00    -0.199 A  
ENDBRANCH   5  18
ENDBRANCH   3   5
ENDBRANCH   2   3
TORSDOF 7
ENDMDL
MODEL       42
REMARK 921   NORMALIZED FREE ENERGY PREDICTED BY IDOCK:   -4.74 KCAL/MOL
REMARK 922        TOTAL FREE ENERGY PREDICTED BY IDOCK:   -7.94 KCAL/MOL
REMARK 923 INTER-LIGAND FREE ENERGY PREDICTED BY IDOCK:   -6.74 KCAL/MOL
REMARK 924 INTRA-LIGAND FREE ENERGY PREDICTED BY IDOCK:   -1.20 KCAL/MOL
REMARK 927      BINDING AFFINITY PREDICTED BY RF-SCORE:    0.00 PKD
ROOT
HETATM    1  C   UNL     1     -12.196  12.736  64.500  1.00  0.00    -0.500 C  
HETATM    2  C   UNL     1     -11.978  12.498  65.990  1.00  0.00    -0.456 C  
ENDROOT
BRANCH   2   3
HETATM    3  C   UNL     1     -11.600  13.786  66.709  1.00  0.00    -0.370 C  
HETATM    4  O   UNL     1     -12.153  14.835  66.353  1.00  0.00    -0.264 OA 
BRANCH   3   5
HETATM    5  C   UNL     1     -10.613  13.735  67.954  1.00  0.00    -0.257 C  
BRANCH   5   6
HETATM    6  C   UNL     1     -11.537  14.056  69.196  1.00  0.00    -0.356 A  
HETATM    7  C   UNL     1     -12.758  15.590  70.664  1.00  0.00    -0.487 A  
HETATM    8  C   UNL     1     -11.921  13.010  70.062  1.00  0.00    -0.383 A  
HETATM    9  C   UNL     1     -11.981  15.352  69.524  1.00  0.00    -0.358 A  
HETATM   10  C   UNL     1     -12.692  13.250  71.205  1.00  0.00    -0.404 A  
HETATM   11  C   UNL     1     -13.111  14.541  71.505  1.00  0.00    -0.413 A  
ENDBRANCH   5   6
BRANCH   5  12
HETATM   12  C   UNL     1      -9.956  12.294  68.119  1.00  0.00    -0.210 C  
BRANCH  12  13
HETATM   13  C   UNL     1      -8.597  11.893  67.445  1.00  0.00    -0.164 C  
HETATM   14  C   UNL     1      -7.445  11.856  68.463  1.00  0.00    -0.117 C  
BRANCH  13  15
HETATM   15  N   UNL     1      -8.712  10.545  66.786  1.00  0.00    -0.131 NA 
HETATM   16  C   UNL     1      -9.869   9.764  67.240  1.00  0.00    -0.181 C  
HETATM   17  C   UNL     1      -8.781  10.635  65.318  1.00  0.00    -0.187 C  
ENDBRANCH  13  15
ENDBRANCH  12  13
ENDBRANCH   5  12
BRANCH   5  18
HETATM   18  C   UNL     1      -9.474  14.801  67.872  1.00  0.00    -0.201 A  
HETATM   19  C   UNL     1      -9.125  15.360  66.623  1.00  0.00    -0.310 A  
HETATM   20  C   UNL     1      -7.942  16.409  68.915  1.00  0.00    -0.236 A  
HETATM   21  C   UNL     1      -7.670  16.983  67.680  1.00  0.00    -0.183 A  
HETATM   22  C   UNL     1      -8.251  16.451  66.533  1.00  0.00    -0.341 A  
HETATM   23  C   UNL     1      -8.833  15.335  69.009  1.00  0.00    -0.226 A  
ENDBRANCH   5  18
ENDBRANCH   3   5
ENDBRANCH   2   3
TORSDOF 7
ENDMDL
MODEL       43
REMARK 921   NORMALIZED FREE ENERGY PREDICTED BY IDOCK:   -4.74 KCAL/MOL
REMARK 922        TOTAL FREE ENERGY PREDICTED BY IDOCK:   -7.93 KCAL/MOL
REMARK 923 INTER-LIGAND FREE ENERGY PREDICTED BY IDOCK:   -7.03 KCAL/MOL
REMARK 924 INTRA-LIGAND FREE ENERGY PREDICTED BY IDOCK:   -0.90 KCAL/MOL
REMARK 927      BINDING AFFINITY PREDICTED BY RF-SCORE:    0.00 PKD
ROOT
HETATM    1  C   UNL     1     -11.751  13.307  65.044  1.00  0.00    -0.362 C  
HETATM    2  C   UNL     1     -12.271  13.968  66.316  1.00  0.00    -0.493 C  
ENDROOT
BRANCH   2   3
HETATM    3  C   UNL     1     -11.393  13.634  67.514  1.00  0.00    -0.308 C  
HETATM    4  O   UNL     1     -11.057  12.453  67.680  1.00  0.00    -0.234 OA 
BRANCH   3   5
HETATM    5  C   UNL     1     -10.842  14.804  68.440  1.00  0.00    -0.248 C  
BRANCH   5   6
HETATM    6  C   UNL     1      -9.292  14.517  68.547  1.00  0.00    -0.203 A  
HETATM    7  C   UNL     1      -7.127  14.635  69.688  1.00  0.00    -0.125 A  
HETATM    8  C   UNL     1      -8.623  13.910  67.462  1.00  0.00    -0.195 A  
HETATM    9  C   UNL     1      -8.508  14.868  69.663  1.00  0.00     0.072 A  
HETATM   10  C   UNL     1      -7.242  13.684  67.484  1.00  0.00    -0.169 A  
HETATM   11  C   UNL     1      -6.495  14.047  68.599  1.00  0.00    -0.091 A  
ENDBRANCH   5   6
BRANCH   5  12
HETATM   12  C   UNL     1     -11.090  16.233  67.783  1.00  0.00    -0.227 C  
BRANCH  12  13
HETATM   13  C   UNL     1      -9.944  17.281  67.559  1.00  0.00    -0.296 C  
HETATM   14  C   UNL     1      -9.356  17.188  66.142  1.00  0.00    -0.222 C  
BRANCH  13  15
HETATM   15  N   UNL     1     -10.453  18.678  67.789  1.00  0.00    -0.410 NA 
HETATM   16  C   UNL     1      -9.720  19.409  68.829  1.00  0.00    -0.449 C  
HETATM   17  C   UNL     1     -10.434  19.498  66.566  1.00  0.00    -0.493 C  
ENDBRANCH  13  15
ENDBRANCH  12  13
ENDBRANCH   5  12
BRANCH   5  18
HETATM   18  C   UNL     1     -11.467  14.793  69.872  1.00  0.00    -0.322 A  
HETATM   19  C   UNL     1     -11.455  15.970  70.651  1.00  0.00    -0.427 A  
HETATM   20  C   UNL     1     -12.851  13.763  71.616  1.00  0.00    -0.438 A  
HETATM   21  C   UNL     1     -12.879  14.955  72.327  1.00  0.00    -0.414 A  
HETATM   22  C   UNL     1     -12.170  16.055  71.852  1.00  0.00    -0.560 A  
HETATM   23  C   UNL     1     -12.157  13.684  70.404  1.00  0.00    -0.421 A  
ENDBRANCH   5  18
ENDBRANCH   3   5
ENDBRANCH   2   3
TORSDOF 7
ENDMDL
MODEL       44
REMARK 921   NORMALIZED FREE ENERGY PREDICTED BY IDOCK:   -4.73 KCAL/MOL
REMARK 922        TOTAL FREE ENERGY PREDICTED BY IDOCK:   -7.91 KCAL/MOL
REMARK 923 INTER-LIGAND FREE ENERGY PREDICTED BY IDOCK:   -6.76 KCAL/MOL
REMARK 924 INTRA-LIGAND FREE ENERGY PREDICTED BY IDOCK:   -1.15 KCAL/MOL
REMARK 927      BINDING AFFINITY PREDICTED BY RF-SCORE:    0.00 PKD
ROOT
HETATM    1  C   UNL     1     -12.189  14.416  70.202  1.00  0.00    -0.401 C  
HETATM    2  C   UNL     1     -11.719  14.790  68.801  1.00  0.00    -0.354 C  
ENDROOT
BRANCH   2   3
HETATM    3  C   UNL     1     -10.420  15.585  68.845  1.00  0.00    -0.223 C  
HETATM    4  O   UNL     1     -10.049  16.034  69.938  1.00  0.00    -0.250 OA 
BRANCH   3   5
HETATM    5  C   UNL     1      -9.530  15.715  67.535  1.00  0.00    -0.214 C  
BRANCH   5   6
HETATM    6  C   UNL     1      -9.564  17.259  67.195  1.00  0.00    -0.257 A  
HETATM    7  C   UNL     1      -8.600  19.306  66.256  1.00  0.00    -0.335 A  
HETATM    8  C   UNL     1     -10.648  18.043  67.646  1.00  0.00    -0.413 A  
HETATM    9  C   UNL     1      -8.544  17.926  66.488  1.00  0.00    -0.279 A  
HETATM   10  C   UNL     1     -10.699  19.423  67.419  1.00  0.00    -0.594 A  
HETATM   11  C   UNL     1      -9.674  20.054  66.723  1.00  0.00    -0.563 A  
ENDBRANCH   5   6
BRANCH   5  12
HETATM   12  C   UNL     1      -8.032  15.246  67.798  1.00  0.00    -0.159 C  
BRANCH  12  13
HETATM   13  C   UNL     1      -7.611  14.389  69.042  1.00  0.00    -0.106 C  
HETATM   14  C   UNL     1      -6.931  13.075  68.626  1.00  0.00    -0.102 C  
BRANCH  13  15
HETATM   15  N   UNL     1      -6.675  15.167  69.928  1.00  0.00    -0.179 NA 
HETATM   16  C   UNL     1      -5.351  14.551  70.072  1.00  0.00    -0.097 C  
HETATM   17  C   UNL     1      -6.477  16.552  69.466  1.00  0.00    -0.223 C  
ENDBRANCH  13  15
ENDBRANCH  12  13
ENDBRANCH   5  12
BRANCH   5  18
HETATM   18  C   UNL     1     -10.104  14.911  66.325  1.00  0.00    -0.298 A  
HETATM   19  C   UNL     1      -9.884  13.519  66.240  1.00  0.00    -0.306 A  
HETATM   20  C   UNL     1     -11.580  14.701  64.376  1.00  0.00    -0.315 A  
HETATM   21  C   UNL     1     -11.399  13.325  64.360  1.00  0.00    -0.415 A  
HETATM   22  C   UNL     1     -10.540  12.735  65.283  1.00  0.00    -0.312 A  
HETATM   23  C   UNL     1     -10.944  15.483  65.346  1.00  0.00    -0.365 A  
ENDBRANCH   5  18
ENDBRANCH   3   5
ENDBRANCH   2   3
TORSDOF 7
ENDMDL
MODEL       45
REMARK 921   NORMALIZED FREE ENERGY PREDICTED BY IDOCK:   -4.70 KCAL/MOL
REMARK 922        TOTAL FREE ENERGY PREDICTED BY IDOCK:   -7.88 KCAL/MOL
REMARK 923 INTER-LIGAND FREE ENERGY PREDICTED BY IDOCK:   -6.79 KCAL/MOL
REMARK 924 INTRA-LIGAND FREE ENERGY PREDICTED BY IDOCK:   -1.09 KCAL/MOL
REMARK 927      BINDING AFFINITY PREDICTED BY RF-SCORE:    0.00 PKD
ROOT
HETATM    1  C   UNL     1      -9.244   7.382  66.773  1.00  0.00    -0.190 C  
HETATM    2  C   UNL     1     -10.444   8.295  66.992  1.00  0.00    -0.384 C  
ENDROOT
BRANCH   2   3
HETATM    3  C   UNL     1     -10.212   9.673  66.385  1.00  0.00    -0.217 C  
HETATM    4  O   UNL     1     -10.004   9.744  65.166  1.00  0.00    -0.309 OA 
BRANCH   3   5
HETATM    5  C   UNL     1     -10.355  10.970  67.293  1.00  0.00    -0.249 C  
BRANCH   5   6
HETATM    6  C   UNL     1      -8.915  11.620  67.270  1.00  0.00    -0.169 A  
HETATM    7  C   UNL     1      -6.499  11.552  66.868  1.00  0.00    -0.144 A  
HETATM    8  C   UNL     1      -8.740  12.934  67.756  1.00  0.00    -0.188 A  
HETATM    9  C   UNL     1      -7.761  10.948  66.821  1.00  0.00    -0.141 A  
HETATM   10  C   UNL     1      -7.478  13.535  67.809  1.00  0.00    -0.168 A  
HETATM   11  C   UNL     1      -6.357  12.843  67.363  1.00  0.00    -0.119 A  
ENDBRANCH   5   6
BRANCH   5  12
HETATM   12  C   UNL     1     -11.424  11.986  66.694  1.00  0.00    -0.411 C  
BRANCH  12  13
HETATM   13  C   UNL     1     -11.114  12.939  65.486  1.00  0.00    -0.278 C  
HETATM   14  C   UNL     1     -11.813  12.473  64.199  1.00  0.00    -0.487 C  
BRANCH  13  15
HETATM   15  N   UNL     1     -11.546  14.346  65.800  1.00  0.00    -0.349 NA 
HETATM   16  C   UNL     1     -11.795  14.582  67.227  1.00  0.00    -0.392 C  
HETATM   17  C   UNL     1     -10.575  15.353  65.341  1.00  0.00    -0.410 C  
ENDBRANCH  13  15
ENDBRANCH  12  13
ENDBRANCH   5  12
BRANCH   5  18
HETATM   18  C   UNL     1     -10.746  10.640  68.769  1.00  0.00    -0.249 A  
HETATM   19  C   UNL     1     -12.034  10.971  69.244  1.00  0.00    -0.410 A  
HETATM   20  C   UNL     1     -10.358   9.487  70.900  1.00  0.00    -0.372 A  
HETATM   21  C   UNL     1     -11.654   9.769  71.312  1.00  0.00    -0.465 A  
HETATM   22  C   UNL     1     -12.488  10.522  70.491  1.00  0.00    -0.433 A  
HETATM   23  C   UNL     1      -9.912   9.915  69.645  1.00  0.00    -0.255 A  
ENDBRANCH   5  18
ENDBRANCH   3   5
ENDBRANCH   2   3
TORSDOF 7
ENDMDL
MODEL       46
REMARK 921   NORMALIZED FREE ENERGY PREDICTED BY IDOCK:   -4.69 KCAL/MOL
REMARK 922        TOTAL FREE ENERGY PREDICTED BY IDOCK:   -7.87 KCAL/MOL
REMARK 923 INTER-LIGAND FREE ENERGY PREDICTED BY IDOCK:   -6.99 KCAL/MOL
REMARK 924 INTRA-LIGAND FREE ENERGY PREDICTED BY IDOCK:   -0.87 KCAL/MOL
REMARK 927      BINDING AFFINITY PREDICTED BY RF-SCORE:    0.00 PKD
ROOT
HETATM    1  C   UNL     1     -12.343  15.541  70.479  1.00  0.00    -0.461 C  
HETATM    2  C   UNL     1     -12.254  14.226  69.712  1.00  0.00    -0.390 C  
ENDROOT
BRANCH   2   3
HETATM    3  C   UNL     1     -11.626  14.424  68.339  1.00  0.00    -0.319 C  
HETATM    4  O   UNL     1     -11.906  15.456  67.714  1.00  0.00    -0.248 OA 
BRANCH   3   5
HETATM    5  C   UNL     1     -10.554  13.380  67.803  1.00  0.00    -0.252 C  
BRANCH   5   6
HETATM    6  C   UNL     1     -11.019  13.073  66.324  1.00  0.00    -0.303 A  
HETATM    7  C   UNL     1     -12.706  12.487  64.646  1.00  0.00    -0.434 A  
HETATM    8  C   UNL     1     -10.057  13.025  65.292  1.00  0.00    -0.247 A  
HETATM    9  C   UNL     1     -12.354  12.801  65.965  1.00  0.00    -0.251 A  
HETATM   10  C   UNL     1     -10.408  12.704  63.976  1.00  0.00    -0.414 A  
HETATM   11  C   UNL     1     -11.734  12.435  63.654  1.00  0.00    -0.596 A  
ENDBRANCH   5   6
BRANCH   5  12
HETATM   12  C   UNL     1      -9.088  13.998  67.799  1.00  0.00    -0.192 C  
BRANCH  12  13
HETATM   13  C   UNL     1      -8.645  15.153  68.764  1.00  0.00    -0.182 C  
HETATM   14  C   UNL     1      -7.374  14.786  69.546  1.00  0.00    -0.148 C  
BRANCH  13  15
HETATM   15  N   UNL     1      -8.397  16.420  67.991  1.00  0.00    -0.175 NA 
HETATM   16  C   UNL     1      -8.617  16.282  66.546  1.00  0.00    -0.297 C  
HETATM   17  C   UNL     1      -9.223  17.544  68.464  1.00  0.00    -0.278 C  
ENDBRANCH  13  15
ENDBRANCH  12  13
ENDBRANCH   5  12
BRANCH   5  18
HETATM   18  C   UNL     1     -10.538  12.049  68.622  1.00  0.00    -0.253 A  
HETATM   19  C   UNL     1      -9.354  11.283  68.693  1.00  0.00    -0.167 A  
HETATM   20  C   UNL     1     -11.520  10.510  70.262  1.00  0.00    -0.416 A  
HETATM   21  C   UNL     1     -10.320   9.818  70.361  1.00  0.00    -0.354 A  
HETATM   22  C   UNL     1      -9.241  10.195  69.567  1.00  0.00    -0.223 A  
HETATM   23  C   UNL     1     -11.626  11.612  69.406  1.00  0.00    -0.392 A  
ENDBRANCH   5  18
ENDBRANCH   3   5
ENDBRANCH   2   3
TORSDOF 7
ENDMDL
MODEL       47
REMARK 921   NORMALIZED FREE ENERGY PREDICTED BY IDOCK:   -4.69 KCAL/MOL
REMARK 922        TOTAL FREE ENERGY PREDICTED BY IDOCK:   -7.86 KCAL/MOL
REMARK 923 INTER-LIGAND FREE ENERGY PREDICTED BY IDOCK:   -7.12 KCAL/MOL
REMARK 924 INTRA-LIGAND FREE ENERGY PREDICTED BY IDOCK:   -0.74 KCAL/MOL
REMARK 927      BINDING AFFINITY PREDICTED BY RF-SCORE:    0.00 PKD
ROOT
HETATM    1  C   UNL     1     -12.331  11.278  70.841  1.00  0.00    -0.490 C  
HETATM    2  C   UNL     1     -11.741  12.363  69.948  1.00  0.00    -0.339 C  
ENDROOT
BRANCH   2   3
HETATM    3  C   UNL     1     -11.512  11.852  68.532  1.00  0.00    -0.295 C  
HETATM    4  O   UNL     1     -12.283  10.988  68.092  1.00  0.00    -0.578 OA 
BRANCH   3   5
HETATM    5  C   UNL     1     -10.382  12.511  67.628  1.00  0.00    -0.222 C  
BRANCH   5   6
HETATM    6  C   UNL     1     -11.009  12.531  66.177  1.00  0.00    -0.318 A  
HETATM    7  C   UNL     1     -12.697  13.221  64.542  1.00  0.00    -0.229 A  
HETATM    8  C   UNL     1     -10.432  11.736  65.163  1.00  0.00    -0.330 A  
HETATM    9  C   UNL     1     -12.153  13.277  65.830  1.00  0.00    -0.493 A  
HETATM   10  C   UNL     1     -10.981  11.676  63.877  1.00  0.00    -0.478 A  
HETATM   11  C   UNL     1     -12.115  12.420  63.567  1.00  0.00    -0.651 A  
ENDBRANCH   5   6
BRANCH   5  12
HETATM   12  C   UNL     1     -10.048  13.994  68.100  1.00  0.00    -0.244 C  
BRANCH  12  13
HETATM   13  C   UNL     1     -10.978  15.219  67.790  1.00  0.00    -0.312 C  
HETATM   14  C   UNL     1     -11.689  15.729  69.054  1.00  0.00    -0.405 C  
BRANCH  13  15
HETATM   15  N   UNL     1     -10.184  16.345  67.185  1.00  0.00    -0.277 NA 
HETATM   16  C   UNL     1     -10.405  16.514  65.744  1.00  0.00    -0.341 C  
HETATM   17  C   UNL     1     -10.448  17.640  67.835  1.00  0.00    -0.392 C  
ENDBRANCH  13  15
ENDBRANCH  12  13
ENDBRANCH   5  12
BRANCH   5  18
HETATM   18  C   UNL     1      -9.059  11.680  67.604  1.00  0.00    -0.174 A  
HETATM   19  C   UNL     1      -7.872  12.266  67.113  1.00  0.00    -0.149 A  
HETATM   20  C   UNL     1      -7.714   9.742  68.277  1.00  0.00    -0.085 A  
HETATM   21  C   UNL     1      -6.553  10.371  67.847  1.00  0.00    -0.061 A  
HETATM   22  C   UNL     1      -6.633  11.627  67.253  1.00  0.00    -0.122 A  
HETATM   23  C   UNL     1      -8.949  10.388  68.159  1.00  0.00    -0.132 A  
ENDBRANCH   5  18
ENDBRANCH   3   5
ENDBRANCH   2   3
TORSDOF 7
ENDMDL
MODEL       48
REMARK 921   NORMALIZED FREE ENERGY PREDICTED BY IDOCK:   -4.69 KCAL/MOL
REMARK 922        TOTAL FREE ENERGY PREDICTED BY IDOCK:   -7.85 KCAL/MOL
REMARK 923 INTER-LIGAND FREE ENERGY PREDICTED BY IDOCK:   -7.01 KCAL/MOL
REMARK 924 INTRA-LIGAND FREE ENERGY PREDICTED BY IDOCK:   -0.85 KCAL/MOL
REMARK 927      BINDING AFFINITY PREDICTED BY RF-SCORE:    0.00 PKD
ROOT
HETATM    1  C   UNL     1     -12.296  11.786  70.830  1.00  0.00    -0.420 C  
HETATM    2  C   UNL     1     -12.032  12.853  69.773  1.00  0.00    -0.365 C  
ENDROOT
BRANCH   2   3
HETATM    3  C   UNL     1     -11.651  12.228  68.438  1.00  0.00    -0.326 C  
HETATM    4  O   UNL     1     -12.275  11.225  68.064  1.00  0.00    -0.621 OA 
BRANCH   3   5
HETATM    5  C   UNL     1     -10.561  12.932  67.519  1.00  0.00    -0.234 C  
BRANCH   5   6
HETATM    6  C   UNL     1     -10.928  12.465  66.054  1.00  0.00    -0.324 A  
HETATM    7  C   UNL     1     -10.491  11.221  63.989  1.00  0.00    -0.440 A  
HETATM    8  C   UNL     1     -12.076  12.994  65.427  1.00  0.00    -0.490 A  
HETATM    9  C   UNL     1     -10.148  11.564  65.302  1.00  0.00    -0.314 A  
HETATM   10  C   UNL     1     -12.415  12.655  64.112  1.00  0.00    -0.488 A  
HETATM   11  C   UNL     1     -11.621  11.768  63.394  1.00  0.00    -0.419 A  
ENDBRANCH   5   6
BRANCH   5  12
HETATM   12  C   UNL     1     -10.644  14.518  67.625  1.00  0.00    -0.251 C  
BRANCH  12  13
HETATM   13  C   UNL     1      -9.652  15.477  66.879  1.00  0.00    -0.228 C  
HETATM   14  C   UNL     1     -10.228  15.963  65.539  1.00  0.00    -0.394 C  
BRANCH  13  15
HETATM   15  N   UNL     1      -9.328  16.671  67.736  1.00  0.00    -0.221 NA 
HETATM   16  C   UNL     1     -10.502  17.477  68.093  1.00  0.00    -0.386 C  
HETATM   17  C   UNL     1      -8.640  16.304  68.985  1.00  0.00    -0.247 C  
ENDBRANCH  13  15
ENDBRANCH  12  13
ENDBRANCH   5  12
BRANCH   5  18
HETATM   18  C   UNL     1      -9.102  12.481  67.851  1.00  0.00    -0.199 A  
HETATM   19  C   UNL     1      -8.884  11.299  68.592  1.00  0.00    -0.141 A  
HETATM   20  C   UNL     1      -6.674  12.610  67.520  1.00  0.00    -0.156 A  
HETATM   21  C   UNL     1      -6.497  11.409  68.195  1.00  0.00    -0.056 A  
HETATM   22  C   UNL     1      -7.600  10.761  68.743  1.00  0.00    -0.113 A  
HETATM   23  C   UNL     1      -7.959  13.136  67.348  1.00  0.00    -0.174 A  
ENDBRANCH   5  18
ENDBRANCH   3   5
ENDBRANCH   2   3
TORSDOF 7
ENDMDL
MODEL       49
REMARK 921   NORMALIZED FREE ENERGY PREDICTED BY IDOCK:   -4.68 KCAL/MOL
REMARK 922        TOTAL FREE ENERGY PREDICTED BY IDOCK:   -7.84 KCAL/MOL
REMARK 923 INTER-LIGAND FREE ENERGY PREDICTED BY IDOCK:   -8.02 KCAL/MOL
REMARK 924 INTRA-LIGAND FREE ENERGY PREDICTED BY IDOCK:    0.18 KCAL/MOL
REMARK 927      BINDING AFFINITY PREDICTED BY RF-SCORE:    0.00 PKD
ROOT
HETATM    1  C   UNL     1     -10.481  19.768  66.157  1.00  0.00    -0.613 C  
HETATM    2  C   UNL     1     -10.604  18.448  66.909  1.00  0.00    -0.381 C  
ENDROOT
BRANCH   2   3
HETATM    3  C   UNL     1     -10.603  17.262  65.953  1.00  0.00    -0.204 C  
HETATM    4  O   UNL     1     -11.045  17.436  64.809  1.00  0.00    -0.973 OA 
BRANCH   3   5
HETATM    5  C   UNL     1      -9.941  15.888  66.400  1.00  0.00    -0.304 C  
BRANCH   5   6
HETATM    6  C   UNL     1     -10.819  15.415  67.627  1.00  0.00    -0.304 A  
HETATM    7  C   UNL     1     -11.981  15.795  69.750  1.00  0.00    -0.337 A  
HETATM    8  C   UNL     1     -11.179  14.055  67.738  1.00  0.00    -0.302 A  
HETATM    9  C   UNL     1     -11.245  16.274  68.659  1.00  0.00    -0.354 A  
HETATM   10  C   UNL     1     -11.908  13.576  68.832  1.00  0.00    -0.384 A  
HETATM   11  C   UNL     1     -12.309  14.448  69.838  1.00  0.00    -0.365 A  
ENDBRANCH   5   6
BRANCH   5  12
HETATM   12  C   UNL     1     -10.001  14.805  65.235  1.00  0.00    -0.331 C  
BRANCH  12  13
HETATM   13  C   UNL     1     -11.231  13.857  65.012  1.00  0.00    -0.342 C  
HETATM   14  C   UNL     1     -12.383  14.577  64.292  1.00  0.00    -0.396 C  
BRANCH  13  15
HETATM   15  N   UNL     1     -10.828  12.650  64.209  1.00  0.00    -0.351 NA 
HETATM   16  C   UNL     1     -10.252  11.569  65.019  1.00  0.00    -0.280 C  
HETATM   17  C   UNL     1     -11.946  12.083  63.436  1.00  0.00    -0.471 C  
ENDBRANCH  13  15
ENDBRANCH  12  13
ENDBRANCH   5  12
BRANCH   5  18
HETATM   18  C   UNL     1      -8.458  16.048  66.863  1.00  0.00    -0.275 A  
HETATM   19  C   UNL     1      -7.903  15.123  67.773  1.00  0.00    -0.161 A  
HETATM   20  C   UNL     1      -6.218  17.026  66.636  1.00  0.00    -0.240 A  
HETATM   21  C   UNL     1      -5.689  16.061  67.482  1.00  0.00    -0.157 A  
HETATM   22  C   UNL     1      -6.532  15.117  68.061  1.00  0.00    -0.156 A  
HETATM   23  C   UNL     1      -7.583  17.018  66.329  1.00  0.00    -0.340 A  
ENDBRANCH   5  18
ENDBRANCH   3   5
ENDBRANCH   2   3
TORSDOF 7
ENDMDL
MODEL       50
REMARK 921   NORMALIZED FREE ENERGY PREDICTED BY IDOCK:   -4.67 KCAL/MOL
REMARK 922        TOTAL FREE ENERGY PREDICTED BY IDOCK:   -7.84 KCAL/MOL
REMARK 923 INTER-LIGAND FREE ENERGY PREDICTED BY IDOCK:   -7.23 KCAL/MOL
REMARK 924 INTRA-LIGAND FREE ENERGY PREDICTED BY IDOCK:   -0.61 KCAL/MOL
REMARK 927      BINDING AFFINITY PREDICTED BY RF-SCORE:    0.00 PKD
ROOT
HETATM    1  C   UNL     1     -10.424  18.336  65.956  1.00  0.00    -0.380 C  
HETATM    2  C   UNL     1     -10.279  16.835  66.181  1.00  0.00    -0.363 C  
ENDROOT
BRANCH   2   3
HETATM    3  C   UNL     1     -10.650  16.450  67.607  1.00  0.00    -0.313 C  
HETATM    4  O   UNL     1     -11.252  17.283  68.298  1.00  0.00    -0.187 OA 
BRANCH   3   5
HETATM    5  C   UNL     1     -10.364  14.974  68.125  1.00  0.00    -0.239 C  
BRANCH   5   6
HETATM    6  C   UNL     1     -10.907  14.045  66.968  1.00  0.00    -0.291 A  
HETATM    7  C   UNL     1     -10.637  12.314  65.254  1.00  0.00    -0.322 A  
HETATM    8  C   UNL     1     -12.239  14.196  66.525  1.00  0.00    -0.463 A  
HETATM    9  C   UNL     1     -10.122  13.079  66.308  1.00  0.00    -0.283 A  
HETATM   10  C   UNL     1     -12.752  13.436  65.468  1.00  0.00    -0.469 A  
HETATM   11  C   UNL     1     -11.949  12.495  64.833  1.00  0.00    -0.468 A  
ENDBRANCH   5   6
BRANCH   5  12
HETATM   12  C   UNL     1      -8.808  14.723  68.344  1.00  0.00    -0.181 C  
BRANCH  12  13
HETATM   13  C   UNL     1      -7.883  15.721  69.125  1.00  0.00    -0.227 C  
HETATM   14  C   UNL     1      -6.786  14.985  69.911  1.00  0.00    -0.170 C  
BRANCH  13  15
HETATM   15  N   UNL     1      -7.238  16.696  68.178  1.00  0.00    -0.153 NA 
HETATM   16  C   UNL     1      -7.009  18.023  68.763  1.00  0.00    -0.263 C  
HETATM   17  C   UNL     1      -5.952  16.210  67.651  1.00  0.00    -0.151 C  
ENDBRANCH  13  15
ENDBRANCH  12  13
ENDBRANCH   5  12
BRANCH   5  18
HETATM   18  C   UNL     1     -11.119  14.638  69.451  1.00  0.00    -0.293 A  
HETATM   19  C   UNL     1     -11.222  15.613  70.467  1.00  0.00    -0.382 A  
HETATM   20  C   UNL     1     -12.625  13.229  70.781  1.00  0.00    -0.357 A  
HETATM   21  C   UNL     1     -12.761  14.233  71.730  1.00  0.00    -0.428 A  
HETATM   22  C   UNL     1     -12.049  15.420  71.580  1.00  0.00    -0.449 A  
HETATM   23  C   UNL     1     -11.817  13.429  69.656  1.00  0.00    -0.394 A  
ENDBRANCH   5  18
ENDBRANCH   3   5
ENDBRANCH   2   3
TORSDOF 7
ENDMDL
MODEL       51
REMARK 921   NORMALIZED FREE ENERGY PREDICTED BY IDOCK:   -4.67 KCAL/MOL
REMARK 922        TOTAL FREE ENERGY PREDICTED BY IDOCK:   -7.84 KCAL/MOL
REMARK 923 INTER-LIGAND FREE ENERGY PREDICTED BY IDOCK:   -6.76 KCAL/MOL
REMARK 924 INTRA-LIGAND FREE ENERGY PREDICTED BY IDOCK:   -1.07 KCAL/MOL
REMARK 927      BINDING AFFINITY PREDICTED BY RF-SCORE:    0.00 PKD
ROOT
HETATM    1  C   UNL     1     -12.441  15.149  70.570  1.00  0.00    -0.429 C  
HETATM    2  C   UNL     1     -11.943  15.767  69.269  1.00  0.00    -0.305 C  
ENDROOT
BRANCH   2   3
HETATM    3  C   UNL     1     -10.435  15.613  69.123  1.00  0.00    -0.236 C  
HETATM    4  O   UNL     1      -9.770  15.391  70.144  1.00  0.00    -0.182 OA 
BRANCH   3   5
HETATM    5  C   UNL     1      -9.777  15.625  67.676  1.00  0.00    -0.225 C  
BRANCH   5   6
HETATM    6  C   UNL     1     -10.766  14.765  66.793  1.00  0.00    -0.309 A  
HETATM    7  C   UNL     1     -12.127  12.776  66.354  1.00  0.00    -0.370 A  
HETATM    8  C   UNL     1     -11.128  15.227  65.509  1.00  0.00    -0.330 A  
HETATM    9  C   UNL     1     -11.293  13.522  67.195  1.00  0.00    -0.346 A  
HETATM   10  C   UNL     1     -11.957  14.478  64.666  1.00  0.00    -0.478 A  
HETATM   11  C   UNL     1     -12.456  13.251  65.090  1.00  0.00    -0.525 A  
ENDBRANCH   5   6
BRANCH   5  12
HETATM   12  C   UNL     1      -9.670  17.104  67.096  1.00  0.00    -0.261 C  
BRANCH  12  13
HETATM   13  C   UNL     1      -9.838  18.385  67.985  1.00  0.00    -0.338 C  
HETATM   14  C   UNL     1      -8.492  18.869  68.549  1.00  0.00    -0.384 C  
BRANCH  13  15
HETATM   15  N   UNL     1     -10.468  19.499  67.193  1.00  0.00    -0.444 NA 
HETATM   16  C   UNL     1      -9.656  20.720  67.146  1.00  0.00    -0.325 C  
HETATM   17  C   UNL     1     -10.772  19.108  65.807  1.00  0.00    -0.307 C  
ENDBRANCH  13  15
ENDBRANCH  12  13
ENDBRANCH   5  12
BRANCH   5  18
HETATM   18  C   UNL     1      -8.359  14.969  67.646  1.00  0.00    -0.175 A  
HETATM   19  C   UNL     1      -7.209  15.785  67.576  1.00  0.00    -0.212 A  
HETATM   20  C   UNL     1      -6.862  13.048  67.942  1.00  0.00    -0.130 A  
HETATM   21  C   UNL     1      -5.754  13.884  67.938  1.00  0.00    -0.116 A  
HETATM   22  C   UNL     1      -5.926  15.251  67.741  1.00  0.00    -0.157 A  
HETATM   23  C   UNL     1      -8.147  13.583  67.801  1.00  0.00    -0.177 A  
ENDBRANCH   5  18
ENDBRANCH   3   5
ENDBRANCH   2   3
TORSDOF 7
ENDMDL
MODEL       52
REMARK 921   NORMALIZED FREE ENERGY PREDICTED BY IDOCK:   -4.63 KCAL/MOL
REMARK 922        TOTAL FREE ENERGY PREDICTED BY IDOCK:   -7.78 KCAL/MOL
REMARK 923 INTER-LIGAND FREE ENERGY PREDICTED BY IDOCK:   -7.93 KCAL/MOL
REMARK 924 INTRA-LIGAND FREE ENERGY PREDICTED BY IDOCK:    0.16 KCAL/MOL
REMARK 927      BINDING AFFINITY PREDICTED BY RF-SCORE:    0.00 PKD
ROOT
HETATM    1  C   UNL     1     -12.305  13.931  64.555  1.00  0.00    -0.408 C  
HETATM    2  C   UNL     1     -10.872  14.430  64.700  1.00  0.00    -0.363 C  
ENDROOT
BRANCH   2   3
HETATM    3  C   UNL     1     -10.833  15.885  65.145  1.00  0.00    -0.421 C  
HETATM    4  O   UNL     1     -11.478  16.713  64.487  1.00  0.00    -0.792 OA 
BRANCH   3   5
HETATM    5  C   UNL     1     -10.075  16.281  66.485  1.00  0.00    -0.301 C  
BRANCH   5   6
HETATM    6  C   UNL     1     -10.744  15.372  67.592  1.00  0.00    -0.292 A  
HETATM    7  C   UNL     1     -12.285  14.987  69.458  1.00  0.00    -0.267 A  
HETATM    8  C   UNL     1     -10.291  14.047  67.767  1.00  0.00    -0.236 A  
HETATM    9  C   UNL     1     -11.760  15.818  68.461  1.00  0.00    -0.328 A  
HETATM   10  C   UNL     1     -10.812  13.219  68.768  1.00  0.00    -0.273 A  
HETATM   11  C   UNL     1     -11.810  13.691  69.613  1.00  0.00    -0.396 A  
ENDBRANCH   5   6
BRANCH   5  12
HETATM   12  C   UNL     1      -8.517  15.969  66.389  1.00  0.00    -0.363 C  
BRANCH  12  13
HETATM   13  C   UNL     1      -7.445  16.682  67.285  1.00  0.00    -0.166 C  
HETATM   14  C   UNL     1      -7.532  16.225  68.750  1.00  0.00    -0.195 C  
BRANCH  13  15
HETATM   15  N   UNL     1      -6.059  16.411  66.767  1.00  0.00    -0.311 NA 
HETATM   16  C   UNL     1      -5.366  17.611  66.282  1.00  0.00    -0.194 C  
HETATM   17  C   UNL     1      -5.193  15.768  67.770  1.00  0.00    -0.120 C  
ENDBRANCH  13  15
ENDBRANCH  12  13
ENDBRANCH   5  12
BRANCH   5  18
HETATM   18  C   UNL     1     -10.264  17.783  66.872  1.00  0.00    -0.346 A  
HETATM   19  C   UNL     1     -10.177  18.176  68.225  1.00  0.00    -0.402 A  
HETATM   20  C   UNL     1     -10.403  20.162  66.288  1.00  0.00    -0.512 A  
HETATM   21  C   UNL     1     -10.247  20.520  67.620  1.00  0.00    -0.328 A  
HETATM   22  C   UNL     1     -10.148  19.527  68.591  1.00  0.00    -0.535 A  
HETATM   23  C   UNL     1     -10.409  18.813  65.919  1.00  0.00    -0.385 A  
ENDBRANCH   5  18
ENDBRANCH   3   5
ENDBRANCH   2   3
TORSDOF 7
ENDMDL
MODEL       53
REMARK 921   NORMALIZED FREE ENERGY PREDICTED BY IDOCK:   -4.63 KCAL/MOL
REMARK 922        TOTAL FREE ENERGY PREDICTED BY IDOCK:   -7.78 KCAL/MOL
REMARK 923 INTER-LIGAND FREE ENERGY PREDICTED BY IDOCK:   -6.55 KCAL/MOL
REMARK 924 INTRA-LIGAND FREE ENERGY PREDICTED BY IDOCK:   -1.23 KCAL/MOL
REMARK 927      BINDING AFFINITY PREDICTED BY RF-SCORE:    0.00 PKD
ROOT
HETATM    1  C   UNL     1     -11.691  15.689  70.983  1.00  0.00    -0.444 C  
HETATM    2  C   UNL     1     -12.036  15.384  69.530  1.00  0.00    -0.358 C  
ENDROOT
BRANCH   2   3
HETATM    3  C   UNL     1     -11.317  14.134  69.040  1.00  0.00    -0.275 C  
HETATM    4  O   UNL     1     -11.637  13.046  69.537  1.00  0.00    -0.283 OA 
BRANCH   3   5
HETATM    5  C   UNL     1     -10.277  14.240  67.842  1.00  0.00    -0.237 C  
BRANCH   5   6
HETATM    6  C   UNL     1      -9.845  15.761  67.837  1.00  0.00    -0.217 A  
HETATM    7  C   UNL     1      -8.417  17.624  68.538  1.00  0.00    -0.289 A  
HETATM    8  C   UNL     1     -10.628  16.700  67.132  1.00  0.00    -0.264 A  
HETATM    9  C   UNL     1      -8.728  16.259  68.535  1.00  0.00    -0.211 A  
HETATM   10  C   UNL     1     -10.321  18.066  67.141  1.00  0.00    -0.382 A  
HETATM   11  C   UNL     1      -9.214  18.527  67.845  1.00  0.00    -0.306 A  
ENDBRANCH   5   6
BRANCH   5  12
HETATM   12  C   UNL     1      -9.007  13.313  68.089  1.00  0.00    -0.195 C  
BRANCH  12  13
HETATM   13  C   UNL     1      -9.001  11.774  67.783  1.00  0.00    -0.173 C  
HETATM   14  C   UNL     1      -7.860  11.387  66.827  1.00  0.00    -0.157 C  
BRANCH  13  15
HETATM   15  N   UNL     1      -8.865  10.983  69.056  1.00  0.00    -0.110 NA 
HETATM   16  C   UNL     1      -9.937  10.000  69.256  1.00  0.00    -0.213 C  
HETATM   17  C   UNL     1      -7.580  10.269  69.146  1.00  0.00    -0.111 C  
ENDBRANCH  13  15
ENDBRANCH  12  13
ENDBRANCH   5  12
BRANCH   5  18
HETATM   18  C   UNL     1     -10.903  13.879  66.458  1.00  0.00    -0.295 A  
HETATM   19  C   UNL     1     -10.090  13.865  65.302  1.00  0.00    -0.328 A  
HETATM   20  C   UNL     1     -12.716  12.968  65.079  1.00  0.00    -0.475 A  
HETATM   21  C   UNL     1     -11.874  12.902  63.977  1.00  0.00    -0.512 A  
HETATM   22  C   UNL     1     -10.565  13.363  64.085  1.00  0.00    -0.257 A  
HETATM   23  C   UNL     1     -12.236  13.448  66.302  1.00  0.00    -0.456 A  
ENDBRANCH   5  18
ENDBRANCH   3   5
ENDBRANCH   2   3
TORSDOF 7
ENDMDL
MODEL       54
REMARK 921   NORMALIZED FREE ENERGY PREDICTED BY IDOCK:   -4.61 KCAL/MOL
REMARK 922        TOTAL FREE ENERGY PREDICTED BY IDOCK:   -7.76 KCAL/MOL
REMARK 923 INTER-LIGAND FREE ENERGY PREDICTED BY IDOCK:   -7.06 KCAL/MOL
REMARK 924 INTRA-LIGAND FREE ENERGY PREDICTED BY IDOCK:   -0.70 KCAL/MOL
REMARK 927      BINDING AFFINITY PREDICTED BY RF-SCORE:    0.00 PKD
ROOT
HETATM    1  C   UNL     1     -11.833  14.136  64.408  1.00  0.00    -0.447 C  
HETATM    2  C   UNL     1     -11.050  14.854  65.501  1.00  0.00    -0.353 C  
ENDROOT
BRANCH   2   3
HETATM    3  C   UNL     1     -11.435  14.347  66.885  1.00  0.00    -0.366 C  
HETATM    4  O   UNL     1     -12.381  13.551  66.971  1.00  0.00    -0.335 OA 
BRANCH   3   5
HETATM    5  C   UNL     1     -10.559  14.754  68.147  1.00  0.00    -0.241 C  
BRANCH   5   6
HETATM    6  C   UNL     1     -11.548  14.600  69.371  1.00  0.00    -0.342 A  
HETATM    7  C   UNL     1     -13.006  15.502  71.121  1.00  0.00    -0.560 A  
HETATM    8  C   UNL     1     -11.803  13.316  69.899  1.00  0.00    -0.380 A  
HETATM    9  C   UNL     1     -12.177  15.688  70.008  1.00  0.00    -0.351 A  
HETATM   10  C   UNL     1     -12.626  13.132  71.015  1.00  0.00    -0.397 A  
HETATM   11  C   UNL     1     -13.228  14.227  71.625  1.00  0.00    -0.429 A  
ENDBRANCH   5   6
BRANCH   5  12
HETATM   12  C   UNL     1      -9.310  13.783  68.328  1.00  0.00    -0.209 C  
BRANCH  12  13
HETATM   13  C   UNL     1      -8.577  13.101  67.120  1.00  0.00    -0.192 C  
HETATM   14  C   UNL     1      -7.075  12.918  67.395  1.00  0.00    -0.130 C  
BRANCH  13  15
HETATM   15  N   UNL     1      -9.188  11.759  66.821  1.00  0.00    -0.188 NA 
HETATM   16  C   UNL     1      -8.341  10.898  65.987  1.00  0.00    -0.165 C  
HETATM   17  C   UNL     1      -9.531  11.007  68.039  1.00  0.00    -0.166 C  
ENDBRANCH  13  15
ENDBRANCH  12  13
ENDBRANCH   5  12
BRANCH   5  18
HETATM   18  C   UNL     1     -10.046  16.228  68.083  1.00  0.00    -0.244 A  
HETATM   19  C   UNL     1     -10.903  17.249  67.618  1.00  0.00    -0.238 A  
HETATM   20  C   UNL     1      -8.428  17.979  68.664  1.00  0.00    -0.277 A  
HETATM   21  C   UNL     1      -9.319  18.965  68.262  1.00  0.00    -0.384 A  
HETATM   22  C   UNL     1     -10.551  18.600  67.726  1.00  0.00    -0.433 A  
HETATM   23  C   UNL     1      -8.788  16.629  68.578  1.00  0.00    -0.235 A  
ENDBRANCH   5  18
ENDBRANCH   3   5
ENDBRANCH   2   3
TORSDOF 7
ENDMDL
MODEL       55
REMARK 921   NORMALIZED FREE ENERGY PREDICTED BY IDOCK:   -4.61 KCAL/MOL
REMARK 922        TOTAL FREE ENERGY PREDICTED BY IDOCK:   -7.75 KCAL/MOL
REMARK 923 INTER-LIGAND FREE ENERGY PREDICTED BY IDOCK:   -6.67 KCAL/MOL
REMARK 924 INTRA-LIGAND FREE ENERGY PREDICTED BY IDOCK:   -1.09 KCAL/MOL
REMARK 927      BINDING AFFINITY PREDICTED BY RF-SCORE:    0.00 PKD
ROOT
HETATM    1  C   UNL     1     -12.371  14.357  64.353  1.00  0.00    -0.428 C  
HETATM    2  C   UNL     1     -12.485  13.022  65.081  1.00  0.00    -0.552 C  
ENDROOT
BRANCH   2   3
HETATM    3  C   UNL     1     -11.180  12.240  65.013  1.00  0.00    -0.321 C  
HETATM    4  O   UNL     1     -10.559  12.233  63.941  1.00  0.00    -0.354 OA 
BRANCH   3   5
HETATM    5  C   UNL     1     -10.598  11.560  66.327  1.00  0.00    -0.309 C  
BRANCH   5   6
HETATM    6  C   UNL     1      -9.391  12.493  66.744  1.00  0.00    -0.230 A  
HETATM    7  C   UNL     1      -7.170  12.886  67.701  1.00  0.00    -0.147 A  
HETATM    8  C   UNL     1      -9.512  13.891  66.594  1.00  0.00    -0.296 A  
HETATM    9  C   UNL     1      -8.190  12.013  67.303  1.00  0.00    -0.173 A  
HETATM   10  C   UNL     1      -8.496  14.763  66.999  1.00  0.00    -0.250 A  
HETATM   11  C   UNL     1      -7.324  14.259  67.552  1.00  0.00    -0.199 A  
ENDBRANCH   5   6
BRANCH   5  12
HETATM   12  C   UNL     1     -11.683  11.517  67.491  1.00  0.00    -0.262 C  
BRANCH  12  13
HETATM   13  C   UNL     1     -11.342  11.833  68.990  1.00  0.00    -0.278 C  
HETATM   14  C   UNL     1     -11.868  13.214  69.414  1.00  0.00    -0.383 C  
BRANCH  13  15
HETATM   15  N   UNL     1     -11.927  10.785  69.897  1.00  0.00    -0.321 NA 
HETATM   16  C   UNL     1     -10.924   9.887  70.483  1.00  0.00    -0.326 C  
HETATM   17  C   UNL     1     -12.711  11.363  71.001  1.00  0.00    -0.349 C  
ENDBRANCH  13  15
ENDBRANCH  12  13
ENDBRANCH   5  12
BRANCH   5  18
HETATM   18  C   UNL     1     -10.066  10.112  66.081  1.00  0.00    -0.314 A  
HETATM   19  C   UNL     1      -9.079   9.886  65.097  1.00  0.00    -0.257 A  
HETATM   20  C   UNL     1      -9.817   7.762  66.738  1.00  0.00    -0.312 A  
HETATM   21  C   UNL     1      -8.800   7.588  65.809  1.00  0.00    -0.122 A  
HETATM   22  C   UNL     1      -8.440   8.645  64.979  1.00  0.00    -0.192 A  
HETATM   23  C   UNL     1     -10.439   9.007  66.874  1.00  0.00    -0.293 A  
ENDBRANCH   5  18
ENDBRANCH   3   5
ENDBRANCH   2   3
TORSDOF 7
ENDMDL
MODEL       56
REMARK 921   NORMALIZED FREE ENERGY PREDICTED BY IDOCK:   -4.61 KCAL/MOL
REMARK 922        TOTAL FREE ENERGY PREDICTED BY IDOCK:   -7.75 KCAL/MOL
REMARK 923 INTER-LIGAND FREE ENERGY PREDICTED BY IDOCK:   -6.84 KCAL/MOL
REMARK 924 INTRA-LIGAND FREE ENERGY PREDICTED BY IDOCK:   -0.91 KCAL/MOL
REMARK 927      BINDING AFFINITY PREDICTED BY RF-SCORE:    0.00 PKD
ROOT
HETATM    1  C   UNL     1      -9.995   7.086  66.836  1.00  0.00    -0.283 C  
HETATM    2  C   UNL     1     -10.748   8.377  67.139  1.00  0.00    -0.222 C  
ENDROOT
BRANCH   2   3
HETATM    3  C   UNL     1      -9.892   9.601  66.845  1.00  0.00    -0.200 C  
HETATM    4  O   UNL     1      -8.824   9.434  66.239  1.00  0.00    -0.138 OA 
BRANCH   3   5
HETATM    5  C   UNL     1     -10.434  11.050  67.212  1.00  0.00    -0.270 C  
BRANCH   5   6
HETATM    6  C   UNL     1     -10.930  11.639  65.831  1.00  0.00    -0.334 A  
HETATM    7  C   UNL     1     -10.755  11.958  63.409  1.00  0.00    -0.476 A  
HETATM    8  C   UNL     1     -12.035  12.517  65.810  1.00  0.00    -0.482 A  
HETATM    9  C   UNL     1     -10.305  11.370  64.597  1.00  0.00    -0.362 A  
HETATM   10  C   UNL     1     -12.479  13.109  64.623  1.00  0.00    -0.433 A  
HETATM   11  C   UNL     1     -11.838  12.828  63.421  1.00  0.00    -0.591 A  
ENDBRANCH   5   6
BRANCH   5  12
HETATM   12  C   UNL     1     -11.645  10.976  68.242  1.00  0.00    -0.354 C  
BRANCH  12  13
HETATM   13  C   UNL     1     -11.480  11.262  69.776  1.00  0.00    -0.310 C  
HETATM   14  C   UNL     1     -11.949  12.678  70.146  1.00  0.00    -0.375 C  
BRANCH  13  15
HETATM   15  N   UNL     1     -12.257  10.259  70.586  1.00  0.00    -0.310 NA 
HETATM   16  C   UNL     1     -11.425   9.198  71.166  1.00  0.00    -0.318 C  
HETATM   17  C   UNL     1     -13.017  10.882  71.682  1.00  0.00    -0.464 C  
ENDBRANCH  13  15
ENDBRANCH  12  13
ENDBRANCH   5  12
BRANCH   5  18
HETATM   18  C   UNL     1      -9.328  11.983  67.801  1.00  0.00    -0.190 A  
HETATM   19  C   UNL     1      -8.224  11.421  68.479  1.00  0.00    -0.153 A  
HETATM   20  C   UNL     1      -8.214  14.161  67.987  1.00  0.00    -0.152 A  
HETATM   21  C   UNL     1      -7.112  13.570  68.590  1.00  0.00    -0.106 A  
HETATM   22  C   UNL     1      -7.122  12.202  68.849  1.00  0.00    -0.098 A  
HETATM   23  C   UNL     1      -9.305  13.378  67.595  1.00  0.00    -0.217 A  
ENDBRANCH   5  18
ENDBRANCH   3   5
ENDBRANCH   2   3
TORSDOF 7
ENDMDL
MODEL       57
REMARK 921   NORMALIZED FREE ENERGY PREDICTED BY IDOCK:   -4.58 KCAL/MOL
REMARK 922        TOTAL FREE ENERGY PREDICTED BY IDOCK:   -7.71 KCAL/MOL
REMARK 923 INTER-LIGAND FREE ENERGY PREDICTED BY IDOCK:   -7.06 KCAL/MOL
REMARK 924 INTRA-LIGAND FREE ENERGY PREDICTED BY IDOCK:   -0.65 KCAL/MOL
REMARK 927      BINDING AFFINITY PREDICTED BY RF-SCORE:    0.00 PKD
ROOT
HETATM    1  C   UNL     1     -10.505   8.847  69.299  1.00  0.00    -0.234 C  
HETATM    2  C   UNL     1     -10.563  10.219  69.961  1.00  0.00    -0.321 C  
ENDROOT
BRANCH   2   3
HETATM    3  C   UNL     1     -11.539  11.142  69.244  1.00  0.00    -0.318 C  
HETATM    4  O   UNL     1     -12.743  10.852  69.274  1.00  0.00    -0.282 OA 
BRANCH   3   5
HETATM    5  C   UNL     1     -11.013  12.490  68.586  1.00  0.00    -0.291 C  
BRANCH   5   6
HETATM    6  C   UNL     1     -11.591  13.628  69.519  1.00  0.00    -0.361 A  
HETATM    7  C   UNL     1     -11.696  15.937  70.330  1.00  0.00    -0.352 A  
HETATM    8  C   UNL     1     -12.536  13.295  70.513  1.00  0.00    -0.259 A  
HETATM    9  C   UNL     1     -11.189  14.976  69.447  1.00  0.00    -0.299 A  
HETATM   10  C   UNL     1     -13.038  14.254  71.399  1.00  0.00    -0.421 A  
HETATM   11  C   UNL     1     -12.616  15.576  71.307  1.00  0.00    -0.509 A  
ENDBRANCH   5   6
BRANCH   5  12
HETATM   12  C   UNL     1      -9.422  12.550  68.571  1.00  0.00    -0.100 C  
BRANCH  12  13
HETATM   13  C   UNL     1      -8.595  12.972  67.307  1.00  0.00    -0.206 C  
HETATM   14  C   UNL     1      -8.028  14.394  67.445  1.00  0.00    -0.220 C  
BRANCH  13  15
HETATM   15  N   UNL     1      -7.460  12.011  67.074  1.00  0.00    -0.136 NA 
HETATM   16  C   UNL     1      -6.247  12.336  67.834  1.00  0.00    -0.089 C  
HETATM   17  C   UNL     1      -7.823  10.618  67.382  1.00  0.00    -0.110 C  
ENDBRANCH  13  15
ENDBRANCH  12  13
ENDBRANCH   5  12
BRANCH   5  18
HETATM   18  C   UNL     1     -11.538  12.703  67.130  1.00  0.00    -0.434 A  
HETATM   19  C   UNL     1     -12.222  13.893  66.798  1.00  0.00    -0.438 A  
HETATM   20  C   UNL     1     -11.604  12.112  64.750  1.00  0.00    -0.380 A  
HETATM   21  C   UNL     1     -12.214  13.321  64.445  1.00  0.00    -0.449 A  
HETATM   22  C   UNL     1     -12.536  14.206  65.470  1.00  0.00    -0.495 A  
HETATM   23  C   UNL     1     -11.268  11.809  66.074  1.00  0.00    -0.352 A  
ENDBRANCH   5  18
ENDBRANCH   3   5
ENDBRANCH   2   3
TORSDOF 7
ENDMDL
MODEL       58
REMARK 921   NORMALIZED FREE ENERGY PREDICTED BY IDOCK:   -4.58 KCAL/MOL
REMARK 922        TOTAL FREE ENERGY PREDICTED BY IDOCK:   -7.71 KCAL/MOL
REMARK 923 INTER-LIGAND FREE ENERGY PREDICTED BY IDOCK:   -6.87 KCAL/MOL
REMARK 924 INTRA-LIGAND FREE ENERGY PREDICTED BY IDOCK:   -0.84 KCAL/MOL
REMARK 927      BINDING AFFINITY PREDICTED BY RF-SCORE:    0.00 PKD
ROOT
HETATM    1  C   UNL     1     -10.749  13.092  64.290  1.00  0.00    -0.430 C  
HETATM    2  C   UNL     1     -10.363  14.384  65.001  1.00  0.00    -0.449 C  
ENDROOT
BRANCH   2   3
HETATM    3  C   UNL     1     -11.326  14.702  66.137  1.00  0.00    -0.350 C  
HETATM    4  O   UNL     1     -12.530  14.466  65.963  1.00  0.00    -0.391 OA 
BRANCH   3   5
HETATM    5  C   UNL     1     -10.761  15.211  67.533  1.00  0.00    -0.284 C  
BRANCH   5   6
HETATM    6  C   UNL     1     -10.596  16.772  67.339  1.00  0.00    -0.291 A  
HETATM    7  C   UNL     1     -10.337  18.781  65.962  1.00  0.00    -0.467 A  
HETATM    8  C   UNL     1     -10.465  17.601  68.473  1.00  0.00    -0.337 A  
HETATM    9  C   UNL     1     -10.533  17.400  66.079  1.00  0.00    -0.278 A  
HETATM   10  C   UNL     1     -10.262  18.980  68.355  1.00  0.00    -0.450 A  
HETATM   11  C   UNL     1     -10.198  19.570  67.097  1.00  0.00    -0.542 A  
ENDBRANCH   5   6
BRANCH   5  12
HETATM   12  C   UNL     1     -11.779  14.912  68.719  1.00  0.00    -0.353 C  
BRANCH  12  13
HETATM   13  C   UNL     1     -11.352  14.206  70.054  1.00  0.00    -0.134 C  
HETATM   14  C   UNL     1     -11.294  15.196  71.228  1.00  0.00    -0.368 C  
BRANCH  13  15
HETATM   15  N   UNL     1     -12.309  13.096  70.393  1.00  0.00    -0.312 NA 
HETATM   16  C   UNL     1     -11.814  11.761  70.036  1.00  0.00    -0.342 C  
HETATM   17  C   UNL     1     -12.670  13.074  71.821  1.00  0.00    -0.156 C  
ENDBRANCH  13  15
ENDBRANCH  12  13
ENDBRANCH   5  12
BRANCH   5  18
HETATM   18  C   UNL     1      -9.373  14.590  67.891  1.00  0.00    -0.201 A  
HETATM   19  C   UNL     1      -8.382  15.390  68.500  1.00  0.00    -0.151 A  
HETATM   20  C   UNL     1      -7.893  12.662  68.232  1.00  0.00    -0.144 A  
HETATM   21  C   UNL     1      -6.967  13.462  68.888  1.00  0.00    -0.102 A  
HETATM   22  C   UNL     1      -7.205  14.828  69.010  1.00  0.00    -0.135 A  
HETATM   23  C   UNL     1      -9.080  13.218  67.743  1.00  0.00    -0.202 A  
ENDBRANCH   5  18
ENDBRANCH   3   5
ENDBRANCH   2   3
TORSDOF 7
ENDMDL
MODEL       59
REMARK 921   NORMALIZED FREE ENERGY PREDICTED BY IDOCK:   -4.57 KCAL/MOL
REMARK 922        TOTAL FREE ENERGY PREDICTED BY IDOCK:   -7.70 KCAL/MOL
REMARK 923 INTER-LIGAND FREE ENERGY PREDICTED BY IDOCK:   -6.98 KCAL/MOL
REMARK 924 INTRA-LIGAND FREE ENERGY PREDICTED BY IDOCK:   -0.72 KCAL/MOL
REMARK 927      BINDING AFFINITY PREDICTED BY RF-SCORE:    0.00 PKD
ROOT
HETATM    1  C   UNL     1     -11.626  13.630  64.697  1.00  0.00    -0.393 C  
HETATM    2  C   UNL     1     -10.278  14.218  65.096  1.00  0.00    -0.414 C  
ENDROOT
BRANCH   2   3
HETATM    3  C   UNL     1     -10.409  15.678  65.508  1.00  0.00    -0.396 C  
HETATM    4  O   UNL     1     -11.195  16.394  64.871  1.00  0.00    -0.388 OA 
BRANCH   3   5
HETATM    5  C   UNL     1      -9.638  16.209  66.792  1.00  0.00    -0.256 C  
BRANCH   5   6
HETATM    6  C   UNL     1     -10.552  15.766  68.004  1.00  0.00    -0.279 A  
HETATM    7  C   UNL     1     -12.383  14.474  68.994  1.00  0.00    -0.122 A  
HETATM    8  C   UNL     1     -10.387  16.388  69.260  1.00  0.00    -0.292 A  
HETATM    9  C   UNL     1     -11.568  14.795  67.902  1.00  0.00    -0.373 A  
HETATM   10  C   UNL     1     -11.206  16.072  70.349  1.00  0.00    -0.401 A  
HETATM   11  C   UNL     1     -12.205  15.113  70.215  1.00  0.00    -0.395 A  
ENDBRANCH   5   6
BRANCH   5  12
HETATM   12  C   UNL     1      -8.197  15.546  66.923  1.00  0.00    -0.287 C  
BRANCH  12  13
HETATM   13  C   UNL     1      -7.865  14.422  67.966  1.00  0.00    -0.140 C  
HETATM   14  C   UNL     1      -6.974  13.326  67.358  1.00  0.00    -0.105 C  
BRANCH  13  15
HETATM   15  N   UNL     1      -7.175  15.005  69.169  1.00  0.00    -0.145 NA 
HETATM   16  C   UNL     1      -6.355  14.036  69.905  1.00  0.00    -0.128 C  
HETATM   17  C   UNL     1      -6.317  16.153  68.831  1.00  0.00    -0.129 C  
ENDBRANCH  13  15
ENDBRANCH  12  13
ENDBRANCH   5  12
BRANCH   5  18
HETATM   18  C   UNL     1      -9.481  17.763  66.810  1.00  0.00    -0.289 A  
HETATM   19  C   UNL     1     -10.629  18.584  66.859  1.00  0.00    -0.406 A  
HETATM   20  C   UNL     1      -8.132  19.795  67.082  1.00  0.00    -0.327 A  
HETATM   21  C   UNL     1      -9.280  20.567  67.195  1.00  0.00    -0.485 A  
HETATM   22  C   UNL     1     -10.529  19.965  67.070  1.00  0.00    -0.570 A  
HETATM   23  C   UNL     1      -8.232  18.412  66.895  1.00  0.00    -0.258 A  
ENDBRANCH   5  18
ENDBRANCH   3   5
ENDBRANCH   2   3
TORSDOF 7
ENDMDL
MODEL       60
REMARK 921   NORMALIZED FREE ENERGY PREDICTED BY IDOCK:   -4.56 KCAL/MOL
REMARK 922        TOTAL FREE ENERGY PREDICTED BY IDOCK:   -7.68 KCAL/MOL
REMARK 923 INTER-LIGAND FREE ENERGY PREDICTED BY IDOCK:   -7.10 KCAL/MOL
REMARK 924 INTRA-LIGAND FREE ENERGY PREDICTED BY IDOCK:   -0.58 KCAL/MOL
REMARK 927      BINDING AFFINITY PREDICTED BY RF-SCORE:    0.00 PKD
ROOT
HETATM    1  C   UNL     1     -12.544  13.006  70.743  1.00  0.00    -0.321 C  
HETATM    2  C   UNL     1     -11.462  13.420  69.752  1.00  0.00    -0.236 C  
ENDROOT
BRANCH   2   3
HETATM    3  C   UNL     1     -11.631  14.870  69.320  1.00  0.00    -0.306 C  
HETATM    4  O   UNL     1     -12.541  15.531  69.840  1.00  0.00    -0.300 OA 
BRANCH   3   5
HETATM    5  C   UNL     1     -10.583  15.523  68.318  1.00  0.00    -0.255 C  
BRANCH   5   6
HETATM    6  C   UNL     1     -11.130  15.144  66.884  1.00  0.00    -0.314 A  
HETATM    7  C   UNL     1     -11.288  15.456  64.459  1.00  0.00    -0.321 A  
HETATM    8  C   UNL     1     -12.096  14.123  66.758  1.00  0.00    -0.474 A  
HETATM    9  C   UNL     1     -10.736  15.798  65.700  1.00  0.00    -0.360 A  
HETATM   10  C   UNL     1     -12.652  13.787  65.519  1.00  0.00    -0.551 A  
HETATM   11  C   UNL     1     -12.247  14.455  64.369  1.00  0.00    -0.481 A  
ENDBRANCH   5   6
BRANCH   5  12
HETATM   12  C   UNL     1     -10.527  17.105  68.482  1.00  0.00    -0.377 C  
BRANCH  12  13
HETATM   13  C   UNL     1     -10.040  18.065  67.340  1.00  0.00    -0.349 C  
HETATM   14  C   UNL     1     -10.852  19.370  67.307  1.00  0.00    -0.561 C  
BRANCH  13  15
HETATM   15  N   UNL     1      -8.583  18.398  67.517  1.00  0.00    -0.256 NA 
HETATM   16  C   UNL     1      -7.733  17.924  66.418  1.00  0.00    -0.276 C  
HETATM   17  C   UNL     1      -8.345  19.843  67.676  1.00  0.00    -0.321 C  
ENDBRANCH  13  15
ENDBRANCH  12  13
ENDBRANCH   5  12
BRANCH   5  18
HETATM   18  C   UNL     1      -9.141  14.948  68.486  1.00  0.00    -0.191 A  
HETATM   19  C   UNL     1      -8.260  15.525  69.426  1.00  0.00    -0.247 A  
HETATM   20  C   UNL     1      -7.456  13.201  68.121  1.00  0.00    -0.131 A  
HETATM   21  C   UNL     1      -6.641  13.754  69.099  1.00  0.00    -0.112 A  
HETATM   22  C   UNL     1      -7.036  14.923  69.742  1.00  0.00    -0.175 A  
HETATM   23  C   UNL     1      -8.690  13.789  67.820  1.00  0.00    -0.182 A  
ENDBRANCH   5  18
ENDBRANCH   3   5
ENDBRANCH   2   3
TORSDOF 7
ENDMDL
MODEL       61
REMARK 921   NORMALIZED FREE ENERGY PREDICTED BY IDOCK:   -4.56 KCAL/MOL
REMARK 922        TOTAL FREE ENERGY PREDICTED BY IDOCK:   -7.68 KCAL/MOL
REMARK 923 INTER-LIGAND FREE ENERGY PREDICTED BY IDOCK:   -6.68 KCAL/MOL
REMARK 924 INTRA-LIGAND FREE ENERGY PREDICTED BY IDOCK:   -1.00 KCAL/MOL
REMARK 927      BINDING AFFINITY PREDICTED BY RF-SCORE:    0.00 PKD
ROOT
HETATM    1  C   UNL     1     -12.290  13.210  70.627  1.00  0.00    -0.405 C  
HETATM    2  C   UNL     1     -11.922  13.596  69.199  1.00  0.00    -0.394 C  
ENDROOT
BRANCH   2   3
HETATM    3  C   UNL     1     -11.504  12.379  68.385  1.00  0.00    -0.310 C  
HETATM    4  O   UNL     1     -12.235  11.378  68.416  1.00  0.00    -0.571 OA 
BRANCH   3   5
HETATM    5  C   UNL     1     -10.228  12.461  67.440  1.00  0.00    -0.215 C  
BRANCH   5   6
HETATM    6  C   UNL     1     -10.821  12.367  65.978  1.00  0.00    -0.308 A  
HETATM    7  C   UNL     1     -12.612  12.649  64.330  1.00  0.00    -0.470 A  
HETATM    8  C   UNL     1     -10.046  11.786  64.952  1.00  0.00    -0.298 A  
HETATM    9  C   UNL     1     -12.116  12.800  65.631  1.00  0.00    -0.514 A  
HETATM   10  C   UNL     1     -10.544  11.629  63.654  1.00  0.00    -0.493 A  
HETATM   11  C   UNL     1     -11.829  12.062  63.344  1.00  0.00    -0.542 A  
ENDBRANCH   5   6
BRANCH   5  12
HETATM   12  C   UNL     1      -9.451  13.837  67.628  1.00  0.00    -0.217 C  
BRANCH  12  13
HETATM   13  C   UNL     1      -9.412  14.953  66.526  1.00  0.00    -0.283 C  
HETATM   14  C   UNL     1     -10.520  15.998  66.734  1.00  0.00    -0.308 C  
BRANCH  13  15
HETATM   15  N   UNL     1      -8.076  15.647  66.525  1.00  0.00    -0.211 NA 
HETATM   16  C   UNL     1      -8.144  17.055  66.115  1.00  0.00    -0.257 C  
HETATM   17  C   UNL     1      -7.407  15.593  67.835  1.00  0.00    -0.137 C  
ENDBRANCH  13  15
ENDBRANCH  12  13
ENDBRANCH   5  12
BRANCH   5  18
HETATM   18  C   UNL     1      -9.228  11.282  67.665  1.00  0.00    -0.156 A  
HETATM   19  C   UNL     1      -9.718   9.971  67.850  1.00  0.00    -0.168 A  
HETATM   20  C   UNL     1      -6.967  10.329  67.616  1.00  0.00    -0.084 A  
HETATM   21  C   UNL     1      -7.483   9.045  67.730  1.00  0.00    -0.085 A  
HETATM   22  C   UNL     1      -8.857   8.867  67.861  1.00  0.00    -0.133 A  
HETATM   23  C   UNL     1      -7.828  11.432  67.581  1.00  0.00    -0.122 A  
ENDBRANCH   5  18
ENDBRANCH   3   5
ENDBRANCH   2   3
TORSDOF 7
ENDMDL
MODEL       62
REMARK 921   NORMALIZED FREE ENERGY PREDICTED BY IDOCK:   -4.54 KCAL/MOL
REMARK 922        TOTAL FREE ENERGY PREDICTED BY IDOCK:   -7.65 KCAL/MOL
REMARK 923 INTER-LIGAND FREE ENERGY PREDICTED BY IDOCK:   -6.90 KCAL/MOL
REMARK 924 INTRA-LIGAND FREE ENERGY PREDICTED BY IDOCK:   -0.75 KCAL/MOL
REMARK 927      BINDING AFFINITY PREDICTED BY RF-SCORE:    0.00 PKD
ROOT
HETATM    1  C   UNL     1     -12.125  13.944  64.238  1.00  0.00    -0.477 C  
HETATM    2  C   UNL     1     -12.598  14.057  65.683  1.00  0.00    -0.542 C  
ENDROOT
BRANCH   2   3
HETATM    3  C   UNL     1     -11.994  12.962  66.552  1.00  0.00    -0.377 C  
HETATM    4  O   UNL     1     -12.210  11.783  66.238  1.00  0.00    -0.344 OA 
BRANCH   3   5
HETATM    5  C   UNL     1     -11.023  13.350  67.749  1.00  0.00    -0.281 C  
BRANCH   5   6
HETATM    6  C   UNL     1      -9.698  12.541  67.452  1.00  0.00    -0.194 A  
HETATM    7  C   UNL     1      -7.466  11.720  68.042  1.00  0.00    -0.101 A  
HETATM    8  C   UNL     1      -9.522  11.941  66.186  1.00  0.00    -0.243 A  
HETATM    9  C   UNL     1      -8.641  12.407  68.373  1.00  0.00    -0.129 A  
HETATM   10  C   UNL     1      -8.345  11.261  65.854  1.00  0.00    -0.023 A  
HETATM   11  C   UNL     1      -7.317  11.151  66.784  1.00  0.00    -0.146 A  
ENDBRANCH   5   6
BRANCH   5  12
HETATM   12  C   UNL     1     -10.717  14.912  67.769  1.00  0.00    -0.271 C  
BRANCH  12  13
HETATM   13  C   UNL     1      -9.285  15.506  67.528  1.00  0.00    -0.198 C  
HETATM   14  C   UNL     1      -9.247  16.421  66.294  1.00  0.00    -0.350 C  
BRANCH  13  15
HETATM   15  N   UNL     1      -8.827  16.285  68.732  1.00  0.00    -0.232 NA 
HETATM   16  C   UNL     1      -7.805  15.594  69.528  1.00  0.00    -0.180 C  
HETATM   17  C   UNL     1      -8.298  17.614  68.380  1.00  0.00    -0.290 C  
ENDBRANCH  13  15
ENDBRANCH  12  13
ENDBRANCH   5  12
BRANCH   5  18
HETATM   18  C   UNL     1     -11.579  12.928  69.146  1.00  0.00    -0.375 A  
HETATM   19  C   UNL     1     -12.057  13.913  70.038  1.00  0.00    -0.411 A  
HETATM   20  C   UNL     1     -12.401  11.237  70.722  1.00  0.00    -0.495 A  
HETATM   21  C   UNL     1     -12.921  12.226  71.546  1.00  0.00    -0.390 A  
HETATM   22  C   UNL     1     -12.737  13.565  71.211  1.00  0.00    -0.432 A  
HETATM   23  C   UNL     1     -11.742  11.583  69.538  1.00  0.00    -0.413 A  
ENDBRANCH   5  18
ENDBRANCH   3   5
ENDBRANCH   2   3
TORSDOF 7
ENDMDL
MODEL       63
REMARK 921   NORMALIZED FREE ENERGY PREDICTED BY IDOCK:   -4.54 KCAL/MOL
REMARK 922        TOTAL FREE ENERGY PREDICTED BY IDOCK:   -7.65 KCAL/MOL
REMARK 923 INTER-LIGAND FREE ENERGY PREDICTED BY IDOCK:   -6.41 KCAL/MOL
REMARK 924 INTRA-LIGAND FREE ENERGY PREDICTED BY IDOCK:   -1.24 KCAL/MOL
REMARK 927      BINDING AFFINITY PREDICTED BY RF-SCORE:    0.00 PKD
ROOT
HETATM    1  C   UNL     1     -12.213  13.007  70.085  1.00  0.00    -0.342 C  
HETATM    2  C   UNL     1     -11.880  13.287  68.624  1.00  0.00    -0.380 C  
ENDROOT
BRANCH   2   3
HETATM    3  C   UNL     1     -10.700  14.241  68.496  1.00  0.00    -0.255 C  
HETATM    4  O   UNL     1     -10.334  14.853  69.509  1.00  0.00    -0.211 OA 
BRANCH   3   5
HETATM    5  C   UNL     1      -9.909  14.339  67.121  1.00  0.00    -0.252 C  
BRANCH   5   6
HETATM    6  C   UNL     1      -9.645  15.886  66.935  1.00  0.00    -0.242 A  
HETATM    7  C   UNL     1     -10.321  18.239  67.026  1.00  0.00    -0.408 A  
HETATM    8  C   UNL     1      -8.420  16.318  66.383  1.00  0.00    -0.365 A  
HETATM    9  C   UNL     1     -10.586  16.884  67.256  1.00  0.00    -0.270 A  
HETATM   10  C   UNL     1      -8.157  17.672  66.147  1.00  0.00    -0.228 A  
HETATM   11  C   UNL     1      -9.110  18.632  66.469  1.00  0.00    -0.317 A  
ENDBRANCH   5   6
BRANCH   5  12
HETATM   12  C   UNL     1      -8.528  13.551  67.185  1.00  0.00    -0.177 C  
BRANCH  12  13
HETATM   13  C   UNL     1      -8.119  12.641  68.396  1.00  0.00    -0.137 C  
HETATM   14  C   UNL     1      -8.223  11.147  68.047  1.00  0.00    -0.125 C  
BRANCH  13  15
HETATM   15  N   UNL     1      -6.712  12.946  68.835  1.00  0.00    -0.094 NA 
HETATM   16  C   UNL     1      -6.547  14.295  69.388  1.00  0.00    -0.132 C  
HETATM   17  C   UNL     1      -6.208  11.987  69.832  1.00  0.00    -0.130 C  
ENDBRANCH  13  15
ENDBRANCH  12  13
ENDBRANCH   5  12
BRANCH   5  18
HETATM   18  C   UNL     1     -10.735  13.809  65.905  1.00  0.00    -0.285 A  
HETATM   19  C   UNL     1     -11.707  14.637  65.303  1.00  0.00    -0.346 A  
HETATM   20  C   UNL     1     -11.123  12.198  64.095  1.00  0.00    -0.424 A  
HETATM   21  C   UNL     1     -12.024  13.063  63.490  1.00  0.00    -0.615 A  
HETATM   22  C   UNL     1     -12.327  14.277  64.100  1.00  0.00    -0.361 A  
HETATM   23  C   UNL     1     -10.485  12.567  65.285  1.00  0.00    -0.313 A  
ENDBRANCH   5  18
ENDBRANCH   3   5
ENDBRANCH   2   3
TORSDOF 7
ENDMDL
MODEL       64
REMARK 921   NORMALIZED FREE ENERGY PREDICTED BY IDOCK:   -4.53 KCAL/MOL
REMARK 922        TOTAL FREE ENERGY PREDICTED BY IDOCK:   -7.63 KCAL/MOL
REMARK 923 INTER-LIGAND FREE ENERGY PREDICTED BY IDOCK:   -6.76 KCAL/MOL
REMARK 924 INTRA-LIGAND FREE ENERGY PREDICTED BY IDOCK:   -0.88 KCAL/MOL
REMARK 927      BINDING AFFINITY PREDICTED BY RF-SCORE:    0.00 PKD
ROOT
HETATM    1  C   UNL     1     -12.481  15.646  71.294  1.00  0.00    -0.503 C  
HETATM    2  C   UNL     1     -11.487  14.688  70.648  1.00  0.00    -0.256 C  
ENDROOT
BRANCH   2   3
HETATM    3  C   UNL     1     -11.595  14.717  69.130  1.00  0.00    -0.301 C  
HETATM    4  O   UNL     1     -12.406  15.501  68.618  1.00  0.00    -0.060 OA 
BRANCH   3   5
HETATM    5  C   UNL     1     -10.600  13.842  68.251  1.00  0.00    -0.263 C  
BRANCH   5   6
HETATM    6  C   UNL     1     -11.249  13.848  66.809  1.00  0.00    -0.328 A  
HETATM    7  C   UNL     1     -12.556  12.831  65.004  1.00  0.00    -0.538 A  
HETATM    8  C   UNL     1     -11.001  14.934  65.943  1.00  0.00    -0.338 A  
HETATM    9  C   UNL     1     -12.045  12.800  66.307  1.00  0.00    -0.400 A  
HETATM   10  C   UNL     1     -11.507  14.962  64.638  1.00  0.00    -0.380 A  
HETATM   11  C   UNL     1     -12.285  13.909  64.170  1.00  0.00    -0.436 A  
ENDBRANCH   5   6
BRANCH   5  12
HETATM   12  C   UNL     1      -9.146  14.488  68.199  1.00  0.00    -0.191 C  
BRANCH  12  13
HETATM   13  C   UNL     1      -8.752  15.774  69.006  1.00  0.00    -0.237 C  
HETATM   14  C   UNL     1      -7.311  15.697  69.536  1.00  0.00    -0.197 C  
BRANCH  13  15
HETATM   15  N   UNL     1      -8.895  17.001  68.147  1.00  0.00    -0.220 NA 
HETATM   16  C   UNL     1      -9.983  17.892  68.566  1.00  0.00    -0.379 C  
HETATM   17  C   UNL     1      -7.659  17.800  68.088  1.00  0.00    -0.250 C  
ENDBRANCH  13  15
ENDBRANCH  12  13
ENDBRANCH   5  12
BRANCH   5  18
HETATM   18  C   UNL     1     -10.479  12.368  68.753  1.00  0.00    -0.179 A  
HETATM   19  C   UNL     1     -11.567  11.762  69.418  1.00  0.00    -0.386 A  
HETATM   20  C   UNL     1      -9.360  10.185  68.793  1.00  0.00    -0.168 A  
HETATM   21  C   UNL     1     -10.472   9.602  69.385  1.00  0.00    -0.236 A  
HETATM   22  C   UNL     1     -11.570  10.392  69.710  1.00  0.00    -0.339 A  
HETATM   23  C   UNL     1      -9.364  11.548  68.480  1.00  0.00    -0.171 A  
ENDBRANCH   5  18
ENDBRANCH   3   5
ENDBRANCH   2   3
TORSDOF 7
ENDMDL
MODEL       65
REMARK 921   NORMALIZED FREE ENERGY PREDICTED BY IDOCK:   -4.52 KCAL/MOL
REMARK 922        TOTAL FREE ENERGY PREDICTED BY IDOCK:   -7.62 KCAL/MOL
REMARK 923 INTER-LIGAND FREE ENERGY PREDICTED BY IDOCK:   -6.71 KCAL/MOL
REMARK 924 INTRA-LIGAND FREE ENERGY PREDICTED BY IDOCK:   -0.91 KCAL/MOL
REMARK 927      BINDING AFFINITY PREDICTED BY RF-SCORE:    0.00 PKD
ROOT
HETATM    1  C   UNL     1      -7.859   6.811  74.327  1.00  0.00    -0.120 C  
HETATM    2  C   UNL     1      -9.270   7.311  74.035  1.00  0.00    -0.292 C  
ENDROOT
BRANCH   2   3
HETATM    3  C   UNL     1      -9.383   7.858  72.619  1.00  0.00    -0.213 C  
HETATM    4  O   UNL     1      -8.725   8.867  72.329  1.00  0.00    -0.395 OA 
BRANCH   3   5
HETATM    5  C   UNL     1     -10.236   7.069  71.534  1.00  0.00    -0.211 C  
BRANCH   5   6
HETATM    6  C   UNL     1     -11.689   7.676  71.666  1.00  0.00    -0.313 A  
HETATM    7  C   UNL     1     -13.258   9.471  72.231  1.00  0.00    -0.507 A  
HETATM    8  C   UNL     1     -12.808   6.860  71.397  1.00  0.00    -0.365 A  
HETATM    9  C   UNL     1     -11.949   8.997  72.082  1.00  0.00    -0.395 A  
HETATM   10  C   UNL     1     -14.116   7.332  71.552  1.00  0.00    -0.515 A  
HETATM   11  C   UNL     1     -14.340   8.639  71.969  1.00  0.00    -0.512 A  
ENDBRANCH   5   6
BRANCH   5  12
HETATM   12  C   UNL     1      -9.675   7.309  70.063  1.00  0.00    -0.175 C  
BRANCH  12  13
HETATM   13  C   UNL     1     -10.500   8.032  68.942  1.00  0.00    -0.191 C  
HETATM   14  C   UNL     1     -10.290   9.555  68.971  1.00  0.00    -0.219 C  
BRANCH  13  15
HETATM   15  N   UNL     1     -10.116   7.510  67.584  1.00  0.00    -0.173 NA 
HETATM   16  C   UNL     1      -8.708   7.106  67.484  1.00  0.00    -0.121 C  
HETATM   17  C   UNL     1     -10.941   6.365  67.162  1.00  0.00    -0.399 C  
ENDBRANCH  13  15
ENDBRANCH  12  13
ENDBRANCH   5  12
BRANCH   5  18
HETATM   18  C   UNL     1     -10.295   5.532  71.805  1.00  0.00    -0.272 A  
HETATM   19  C   UNL     1      -9.736   4.632  70.871  1.00  0.00    -0.262 A  
HETATM   20  C   UNL     1     -10.664   3.614  73.290  1.00  0.00    -0.291 A  
HETATM   21  C   UNL     1     -10.048   2.765  72.380  1.00  0.00    -0.234 A  
HETATM   22  C   UNL     1      -9.596   3.271  71.165  1.00  0.00    -0.230 A  
HETATM   23  C   UNL     1     -10.783   4.979  73.007  1.00  0.00    -0.307 A  
ENDBRANCH   5  18
ENDBRANCH   3   5
ENDBRANCH   2   3
TORSDOF 7
ENDMDL
MODEL       66
REMARK 921   NORMALIZED FREE ENERGY PREDICTED BY IDOCK:   -4.52 KCAL/MOL
REMARK 922        TOTAL FREE ENERGY PREDICTED BY IDOCK:   -7.62 KCAL/MOL
REMARK 923 INTER-LIGAND FREE ENERGY PREDICTED BY IDOCK:   -6.94 KCAL/MOL
REMARK 924 INTRA-LIGAND FREE ENERGY PREDICTED BY IDOCK:   -0.68 KCAL/MOL
REMARK 927      BINDING AFFINITY PREDICTED BY RF-SCORE:    0.00 PKD
ROOT
HETATM    1  C   UNL     1     -10.128   8.362  67.294  1.00  0.00    -0.321 C  
HETATM    2  C   UNL     1     -10.779   9.739  67.362  1.00  0.00    -0.314 C  
ENDROOT
BRANCH   2   3
HETATM    3  C   UNL     1      -9.973  10.692  68.234  1.00  0.00    -0.158 C  
HETATM    4  O   UNL     1      -9.133  10.208  69.004  1.00  0.00    -0.153 OA 
BRANCH   3   5
HETATM    5  C   UNL     1     -10.145  12.262  68.054  1.00  0.00    -0.206 C  
BRANCH   5   6
HETATM    6  C   UNL     1     -11.150  12.677  69.202  1.00  0.00    -0.252 A  
HETATM    7  C   UNL     1     -12.285  14.325  70.615  1.00  0.00    -0.427 A  
HETATM    8  C   UNL     1     -11.793  11.671  69.956  1.00  0.00    -0.435 A  
HETATM    9  C   UNL     1     -11.424  14.013  69.556  1.00  0.00    -0.331 A  
HETATM   10  C   UNL     1     -12.648  11.985  71.018  1.00  0.00    -0.370 A  
HETATM   11  C   UNL     1     -12.894  13.313  71.346  1.00  0.00    -0.411 A  
ENDBRANCH   5   6
BRANCH   5  12
HETATM   12  C   UNL     1      -8.760  13.025  68.238  1.00  0.00    -0.173 C  
BRANCH  12  13
HETATM   13  C   UNL     1      -8.657  14.582  68.400  1.00  0.00    -0.172 C  
HETATM   14  C   UNL     1      -7.711  14.975  69.546  1.00  0.00    -0.168 C  
BRANCH  13  15
HETATM   15  N   UNL     1      -8.172  15.216  67.124  1.00  0.00    -0.207 NA 
HETATM   16  C   UNL     1      -9.031  16.304  66.643  1.00  0.00    -0.251 C  
HETATM   17  C   UNL     1      -6.802  15.742  67.237  1.00  0.00    -0.185 C  
ENDBRANCH  13  15
ENDBRANCH  12  13
ENDBRANCH   5  12
BRANCH   5  18
HETATM   18  C   UNL     1     -10.756  12.654  66.671  1.00  0.00    -0.275 A  
HETATM   19  C   UNL     1     -12.044  13.230  66.611  1.00  0.00    -0.421 A  
HETATM   20  C   UNL     1     -10.553  13.088  64.265  1.00  0.00    -0.434 A  
HETATM   21  C   UNL     1     -11.793  13.710  64.251  1.00  0.00    -0.464 A  
HETATM   22  C   UNL     1     -12.545  13.770  65.420  1.00  0.00    -0.534 A  
HETATM   23  C   UNL     1     -10.040  12.570  65.459  1.00  0.00    -0.282 A  
ENDBRANCH   5  18
ENDBRANCH   3   5
ENDBRANCH   2   3
TORSDOF 7
ENDMDL
MODEL       67
REMARK 921   NORMALIZED FREE ENERGY PREDICTED BY IDOCK:   -4.51 KCAL/MOL
REMARK 922        TOTAL FREE ENERGY PREDICTED BY IDOCK:   -7.61 KCAL/MOL
REMARK 923 INTER-LIGAND FREE ENERGY PREDICTED BY IDOCK:   -6.72 KCAL/MOL
REMARK 924 INTRA-LIGAND FREE ENERGY PREDICTED BY IDOCK:   -0.89 KCAL/MOL
REMARK 927      BINDING AFFINITY PREDICTED BY RF-SCORE:    0.00 PKD
ROOT
HETATM    1  C   UNL     1      -6.989  10.220  66.418  1.00  0.00    -0.111 C  
HETATM    2  C   UNL     1      -8.287  10.960  66.116  1.00  0.00    -0.168 C  
ENDROOT
BRANCH   2   3
HETATM    3  C   UNL     1      -8.423  12.213  66.970  1.00  0.00    -0.183 C  
HETATM    4  O   UNL     1      -7.390  12.720  67.429  1.00  0.00    -0.144 OA 
BRANCH   3   5
HETATM    5  C   UNL     1      -9.847  12.895  67.151  1.00  0.00    -0.225 C  
BRANCH   5   6
HETATM    6  C   UNL     1     -10.546  12.040  68.282  1.00  0.00    -0.233 A  
HETATM    7  C   UNL     1     -11.143   9.921  69.356  1.00  0.00    -0.237 A  
HETATM    8  C   UNL     1     -11.333  12.691  69.256  1.00  0.00    -0.306 A  
HETATM    9  C   UNL     1     -10.464  10.636  68.362  1.00  0.00    -0.212 A  
HETATM   10  C   UNL     1     -12.017  11.975  70.245  1.00  0.00    -0.398 A  
HETATM   11  C   UNL     1     -11.921  10.589  70.294  1.00  0.00    -0.411 A  
ENDBRANCH   5   6
BRANCH   5  12
HETATM   12  C   UNL     1      -9.714  14.412  67.615  1.00  0.00    -0.219 C  
BRANCH  12  13
HETATM   13  C   UNL     1     -10.791  15.504  67.288  1.00  0.00    -0.313 C  
HETATM   14  C   UNL     1     -11.243  16.256  68.550  1.00  0.00    -0.359 C  
BRANCH  13  15
HETATM   15  N   UNL     1     -10.252  16.495  66.292  1.00  0.00    -0.319 NA 
HETATM   16  C   UNL     1      -8.804  16.387  66.077  1.00  0.00    -0.261 C  
HETATM   17  C   UNL     1     -10.909  16.394  64.978  1.00  0.00    -0.273 C  
ENDBRANCH  13  15
ENDBRANCH  12  13
ENDBRANCH   5  12
BRANCH   5  18
HETATM   18  C   UNL     1     -10.718  12.841  65.854  1.00  0.00    -0.294 A  
HETATM   19  C   UNL     1     -10.091  12.824  64.589  1.00  0.00    -0.256 A  
HETATM   20  C   UNL     1     -12.851  12.473  64.699  1.00  0.00    -0.325 A  
HETATM   21  C   UNL     1     -12.198  12.393  63.476  1.00  0.00    -0.661 A  
HETATM   22  C   UNL     1     -10.821  12.582  63.419  1.00  0.00    -0.351 A  
HETATM   23  C   UNL     1     -12.120  12.691  65.872  1.00  0.00    -0.459 A  
ENDBRANCH   5  18
ENDBRANCH   3   5
ENDBRANCH   2   3
TORSDOF 7
ENDMDL
MODEL       68
REMARK 921   NORMALIZED FREE ENERGY PREDICTED BY IDOCK:   -4.51 KCAL/MOL
REMARK 922        TOTAL FREE ENERGY PREDICTED BY IDOCK:   -7.61 KCAL/MOL
REMARK 923 INTER-LIGAND FREE ENERGY PREDICTED BY IDOCK:   -6.50 KCAL/MOL
REMARK 924 INTRA-LIGAND FREE ENERGY PREDICTED BY IDOCK:   -1.11 KCAL/MOL
REMARK 927      BINDING AFFINITY PREDICTED BY RF-SCORE:    0.00 PKD
ROOT
HETATM    1  C   UNL     1      -9.923   4.444  70.150  1.00  0.00    -0.249 C  
HETATM    2  C   UNL     1      -9.190   5.775  70.270  1.00  0.00    -0.174 C  
ENDROOT
BRANCH   2   3
HETATM    3  C   UNL     1     -10.024   6.921  69.711  1.00  0.00    -0.178 C  
HETATM    4  O   UNL     1     -10.567   6.762  68.609  1.00  0.00    -0.198 OA 
BRANCH   3   5
HETATM    5  C   UNL     1     -10.268   8.221  70.591  1.00  0.00    -0.214 C  
BRANCH   5   6
HETATM    6  C   UNL     1      -9.206   8.107  71.757  1.00  0.00    -0.232 A  
HETATM    7  C   UNL     1      -8.554   7.653  74.074  1.00  0.00    -0.297 A  
HETATM    8  C   UNL     1      -7.865   8.471  71.510  1.00  0.00    -0.158 A  
HETATM    9  C   UNL     1      -9.524   7.691  73.065  1.00  0.00    -0.282 A  
HETATM   10  C   UNL     1      -6.898   8.440  72.521  1.00  0.00    -0.104 A  
HETATM   11  C   UNL     1      -7.244   8.030  73.804  1.00  0.00    -0.177 A  
ENDBRANCH   5   6
BRANCH   5  12
HETATM   12  C   UNL     1     -10.017   9.550  69.751  1.00  0.00    -0.234 C  
BRANCH  12  13
HETATM   13  C   UNL     1     -10.842   9.918  68.468  1.00  0.00    -0.217 C  
HETATM   14  C   UNL     1     -11.701  11.175  68.684  1.00  0.00    -0.389 C  
BRANCH  13  15
HETATM   15  N   UNL     1      -9.924  10.145  67.298  1.00  0.00    -0.186 NA 
HETATM   16  C   UNL     1      -9.930   9.048  66.323  1.00  0.00    -0.281 C  
HETATM   17  C   UNL     1     -10.225  11.391  66.573  1.00  0.00    -0.221 C  
ENDBRANCH  13  15
ENDBRANCH  12  13
ENDBRANCH   5  12
BRANCH   5  18
HETATM   18  C   UNL     1     -11.702   8.279  71.208  1.00  0.00    -0.318 A  
HETATM   19  C   UNL     1     -12.190   9.494  71.738  1.00  0.00    -0.465 A  
HETATM   20  C   UNL     1     -13.937   7.333  71.571  1.00  0.00    -0.486 A  
HETATM   21  C   UNL     1     -14.405   8.558  72.024  1.00  0.00    -0.537 A  
HETATM   22  C   UNL     1     -13.529   9.636  72.121  1.00  0.00    -0.516 A  
HETATM   23  C   UNL     1     -12.605   7.196  71.167  1.00  0.00    -0.384 A  
ENDBRANCH   5  18
ENDBRANCH   3   5
ENDBRANCH   2   3
TORSDOF 7
ENDMDL
MODEL       69
REMARK 921   NORMALIZED FREE ENERGY PREDICTED BY IDOCK:   -4.51 KCAL/MOL
REMARK 922        TOTAL FREE ENERGY PREDICTED BY IDOCK:   -7.60 KCAL/MOL
REMARK 923 INTER-LIGAND FREE ENERGY PREDICTED BY IDOCK:   -6.51 KCAL/MOL
REMARK 924 INTRA-LIGAND FREE ENERGY PREDICTED BY IDOCK:   -1.09 KCAL/MOL
REMARK 927      BINDING AFFINITY PREDICTED BY RF-SCORE:    0.00 PKD
ROOT
HETATM    1  C   UNL     1     -11.048  10.016  70.442  1.00  0.00    -0.393 C  
HETATM    2  C   UNL     1     -10.033  10.794  69.612  1.00  0.00    -0.005 C  
ENDROOT
BRANCH   2   3
HETATM    3  C   UNL     1     -10.644  11.288  68.308  1.00  0.00    -0.197 C  
HETATM    4  O   UNL     1     -11.537  10.605  67.787  1.00  0.00    -0.501 OA 
BRANCH   3   5
HETATM    5  C   UNL     1     -10.213  12.701  67.720  1.00  0.00    -0.222 C  
BRANCH   5   6
HETATM    6  C   UNL     1     -10.771  13.744  68.768  1.00  0.00    -0.267 A  
HETATM    7  C   UNL     1     -12.476  14.578  70.317  1.00  0.00    -0.405 A  
HETATM    8  C   UNL     1     -10.031  14.914  69.042  1.00  0.00    -0.235 A  
HETATM    9  C   UNL     1     -12.004  13.599  69.434  1.00  0.00    -0.394 A  
HETATM   10  C   UNL     1     -10.506  15.894  69.920  1.00  0.00    -0.311 A  
HETATM   11  C   UNL     1     -11.730  15.725  70.557  1.00  0.00    -0.400 A  
ENDBRANCH   5   6
BRANCH   5  12
HETATM   12  C   UNL     1      -8.630  12.828  67.610  1.00  0.00    -0.181 C  
BRANCH  12  13
HETATM   13  C   UNL     1      -7.660  11.608  67.786  1.00  0.00    -0.121 C  
HETATM   14  C   UNL     1      -7.307  10.961  66.438  1.00  0.00    -0.141 C  
BRANCH  13  15
HETATM   15  N   UNL     1      -6.391  12.037  68.472  1.00  0.00    -0.052 NA 
HETATM   16  C   UNL     1      -6.331  13.477  68.753  1.00  0.00    -0.093 C  
HETATM   17  C   UNL     1      -6.162  11.324  69.740  1.00  0.00    -0.124 C  
ENDBRANCH  13  15
ENDBRANCH  12  13
ENDBRANCH   5  12
BRANCH   5  18
HETATM   18  C   UNL     1     -10.840  12.994  66.319  1.00  0.00    -0.295 A  
HETATM   19  C   UNL     1     -10.304  12.378  65.167  1.00  0.00    -0.313 A  
HETATM   20  C   UNL     1     -12.640  13.870  64.899  1.00  0.00    -0.380 A  
HETATM   21  C   UNL     1     -12.127  13.196  63.799  1.00  0.00    -0.563 A  
HETATM   22  C   UNL     1     -10.952  12.462  63.929  1.00  0.00    -0.467 A  
HETATM   23  C   UNL     1     -12.006  13.768  66.143  1.00  0.00    -0.449 A  
ENDBRANCH   5  18
ENDBRANCH   3   5
ENDBRANCH   2   3
TORSDOF 7
ENDMDL
MODEL       70
REMARK 921   NORMALIZED FREE ENERGY PREDICTED BY IDOCK:   -4.50 KCAL/MOL
REMARK 922        TOTAL FREE ENERGY PREDICTED BY IDOCK:   -7.59 KCAL/MOL
REMARK 923 INTER-LIGAND FREE ENERGY PREDICTED BY IDOCK:   -6.49 KCAL/MOL
REMARK 924 INTRA-LIGAND FREE ENERGY PREDICTED BY IDOCK:   -1.10 KCAL/MOL
REMARK 927      BINDING AFFINITY PREDICTED BY RF-SCORE:    0.00 PKD
ROOT
HETATM    1  C   UNL     1     -10.007   4.262  70.087  1.00  0.00    -0.206 C  
HETATM    2  C   UNL     1     -10.048   5.464  71.024  1.00  0.00    -0.281 C  
ENDROOT
BRANCH   2   3
HETATM    3  C   UNL     1     -10.844   6.612  70.419  1.00  0.00    -0.266 C  
HETATM    4  O   UNL     1     -11.976   6.368  69.978  1.00  0.00    -0.333 OA 
BRANCH   3   5
HETATM    5  C   UNL     1     -10.263   8.091  70.474  1.00  0.00    -0.201 C  
BRANCH   5   6
HETATM    6  C   UNL     1      -9.203   8.047  71.646  1.00  0.00    -0.196 A  
HETATM    7  C   UNL     1      -8.570   7.888  74.007  1.00  0.00    -0.322 A  
HETATM    8  C   UNL     1      -7.836   8.233  71.350  1.00  0.00    -0.122 A  
HETATM    9  C   UNL     1      -9.544   7.869  73.001  1.00  0.00    -0.341 A  
HETATM   10  C   UNL     1      -6.864   8.258  72.356  1.00  0.00    -0.100 A  
HETATM   11  C   UNL     1      -7.233   8.085  73.686  1.00  0.00    -0.174 A  
ENDBRANCH   5   6
BRANCH   5  12
HETATM   12  C   UNL     1      -9.552   8.489  69.107  1.00  0.00    -0.167 C  
BRANCH  12  13
HETATM   13  C   UNL     1     -10.184   8.203  67.700  1.00  0.00    -0.234 C  
HETATM   14  C   UNL     1     -10.090   9.427  66.774  1.00  0.00    -0.325 C  
BRANCH  13  15
HETATM   15  N   UNL     1      -9.502   7.035  67.042  1.00  0.00    -0.143 NA 
HETATM   16  C   UNL     1      -8.323   6.553  67.772  1.00  0.00    -0.119 C  
HETATM   17  C   UNL     1     -10.405   5.889  66.842  1.00  0.00    -0.247 C  
ENDBRANCH  13  15
ENDBRANCH  12  13
ENDBRANCH   5  12
BRANCH   5  18
HETATM   18  C   UNL     1     -11.352   9.161  70.806  1.00  0.00    -0.337 A  
HETATM   19  C   UNL     1     -12.387   8.851  71.715  1.00  0.00    -0.424 A  
HETATM   20  C   UNL     1     -12.192  11.466  70.781  1.00  0.00    -0.475 A  
HETATM   21  C   UNL     1     -13.157  11.147  71.727  1.00  0.00    -0.536 A  
HETATM   22  C   UNL     1     -13.264   9.836  72.184  1.00  0.00    -0.530 A  
HETATM   23  C   UNL     1     -11.301  10.487  70.329  1.00  0.00    -0.407 A  
ENDBRANCH   5  18
ENDBRANCH   3   5
ENDBRANCH   2   3
TORSDOF 7
ENDMDL
MODEL       71
REMARK 921   NORMALIZED FREE ENERGY PREDICTED BY IDOCK:   -4.49 KCAL/MOL
REMARK 922        TOTAL FREE ENERGY PREDICTED BY IDOCK:   -7.58 KCAL/MOL
REMARK 923 INTER-LIGAND FREE ENERGY PREDICTED BY IDOCK:   -6.42 KCAL/MOL
REMARK 924 INTRA-LIGAND FREE ENERGY PREDICTED BY IDOCK:   -1.16 KCAL/MOL
REMARK 927      BINDING AFFINITY PREDICTED BY RF-SCORE:    0.00 PKD
ROOT
HETATM    1  C   UNL     1      -7.622   8.575  70.020  1.00  0.00    -0.064 C  
HETATM    2  C   UNL     1      -8.289   9.938  70.159  1.00  0.00    -0.156 C  
ENDROOT
BRANCH   2   3
HETATM    3  C   UNL     1      -8.824  10.434  68.822  1.00  0.00    -0.157 C  
HETATM    4  O   UNL     1      -8.005  10.782  67.960  1.00  0.00    -0.104 OA 
BRANCH   3   5
HETATM    5  C   UNL     1     -10.385  10.384  68.529  1.00  0.00    -0.197 C  
BRANCH   5   6
HETATM    6  C   UNL     1     -10.711  11.805  67.916  1.00  0.00    -0.241 A  
HETATM    7  C   UNL     1     -10.614  14.253  67.917  1.00  0.00    -0.240 A  
HETATM    8  C   UNL     1     -11.531  11.894  66.771  1.00  0.00    -0.384 A  
HETATM    9  C   UNL     1     -10.256  13.017  68.471  1.00  0.00    -0.218 A  
HETATM   10  C   UNL     1     -11.893  13.129  66.222  1.00  0.00    -0.455 A  
HETATM   11  C   UNL     1     -11.434  14.309  66.797  1.00  0.00    -0.380 A  
ENDBRANCH   5   6
BRANCH   5  12
HETATM   12  C   UNL     1     -10.746   9.241  67.482  1.00  0.00    -0.272 C  
BRANCH  12  13
HETATM   13  C   UNL     1      -9.996   7.864  67.428  1.00  0.00    -0.198 C  
HETATM   14  C   UNL     1     -10.954   6.705  67.106  1.00  0.00    -0.478 C  
BRANCH  13  15
HETATM   15  N   UNL     1      -8.902   7.898  66.395  1.00  0.00    -0.150 NA 
HETATM   16  C   UNL     1      -8.683   6.610  65.726  1.00  0.00    -0.116 C  
HETATM   17  C   UNL     1      -9.137   8.911  65.353  1.00  0.00    -0.163 C  
ENDBRANCH  13  15
ENDBRANCH  12  13
ENDBRANCH   5  12
BRANCH   5  18
HETATM   18  C   UNL     1     -11.241  10.174  69.819  1.00  0.00    -0.325 A  
HETATM   19  C   UNL     1     -11.953  11.259  70.373  1.00  0.00    -0.471 A  
HETATM   20  C   UNL     1     -12.348   8.729  71.464  1.00  0.00    -0.380 A  
HETATM   21  C   UNL     1     -13.086   9.803  71.943  1.00  0.00    -0.544 A  
HETATM   22  C   UNL     1     -12.879  11.071  71.407  1.00  0.00    -0.548 A  
HETATM   23  C   UNL     1     -11.441   8.911  70.415  1.00  0.00    -0.182 A  
ENDBRANCH   5  18
ENDBRANCH   3   5
ENDBRANCH   2   3
TORSDOF 7
ENDMDL
MODEL       72
REMARK 921   NORMALIZED FREE ENERGY PREDICTED BY IDOCK:   -4.49 KCAL/MOL
REMARK 922        TOTAL FREE ENERGY PREDICTED BY IDOCK:   -7.58 KCAL/MOL
REMARK 923 INTER-LIGAND FREE ENERGY PREDICTED BY IDOCK:   -6.51 KCAL/MOL
REMARK 924 INTRA-LIGAND FREE ENERGY PREDICTED BY IDOCK:   -1.07 KCAL/MOL
REMARK 927      BINDING AFFINITY PREDICTED BY RF-SCORE:    0.00 PKD
ROOT
HETATM    1  C   UNL     1     -10.335   7.460  67.466  1.00  0.00    -0.320 C  
HETATM    2  C   UNL     1     -10.632   8.792  66.786  1.00  0.00    -0.220 C  
ENDROOT
BRANCH   2   3
HETATM    3  C   UNL     1      -9.617   9.856  67.183  1.00  0.00    -0.162 C  
HETATM    4  O   UNL     1      -8.445   9.711  66.810  1.00  0.00    -0.125 OA 
BRANCH   3   5
HETATM    5  C   UNL     1     -10.101  11.160  67.952  1.00  0.00    -0.195 C  
BRANCH   5   6
HETATM    6  C   UNL     1     -10.869  10.602  69.216  1.00  0.00    -0.282 A  
HETATM    7  C   UNL     1     -12.841  10.407  70.658  1.00  0.00    -0.393 A  
HETATM    8  C   UNL     1     -10.177   9.802  70.151  1.00  0.00    -0.328 A  
HETATM    9  C   UNL     1     -12.220  10.886  69.498  1.00  0.00    -0.331 A  
HETATM   10  C   UNL     1     -10.796   9.329  71.313  1.00  0.00    -0.417 A  
HETATM   11  C   UNL     1     -12.129   9.632  71.566  1.00  0.00    -0.482 A  
ENDBRANCH   5   6
BRANCH   5  12
HETATM   12  C   UNL     1      -8.869  12.057  68.413  1.00  0.00    -0.149 C  
BRANCH  12  13
HETATM   13  C   UNL     1      -7.877  12.731  67.401  1.00  0.00    -0.172 C  
HETATM   14  C   UNL     1      -8.161  14.233  67.239  1.00  0.00    -0.212 C  
BRANCH  13  15
HETATM   15  N   UNL     1      -6.454  12.545  67.854  1.00  0.00    -0.091 NA 
HETATM   16  C   UNL     1      -6.333  11.885  69.159  1.00  0.00    -0.092 C  
HETATM   17  C   UNL     1      -5.646  11.781  66.888  1.00  0.00    -0.128 C  
ENDBRANCH  13  15
ENDBRANCH  12  13
ENDBRANCH   5  12
BRANCH   5  18
HETATM   18  C   UNL     1     -11.076  12.040  67.107  1.00  0.00    -0.344 A  
HETATM   19  C   UNL     1     -11.667  13.185  67.683  1.00  0.00    -0.414 A  
HETATM   20  C   UNL     1     -12.062  12.724  64.966  1.00  0.00    -0.491 A  
HETATM   21  C   UNL     1     -12.573  13.877  65.547  1.00  0.00    -0.560 A  
HETATM   22  C   UNL     1     -12.388  14.102  66.908  1.00  0.00    -0.293 A  
HETATM   23  C   UNL     1     -11.322  11.820  65.735  1.00  0.00    -0.309 A  
ENDBRANCH   5  18
ENDBRANCH   3   5
ENDBRANCH   2   3
TORSDOF 7
ENDMDL
MODEL       73
REMARK 921   NORMALIZED FREE ENERGY PREDICTED BY IDOCK:   -4.47 KCAL/MOL
REMARK 922        TOTAL FREE ENERGY PREDICTED BY IDOCK:   -7.55 KCAL/MOL
REMARK 923 INTER-LIGAND FREE ENERGY PREDICTED BY IDOCK:   -6.54 KCAL/MOL
REMARK 924 INTRA-LIGAND FREE ENERGY PREDICTED BY IDOCK:   -1.02 KCAL/MOL
REMARK 927      BINDING AFFINITY PREDICTED BY RF-SCORE:    0.00 PKD
ROOT
HETATM    1  C   UNL     1     -12.249  11.955  70.213  1.00  0.00    -0.353 C  
HETATM    2  C   UNL     1     -11.801  11.781  68.766  1.00  0.00    -0.380 C  
ENDROOT
BRANCH   2   3
HETATM    3  C   UNL     1     -10.876  12.910  68.332  1.00  0.00    -0.254 C  
HETATM    4  O   UNL     1     -10.801  13.913  69.056  1.00  0.00    -0.245 OA 
BRANCH   3   5
HETATM    5  C   UNL     1      -9.959  12.729  67.046  1.00  0.00    -0.231 C  
BRANCH   5   6
HETATM    6  C   UNL     1      -9.289  14.147  66.845  1.00  0.00    -0.274 A  
HETATM    7  C   UNL     1      -7.478  15.766  67.162  1.00  0.00    -0.259 A  
HETATM    8  C   UNL     1     -10.009  15.166  66.186  1.00  0.00    -0.317 A  
HETATM    9  C   UNL     1      -8.006  14.479  67.324  1.00  0.00    -0.216 A  
HETATM   10  C   UNL     1      -9.483  16.454  66.031  1.00  0.00    -0.345 A  
HETATM   11  C   UNL     1      -8.216  16.752  66.520  1.00  0.00    -0.325 A  
ENDBRANCH   5   6
BRANCH   5  12
HETATM   12  C   UNL     1      -8.839  11.623  67.280  1.00  0.00    -0.164 C  
BRANCH  12  13
HETATM   13  C   UNL     1      -8.481  11.055  68.698  1.00  0.00    -0.157 C  
HETATM   14  C   UNL     1      -8.667   9.530  68.765  1.00  0.00    -0.128 C  
BRANCH  13  15
HETATM   15  N   UNL     1      -7.060  11.393  69.059  1.00  0.00    -0.110 NA 
HETATM   16  C   UNL     1      -6.530  10.597  70.173  1.00  0.00    -0.152 C  
HETATM   17  C   UNL     1      -6.135  11.245  67.923  1.00  0.00    -0.050 C  
ENDBRANCH  13  15
ENDBRANCH  12  13
ENDBRANCH   5  12
BRANCH   5  18
HETATM   18  C   UNL     1     -10.773  12.360  65.765  1.00  0.00    -0.301 A  
HETATM   19  C   UNL     1     -12.129  12.738  65.662  1.00  0.00    -0.514 A  
HETATM   20  C   UNL     1     -10.906  11.595  63.437  1.00  0.00    -0.453 A  
HETATM   21  C   UNL     1     -12.218  12.039  63.345  1.00  0.00    -0.627 A  
HETATM   22  C   UNL     1     -12.835  12.599  64.460  1.00  0.00    -0.356 A  
HETATM   23  C   UNL     1     -10.193  11.756  64.630  1.00  0.00    -0.326 A  
ENDBRANCH   5  18
ENDBRANCH   3   5
ENDBRANCH   2   3
TORSDOF 7
ENDMDL
MODEL       74
REMARK 921   NORMALIZED FREE ENERGY PREDICTED BY IDOCK:   -4.46 KCAL/MOL
REMARK 922        TOTAL FREE ENERGY PREDICTED BY IDOCK:   -7.54 KCAL/MOL
REMARK 923 INTER-LIGAND FREE ENERGY PREDICTED BY IDOCK:   -6.45 KCAL/MOL
REMARK 924 INTRA-LIGAND FREE ENERGY PREDICTED BY IDOCK:   -1.09 KCAL/MOL
REMARK 927      BINDING AFFINITY PREDICTED BY RF-SCORE:    0.00 PKD
ROOT
HETATM    1  C   UNL     1      -7.019  11.479  66.776  1.00  0.00    -0.108 C  
HETATM    2  C   UNL     1      -8.262  12.360  66.737  1.00  0.00    -0.028 C  
ENDROOT
BRANCH   2   3
HETATM    3  C   UNL     1      -9.169  12.094  67.931  1.00  0.00    -0.188 C  
HETATM    4  O   UNL     1      -8.684  12.202  69.066  1.00  0.00     0.164 OA 
BRANCH   3   5
HETATM    5  C   UNL     1     -10.715  11.806  67.699  1.00  0.00    -0.254 C  
BRANCH   5   6
HETATM    6  C   UNL     1     -11.163  12.905  66.656  1.00  0.00    -0.342 A  
HETATM    7  C   UNL     1     -12.342  13.645  64.640  1.00  0.00    -0.413 A  
HETATM    8  C   UNL     1     -10.666  14.221  66.780  1.00  0.00    -0.287 A  
HETATM    9  C   UNL     1     -12.015  12.646  65.564  1.00  0.00    -0.509 A  
HETATM   10  C   UNL     1     -10.988  15.217  65.852  1.00  0.00    -0.325 A  
HETATM   11  C   UNL     1     -11.827  14.928  64.781  1.00  0.00    -0.385 A  
ENDBRANCH   5   6
BRANCH   5  12
HETATM   12  C   UNL     1     -10.953  10.351  67.098  1.00  0.00    -0.263 C  
BRANCH  12  13
HETATM   13  C   UNL     1      -9.870   9.218  67.148  1.00  0.00    -0.195 C  
HETATM   14  C   UNL     1     -10.344   8.012  67.975  1.00  0.00    -0.262 C  
BRANCH  13  15
HETATM   15  N   UNL     1      -9.525   8.755  65.759  1.00  0.00    -0.208 NA 
HETATM   16  C   UNL     1      -9.617   9.813  64.745  1.00  0.00    -0.214 C  
HETATM   17  C   UNL     1      -8.176   8.169  65.674  1.00  0.00    -0.133 C  
ENDBRANCH  13  15
ENDBRANCH  12  13
ENDBRANCH   5  12
BRANCH   5  18
HETATM   18  C   UNL     1     -11.565  11.957  69.001  1.00  0.00    -0.376 A  
HETATM   19  C   UNL     1     -11.979  10.806  69.707  1.00  0.00    -0.397 A  
HETATM   20  C   UNL     1     -12.470  13.299  70.846  1.00  0.00    -0.424 A  
HETATM   21  C   UNL     1     -12.804  12.148  71.547  1.00  0.00    -0.394 A  
HETATM   22  C   UNL     1     -12.571  10.902  70.972  1.00  0.00    -0.517 A  
HETATM   23  C   UNL     1     -11.857  13.204  69.592  1.00  0.00    -0.390 A  
ENDBRANCH   5  18
ENDBRANCH   3   5
ENDBRANCH   2   3
TORSDOF 7
ENDMDL
MODEL       75
REMARK 921   NORMALIZED FREE ENERGY PREDICTED BY IDOCK:   -4.45 KCAL/MOL
REMARK 922        TOTAL FREE ENERGY PREDICTED BY IDOCK:   -7.52 KCAL/MOL
REMARK 923 INTER-LIGAND FREE ENERGY PREDICTED BY IDOCK:   -6.62 KCAL/MOL
REMARK 924 INTRA-LIGAND FREE ENERGY PREDICTED BY IDOCK:   -0.90 KCAL/MOL
REMARK 927      BINDING AFFINITY PREDICTED BY RF-SCORE:    0.00 PKD
ROOT
HETATM    1  C   UNL     1     -11.991  11.892  63.296  1.00  0.00    -0.441 C  
HETATM    2  C   UNL     1     -10.969  11.670  64.405  1.00  0.00    -0.399 C  
ENDROOT
BRANCH   2   3
HETATM    3  C   UNL     1     -11.431  12.289  65.718  1.00  0.00    -0.367 C  
HETATM    4  O   UNL     1     -12.649  12.372  65.925  1.00  0.00    -0.475 OA 
BRANCH   3   5
HETATM    5  C   UNL     1     -10.359  12.698  66.818  1.00  0.00    -0.246 C  
BRANCH   5   6
HETATM    6  C   UNL     1     -11.098  12.441  68.193  1.00  0.00    -0.288 A  
HETATM    7  C   UNL     1     -12.258  11.013  69.810  1.00  0.00    -0.388 A  
HETATM    8  C   UNL     1     -11.348  13.528  69.057  1.00  0.00    -0.336 A  
HETATM    9  C   UNL     1     -11.566  11.178  68.604  1.00  0.00    -0.383 A  
HETATM   10  C   UNL     1     -12.046  13.364  70.259  1.00  0.00    -0.419 A  
HETATM   11  C   UNL     1     -12.500  12.104  70.635  1.00  0.00    -0.330 A  
ENDBRANCH   5   6
BRANCH   5  12
HETATM   12  C   UNL     1      -9.052  11.795  66.723  1.00  0.00    -0.194 C  
BRANCH  12  13
HETATM   13  C   UNL     1      -8.456  11.022  67.951  1.00  0.00    -0.128 C  
HETATM   14  C   UNL     1      -8.652   9.503  67.817  1.00  0.00    -0.115 C  
BRANCH  13  15
HETATM   15  N   UNL     1      -6.988  11.317  68.100  1.00  0.00    -0.067 NA 
HETATM   16  C   UNL     1      -6.329  11.679  66.839  1.00  0.00    -0.142 C  
HETATM   17  C   UNL     1      -6.720  12.392  69.071  1.00  0.00    -0.100 C  
ENDBRANCH  13  15
ENDBRANCH  12  13
ENDBRANCH   5  12
BRANCH   5  18
HETATM   18  C   UNL     1      -9.942  14.200  66.733  1.00  0.00    -0.267 A  
HETATM   19  C   UNL     1      -8.636  14.588  67.106  1.00  0.00    -0.242 A  
HETATM   20  C   UNL     1     -10.305  16.503  65.967  1.00  0.00    -0.358 A  
HETATM   21  C   UNL     1      -8.994  16.837  66.281  1.00  0.00    -0.325 A  
HETATM   22  C   UNL     1      -8.164  15.884  66.863  1.00  0.00    -0.283 A  
HETATM   23  C   UNL     1     -10.771  15.203  66.187  1.00  0.00    -0.327 A  
ENDBRANCH   5  18
ENDBRANCH   3   5
ENDBRANCH   2   3
TORSDOF 7
ENDMDL
MODEL       76
REMARK 921   NORMALIZED FREE ENERGY PREDICTED BY IDOCK:   -4.44 KCAL/MOL
REMARK 922        TOTAL FREE ENERGY PREDICTED BY IDOCK:   -7.51 KCAL/MOL
REMARK 923 INTER-LIGAND FREE ENERGY PREDICTED BY IDOCK:   -6.14 KCAL/MOL
REMARK 924 INTRA-LIGAND FREE ENERGY PREDICTED BY IDOCK:   -1.37 KCAL/MOL
REMARK 927      BINDING AFFINITY PREDICTED BY RF-SCORE:    0.00 PKD
ROOT
HETATM    1  C   UNL     1     -10.343   4.192  71.632  1.00  0.00    -0.052 C  
HETATM    2  C   UNL     1      -9.387   5.214  71.027  1.00  0.00    -0.198 C  
ENDROOT
BRANCH   2   3
HETATM    3  C   UNL     1     -10.129   6.228  70.167  1.00  0.00    -0.179 C  
HETATM    4  O   UNL     1     -10.695   5.820  69.143  1.00  0.00    -0.281 OA 
BRANCH   3   5
HETATM    5  C   UNL     1     -10.257   7.735  70.656  1.00  0.00    -0.199 C  
BRANCH   5   6
HETATM    6  C   UNL     1      -9.303   7.817  71.914  1.00  0.00    -0.195 A  
HETATM    7  C   UNL     1      -8.854   7.696  74.319  1.00  0.00    -0.234 A  
HETATM    8  C   UNL     1      -7.956   8.200  71.738  1.00  0.00    -0.149 A  
HETATM    9  C   UNL     1      -9.727   7.562  73.233  1.00  0.00    -0.326 A  
HETATM   10  C   UNL     1      -7.086   8.341  72.825  1.00  0.00    -0.126 A  
HETATM   11  C   UNL     1      -7.536   8.088  74.116  1.00  0.00    -0.237 A  
ENDBRANCH   5   6
BRANCH   5  12
HETATM   12  C   UNL     1      -9.772   8.755  69.534  1.00  0.00    -0.172 C  
BRANCH  12  13
HETATM   13  C   UNL     1     -10.624   9.095  68.262  1.00  0.00    -0.174 C  
HETATM   14  C   UNL     1     -10.906  10.602  68.151  1.00  0.00    -0.291 C  
BRANCH  13  15
HETATM   15  N   UNL     1      -9.919   8.634  67.015  1.00  0.00    -0.223 NA 
HETATM   16  C   UNL     1      -9.779   9.681  65.996  1.00  0.00    -0.264 C  
HETATM   17  C   UNL     1      -8.577   8.093  67.289  1.00  0.00    -0.124 C  
ENDBRANCH  13  15
ENDBRANCH  12  13
ENDBRANCH   5  12
BRANCH   5  18
HETATM   18  C   UNL     1     -11.709   8.115  71.087  1.00  0.00    -0.309 A  
HETATM   19  C   UNL     1     -12.711   7.120  71.130  1.00  0.00    -0.363 A  
HETATM   20  C   UNL     1     -13.330   9.657  72.095  1.00  0.00    -0.545 A  
HETATM   21  C   UNL     1     -14.271   8.641  72.187  1.00  0.00    -0.520 A  
HETATM   22  C   UNL     1     -13.967   7.376  71.693  1.00  0.00    -0.523 A  
HETATM   23  C   UNL     1     -12.066   9.397  71.555  1.00  0.00    -0.456 A  
ENDBRANCH   5  18
ENDBRANCH   3   5
ENDBRANCH   2   3
TORSDOF 7
ENDMDL
MODEL       77
REMARK 921   NORMALIZED FREE ENERGY PREDICTED BY IDOCK:   -4.43 KCAL/MOL
REMARK 922        TOTAL FREE ENERGY PREDICTED BY IDOCK:   -7.49 KCAL/MOL
REMARK 923 INTER-LIGAND FREE ENERGY PREDICTED BY IDOCK:   -6.62 KCAL/MOL
REMARK 924 INTRA-LIGAND FREE ENERGY PREDICTED BY IDOCK:   -0.87 KCAL/MOL
REMARK 927      BINDING AFFINITY PREDICTED BY RF-SCORE:    0.00 PKD
ROOT
HETATM    1  C   UNL     1      -8.775   7.032  74.248  1.00  0.00    -0.216 C  
HETATM    2  C   UNL     1      -9.907   7.619  73.413  1.00  0.00    -0.362 C  
ENDROOT
BRANCH   2   3
HETATM    3  C   UNL     1      -9.372   8.400  72.221  1.00  0.00    -0.286 C  
HETATM    4  O   UNL     1      -8.285   8.983  72.347  1.00  0.00    -0.344 OA 
BRANCH   3   5
HETATM    5  C   UNL     1     -10.147   8.354  70.834  1.00  0.00    -0.234 C  
BRANCH   5   6
HETATM    6  C   UNL     1     -11.673   8.435  71.240  1.00  0.00    -0.325 A  
HETATM    7  C   UNL     1     -13.638   9.612  72.109  1.00  0.00    -0.471 A  
HETATM    8  C   UNL     1     -12.471   7.273  71.167  1.00  0.00    -0.373 A  
HETATM    9  C   UNL     1     -12.294   9.606  71.716  1.00  0.00    -0.474 A  
HETATM   10  C   UNL     1     -13.812   7.277  71.566  1.00  0.00    -0.463 A  
HETATM   11  C   UNL     1     -14.395   8.449  72.037  1.00  0.00    -0.555 A  
ENDBRANCH   5   6
BRANCH   5  12
HETATM   12  C   UNL     1      -9.761   9.591  69.909  1.00  0.00    -0.252 C  
BRANCH  12  13
HETATM   13  C   UNL     1     -10.467   9.886  68.539  1.00  0.00    -0.205 C  
HETATM   14  C   UNL     1     -11.307  11.172  68.596  1.00  0.00    -0.342 C  
BRANCH  13  15
HETATM   15  N   UNL     1      -9.450  10.012  67.437  1.00  0.00    -0.151 NA 
HETATM   16  C   UNL     1      -9.977   9.679  66.108  1.00  0.00    -0.276 C  
HETATM   17  C   UNL     1      -8.859  11.359  67.361  1.00  0.00    -0.150 C  
ENDBRANCH  13  15
ENDBRANCH  12  13
ENDBRANCH   5  12
BRANCH   5  18
HETATM   18  C   UNL     1      -9.896   7.033  70.040  1.00  0.00    -0.181 A  
HETATM   19  C   UNL     1      -8.955   6.095  70.517  1.00  0.00    -0.148 A  
HETATM   20  C   UNL     1     -10.518   5.394  68.323  1.00  0.00    -0.191 A  
HETATM   21  C   UNL     1      -9.633   4.467  68.857  1.00  0.00    -0.235 A  
HETATM   22  C   UNL     1      -8.841   4.822  69.946  1.00  0.00    -0.125 A  
HETATM   23  C   UNL     1     -10.649   6.658  68.908  1.00  0.00    -0.264 A  
ENDBRANCH   5  18
ENDBRANCH   3   5
ENDBRANCH   2   3
TORSDOF 7
ENDMDL
MODEL       78
REMARK 921   NORMALIZED FREE ENERGY PREDICTED BY IDOCK:   -4.42 KCAL/MOL
REMARK 922        TOTAL FREE ENERGY PREDICTED BY IDOCK:   -7.49 KCAL/MOL
REMARK 923 INTER-LIGAND FREE ENERGY PREDICTED BY IDOCK:   -6.31 KCAL/MOL
REMARK 924 INTRA-LIGAND FREE ENERGY PREDICTED BY IDOCK:   -1.17 KCAL/MOL
REMARK 927      BINDING AFFINITY PREDICTED BY RF-SCORE:    0.00 PKD
ROOT
HETATM    1  C   UNL     1     -10.595   4.367  72.323  1.00  0.00    -0.141 C  
HETATM    2  C   UNL     1     -10.911   5.697  72.998  1.00  0.00    -0.308 C  
ENDROOT
BRANCH   2   3
HETATM    3  C   UNL     1     -11.446   6.713  71.998  1.00  0.00    -0.291 C  
HETATM    4  O   UNL     1     -12.663   6.720  71.769  1.00  0.00    -0.362 OA 
BRANCH   3   5
HETATM    5  C   UNL     1     -10.465   7.798  71.373  1.00  0.00    -0.237 C  
BRANCH   5   6
HETATM    6  C   UNL     1     -10.522   7.521  69.818  1.00  0.00    -0.232 A  
HETATM    7  C   UNL     1     -11.027   6.123  67.870  1.00  0.00    -0.399 A  
HETATM    8  C   UNL     1      -9.991   8.476  68.925  1.00  0.00    -0.197 A  
HETATM    9  C   UNL     1     -11.045   6.341  69.253  1.00  0.00    -0.461 A  
HETATM   10  C   UNL     1      -9.967   8.255  67.543  1.00  0.00    -0.252 A  
HETATM   11  C   UNL     1     -10.486   7.077  67.017  1.00  0.00    -0.386 A  
ENDBRANCH   5   6
BRANCH   5  12
HETATM   12  C   UNL     1     -10.959   9.278  71.684  1.00  0.00    -0.433 C  
BRANCH  12  13
HETATM   13  C   UNL     1     -12.201   9.930  70.981  1.00  0.00    -0.353 C  
HETATM   14  C   UNL     1     -13.381  10.100  71.951  1.00  0.00    -0.505 C  
BRANCH  13  15
HETATM   15  N   UNL     1     -11.838  11.274  70.407  1.00  0.00    -0.348 NA 
HETATM   16  C   UNL     1     -11.974  11.348  68.948  1.00  0.00    -0.304 C  
HETATM   17  C   UNL     1     -12.630  12.371  70.988  1.00  0.00    -0.254 C  
ENDBRANCH  13  15
ENDBRANCH  12  13
ENDBRANCH   5  12
BRANCH   5  18
HETATM   18  C   UNL     1      -8.992   7.644  71.869  1.00  0.00    -0.149 A  
HETATM   19  C   UNL     1      -8.585   8.272  73.066  1.00  0.00    -0.275 A  
HETATM   20  C   UNL     1      -6.794   6.556  71.803  1.00  0.00    -0.064 A  
HETATM   21  C   UNL     1      -6.448   7.134  73.017  1.00  0.00    -0.064 A  
HETATM   22  C   UNL     1      -7.337   8.003  73.642  1.00  0.00    -0.185 A  
HETATM   23  C   UNL     1      -8.049   6.805  71.239  1.00  0.00    -0.111 A  
ENDBRANCH   5  18
ENDBRANCH   3   5
ENDBRANCH   2   3
TORSDOF 7
ENDMDL
MODEL       79
REMARK 921   NORMALIZED FREE ENERGY PREDICTED BY IDOCK:   -4.41 KCAL/MOL
REMARK 922        TOTAL FREE ENERGY PREDICTED BY IDOCK:   -7.46 KCAL/MOL
REMARK 923 INTER-LIGAND FREE ENERGY PREDICTED BY IDOCK:   -6.69 KCAL/MOL
REMARK 924 INTRA-LIGAND FREE ENERGY PREDICTED BY IDOCK:   -0.78 KCAL/MOL
REMARK 927      BINDING AFFINITY PREDICTED BY RF-SCORE:    0.00 PKD
ROOT
HETATM    1  C   UNL     1      -8.380  10.651  69.058  1.00  0.00    -0.153 C  
HETATM    2  C   UNL     1      -7.997  12.067  68.644  1.00  0.00    -0.082 C  
ENDROOT
BRANCH   2   3
HETATM    3  C   UNL     1      -8.548  12.410  67.266  1.00  0.00    -0.185 C  
HETATM    4  O   UNL     1      -8.355  11.605  66.344  1.00  0.00    -0.162 OA 
BRANCH   3   5
HETATM    5  C   UNL     1      -9.439  13.712  67.074  1.00  0.00    -0.252 C  
BRANCH   5   6
HETATM    6  C   UNL     1      -8.390  14.892  66.990  1.00  0.00    -0.246 A  
HETATM    7  C   UNL     1      -7.644  17.094  66.219  1.00  0.00    -0.352 A  
HETATM    8  C   UNL     1      -7.125  14.738  67.597  1.00  0.00    -0.206 A  
HETATM    9  C   UNL     1      -8.626  16.099  66.304  1.00  0.00    -0.373 A  
HETATM   10  C   UNL     1      -6.142  15.729  67.505  1.00  0.00    -0.162 A  
HETATM   11  C   UNL     1      -6.403  16.908  66.815  1.00  0.00    -0.239 A  
ENDBRANCH   5   6
BRANCH   5  12
HETATM   12  C   UNL     1     -10.292  13.643  65.732  1.00  0.00    -0.304 C  
BRANCH  12  13
HETATM   13  C   UNL     1     -11.575  12.752  65.580  1.00  0.00    -0.362 C  
HETATM   14  C   UNL     1     -12.851  13.603  65.483  1.00  0.00    -0.443 C  
BRANCH  13  15
HETATM   15  N   UNL     1     -11.471  11.881  64.358  1.00  0.00    -0.336 NA 
HETATM   16  C   UNL     1     -12.632  11.977  63.465  1.00  0.00    -0.507 C  
HETATM   17  C   UNL     1     -10.267  12.164  63.559  1.00  0.00    -0.424 C  
ENDBRANCH  13  15
ENDBRANCH  12  13
ENDBRANCH   5  12
BRANCH   5  18
HETATM   18  C   UNL     1     -10.407  13.970  68.273  1.00  0.00    -0.247 A  
HETATM   19  C   UNL     1     -11.283  12.948  68.699  1.00  0.00    -0.321 A  
HETATM   20  C   UNL     1     -11.139  15.279  70.215  1.00  0.00    -0.316 A  
HETATM   21  C   UNL     1     -11.940  14.230  70.646  1.00  0.00    -0.392 A  
HETATM   22  C   UNL     1     -12.023  13.070  69.882  1.00  0.00    -0.381 A  
HETATM   23  C   UNL     1     -10.381  15.149  69.046  1.00  0.00    -0.244 A  
ENDBRANCH   5  18
ENDBRANCH   3   5
ENDBRANCH   2   3
TORSDOF 7
ENDMDL
MODEL       80
REMARK 921   NORMALIZED FREE ENERGY PREDICTED BY IDOCK:   -4.38 KCAL/MOL
REMARK 922        TOTAL FREE ENERGY PREDICTED BY IDOCK:   -7.43 KCAL/MOL
REMARK 923 INTER-LIGAND FREE ENERGY PREDICTED BY IDOCK:   -7.02 KCAL/MOL
REMARK 924 INTRA-LIGAND FREE ENERGY PREDICTED BY IDOCK:   -0.41 KCAL/MOL
REMARK 927      BINDING AFFINITY PREDICTED BY RF-SCORE:    0.00 PKD
ROOT
HETATM    1  C   UNL     1      -6.891  10.371  66.910  1.00  0.00    -0.088 C  
HETATM    2  C   UNL     1      -7.952  11.381  66.487  1.00  0.00    -0.128 C  
ENDROOT
BRANCH   2   3
HETATM    3  C   UNL     1      -8.591  12.053  67.696  1.00  0.00    -0.163 C  
HETATM    4  O   UNL     1      -7.861  12.347  68.652  1.00  0.00    -0.117 OA 
BRANCH   3   5
HETATM    5  C   UNL     1     -10.128  12.459  67.652  1.00  0.00    -0.199 C  
BRANCH   5   6
HETATM    6  C   UNL     1     -10.791  11.586  68.791  1.00  0.00    -0.258 A  
HETATM    7  C   UNL     1     -12.372  11.242  70.631  1.00  0.00    -0.477 A  
HETATM    8  C   UNL     1     -10.287  10.295  69.057  1.00  0.00    -0.229 A  
HETATM    9  C   UNL     1     -11.852  12.036  69.602  1.00  0.00    -0.401 A  
HETATM   10  C   UNL     1     -10.803   9.504  70.090  1.00  0.00    -0.300 A  
HETATM   11  C   UNL     1     -11.847   9.979  70.877  1.00  0.00    -0.459 A  
ENDBRANCH   5   6
BRANCH   5  12
HETATM   12  C   UNL     1     -10.331  14.007  67.961  1.00  0.00    -0.240 C  
BRANCH  12  13
HETATM   13  C   UNL     1      -9.302  15.108  67.523  1.00  0.00    -0.198 C  
HETATM   14  C   UNL     1      -9.355  15.368  66.009  1.00  0.00    -0.364 C  
BRANCH  13  15
HETATM   15  N   UNL     1      -9.566  16.397  68.253  1.00  0.00    -0.216 NA 
HETATM   16  C   UNL     1     -10.493  16.256  69.382  1.00  0.00    -0.292 C  
HETATM   17  C   UNL     1      -8.334  17.025  68.760  1.00  0.00    -0.237 C  
ENDBRANCH  13  15
ENDBRANCH  12  13
ENDBRANCH   5  12
BRANCH   5  18
HETATM   18  C   UNL     1     -10.808  12.124  66.287  1.00  0.00    -0.317 A  
HETATM   19  C   UNL     1     -12.032  12.740  65.943  1.00  0.00    -0.506 A  
HETATM   20  C   UNL     1     -10.761  11.169  64.027  1.00  0.00    -0.409 A  
HETATM   21  C   UNL     1     -11.929  11.842  63.696  1.00  0.00    -0.578 A  
HETATM   22  C   UNL     1     -12.572  12.616  64.657  1.00  0.00    -0.517 A  
HETATM   23  C   UNL     1     -10.207  11.310  65.304  1.00  0.00    -0.328 A  
ENDBRANCH   5  18
ENDBRANCH   3   5
ENDBRANCH   2   3
TORSDOF 7
ENDMDL
MODEL       81
REMARK 921   NORMALIZED FREE ENERGY PREDICTED BY IDOCK:   -4.37 KCAL/MOL
REMARK 922        TOTAL FREE ENERGY PREDICTED BY IDOCK:   -7.41 KCAL/MOL
REMARK 923 INTER-LIGAND FREE ENERGY PREDICTED BY IDOCK:   -7.21 KCAL/MOL
REMARK 924 INTRA-LIGAND FREE ENERGY PREDICTED BY IDOCK:   -0.20 KCAL/MOL
REMARK 927      BINDING AFFINITY PREDICTED BY RF-SCORE:    0.00 PKD
ROOT
HETATM    1  C   UNL     1     -11.355  15.610  70.055  1.00  0.00    -0.341 C  
HETATM    2  C   UNL     1     -11.629  14.110  70.053  1.00  0.00    -0.315 C  
ENDROOT
BRANCH   2   3
HETATM    3  C   UNL     1     -11.737  13.567  68.634  1.00  0.00    -0.354 C  
HETATM    4  O   UNL     1     -12.396  14.217  67.810  1.00  0.00    -0.247 OA 
BRANCH   3   5
HETATM    5  C   UNL     1     -10.923  12.266  68.223  1.00  0.00    -0.268 C  
BRANCH   5   6
HETATM    6  C   UNL     1     -11.152  11.268  69.427  1.00  0.00    -0.316 A  
HETATM    7  C   UNL     1     -10.523   9.355  70.823  1.00  0.00    -0.372 A  
HETATM    8  C   UNL     1     -12.338  11.360  70.186  1.00  0.00    -0.344 A  
HETATM    9  C   UNL     1     -10.249  10.245  69.777  1.00  0.00    -0.262 A  
HETATM   10  C   UNL     1     -12.615  10.466  71.227  1.00  0.00    -0.525 A  
HETATM   11  C   UNL     1     -11.706   9.463  71.544  1.00  0.00    -0.465 A  
ENDBRANCH   5   6
BRANCH   5  12
HETATM   12  C   UNL     1     -11.478  11.632  66.873  1.00  0.00    -0.320 C  
BRANCH  12  13
HETATM   13  C   UNL     1     -11.019  12.111  65.451  1.00  0.00    -0.302 C  
HETATM   14  C   UNL     1     -10.405  10.963  64.634  1.00  0.00    -0.407 C  
BRANCH  13  15
HETATM   15  N   UNL     1     -12.179  12.692  64.689  1.00  0.00    -0.428 NA 
HETATM   16  C   UNL     1     -12.075  14.139  64.471  1.00  0.00    -0.468 C  
HETATM   17  C   UNL     1     -12.373  12.053  63.376  1.00  0.00    -0.523 C  
ENDBRANCH  13  15
ENDBRANCH  12  13
ENDBRANCH   5  12
BRANCH   5  18
HETATM   18  C   UNL     1      -9.392  12.531  68.061  1.00  0.00    -0.205 A  
HETATM   19  C   UNL     1      -8.485  11.449  68.086  1.00  0.00    -0.152 A  
HETATM   20  C   UNL     1      -7.502  13.978  67.466  1.00  0.00    -0.186 A  
HETATM   21  C   UNL     1      -6.648  12.884  67.430  1.00  0.00    -0.132 A  
HETATM   22  C   UNL     1      -7.136  11.621  67.754  1.00  0.00    -0.092 A  
HETATM   23  C   UNL     1      -8.855  13.804  67.774  1.00  0.00    -0.188 A  
ENDBRANCH   5  18
ENDBRANCH   3   5
ENDBRANCH   2   3
TORSDOF 7
ENDMDL
MODEL       82
REMARK 921   NORMALIZED FREE ENERGY PREDICTED BY IDOCK:   -4.37 KCAL/MOL
REMARK 922        TOTAL FREE ENERGY PREDICTED BY IDOCK:   -7.41 KCAL/MOL
REMARK 923 INTER-LIGAND FREE ENERGY PREDICTED BY IDOCK:   -6.82 KCAL/MOL
REMARK 924 INTRA-LIGAND FREE ENERGY PREDICTED BY IDOCK:   -0.59 KCAL/MOL
REMARK 927      BINDING AFFINITY PREDICTED BY RF-SCORE:    0.00 PKD
ROOT
HETATM    1  C   UNL     1      -5.867  11.210  66.265  1.00  0.00    -0.139 C  
HETATM    2  C   UNL     1      -7.324  10.778  66.396  1.00  0.00    -0.142 C  
ENDROOT
BRANCH   2   3
HETATM    3  C   UNL     1      -8.184  11.894  66.972  1.00  0.00    -0.170 C  
HETATM    4  O   UNL     1      -7.650  12.992  67.183  1.00  0.00    -0.122 OA 
BRANCH   3   5
HETATM    5  C   UNL     1      -9.744  11.664  67.176  1.00  0.00    -0.195 C  
BRANCH   5   6
HETATM    6  C   UNL     1      -9.870  10.120  67.491  1.00  0.00    -0.211 A  
HETATM    7  C   UNL     1     -10.660   7.853  67.002  1.00  0.00    -0.381 A  
HETATM    8  C   UNL     1      -9.329   9.612  68.692  1.00  0.00    -0.143 A  
HETATM    9  C   UNL     1     -10.533   9.203  66.652  1.00  0.00    -0.237 A  
HETATM   10  C   UNL     1      -9.461   8.264  69.044  1.00  0.00    -0.155 A  
HETATM   11  C   UNL     1     -10.127   7.385  68.197  1.00  0.00    -0.210 A  
ENDBRANCH   5   6
BRANCH   5  12
HETATM   12  C   UNL     1     -10.306  12.519  68.395  1.00  0.00    -0.237 C  
BRANCH  12  13
HETATM   13  C   UNL     1     -11.777  12.388  68.924  1.00  0.00    -0.324 C  
HETATM   14  C   UNL     1     -11.867  11.437  70.129  1.00  0.00    -0.440 C  
BRANCH  13  15
HETATM   15  N   UNL     1     -12.318  13.735  69.321  1.00  0.00    -0.252 NA 
HETATM   16  C   UNL     1     -12.503  13.893  70.768  1.00  0.00    -0.375 C  
HETATM   17  C   UNL     1     -11.472  14.846  68.853  1.00  0.00    -0.299 C  
ENDBRANCH  13  15
ENDBRANCH  12  13
ENDBRANCH   5  12
BRANCH   5  18
HETATM   18  C   UNL     1     -10.580  11.997  65.899  1.00  0.00    -0.302 A  
HETATM   19  C   UNL     1     -10.121  11.580  64.631  1.00  0.00    -0.318 A  
HETATM   20  C   UNL     1     -12.649  12.732  64.804  1.00  0.00    -0.518 A  
HETATM   21  C   UNL     1     -12.198  12.251  63.582  1.00  0.00    -0.665 A  
HETATM   22  C   UNL     1     -10.929  11.687  63.492  1.00  0.00    -0.485 A  
HETATM   23  C   UNL     1     -11.852  12.604  65.947  1.00  0.00    -0.499 A  
ENDBRANCH   5  18
ENDBRANCH   3   5
ENDBRANCH   2   3
TORSDOF 7
ENDMDL
MODEL       83
REMARK 921   NORMALIZED FREE ENERGY PREDICTED BY IDOCK:   -4.34 KCAL/MOL
REMARK 922        TOTAL FREE ENERGY PREDICTED BY IDOCK:   -7.36 KCAL/MOL
REMARK 923 INTER-LIGAND FREE ENERGY PREDICTED BY IDOCK:   -6.45 KCAL/MOL
REMARK 924 INTRA-LIGAND FREE ENERGY PREDICTED BY IDOCK:   -0.92 KCAL/MOL
REMARK 927      BINDING AFFINITY PREDICTED BY RF-SCORE:    0.00 PKD
ROOT
HETATM    1  C   UNL     1     -14.310   9.207  72.453  1.00  0.00    -0.235 C  
HETATM    2  C   UNL     1     -12.839   9.092  72.068  1.00  0.00    -0.483 C  
ENDROOT
BRANCH   2   3
HETATM    3  C   UNL     1     -12.513   7.706  71.528  1.00  0.00    -0.336 C  
HETATM    4  O   UNL     1     -13.456   6.956  71.240  1.00  0.00    -0.268 OA 
BRANCH   3   5
HETATM    5  C   UNL     1     -11.002   7.306  71.241  1.00  0.00    -0.264 C  
BRANCH   5   6
HETATM    6  C   UNL     1     -10.887   7.327  69.665  1.00  0.00    -0.238 A  
HETATM    7  C   UNL     1     -10.983   6.267  67.458  1.00  0.00    -0.444 A  
HETATM    8  C   UNL     1     -10.465   8.508  69.017  1.00  0.00    -0.216 A  
HETATM    9  C   UNL     1     -11.148   6.209  68.848  1.00  0.00    -0.417 A  
HETATM   10  C   UNL     1     -10.295   8.563  67.629  1.00  0.00    -0.317 A  
HETATM   11  C   UNL     1     -10.555   7.440  66.850  1.00  0.00    -0.375 A  
ENDBRANCH   5   6
BRANCH   5  12
HETATM   12  C   UNL     1      -9.989   8.356  71.878  1.00  0.00    -0.331 C  
BRANCH  12  13
HETATM   13  C   UNL     1      -8.466   8.050  72.098  1.00  0.00    -0.146 C  
HETATM   14  C   UNL     1      -7.577   8.853  71.136  1.00  0.00    -0.143 C  
BRANCH  13  15
HETATM   15  N   UNL     1      -8.065   8.362  73.515  1.00  0.00    -0.375 NA 
HETATM   16  C   UNL     1      -8.574   7.398  74.498  1.00  0.00    -0.179 C  
HETATM   17  C   UNL     1      -6.604   8.447  73.685  1.00  0.00    -0.111 C  
ENDBRANCH  13  15
ENDBRANCH  12  13
ENDBRANCH   5  12
BRANCH   5  18
HETATM   18  C   UNL     1     -10.640   5.879  71.763  1.00  0.00    -0.286 A  
HETATM   19  C   UNL     1      -9.673   5.107  71.083  1.00  0.00    -0.235 A  
HETATM   20  C   UNL     1     -10.677   4.137  73.492  1.00  0.00    -0.310 A  
HETATM   21  C   UNL     1      -9.676   3.435  72.835  1.00  0.00    -0.185 A  
HETATM   22  C   UNL     1      -9.183   3.912  71.624  1.00  0.00    -0.188 A  
HETATM   23  C   UNL     1     -11.150   5.344  72.964  1.00  0.00    -0.368 A  
ENDBRANCH   5  18
ENDBRANCH   3   5
ENDBRANCH   2   3
TORSDOF 7
ENDMDL
MODEL       84
REMARK 921   NORMALIZED FREE ENERGY PREDICTED BY IDOCK:   -4.33 KCAL/MOL
REMARK 922        TOTAL FREE ENERGY PREDICTED BY IDOCK:   -7.35 KCAL/MOL
REMARK 923 INTER-LIGAND FREE ENERGY PREDICTED BY IDOCK:   -6.55 KCAL/MOL
REMARK 924 INTRA-LIGAND FREE ENERGY PREDICTED BY IDOCK:   -0.81 KCAL/MOL
REMARK 927      BINDING AFFINITY PREDICTED BY RF-SCORE:    0.00 PKD
ROOT
HETATM    1  C   UNL     1      -7.835  13.865  67.460  1.00  0.00    -0.193 C  
HETATM    2  C   UNL     1      -8.252  12.588  68.181  1.00  0.00    -0.170 C  
ENDROOT
BRANCH   2   3
HETATM    3  C   UNL     1      -8.595  11.480  67.194  1.00  0.00    -0.155 C  
HETATM    4  O   UNL     1      -7.697  11.067  66.447  1.00  0.00    -0.150 OA 
BRANCH   3   5
HETATM    5  C   UNL     1     -10.038  10.814  67.226  1.00  0.00    -0.233 C  
BRANCH   5   6
HETATM    6  C   UNL     1     -10.980  11.896  66.563  1.00  0.00    -0.337 A  
HETATM    7  C   UNL     1     -12.161  12.882  64.656  1.00  0.00    -0.474 A  
HETATM    8  C   UNL     1     -11.446  12.979  67.339  1.00  0.00    -0.380 A  
HETATM    9  C   UNL     1     -11.364  11.871  65.207  1.00  0.00    -0.333 A  
HETATM   10  C   UNL     1     -12.236  13.992  66.786  1.00  0.00    -0.439 A  
HETATM   11  C   UNL     1     -12.594  13.942  65.443  1.00  0.00    -0.538 A  
ENDBRANCH   5   6
BRANCH   5  12
HETATM   12  C   UNL     1     -10.076   9.464  66.384  1.00  0.00    -0.332 C  
BRANCH  12  13
HETATM   13  C   UNL     1      -9.693   8.068  66.988  1.00  0.00    -0.211 C  
HETATM   14  C   UNL     1     -10.910   7.135  67.085  1.00  0.00    -0.403 C  
BRANCH  13  15
HETATM   15  N   UNL     1      -8.630   7.405  66.154  1.00  0.00    -0.140 NA 
HETATM   16  C   UNL     1      -8.911   5.996  65.854  1.00  0.00    -0.149 C  
HETATM   17  C   UNL     1      -8.398   8.098  64.876  1.00  0.00    -0.123 C  
ENDBRANCH  13  15
ENDBRANCH  12  13
ENDBRANCH   5  12
BRANCH   5  18
HETATM   18  C   UNL     1     -10.539  10.517  68.676  1.00  0.00    -0.226 A  
HETATM   19  C   UNL     1     -11.900  10.709  69.001  1.00  0.00    -0.256 A  
HETATM   20  C   UNL     1     -10.243   9.535  70.905  1.00  0.00    -0.356 A  
HETATM   21  C   UNL     1     -11.599   9.675  71.170  1.00  0.00    -0.456 A  
HETATM   22  C   UNL     1     -12.425  10.274  70.224  1.00  0.00    -0.239 A  
HETATM   23  C   UNL     1      -9.721   9.948  69.674  1.00  0.00    -0.252 A  
ENDBRANCH   5  18
ENDBRANCH   3   5
ENDBRANCH   2   3
TORSDOF 7
ENDMDL
MODEL       85
REMARK 921   NORMALIZED FREE ENERGY PREDICTED BY IDOCK:   -4.32 KCAL/MOL
REMARK 922        TOTAL FREE ENERGY PREDICTED BY IDOCK:   -7.34 KCAL/MOL
REMARK 923 INTER-LIGAND FREE ENERGY PREDICTED BY IDOCK:   -6.49 KCAL/MOL
REMARK 924 INTRA-LIGAND FREE ENERGY PREDICTED BY IDOCK:   -0.85 KCAL/MOL
REMARK 927      BINDING AFFINITY PREDICTED BY RF-SCORE:    0.00 PKD
ROOT
HETATM    1  C   UNL     1      -6.685   8.562  69.513  1.00  0.00    -0.041 C  
HETATM    2  C   UNL     1      -7.714   9.686  69.448  1.00  0.00    -0.101 C  
ENDROOT
BRANCH   2   3
HETATM    3  C   UNL     1      -9.000   9.303  70.167  1.00  0.00    -0.214 C  
HETATM    4  O   UNL     1      -9.011   9.350  71.405  1.00  0.00    -0.284 OA 
BRANCH   3   5
HETATM    5  C   UNL     1     -10.307   8.973  69.325  1.00  0.00    -0.227 C  
BRANCH   5   6
HETATM    6  C   UNL     1     -11.488   9.127  70.365  1.00  0.00    -0.228 A  
HETATM    7  C   UNL     1     -13.024  10.453  71.737  1.00  0.00    -0.580 A  
HETATM    8  C   UNL     1     -12.042   7.973  70.959  1.00  0.00    -0.232 A  
HETATM    9  C   UNL     1     -12.010  10.370  70.775  1.00  0.00    -0.462 A  
HETATM   10  C   UNL     1     -13.051   8.058  71.925  1.00  0.00    -0.336 A  
HETATM   11  C   UNL     1     -13.541   9.300  72.314  1.00  0.00    -0.544 A  
ENDBRANCH   5   6
BRANCH   5  12
HETATM   12  C   UNL     1     -10.501   9.997  68.122  1.00  0.00    -0.250 C  
BRANCH  12  13
HETATM   13  C   UNL     1     -10.465  11.555  68.311  1.00  0.00    -0.197 C  
HETATM   14  C   UNL     1      -9.257  12.188  67.602  1.00  0.00    -0.181 C  
BRANCH  13  15
HETATM   15  N   UNL     1     -11.728  12.180  67.784  1.00  0.00    -0.446 NA 
HETATM   16  C   UNL     1     -12.009  13.505  68.348  1.00  0.00    -0.343 C  
HETATM   17  C   UNL     1     -11.729  12.307  66.317  1.00  0.00    -0.366 C  
ENDBRANCH  13  15
ENDBRANCH  12  13
ENDBRANCH   5  12
BRANCH   5  18
HETATM   18  C   UNL     1     -10.313   7.519  68.754  1.00  0.00    -0.212 A  
HETATM   19  C   UNL     1     -10.877   7.266  67.485  1.00  0.00    -0.284 A  
HETATM   20  C   UNL     1      -9.548   5.188  68.775  1.00  0.00    -0.198 A  
HETATM   21  C   UNL     1     -10.054   4.988  67.497  1.00  0.00    -0.201 A  
HETATM   22  C   UNL     1     -10.730   6.023  66.857  1.00  0.00    -0.407 A  
HETATM   23  C   UNL     1      -9.674   6.436  69.393  1.00  0.00    -0.160 A  
ENDBRANCH   5  18
ENDBRANCH   3   5
ENDBRANCH   2   3
TORSDOF 7
ENDMDL
MODEL       86
REMARK 921   NORMALIZED FREE ENERGY PREDICTED BY IDOCK:   -4.32 KCAL/MOL
REMARK 922        TOTAL FREE ENERGY PREDICTED BY IDOCK:   -7.34 KCAL/MOL
REMARK 923 INTER-LIGAND FREE ENERGY PREDICTED BY IDOCK:   -6.06 KCAL/MOL
REMARK 924 INTRA-LIGAND FREE ENERGY PREDICTED BY IDOCK:   -1.27 KCAL/MOL
REMARK 927      BINDING AFFINITY PREDICTED BY RF-SCORE:    0.00 PKD
ROOT
HETATM    1  C   UNL     1      -9.565   9.241  66.937  1.00  0.00    -0.229 C  
HETATM    2  C   UNL     1     -10.484   8.628  67.987  1.00  0.00    -0.254 C  
ENDROOT
BRANCH   2   3
HETATM    3  C   UNL     1     -10.025   8.975  69.397  1.00  0.00    -0.191 C  
HETATM    4  O   UNL     1      -9.557  10.105  69.597  1.00  0.00    -0.225 OA 
BRANCH   3   5
HETATM    5  C   UNL     1     -10.260   7.940  70.581  1.00  0.00    -0.199 C  
BRANCH   5   6
HETATM    6  C   UNL     1     -11.703   8.292  71.123  1.00  0.00    -0.308 A  
HETATM    7  C   UNL     1     -13.375   9.838  72.027  1.00  0.00    -0.547 A  
HETATM    8  C   UNL     1     -12.656   7.262  71.275  1.00  0.00    -0.402 A  
HETATM    9  C   UNL     1     -12.099   9.588  71.507  1.00  0.00    -0.468 A  
HETATM   10  C   UNL     1     -13.928   7.510  71.801  1.00  0.00    -0.473 A  
HETATM   11  C   UNL     1     -14.287   8.800  72.177  1.00  0.00    -0.481 A  
ENDBRANCH   5   6
BRANCH   5  12
HETATM   12  C   UNL     1     -10.224   6.437  70.058  1.00  0.00    -0.221 C  
BRANCH  12  13
HETATM   13  C   UNL     1      -9.192   5.376  70.578  1.00  0.00    -0.147 C  
HETATM   14  C   UNL     1      -9.849   4.358  71.524  1.00  0.00    -0.259 C  
BRANCH  13  15
HETATM   15  N   UNL     1      -8.562   4.642  69.426  1.00  0.00    -0.081 NA 
HETATM   16  C   UNL     1      -9.235   3.379  69.094  1.00  0.00    -0.160 C  
HETATM   17  C   UNL     1      -8.503   5.454  68.199  1.00  0.00    -0.097 C  
ENDBRANCH  13  15
ENDBRANCH  12  13
ENDBRANCH   5  12
BRANCH   5  18
HETATM   18  C   UNL     1      -9.225   8.095  71.740  1.00  0.00    -0.232 A  
HETATM   19  C   UNL     1      -9.622   7.847  73.073  1.00  0.00    -0.341 A  
HETATM   20  C   UNL     1      -6.926   8.327  72.567  1.00  0.00    -0.110 A  
HETATM   21  C   UNL     1      -7.336   8.013  73.856  1.00  0.00    -0.196 A  
HETATM   22  C   UNL     1      -8.685   7.786  74.112  1.00  0.00    -0.293 A  
HETATM   23  C   UNL     1      -7.858   8.365  71.524  1.00  0.00    -0.146 A  
ENDBRANCH   5  18
ENDBRANCH   3   5
ENDBRANCH   2   3
TORSDOF 7
ENDMDL
MODEL       87
REMARK 921   NORMALIZED FREE ENERGY PREDICTED BY IDOCK:   -4.30 KCAL/MOL
REMARK 922        TOTAL FREE ENERGY PREDICTED BY IDOCK:   -7.31 KCAL/MOL
REMARK 923 INTER-LIGAND FREE ENERGY PREDICTED BY IDOCK:   -6.10 KCAL/MOL
REMARK 924 INTRA-LIGAND FREE ENERGY PREDICTED BY IDOCK:   -1.22 KCAL/MOL
REMARK 927      BINDING AFFINITY PREDICTED BY RF-SCORE:    0.00 PKD
ROOT
HETATM    1  C   UNL     1      -7.539   8.942  67.226  1.00  0.00    -0.089 C  
HETATM    2  C   UNL     1      -7.906   9.927  66.121  1.00  0.00    -0.110 C  
ENDROOT
BRANCH   2   3
HETATM    3  C   UNL     1      -9.339  10.420  66.271  1.00  0.00    -0.166 C  
HETATM    4  O   UNL     1     -10.257   9.635  65.998  1.00  0.00    -0.265 OA 
BRANCH   3   5
HETATM    5  C   UNL     1      -9.617  11.864  66.875  1.00  0.00    -0.208 C  
BRANCH   5   6
HETATM    6  C   UNL     1     -10.401  11.578  68.218  1.00  0.00    -0.211 A  
HETATM    7  C   UNL     1     -11.076  10.142  70.084  1.00  0.00    -0.378 A  
HETATM    8  C   UNL     1     -11.265  12.565  68.739  1.00  0.00    -0.318 A  
HETATM    9  C   UNL     1     -10.322  10.362  68.925  1.00  0.00    -0.227 A  
HETATM   10  C   UNL     1     -12.024  12.342  69.893  1.00  0.00    -0.377 A  
HETATM   11  C   UNL     1     -11.928  11.128  70.566  1.00  0.00    -0.475 A  
ENDBRANCH   5   6
BRANCH   5  12
HETATM   12  C   UNL     1      -8.261  12.638  67.188  1.00  0.00    -0.159 C  
BRANCH  12  13
HETATM   13  C   UNL     1      -7.803  13.005  68.642  1.00  0.00    -0.050 C  
HETATM   14  C   UNL     1      -6.527  12.249  69.046  1.00  0.00    -0.096 C  
BRANCH  13  15
HETATM   15  N   UNL     1      -7.556  14.485  68.760  1.00  0.00    -0.126 NA 
HETATM   16  C   UNL     1      -6.890  15.066  67.588  1.00  0.00    -0.179 C  
HETATM   17  C   UNL     1      -8.791  15.250  69.000  1.00  0.00    -0.226 C  
ENDBRANCH  13  15
ENDBRANCH  12  13
ENDBRANCH   5  12
BRANCH   5  18
HETATM   18  C   UNL     1     -10.501  12.754  65.944  1.00  0.00    -0.295 A  
HETATM   19  C   UNL     1     -11.817  12.349  65.629  1.00  0.00    -0.468 A  
HETATM   20  C   UNL     1     -10.975  14.867  64.790  1.00  0.00    -0.390 A  
HETATM   21  C   UNL     1     -12.284  14.468  64.554  1.00  0.00    -0.483 A  
HETATM   22  C   UNL     1     -12.702  13.204  64.961  1.00  0.00    -0.456 A  
HETATM   23  C   UNL     1     -10.097  14.022  65.477  1.00  0.00    -0.343 A  
ENDBRANCH   5  18
ENDBRANCH   3   5
ENDBRANCH   2   3
TORSDOF 7
ENDMDL
MODEL       88
REMARK 921   NORMALIZED FREE ENERGY PREDICTED BY IDOCK:   -4.27 KCAL/MOL
REMARK 922        TOTAL FREE ENERGY PREDICTED BY IDOCK:   -7.27 KCAL/MOL
REMARK 923 INTER-LIGAND FREE ENERGY PREDICTED BY IDOCK:   -6.41 KCAL/MOL
REMARK 924 INTRA-LIGAND FREE ENERGY PREDICTED BY IDOCK:   -0.86 KCAL/MOL
REMARK 927      BINDING AFFINITY PREDICTED BY RF-SCORE:    0.00 PKD
ROOT
HETATM    1  C   UNL     1      -6.598  13.601  69.195  1.00  0.00    -0.109 C  
HETATM    2  C   UNL     1      -7.446  13.008  68.075  1.00  0.00    -0.134 C  
ENDROOT
BRANCH   2   3
HETATM    3  C   UNL     1      -8.738  13.791  67.883  1.00  0.00    -0.183 C  
HETATM    4  O   UNL     1      -8.653  14.979  67.539  1.00  0.00    -0.162 OA 
BRANCH   3   5
HETATM    5  C   UNL     1     -10.137  13.049  68.010  1.00  0.00    -0.235 C  
BRANCH   5   6
HETATM    6  C   UNL     1     -10.830  13.283  66.609  1.00  0.00    -0.289 A  
HETATM    7  C   UNL     1     -10.791  13.518  64.170  1.00  0.00    -0.250 A  
HETATM    8  C   UNL     1     -12.209  13.577  66.559  1.00  0.00    -0.433 A  
HETATM    9  C   UNL     1     -10.139  13.255  65.381  1.00  0.00    -0.267 A  
HETATM   10  C   UNL     1     -12.859  13.847  65.349  1.00  0.00    -0.466 A  
HETATM   11  C   UNL     1     -12.148  13.817  64.154  1.00  0.00    -0.478 A  
ENDBRANCH   5   6
BRANCH   5  12
HETATM   12  C   UNL     1      -9.949  11.490  68.273  1.00  0.00    -0.205 C  
BRANCH  12  13
HETATM   13  C   UNL     1     -10.264  10.397  67.193  1.00  0.00    -0.222 C  
HETATM   14  C   UNL     1      -9.040  10.096  66.313  1.00  0.00    -0.180 C  
BRANCH  13  15
HETATM   15  N   UNL     1     -10.723   9.123  67.849  1.00  0.00    -0.205 NA 
HETATM   16  C   UNL     1     -10.416   7.916  67.072  1.00  0.00    -0.349 C  
HETATM   17  C   UNL     1     -10.159   8.944  69.197  1.00  0.00    -0.197 C  
ENDBRANCH  13  15
ENDBRANCH  12  13
ENDBRANCH   5  12
BRANCH   5  18
HETATM   18  C   UNL     1     -11.042  13.644  69.136  1.00  0.00    -0.275 A  
HETATM   19  C   UNL     1     -11.310  15.030  69.162  1.00  0.00    -0.311 A  
HETATM   20  C   UNL     1     -12.652  13.394  70.971  1.00  0.00    -0.425 A  
HETATM   21  C   UNL     1     -12.945  14.751  70.927  1.00  0.00    -0.422 A  
HETATM   22  C   UNL     1     -12.264  15.571  70.032  1.00  0.00    -0.380 A  
HETATM   23  C   UNL     1     -11.716  12.848  70.086  1.00  0.00    -0.234 A  
ENDBRANCH   5  18
ENDBRANCH   3   5
ENDBRANCH   2   3
TORSDOF 7
ENDMDL
MODEL       89
REMARK 921   NORMALIZED FREE ENERGY PREDICTED BY IDOCK:   -4.26 KCAL/MOL
REMARK 922        TOTAL FREE ENERGY PREDICTED BY IDOCK:   -7.25 KCAL/MOL
REMARK 923 INTER-LIGAND FREE ENERGY PREDICTED BY IDOCK:   -5.94 KCAL/MOL
REMARK 924 INTRA-LIGAND FREE ENERGY PREDICTED BY IDOCK:   -1.31 KCAL/MOL
REMARK 927      BINDING AFFINITY PREDICTED BY RF-SCORE:    0.00 PKD
ROOT
HETATM    1  C   UNL     1      -6.915   8.044  69.530  1.00  0.00    -0.050 C  
HETATM    2  C   UNL     1      -8.184   8.873  69.693  1.00  0.00    -0.114 C  
ENDROOT
BRANCH   2   3
HETATM    3  C   UNL     1      -9.014   8.391  70.875  1.00  0.00    -0.160 C  
HETATM    4  O   UNL     1      -8.718   8.807  72.004  1.00  0.00    -0.319 OA 
BRANCH   3   5
HETATM    5  C   UNL     1     -10.289   7.475  70.623  1.00  0.00    -0.211 C  
BRANCH   5   6
HETATM    6  C   UNL     1     -10.207   6.376  71.756  1.00  0.00    -0.222 A  
HETATM    7  C   UNL     1      -8.983   4.805  73.184  1.00  0.00    -0.115 A  
HETATM    8  C   UNL     1     -11.398   5.886  72.334  1.00  0.00    -0.358 A  
HETATM    9  C   UNL     1      -8.998   5.813  72.212  1.00  0.00    -0.139 A  
HETATM   10  C   UNL     1     -11.382   4.874  73.301  1.00  0.00    -0.408 A  
HETATM   11  C   UNL     1     -10.173   4.335  73.726  1.00  0.00    -0.221 A  
ENDBRANCH   5   6
BRANCH   5  12
HETATM   12  C   UNL     1     -11.640   8.304  70.763  1.00  0.00    -0.250 C  
BRANCH  12  13
HETATM   13  C   UNL     1     -11.670   9.855  70.998  1.00  0.00    -0.382 C  
HETATM   14  C   UNL     1     -11.992  10.622  69.705  1.00  0.00    -0.363 C  
BRANCH  13  15
HETATM   15  N   UNL     1     -12.689  10.211  72.047  1.00  0.00    -0.379 NA 
HETATM   16  C   UNL     1     -13.326  11.516  71.832  1.00  0.00    -0.303 C  
HETATM   17  C   UNL     1     -13.758   9.205  72.164  1.00  0.00    -0.471 C  
ENDBRANCH  13  15
ENDBRANCH  12  13
ENDBRANCH   5  12
BRANCH   5  18
HETATM   18  C   UNL     1     -10.270   6.775  69.227  1.00  0.00    -0.197 A  
HETATM   19  C   UNL     1      -9.736   5.474  69.101  1.00  0.00    -0.208 A  
HETATM   20  C   UNL     1     -10.986   6.605  66.886  1.00  0.00    -0.396 A  
HETATM   21  C   UNL     1     -10.512   5.302  66.814  1.00  0.00    -0.330 A  
HETATM   22  C   UNL     1      -9.875   4.741  67.916  1.00  0.00    -0.191 A  
HETATM   23  C   UNL     1     -10.869   7.330  68.077  1.00  0.00    -0.161 A  
ENDBRANCH   5  18
ENDBRANCH   3   5
ENDBRANCH   2   3
TORSDOF 7
ENDMDL
MODEL       90
REMARK 921   NORMALIZED FREE ENERGY PREDICTED BY IDOCK:   -4.26 KCAL/MOL
REMARK 922        TOTAL FREE ENERGY PREDICTED BY IDOCK:   -7.25 KCAL/MOL
REMARK 923 INTER-LIGAND FREE ENERGY PREDICTED BY IDOCK:   -6.70 KCAL/MOL
REMARK 924 INTRA-LIGAND FREE ENERGY PREDICTED BY IDOCK:   -0.56 KCAL/MOL
REMARK 927      BINDING AFFINITY PREDICTED BY RF-SCORE:    0.00 PKD
ROOT
HETATM    1  C   UNL     1     -12.408  13.583  63.936  1.00  0.00    -0.397 C  
HETATM    2  C   UNL     1     -12.298  13.385  65.444  1.00  0.00    -0.522 C  
ENDROOT
BRANCH   2   3
HETATM    3  C   UNL     1     -10.867  13.069  65.859  1.00  0.00    -0.272 C  
HETATM    4  O   UNL     1     -10.210  12.299  65.145  1.00  0.00    -0.271 OA 
BRANCH   3   5
HETATM    5  C   UNL     1     -10.226  13.811  67.110  1.00  0.00    -0.244 C  
BRANCH   5   6
HETATM    6  C   UNL     1     -10.981  13.196  68.355  1.00  0.00    -0.287 A  
HETATM    7  C   UNL     1     -12.317  13.376  70.401  1.00  0.00    -0.382 A  
HETATM    8  C   UNL     1     -10.910  11.807  68.591  1.00  0.00    -0.259 A  
HETATM    9  C   UNL     1     -11.706  13.965  69.287  1.00  0.00    -0.381 A  
HETATM   10  C   UNL     1     -11.514  11.220  69.709  1.00  0.00    -0.386 A  
HETATM   11  C   UNL     1     -12.218  12.007  70.614  1.00  0.00    -0.409 A  
ENDBRANCH   5   6
BRANCH   5  12
HETATM   12  C   UNL     1      -8.664  13.525  67.221  1.00  0.00    -0.228 C  
BRANCH  12  13
HETATM   13  C   UNL     1      -7.748  14.192  68.306  1.00  0.00    -0.139 C  
HETATM   14  C   UNL     1      -6.903  13.150  69.057  1.00  0.00    -0.090 C  
BRANCH  13  15
HETATM   15  N   UNL     1      -6.832  15.205  67.674  1.00  0.00    -0.168 NA 
HETATM   16  C   UNL     1      -7.166  16.593  68.012  1.00  0.00    -0.155 C  
HETATM   17  C   UNL     1      -5.418  14.986  68.022  1.00  0.00    -0.132 C  
ENDBRANCH  13  15
ENDBRANCH  12  13
ENDBRANCH   5  12
BRANCH   5  18
HETATM   18  C   UNL     1     -10.454  15.357  67.084  1.00  0.00    -0.290 A  
HETATM   19  C   UNL     1     -10.700  16.050  68.289  1.00  0.00    -0.298 A  
HETATM   20  C   UNL     1     -10.355  17.536  65.960  1.00  0.00    -0.309 A  
HETATM   21  C   UNL     1     -10.531  18.192  67.170  1.00  0.00    -0.392 A  
HETATM   22  C   UNL     1     -10.717  17.450  68.333  1.00  0.00    -0.301 A  
HETATM   23  C   UNL     1     -10.315  16.138  65.918  1.00  0.00    -0.384 A  
ENDBRANCH   5  18
ENDBRANCH   3   5
ENDBRANCH   2   3
TORSDOF 7
ENDMDL
MODEL       91
REMARK 921   NORMALIZED FREE ENERGY PREDICTED BY IDOCK:   -4.25 KCAL/MOL
REMARK 922        TOTAL FREE ENERGY PREDICTED BY IDOCK:   -7.25 KCAL/MOL
REMARK 923 INTER-LIGAND FREE ENERGY PREDICTED BY IDOCK:   -6.45 KCAL/MOL
REMARK 924 INTRA-LIGAND FREE ENERGY PREDICTED BY IDOCK:   -0.79 KCAL/MOL
REMARK 927      BINDING AFFINITY PREDICTED BY RF-SCORE:    0.00 PKD
ROOT
HETATM    1  C   UNL     1      -6.312   8.677  68.566  1.00  0.00    -0.054 C  
HETATM    2  C   UNL     1      -7.328   9.812  68.632  1.00  0.00    -0.074 C  
ENDROOT
BRANCH   2   3
HETATM    3  C   UNL     1      -8.314   9.608  69.774  1.00  0.00    -0.174 C  
HETATM    4  O   UNL     1      -7.874   9.622  70.933  1.00  0.00    -0.317 OA 
BRANCH   3   5
HETATM    5  C   UNL     1      -9.869   9.502  69.465  1.00  0.00    -0.205 C  
BRANCH   5   6
HETATM    6  C   UNL     1     -10.051   8.040  68.890  1.00  0.00    -0.209 A  
HETATM    7  C   UNL     1      -9.557   5.641  68.839  1.00  0.00    -0.168 A  
HETATM    8  C   UNL     1     -10.876   7.837  67.763  1.00  0.00    -0.111 A  
HETATM    9  C   UNL     1      -9.400   6.907  69.417  1.00  0.00    -0.146 A  
HETATM   10  C   UNL     1     -11.027   6.573  67.182  1.00  0.00    -0.480 A  
HETATM   11  C   UNL     1     -10.367   5.475  67.722  1.00  0.00    -0.246 A  
ENDBRANCH   5   6
BRANCH   5  12
HETATM   12  C   UNL     1     -10.740   9.682  70.785  1.00  0.00    -0.401 C  
BRANCH  12  13
HETATM   13  C   UNL     1     -11.894   8.698  71.189  1.00  0.00    -0.287 C  
HETATM   14  C   UNL     1     -11.602   7.997  72.526  1.00  0.00    -0.464 C  
BRANCH  13  15
HETATM   15  N   UNL     1     -13.202   9.434  71.295  1.00  0.00    -0.327 NA 
HETATM   16  C   UNL     1     -14.180   8.773  72.168  1.00  0.00    -0.426 C  
HETATM   17  C   UNL     1     -13.039  10.817  71.772  1.00  0.00    -0.468 C  
ENDBRANCH  13  15
ENDBRANCH  12  13
ENDBRANCH   5  12
BRANCH   5  18
HETATM   18  C   UNL     1     -10.351  10.536  68.399  1.00  0.00    -0.199 A  
HETATM   19  C   UNL     1      -9.997  10.363  67.043  1.00  0.00    -0.252 A  
HETATM   20  C   UNL     1     -11.779  12.402  67.689  1.00  0.00    -0.412 A  
HETATM   21  C   UNL     1     -11.465  12.163  66.358  1.00  0.00    -0.430 A  
HETATM   22  C   UNL     1     -10.564  11.153  66.035  1.00  0.00    -0.298 A  
HETATM   23  C   UNL     1     -11.231  11.598  68.695  1.00  0.00    -0.308 A  
ENDBRANCH   5  18
ENDBRANCH   3   5
ENDBRANCH   2   3
TORSDOF 7
ENDMDL
MODEL       92
REMARK 921   NORMALIZED FREE ENERGY PREDICTED BY IDOCK:   -4.24 KCAL/MOL
REMARK 922        TOTAL FREE ENERGY PREDICTED BY IDOCK:   -7.23 KCAL/MOL
REMARK 923 INTER-LIGAND FREE ENERGY PREDICTED BY IDOCK:   -6.01 KCAL/MOL
REMARK 924 INTRA-LIGAND FREE ENERGY PREDICTED BY IDOCK:   -1.22 KCAL/MOL
REMARK 927      BINDING AFFINITY PREDICTED BY RF-SCORE:    0.00 PKD
ROOT
HETATM    1  C   UNL     1      -6.557  10.770  69.141  1.00  0.00    -0.065 C  
HETATM    2  C   UNL     1      -8.030  11.113  68.945  1.00  0.00    -0.126 C  
ENDROOT
BRANCH   2   3
HETATM    3  C   UNL     1      -8.931   9.984  69.426  1.00  0.00    -0.194 C  
HETATM    4  O   UNL     1      -8.677   9.461  70.519  1.00  0.00    -0.215 OA 
BRANCH   3   5
HETATM    5  C   UNL     1     -10.221   9.592  68.584  1.00  0.00    -0.215 C  
BRANCH   5   6
HETATM    6  C   UNL     1      -9.898   8.147  68.030  1.00  0.00    -0.200 A  
HETATM    7  C   UNL     1     -10.542   5.905  67.282  1.00  0.00    -0.365 A  
HETATM    8  C   UNL     1      -8.552   7.756  67.859  1.00  0.00    -0.122 A  
HETATM    9  C   UNL     1     -10.884   7.189  67.724  1.00  0.00    -0.248 A  
HETATM   10  C   UNL     1      -8.211   6.471  67.424  1.00  0.00    -0.121 A  
HETATM   11  C   UNL     1      -9.208   5.545  67.135  1.00  0.00    -0.111 A  
ENDBRANCH   5   6
BRANCH   5  12
HETATM   12  C   UNL     1     -11.524   9.548  69.498  1.00  0.00     0.064 C  
BRANCH  12  13
HETATM   13  C   UNL     1     -11.560  10.113  70.962  1.00  0.00    -0.376 C  
HETATM   14  C   UNL     1     -12.525  11.303  71.089  1.00  0.00    -0.479 C  
BRANCH  13  15
HETATM   15  N   UNL     1     -11.972   9.040  71.932  1.00  0.00    -0.360 NA 
HETATM   16  C   UNL     1     -13.370   9.146  72.369  1.00  0.00    -0.463 C  
HETATM   17  C   UNL     1     -11.772   7.683  71.397  1.00  0.00    -0.283 C  
ENDBRANCH  13  15
ENDBRANCH  12  13
ENDBRANCH   5  12
BRANCH   5  18
HETATM   18  C   UNL     1     -10.482  10.556  67.383  1.00  0.00    -0.291 A  
HETATM   19  C   UNL     1      -9.965  10.242  66.107  1.00  0.00    -0.300 A  
HETATM   20  C   UNL     1     -11.666  12.434  66.338  1.00  0.00    -0.453 A  
HETATM   21  C   UNL     1     -11.197  12.060  65.086  1.00  0.00    -0.368 A  
HETATM   22  C   UNL     1     -10.336  10.973  64.971  1.00  0.00    -0.360 A  
HETATM   23  C   UNL     1     -11.315  11.690  67.470  1.00  0.00    -0.364 A  
ENDBRANCH   5  18
ENDBRANCH   3   5
ENDBRANCH   2   3
TORSDOF 7
ENDMDL
MODEL       93
REMARK 921   NORMALIZED FREE ENERGY PREDICTED BY IDOCK:   -4.21 KCAL/MOL
REMARK 922        TOTAL FREE ENERGY PREDICTED BY IDOCK:   -7.18 KCAL/MOL
REMARK 923 INTER-LIGAND FREE ENERGY PREDICTED BY IDOCK:   -6.04 KCAL/MOL
REMARK 924 INTRA-LIGAND FREE ENERGY PREDICTED BY IDOCK:   -1.14 KCAL/MOL
REMARK 927      BINDING AFFINITY PREDICTED BY RF-SCORE:    0.00 PKD
ROOT
HETATM    1  C   UNL     1     -10.295   8.858  66.953  1.00  0.00    -0.332 C  
HETATM    2  C   UNL     1      -9.587   8.261  68.165  1.00  0.00    -0.163 C  
ENDROOT
BRANCH   2   3
HETATM    3  C   UNL     1     -10.491   7.292  68.914  1.00  0.00    -0.206 C  
HETATM    4  O   UNL     1     -11.143   6.473  68.251  1.00  0.00    -0.290 OA 
BRANCH   3   5
HETATM    5  C   UNL     1     -10.487   7.277  70.503  1.00  0.00    -0.229 C  
BRANCH   5   6
HETATM    6  C   UNL     1     -11.488   8.434  70.904  1.00  0.00    -0.295 A  
HETATM    7  C   UNL     1     -12.241  10.765  70.892  1.00  0.00    -0.487 A  
HETATM    8  C   UNL     1     -12.560   8.150  71.776  1.00  0.00    -0.360 A  
HETATM    9  C   UNL     1     -11.355   9.767  70.468  1.00  0.00    -0.382 A  
HETATM   10  C   UNL     1     -13.441   9.150  72.205  1.00  0.00    -0.546 A  
HETATM   11  C   UNL     1     -13.280  10.458  71.762  1.00  0.00    -0.529 A  
ENDBRANCH   5   6
BRANCH   5  12
HETATM   12  C   UNL     1     -11.004   5.884  71.075  1.00  0.00    -0.335 C  
BRANCH  12  13
HETATM   13  C   UNL     1     -10.325   5.152  72.285  1.00  0.00    -0.211 C  
HETATM   14  C   UNL     1     -11.351   4.748  73.356  1.00  0.00    -0.397 C  
BRANCH  13  15
HETATM   15  N   UNL     1      -9.595   3.923  71.816  1.00  0.00    -0.148 NA 
HETATM   16  C   UNL     1     -10.072   2.681  72.437  1.00  0.00    -0.166 C  
HETATM   17  C   UNL     1      -9.658   3.747  70.355  1.00  0.00    -0.192 C  
ENDBRANCH  13  15
ENDBRANCH  12  13
ENDBRANCH   5  12
BRANCH   5  18
HETATM   18  C   UNL     1      -9.081   7.580  71.112  1.00  0.00    -0.149 A  
HETATM   19  C   UNL     1      -8.982   8.291  72.329  1.00  0.00    -0.280 A  
HETATM   20  C   UNL     1      -6.656   7.224  71.231  1.00  0.00    -0.043 A  
HETATM   21  C   UNL     1      -6.600   7.869  72.459  1.00  0.00    -0.070 A  
HETATM   22  C   UNL     1      -7.760   8.414  73.002  1.00  0.00    -0.127 A  
HETATM   23  C   UNL     1      -7.880   7.080  70.568  1.00  0.00    -0.101 A  
ENDBRANCH   5  18
ENDBRANCH   3   5
ENDBRANCH   2   3
TORSDOF 7
ENDMDL
MODEL       94
REMARK 921   NORMALIZED FREE ENERGY PREDICTED BY IDOCK:   -4.19 KCAL/MOL
REMARK 922        TOTAL FREE ENERGY PREDICTED BY IDOCK:   -7.16 KCAL/MOL
REMARK 923 INTER-LIGAND FREE ENERGY PREDICTED BY IDOCK:   -6.43 KCAL/MOL
REMARK 924 INTRA-LIGAND FREE ENERGY PREDICTED BY IDOCK:   -0.73 KCAL/MOL
REMARK 927      BINDING AFFINITY PREDICTED BY RF-SCORE:    0.00 PKD
ROOT
HETATM    1  C   UNL     1     -14.328   7.106  72.065  1.00  0.00    -0.398 C  
HETATM    2  C   UNL     1     -13.481   7.460  70.848  1.00  0.00     0.012 C  
ENDROOT
BRANCH   2   3
HETATM    3  C   UNL     1     -12.015   7.113  71.070  1.00  0.00    -0.347 C  
HETATM    4  O   UNL     1     -11.728   5.937  71.333  1.00  0.00    -0.164 OA 
BRANCH   3   5
HETATM    5  C   UNL     1     -10.899   8.223  70.850  1.00  0.00    -0.261 C  
BRANCH   5   6
HETATM    6  C   UNL     1      -9.898   8.012  72.055  1.00  0.00    -0.273 A  
HETATM    7  C   UNL     1      -7.675   8.092  73.081  1.00  0.00    -0.204 A  
HETATM    8  C   UNL     1     -10.367   7.424  73.249  1.00  0.00    -0.405 A  
HETATM    9  C   UNL     1      -8.531   8.345  72.002  1.00  0.00    -0.245 A  
HETATM   10  C   UNL     1      -9.510   7.165  74.325  1.00  0.00    -0.236 A  
HETATM   11  C   UNL     1      -8.164   7.500  74.240  1.00  0.00    -0.240 A  
ENDBRANCH   5   6
BRANCH   5  12
HETATM   12  C   UNL     1     -10.140   8.020  69.466  1.00  0.00    -0.196 C  
BRANCH  12  13
HETATM   13  C   UNL     1     -10.829   7.414  68.193  1.00  0.00    -0.037 C  
HETATM   14  C   UNL     1     -10.343   8.093  66.903  1.00  0.00    -0.401 C  
BRANCH  13  15
HETATM   15  N   UNL     1     -10.562   5.936  68.102  1.00  0.00    -0.236 NA 
HETATM   16  C   UNL     1     -10.595   5.415  66.730  1.00  0.00    -0.271 C  
HETATM   17  C   UNL     1      -9.268   5.555  68.694  1.00  0.00    -0.122 C  
ENDBRANCH  13  15
ENDBRANCH  12  13
ENDBRANCH   5  12
BRANCH   5  18
HETATM   18  C   UNL     1     -11.468   9.677  70.903  1.00  0.00    -0.427 A  
HETATM   19  C   UNL     1     -11.080  10.619  69.925  1.00  0.00    -0.364 A  
HETATM   20  C   UNL     1     -13.065  11.343  71.737  1.00  0.00    -0.523 A  
HETATM   21  C   UNL     1     -12.712  12.221  70.722  1.00  0.00    -0.212 A  
HETATM   22  C   UNL     1     -11.710  11.865  69.824  1.00  0.00    -0.403 A  
HETATM   23  C   UNL     1     -12.453  10.088  71.825  1.00  0.00    -0.475 A  
ENDBRANCH   5  18
ENDBRANCH   3   5
ENDBRANCH   2   3
TORSDOF 7
ENDMDL
MODEL       95
REMARK 921   NORMALIZED FREE ENERGY PREDICTED BY IDOCK:   -4.19 KCAL/MOL
REMARK 922        TOTAL FREE ENERGY PREDICTED BY IDOCK:   -7.15 KCAL/MOL
REMARK 923 INTER-LIGAND FREE ENERGY PREDICTED BY IDOCK:   -6.34 KCAL/MOL
REMARK 924 INTRA-LIGAND FREE ENERGY PREDICTED BY IDOCK:   -0.81 KCAL/MOL
REMARK 927      BINDING AFFINITY PREDICTED BY RF-SCORE:    0.00 PKD
ROOT
HETATM    1  C   UNL     1      -7.219  15.449  67.611  1.00  0.00    -0.206 C  
HETATM    2  C   UNL     1      -8.032  14.275  68.145  1.00  0.00    -0.140 C  
ENDROOT
BRANCH   2   3
HETATM    3  C   UNL     1      -9.042  13.786  67.115  1.00  0.00    -0.239 C  
HETATM    4  O   UNL     1      -9.256  14.498  66.125  1.00  0.00    -0.244 OA 
BRANCH   3   5
HETATM    5  C   UNL     1      -9.696  12.346  67.274  1.00  0.00    -0.201 C  
BRANCH   5   6
HETATM    6  C   UNL     1     -10.600  12.186  65.986  1.00  0.00    -0.292 A  
HETATM    7  C   UNL     1     -11.020  11.409  63.701  1.00  0.00    -0.443 A  
HETATM    8  C   UNL     1     -11.866  12.809  65.947  1.00  0.00    -0.490 A  
HETATM    9  C   UNL     1     -10.201  11.479  64.835  1.00  0.00    -0.324 A  
HETATM   10  C   UNL     1     -12.681  12.745  64.812  1.00  0.00    -0.469 A  
HETATM   11  C   UNL     1     -12.256  12.044  63.688  1.00  0.00    -0.642 A  
ENDBRANCH   5   6
BRANCH   5  12
HETATM   12  C   UNL     1      -8.589  11.202  67.310  1.00  0.00    -0.140 C  
BRANCH  12  13
HETATM   13  C   UNL     1      -7.284  11.248  66.440  1.00  0.00    -0.052 C  
HETATM   14  C   UNL     1      -6.072  11.724  67.256  1.00  0.00    -0.124 C  
BRANCH  13  15
HETATM   15  N   UNL     1      -6.986   9.891  65.863  1.00  0.00    -0.101 NA 
HETATM   16  C   UNL     1      -7.950   8.857  66.260  1.00  0.00    -0.103 C  
HETATM   17  C   UNL     1      -6.920   9.901  64.392  1.00  0.00    -0.128 C  
ENDBRANCH  13  15
ENDBRANCH  12  13
ENDBRANCH   5  12
BRANCH   5  18
HETATM   18  C   UNL     1     -10.591  12.221  68.548  1.00  0.00    -0.254 A  
HETATM   19  C   UNL     1     -11.229  13.366  69.073  1.00  0.00    -0.323 A  
HETATM   20  C   UNL     1     -11.840  10.889  70.188  1.00  0.00    -0.438 A  
HETATM   21  C   UNL     1     -12.501  12.024  70.637  1.00  0.00    -0.335 A  
HETATM   22  C   UNL     1     -12.187  13.265  70.089  1.00  0.00    -0.376 A  
HETATM   23  C   UNL     1     -10.900  10.986  69.156  1.00  0.00    -0.283 A  
ENDBRANCH   5  18
ENDBRANCH   3   5
ENDBRANCH   2   3
TORSDOF 7
ENDMDL
MODEL       96
REMARK 921   NORMALIZED FREE ENERGY PREDICTED BY IDOCK:   -4.18 KCAL/MOL
REMARK 922        TOTAL FREE ENERGY PREDICTED BY IDOCK:   -7.15 KCAL/MOL
REMARK 923 INTER-LIGAND FREE ENERGY PREDICTED BY IDOCK:   -6.69 KCAL/MOL
REMARK 924 INTRA-LIGAND FREE ENERGY PREDICTED BY IDOCK:   -0.46 KCAL/MOL
REMARK 927      BINDING AFFINITY PREDICTED BY RF-SCORE:    0.00 PKD
ROOT
HETATM    1  C   UNL     1      -9.514  10.937  66.616  1.00  0.00    -0.204 C  
HETATM    2  C   UNL     1      -9.246  12.420  66.383  1.00  0.00    -0.192 C  
ENDROOT
BRANCH   2   3
HETATM    3  C   UNL     1      -9.086  13.169  67.699  1.00  0.00    -0.201 C  
HETATM    4  O   UNL     1      -8.300  12.710  68.539  1.00  0.00    -0.141 OA 
BRANCH   3   5
HETATM    5  C   UNL     1      -9.829  14.558  67.911  1.00  0.00    -0.222 C  
BRANCH   5   6
HETATM    6  C   UNL     1     -10.784  14.683  66.658  1.00  0.00    -0.305 A  
HETATM    7  C   UNL     1     -12.698  13.982  65.298  1.00  0.00    -0.468 A  
HETATM    8  C   UNL     1     -10.493  15.634  65.657  1.00  0.00    -0.402 A  
HETATM    9  C   UNL     1     -11.912  13.864  66.451  1.00  0.00    -0.467 A  
HETATM   10  C   UNL     1     -11.276  15.747  64.502  1.00  0.00    -0.334 A  
HETATM   11  C   UNL     1     -12.379  14.920  64.324  1.00  0.00    -0.300 A  
ENDBRANCH   5   6
BRANCH   5  12
HETATM   12  C   UNL     1     -10.684  14.563  69.254  1.00  0.00    -0.241 C  
BRANCH  12  13
HETATM   13  C   UNL     1     -12.002  13.731  69.431  1.00  0.00    -0.347 C  
HETATM   14  C   UNL     1     -11.707  12.249  69.714  1.00  0.00    -0.368 C  
BRANCH  13  15
HETATM   15  N   UNL     1     -12.833  14.290  70.553  1.00  0.00    -0.326 NA 
HETATM   16  C   UNL     1     -12.879  13.427  71.739  1.00  0.00    -0.289 C  
HETATM   17  C   UNL     1     -12.380  15.623  70.986  1.00  0.00    -0.428 C  
ENDBRANCH  13  15
ENDBRANCH  12  13
ENDBRANCH   5  12
BRANCH   5  18
HETATM   18  C   UNL     1      -8.850  15.776  67.933  1.00  0.00    -0.175 A  
HETATM   19  C   UNL     1      -7.697  15.764  67.118  1.00  0.00    -0.255 A  
HETATM   20  C   UNL     1      -8.302  18.096  68.512  1.00  0.00    -0.314 A  
HETATM   21  C   UNL     1      -7.214  18.076  67.650  1.00  0.00    -0.210 A  
HETATM   22  C   UNL     1      -6.903  16.906  66.964  1.00  0.00    -0.239 A  
HETATM   23  C   UNL     1      -9.110  16.962  68.649  1.00  0.00    -0.265 A  
ENDBRANCH   5  18
ENDBRANCH   3   5
ENDBRANCH   2   3
TORSDOF 7
ENDMDL
MODEL       97
REMARK 921   NORMALIZED FREE ENERGY PREDICTED BY IDOCK:   -4.18 KCAL/MOL
REMARK 922        TOTAL FREE ENERGY PREDICTED BY IDOCK:   -7.14 KCAL/MOL
REMARK 923 INTER-LIGAND FREE ENERGY PREDICTED BY IDOCK:   -6.22 KCAL/MOL
REMARK 924 INTRA-LIGAND FREE ENERGY PREDICTED BY IDOCK:   -0.92 KCAL/MOL
REMARK 927      BINDING AFFINITY PREDICTED BY RF-SCORE:    0.00 PKD
ROOT
HETATM    1  C   UNL     1     -12.044  15.508  70.043  1.00  0.00    -0.391 C  
HETATM    2  C   UNL     1     -10.736  14.954  69.489  1.00  0.00    -0.256 C  
ENDROOT
BRANCH   2   3
HETATM    3  C   UNL     1     -10.902  14.464  68.057  1.00  0.00    -0.243 C  
HETATM    4  O   UNL     1     -11.546  15.171  67.270  1.00  0.00    -0.323 OA 
BRANCH   3   5
HETATM    5  C   UNL     1     -10.160  13.140  67.585  1.00  0.00    -0.221 C  
BRANCH   5   6
HETATM    6  C   UNL     1     -10.780  12.834  66.164  1.00  0.00    -0.297 A  
HETATM    7  C   UNL     1     -12.639  12.265  64.674  1.00  0.00    -0.376 A  
HETATM    8  C   UNL     1      -9.932  12.769  65.037  1.00  0.00    -0.171 A  
HETATM    9  C   UNL     1     -12.149  12.579  65.947  1.00  0.00    -0.420 A  
HETATM   10  C   UNL     1     -10.422  12.448  63.767  1.00  0.00    -0.475 A  
HETATM   11  C   UNL     1     -11.777  12.196  63.586  1.00  0.00    -0.588 A  
ENDBRANCH   5   6
BRANCH   5  12
HETATM   12  C   UNL     1      -8.589  13.363  67.460  1.00  0.00    -0.200 C  
BRANCH  12  13
HETATM   13  C   UNL     1      -7.671  13.684  68.692  1.00  0.00    -0.107 C  
HETATM   14  C   UNL     1      -6.559  12.637  68.862  1.00  0.00    -0.095 C  
BRANCH  13  15
HETATM   15  N   UNL     1      -7.046  15.045  68.544  1.00  0.00    -0.106 NA 
HETATM   16  C   UNL     1      -5.628  15.086  68.919  1.00  0.00    -0.091 C  
HETATM   17  C   UNL     1      -7.165  15.579  67.177  1.00  0.00    -0.172 C  
ENDBRANCH  13  15
ENDBRANCH  12  13
ENDBRANCH   5  12
BRANCH   5  18
HETATM   18  C   UNL     1     -10.422  11.925  68.531  1.00  0.00    -0.240 A  
HETATM   19  C   UNL     1     -11.467  11.986  69.480  1.00  0.00    -0.351 A  
HETATM   20  C   UNL     1     -10.111   9.575  69.166  1.00  0.00    -0.200 A  
HETATM   21  C   UNL     1     -11.187   9.647  70.041  1.00  0.00    -0.271 A  
HETATM   22  C   UNL     1     -11.856  10.855  70.208  1.00  0.00    -0.450 A  
HETATM   23  C   UNL     1      -9.736  10.697  68.420  1.00  0.00    -0.172 A  
ENDBRANCH   5  18
ENDBRANCH   3   5
ENDBRANCH   2   3
TORSDOF 7
ENDMDL
MODEL       98
REMARK 921   NORMALIZED FREE ENERGY PREDICTED BY IDOCK:   -4.17 KCAL/MOL
REMARK 922        TOTAL FREE ENERGY PREDICTED BY IDOCK:   -7.13 KCAL/MOL
REMARK 923 INTER-LIGAND FREE ENERGY PREDICTED BY IDOCK:   -6.19 KCAL/MOL
REMARK 924 INTRA-LIGAND FREE ENERGY PREDICTED BY IDOCK:   -0.94 KCAL/MOL
REMARK 927      BINDING AFFINITY PREDICTED BY RF-SCORE:    0.00 PKD
ROOT
HETATM    1  C   UNL     1     -11.868  13.518  69.906  1.00  0.00    -0.386 C  
HETATM    2  C   UNL     1     -10.878  13.299  68.768  1.00  0.00    -0.273 C  
ENDROOT
BRANCH   2   3
HETATM    3  C   UNL     1     -11.100  11.953  68.090  1.00  0.00    -0.242 C  
HETATM    4  O   UNL     1     -12.251  11.496  68.065  1.00  0.00    -0.582 OA 
BRANCH   3   5
HETATM    5  C   UNL     1      -9.893  11.236  67.344  1.00  0.00    -0.201 C  
BRANCH   5   6
HETATM    6  C   UNL     1     -10.110   9.699  67.644  1.00  0.00    -0.241 A  
HETATM    7  C   UNL     1     -10.344   7.358  66.962  1.00  0.00    -0.384 A  
HETATM    8  C   UNL     1     -10.369   9.281  68.967  1.00  0.00    -0.228 A  
HETATM    9  C   UNL     1     -10.098   8.700  66.650  1.00  0.00    -0.364 A  
HETATM   10  C   UNL     1     -10.622   7.940  69.277  1.00  0.00    -0.195 A  
HETATM   11  C   UNL     1     -10.609   6.979  68.273  1.00  0.00    -0.238 A  
ENDBRANCH   5   6
BRANCH   5  12
HETATM   12  C   UNL     1      -9.938  11.499  65.775  1.00  0.00    -0.271 C  
BRANCH  12  13
HETATM   13  C   UNL     1     -10.877  12.569  65.115  1.00  0.00    -0.288 C  
HETATM   14  C   UNL     1     -10.286  13.984  65.212  1.00  0.00    -0.403 C  
BRANCH  13  15
HETATM   15  N   UNL     1     -11.120  12.236  63.667  1.00  0.00    -0.435 NA 
HETATM   16  C   UNL     1     -10.288  11.136  63.168  1.00  0.00    -0.247 C  
HETATM   17  C   UNL     1     -12.526  11.896  63.391  1.00  0.00    -0.463 C  
ENDBRANCH  13  15
ENDBRANCH  12  13
ENDBRANCH   5  12
BRANCH   5  18
HETATM   18  C   UNL     1      -8.495  11.673  67.888  1.00  0.00    -0.148 A  
HETATM   19  C   UNL     1      -7.907  10.966  68.959  1.00  0.00    -0.138 A  
HETATM   20  C   UNL     1      -6.399  12.933  67.691  1.00  0.00    -0.158 A  
HETATM   21  C   UNL     1      -5.824  12.175  68.702  1.00  0.00    -0.053 A  
HETATM   22  C   UNL     1      -6.582  11.201  69.346  1.00  0.00    -0.109 A  
HETATM   23  C   UNL     1      -7.715  12.683  67.288  1.00  0.00    -0.140 A  
ENDBRANCH   5  18
ENDBRANCH   3   5
ENDBRANCH   2   3
TORSDOF 7
ENDMDL
MODEL       99
REMARK 921   NORMALIZED FREE ENERGY PREDICTED BY IDOCK:   -4.15 KCAL/MOL
REMARK 922        TOTAL FREE ENERGY PREDICTED BY IDOCK:   -7.10 KCAL/MOL
REMARK 923 INTER-LIGAND FREE ENERGY PREDICTED BY IDOCK:   -6.23 KCAL/MOL
REMARK 924 INTRA-LIGAND FREE ENERGY PREDICTED BY IDOCK:   -0.88 KCAL/MOL
REMARK 927      BINDING AFFINITY PREDICTED BY RF-SCORE:    0.00 PKD
ROOT
HETATM    1  C   UNL     1     -10.529   5.656  69.240  1.00  0.00    -0.356 C  
HETATM    2  C   UNL     1      -9.710   6.906  68.939  1.00  0.00    -0.142 C  
ENDROOT
BRANCH   2   3
HETATM    3  C   UNL     1     -10.411   7.798  67.923  1.00  0.00    -0.217 C  
HETATM    4  O   UNL     1     -11.039   7.253  67.005  1.00  0.00    -0.308 OA 
BRANCH   3   5
HETATM    5  C   UNL     1     -10.417   9.375  68.128  1.00  0.00    -0.267 C  
BRANCH   5   6
HETATM    6  C   UNL     1      -8.886   9.763  68.192  1.00  0.00    -0.119 A  
HETATM    7  C   UNL     1      -6.571   9.642  67.399  1.00  0.00    -0.070 A  
HETATM    8  C   UNL     1      -8.423  10.581  69.245  1.00  0.00    -0.138 A  
HETATM    9  C   UNL     1      -7.925   9.308  67.269  1.00  0.00    -0.106 A  
HETATM   10  C   UNL     1      -7.069  10.909  69.379  1.00  0.00    -0.131 A  
HETATM   11  C   UNL     1      -6.144  10.438  68.454  1.00  0.00    -0.044 A  
ENDBRANCH   5   6
BRANCH   5  12
HETATM   12  C   UNL     1     -11.120  10.119  66.909  1.00  0.00     0.004 C  
BRANCH  12  13
HETATM   13  C   UNL     1     -10.729  11.568  66.453  1.00  0.00    -0.273 C  
HETATM   14  C   UNL     1      -9.844  11.551  65.196  1.00  0.00    -0.294 C  
BRANCH  13  15
HETATM   15  N   UNL     1     -11.962  12.384  66.174  1.00  0.00    -0.608 NA 
HETATM   16  C   UNL     1     -11.975  13.684  66.856  1.00  0.00    -0.410 C  
HETATM   17  C   UNL     1     -12.168  12.630  64.737  1.00  0.00    -0.465 C  
ENDBRANCH  13  15
ENDBRANCH  12  13
ENDBRANCH   5  12
BRANCH   5  18
HETATM   18  C   UNL     1     -11.114   9.814  69.455  1.00  0.00    -0.205 A  
HETATM   19  C   UNL     1     -11.791  11.052  69.516  1.00  0.00    -0.404 A  
HETATM   20  C   UNL     1     -11.986   9.334  71.698  1.00  0.00    -0.448 A  
HETATM   21  C   UNL     1     -12.695  10.528  71.701  1.00  0.00    -0.550 A  
HETATM   22  C   UNL     1     -12.587  11.393  70.616  1.00  0.00    -0.360 A  
HETATM   23  C   UNL     1     -11.209   8.981  70.589  1.00  0.00    -0.318 A  
ENDBRANCH   5  18
ENDBRANCH   3   5
ENDBRANCH   2   3
TORSDOF 7
ENDMDL
MODEL      100
REMARK 921   NORMALIZED FREE ENERGY PREDICTED BY IDOCK:   -4.15 KCAL/MOL
REMARK 922        TOTAL FREE ENERGY PREDICTED BY IDOCK:   -7.10 KCAL/MOL
REMARK 923 INTER-LIGAND FREE ENERGY PREDICTED BY IDOCK:   -5.82 KCAL/MOL
REMARK 924 INTRA-LIGAND FREE ENERGY PREDICTED BY IDOCK:   -1.28 KCAL/MOL
REMARK 927      BINDING AFFINITY PREDICTED BY RF-SCORE:    0.00 PKD
ROOT
HETATM    1  C   UNL     1     -10.245   5.610  66.520  1.00  0.00    -0.259 C  
HETATM    2  C   UNL     1     -11.125   6.706  67.112  1.00  0.00    -0.427 C  
ENDROOT
BRANCH   2   3
HETATM    3  C   UNL     1     -10.592   7.179  68.458  1.00  0.00    -0.187 C  
HETATM    4  O   UNL     1     -10.251   6.321  69.284  1.00  0.00    -0.170 OA 
BRANCH   3   5
HETATM    5  C   UNL     1     -10.379   8.733  68.720  1.00  0.00    -0.234 C  
BRANCH   5   6
HETATM    6  C   UNL     1      -8.845   8.859  69.081  1.00  0.00    -0.136 A  
HETATM    7  C   UNL     1      -6.965   9.874  70.279  1.00  0.00    -0.147 A  
HETATM    8  C   UNL     1      -7.906   8.055  68.401  1.00  0.00    -0.122 A  
HETATM    9  C   UNL     1      -8.339   9.767  70.031  1.00  0.00    -0.211 A  
HETATM   10  C   UNL     1      -6.532   8.167  68.644  1.00  0.00    -0.053 A  
HETATM   11  C   UNL     1      -6.062   9.077  69.584  1.00  0.00    -0.039 A  
ENDBRANCH   5   6
BRANCH   5  12
HETATM   12  C   UNL     1     -10.709   9.594  67.423  1.00  0.00    -0.308 C  
BRANCH  12  13
HETATM   13  C   UNL     1      -9.612  10.364  66.607  1.00  0.00    -0.177 C  
HETATM   14  C   UNL     1      -9.317   9.679  65.262  1.00  0.00    -0.322 C  
BRANCH  13  15
HETATM   15  N   UNL     1     -10.042  11.783  66.352  1.00  0.00    -0.205 NA 
HETATM   16  C   UNL     1     -11.496  11.978  66.410  1.00  0.00    -0.353 C  
HETATM   17  C   UNL     1      -9.424  12.740  67.286  1.00  0.00    -0.204 C  
ENDBRANCH  13  15
ENDBRANCH  12  13
ENDBRANCH   5  12
BRANCH   5  18
HETATM   18  C   UNL     1     -11.233   9.271  69.913  1.00  0.00    -0.145 A  
HETATM   19  C   UNL     1     -11.823  10.552  69.832  1.00  0.00    -0.358 A  
HETATM   20  C   UNL     1     -12.458   8.943  72.013  1.00  0.00    -0.461 A  
HETATM   21  C   UNL     1     -13.074  10.179  71.871  1.00  0.00    -0.571 A  
HETATM   22  C   UNL     1     -12.747  10.989  70.788  1.00  0.00    -0.414 A  
HETATM   23  C   UNL     1     -11.552   8.495  71.046  1.00  0.00    -0.317 A  
ENDBRANCH   5  18
ENDBRANCH   3   5
ENDBRANCH   2   3
TORSDOF 7
ENDMDL
MODEL      101
REMARK 921   NORMALIZED FREE ENERGY PREDICTED BY IDOCK:   -4.14 KCAL/MOL
REMARK 922        TOTAL FREE ENERGY PREDICTED BY IDOCK:   -7.09 KCAL/MOL
REMARK 923 INTER-LIGAND FREE ENERGY PREDICTED BY IDOCK:   -5.99 KCAL/MOL
REMARK 924 INTRA-LIGAND FREE ENERGY PREDICTED BY IDOCK:   -1.11 KCAL/MOL
REMARK 927      BINDING AFFINITY PREDICTED BY RF-SCORE:    0.00 PKD
ROOT
HETATM    1  C   UNL     1     -10.724   4.976  72.842  1.00  0.00    -0.299 C  
HETATM    2  C   UNL     1      -9.660   5.475  71.871  1.00  0.00    -0.185 C  
ENDROOT
BRANCH   2   3
HETATM    3  C   UNL     1     -10.287   6.073  70.619  1.00  0.00    -0.222 C  
HETATM    4  O   UNL     1     -10.744   5.297  69.768  1.00  0.00    -0.286 OA 
BRANCH   3   5
HETATM    5  C   UNL     1     -10.443   7.650  70.490  1.00  0.00    -0.221 C  
BRANCH   5   6
HETATM    6  C   UNL     1     -11.867   7.950  71.108  1.00  0.00    -0.307 A  
HETATM    7  C   UNL     1     -14.233   7.437  71.483  1.00  0.00    -0.571 A  
HETATM    8  C   UNL     1     -12.071   9.149  71.826  1.00  0.00    -0.446 A  
HETATM    9  C   UNL     1     -12.980   7.100  70.957  1.00  0.00    -0.231 A  
HETATM   10  C   UNL     1     -13.325   9.488  72.346  1.00  0.00    -0.469 A  
HETATM   11  C   UNL     1     -14.406   8.630  72.174  1.00  0.00    -0.518 A  
ENDBRANCH   5   6
BRANCH   5  12
HETATM   12  C   UNL     1      -9.316   8.417  71.312  1.00  0.00    -0.239 C  
BRANCH  12  13
HETATM   13  C   UNL     1      -7.822   8.500  70.840  1.00  0.00    -0.107 C  
HETATM   14  C   UNL     1      -7.486   9.881  70.254  1.00  0.00    -0.173 C  
BRANCH  13  15
HETATM   15  N   UNL     1      -6.890   8.211  71.985  1.00  0.00    -0.072 NA 
HETATM   16  C   UNL     1      -5.626   8.955  71.919  1.00  0.00    -0.059 C  
HETATM   17  C   UNL     1      -7.502   8.483  73.297  1.00  0.00     0.021 C  
ENDBRANCH  13  15
ENDBRANCH  12  13
ENDBRANCH   5  12
BRANCH   5  18
HETATM   18  C   UNL     1     -10.412   8.146  69.009  1.00  0.00    -0.211 A  
HETATM   19  C   UNL     1     -10.725   9.491  68.713  1.00  0.00    -0.218 A  
HETATM   20  C   UNL     1      -9.793   7.869  66.651  1.00  0.00    -0.311 A  
HETATM   21  C   UNL     1     -10.043   9.212  66.405  1.00  0.00    -0.345 A  
HETATM   22  C   UNL     1     -10.522  10.021  67.433  1.00  0.00    -0.316 A  
HETATM   23  C   UNL     1      -9.973   7.344  67.935  1.00  0.00    -0.201 A  
ENDBRANCH   5  18
ENDBRANCH   3   5
ENDBRANCH   2   3
TORSDOF 7
ENDMDL
MODEL      102
REMARK 921   NORMALIZED FREE ENERGY PREDICTED BY IDOCK:   -4.14 KCAL/MOL
REMARK 922        TOTAL FREE ENERGY PREDICTED BY IDOCK:   -7.08 KCAL/MOL
REMARK 923 INTER-LIGAND FREE ENERGY PREDICTED BY IDOCK:   -6.07 KCAL/MOL
REMARK 924 INTRA-LIGAND FREE ENERGY PREDICTED BY IDOCK:   -1.01 KCAL/MOL
REMARK 927      BINDING AFFINITY PREDICTED BY RF-SCORE:    0.00 PKD
ROOT
HETATM    1  C   UNL     1     -11.767  15.642  68.762  1.00  0.00    -0.382 C  
HETATM    2  C   UNL     1     -10.674  14.752  68.181  1.00  0.00    -0.247 C  
ENDROOT
BRANCH   2   3
HETATM    3  C   UNL     1     -11.018  13.276  68.337  1.00  0.00    -0.264 C  
HETATM    4  O   UNL     1     -11.990  12.976  69.044  1.00  0.00    -0.303 OA 
BRANCH   3   5
HETATM    5  C   UNL     1     -10.209  12.185  67.511  1.00  0.00    -0.209 C  
BRANCH   5   6
HETATM    6  C   UNL     1     -10.773  12.316  66.040  1.00  0.00    -0.296 A  
HETATM    7  C   UNL     1     -10.507  12.450  63.608  1.00  0.00    -0.460 A  
HETATM    8  C   UNL     1     -12.156  12.521  65.843  1.00  0.00    -0.420 A  
HETATM    9  C   UNL     1      -9.964  12.279  64.887  1.00  0.00    -0.219 A  
HETATM   10  C   UNL     1     -12.697  12.697  64.565  1.00  0.00    -0.439 A  
HETATM   11  C   UNL     1     -11.871  12.662  63.447  1.00  0.00    -0.594 A  
ENDBRANCH   5   6
BRANCH   5  12
HETATM   12  C   UNL     1      -8.646  12.483  67.526  1.00  0.00    -0.183 C  
BRANCH  12  13
HETATM   13  C   UNL     1      -7.720  12.126  68.742  1.00  0.00    -0.034 C  
HETATM   14  C   UNL     1      -7.091  10.732  68.589  1.00  0.00    -0.078 C  
BRANCH  13  15
HETATM   15  N   UNL     1      -6.624  13.146  68.887  1.00  0.00    -0.099 NA 
HETATM   16  C   UNL     1      -7.114  14.524  69.013  1.00  0.00    -0.124 C  
HETATM   17  C   UNL     1      -5.745  12.876  70.038  1.00  0.00    -0.137 C  
ENDBRANCH  13  15
ENDBRANCH  12  13
ENDBRANCH   5  12
BRANCH   5  18
HETATM   18  C   UNL     1     -10.450  10.730  68.025  1.00  0.00    -0.225 A  
HETATM   19  C   UNL     1     -10.306   9.640  67.139  1.00  0.00    -0.319 A  
HETATM   20  C   UNL     1     -10.739   9.099  69.835  1.00  0.00    -0.246 A  
HETATM   21  C   UNL     1     -10.525   8.049  68.952  1.00  0.00    -0.207 A  
HETATM   22  C   UNL     1     -10.322   8.319  67.601  1.00  0.00    -0.313 A  
HETATM   23  C   UNL     1     -10.699  10.421  69.378  1.00  0.00    -0.277 A  
ENDBRANCH   5  18
ENDBRANCH   3   5
ENDBRANCH   2   3
TORSDOF 7
ENDMDL
MODEL      103
REMARK 921   NORMALIZED FREE ENERGY PREDICTED BY IDOCK:   -4.14 KCAL/MOL
REMARK 922        TOTAL FREE ENERGY PREDICTED BY IDOCK:   -7.08 KCAL/MOL
REMARK 923 INTER-LIGAND FREE ENERGY PREDICTED BY IDOCK:   -6.38 KCAL/MOL
REMARK 924 INTRA-LIGAND FREE ENERGY PREDICTED BY IDOCK:   -0.70 KCAL/MOL
REMARK 927      BINDING AFFINITY PREDICTED BY RF-SCORE:    0.00 PKD
ROOT
HETATM    1  C   UNL     1     -11.552  12.505  63.436  1.00  0.00    -0.547 C  
HETATM    2  C   UNL     1     -10.565  12.241  64.568  1.00  0.00    -0.346 C  
ENDROOT
BRANCH   2   3
HETATM    3  C   UNL     1     -11.214  12.443  65.930  1.00  0.00    -0.336 C  
HETATM    4  O   UNL     1     -12.451  12.419  65.995  1.00  0.00    -0.551 OA 
BRANCH   3   5
HETATM    5  C   UNL     1     -10.305  12.563  67.228  1.00  0.00    -0.228 C  
BRANCH   5   6
HETATM    6  C   UNL     1     -10.170  11.075  67.745  1.00  0.00    -0.210 A  
HETATM    7  C   UNL     1     -10.416   8.650  67.496  1.00  0.00    -0.335 A  
HETATM    8  C   UNL     1      -9.724  10.838  69.063  1.00  0.00    -0.201 A  
HETATM    9  C   UNL     1     -10.508   9.946  66.973  1.00  0.00    -0.296 A  
HETATM   10  C   UNL     1      -9.639   9.543  69.587  1.00  0.00    -0.216 A  
HETATM   11  C   UNL     1      -9.985   8.449  68.802  1.00  0.00    -0.197 A  
ENDBRANCH   5   6
BRANCH   5  12
HETATM   12  C   UNL     1      -8.869  13.155  66.882  1.00  0.00    -0.184 C  
BRANCH  12  13
HETATM   13  C   UNL     1      -7.626  12.990  67.826  1.00  0.00    -0.152 C  
HETATM   14  C   UNL     1      -6.597  12.006  67.248  1.00  0.00    -0.145 C  
BRANCH  13  15
HETATM   15  N   UNL     1      -6.960  14.319  68.058  1.00  0.00    -0.126 NA 
HETATM   16  C   UNL     1      -7.312  14.939  69.341  1.00  0.00    -0.181 C  
HETATM   17  C   UNL     1      -5.491  14.237  67.989  1.00  0.00    -0.117 C  
ENDBRANCH  13  15
ENDBRANCH  12  13
ENDBRANCH   5  12
BRANCH   5  18
HETATM   18  C   UNL     1     -10.954  13.438  68.348  1.00  0.00    -0.291 A  
HETATM   19  C   UNL     1     -10.779  14.839  68.333  1.00  0.00    -0.243 A  
HETATM   20  C   UNL     1     -12.516  13.747  70.214  1.00  0.00    -0.357 A  
HETATM   21  C   UNL     1     -12.377  15.126  70.131  1.00  0.00    -0.385 A  
HETATM   22  C   UNL     1     -11.498  15.672  69.199  1.00  0.00    -0.365 A  
HETATM   23  C   UNL     1     -11.817  12.916  69.334  1.00  0.00    -0.371 A  
ENDBRANCH   5  18
ENDBRANCH   3   5
ENDBRANCH   2   3
TORSDOF 7
ENDMDL
MODEL      104
REMARK 921   NORMALIZED FREE ENERGY PREDICTED BY IDOCK:   -4.12 KCAL/MOL
REMARK 922        TOTAL FREE ENERGY PREDICTED BY IDOCK:   -7.07 KCAL/MOL
REMARK 923 INTER-LIGAND FREE ENERGY PREDICTED BY IDOCK:   -6.27 KCAL/MOL
REMARK 924 INTRA-LIGAND FREE ENERGY PREDICTED BY IDOCK:   -0.80 KCAL/MOL
REMARK 927      BINDING AFFINITY PREDICTED BY RF-SCORE:    0.00 PKD
ROOT
HETATM    1  C   UNL     1     -12.583  14.304  70.219  1.00  0.00    -0.378 C  
HETATM    2  C   UNL     1     -12.272  14.029  68.751  1.00  0.00    -0.237 C  
ENDROOT
BRANCH   2   3
HETATM    3  C   UNL     1     -11.311  12.859  68.597  1.00  0.00    -0.289 C  
HETATM    4  O   UNL     1     -11.448  11.888  69.355  1.00  0.00    -0.270 OA 
BRANCH   3   5
HETATM    5  C   UNL     1     -10.250  12.859  67.413  1.00  0.00    -0.230 C  
BRANCH   5   6
HETATM    6  C   UNL     1      -9.587  14.292  67.487  1.00  0.00    -0.216 A  
HETATM    7  C   UNL     1      -8.739  16.356  66.476  1.00  0.00    -0.324 A  
HETATM    8  C   UNL     1      -9.138  14.784  68.732  1.00  0.00    -0.191 A  
HETATM    9  C   UNL     1      -9.376  15.115  66.363  1.00  0.00    -0.332 A  
HETATM   10  C   UNL     1      -8.495  16.022  68.843  1.00  0.00    -0.232 A  
HETATM   11  C   UNL     1      -8.297  16.808  67.713  1.00  0.00    -0.193 A  
ENDBRANCH   5   6
BRANCH   5  12
HETATM   12  C   UNL     1      -9.144  11.733  67.620  1.00  0.00    -0.177 C  
BRANCH  12  13
HETATM   13  C   UNL     1      -7.820  11.672  66.781  1.00  0.00    -0.130 C  
HETATM   14  C   UNL     1      -6.668  12.411  67.479  1.00  0.00    -0.146 C  
BRANCH  13  15
HETATM   15  N   UNL     1      -7.414  10.243  66.540  1.00  0.00    -0.108 NA 
HETATM   16  C   UNL     1      -8.520   9.286  66.667  1.00  0.00    -0.126 C  
HETATM   17  C   UNL     1      -6.798  10.043  65.217  1.00  0.00    -0.128 C  
ENDBRANCH  13  15
ENDBRANCH  12  13
ENDBRANCH   5  12
BRANCH   5  18
HETATM   18  C   UNL     1     -10.905  12.669  66.008  1.00  0.00    -0.306 A  
HETATM   19  C   UNL     1     -10.160  12.087  64.959  1.00  0.00    -0.293 A  
HETATM   20  C   UNL     1     -12.861  12.606  64.527  1.00  0.00    -0.356 A  
HETATM   21  C   UNL     1     -12.120  11.971  63.540  1.00  0.00    -0.628 A  
HETATM   22  C   UNL     1     -10.766  11.724  63.750  1.00  0.00    -0.480 A  
HETATM   23  C   UNL     1     -12.263  12.947  65.745  1.00  0.00    -0.498 A  
ENDBRANCH   5  18
ENDBRANCH   3   5
ENDBRANCH   2   3
TORSDOF 7
ENDMDL
MODEL      105
REMARK 921   NORMALIZED FREE ENERGY PREDICTED BY IDOCK:   -4.12 KCAL/MOL
REMARK 922        TOTAL FREE ENERGY PREDICTED BY IDOCK:   -7.05 KCAL/MOL
REMARK 923 INTER-LIGAND FREE ENERGY PREDICTED BY IDOCK:   -6.02 KCAL/MOL
REMARK 924 INTRA-LIGAND FREE ENERGY PREDICTED BY IDOCK:   -1.03 KCAL/MOL
REMARK 927      BINDING AFFINITY PREDICTED BY RF-SCORE:    0.00 PKD
ROOT
HETATM    1  C   UNL     1     -10.949   6.425  67.386  1.00  0.00    -0.463 C  
HETATM    2  C   UNL     1      -9.807   7.078  66.615  1.00  0.00    -0.223 C  
ENDROOT
BRANCH   2   3
HETATM    3  C   UNL     1      -9.163   8.199  67.421  1.00  0.00    -0.137 C  
HETATM    4  O   UNL     1      -8.247   7.903  68.201  1.00  0.00    -0.121 OA 
BRANCH   3   5
HETATM    5  C   UNL     1      -9.594   9.706  67.161  1.00  0.00    -0.210 C  
BRANCH   5   6
HETATM    6  C   UNL     1      -8.238  10.515  67.233  1.00  0.00    -0.119 A  
HETATM    7  C   UNL     1      -6.797  12.278  68.138  1.00  0.00    -0.078 A  
HETATM    8  C   UNL     1      -7.206  10.221  66.316  1.00  0.00    -0.117 A  
HETATM    9  C   UNL     1      -7.998  11.559  68.148  1.00  0.00    -0.136 A  
HETATM   10  C   UNL     1      -6.008  10.944  66.302  1.00  0.00    -0.139 A  
HETATM   11  C   UNL     1      -5.804  11.973  67.214  1.00  0.00    -0.142 A  
ENDBRANCH   5   6
BRANCH   5  12
HETATM   12  C   UNL     1     -10.261   9.884  65.727  1.00  0.00    -0.251 C  
BRANCH  12  13
HETATM   13  C   UNL     1      -9.964  11.108  64.791  1.00  0.00    -0.287 C  
HETATM   14  C   UNL     1      -9.714  10.669  63.340  1.00  0.00    -0.387 C  
BRANCH  13  15
HETATM   15  N   UNL     1     -11.109  12.084  64.820  1.00  0.00    -0.308 NA 
HETATM   16  C   UNL     1     -10.685  13.487  64.894  1.00  0.00    -0.381 C  
HETATM   17  C   UNL     1     -12.002  11.946  63.657  1.00  0.00    -0.476 C  
ENDBRANCH  13  15
ENDBRANCH  12  13
ENDBRANCH   5  12
BRANCH   5  18
HETATM   18  C   UNL     1     -10.576  10.255  68.244  1.00  0.00    -0.255 A  
HETATM   19  C   UNL     1     -10.758   9.544  69.451  1.00  0.00    -0.244 A  
HETATM   20  C   UNL     1     -11.960  12.042  69.199  1.00  0.00    -0.326 A  
HETATM   21  C   UNL     1     -12.064  11.350  70.398  1.00  0.00    -0.473 A  
HETATM   22  C   UNL     1     -11.475  10.095  70.520  1.00  0.00    -0.417 A  
HETATM   23  C   UNL     1     -11.225  11.503  68.138  1.00  0.00    -0.335 A  
ENDBRANCH   5  18
ENDBRANCH   3   5
ENDBRANCH   2   3
TORSDOF 7
ENDMDL
MODEL      106
REMARK 921   NORMALIZED FREE ENERGY PREDICTED BY IDOCK:   -4.11 KCAL/MOL
REMARK 922        TOTAL FREE ENERGY PREDICTED BY IDOCK:   -7.05 KCAL/MOL
REMARK 923 INTER-LIGAND FREE ENERGY PREDICTED BY IDOCK:   -6.06 KCAL/MOL
REMARK 924 INTRA-LIGAND FREE ENERGY PREDICTED BY IDOCK:   -0.99 KCAL/MOL
REMARK 927      BINDING AFFINITY PREDICTED BY RF-SCORE:    0.00 PKD
ROOT
HETATM    1  C   UNL     1     -14.256   9.209  72.107  1.00  0.00    -0.353 C  
HETATM    2  C   UNL     1     -12.773   8.885  72.251  1.00  0.00    -0.464 C  
ENDROOT
BRANCH   2   3
HETATM    3  C   UNL     1     -12.392   7.655  71.438  1.00  0.00    -0.333 C  
HETATM    4  O   UNL     1     -13.212   6.730  71.362  1.00  0.00    -0.261 OA 
BRANCH   3   5
HETATM    5  C   UNL     1     -11.025   7.638  70.626  1.00  0.00    -0.259 C  
BRANCH   5   6
HETATM    6  C   UNL     1      -9.913   7.806  71.736  1.00  0.00    -0.219 A  
HETATM    7  C   UNL     1      -7.668   8.429  72.495  1.00  0.00    -0.145 A  
HETATM    8  C   UNL     1     -10.173   7.364  73.050  1.00  0.00    -0.335 A  
HETATM    9  C   UNL     1      -8.636   8.347  71.486  1.00  0.00    -0.215 A  
HETATM   10  C   UNL     1      -9.203   7.439  74.056  1.00  0.00    -0.292 A  
HETATM   11  C   UNL     1      -7.950   7.973  73.777  1.00  0.00    -0.255 A  
ENDBRANCH   5   6
BRANCH   5  12
HETATM   12  C   UNL     1     -10.823   6.261  69.853  1.00  0.00    -0.399 C  
BRANCH  12  13
HETATM   13  C   UNL     1      -9.562   5.348  70.049  1.00  0.00    -0.169 C  
HETATM   14  C   UNL     1      -9.890   4.094  70.874  1.00  0.00    -0.247 C  
BRANCH  13  15
HETATM   15  N   UNL     1      -9.002   4.928  68.717  1.00  0.00    -0.101 NA 
HETATM   16  C   UNL     1      -9.999   4.904  67.640  1.00  0.00    -0.141 C  
HETATM   17  C   UNL     1      -7.885   5.780  68.276  1.00  0.00    -0.100 C  
ENDBRANCH  13  15
ENDBRANCH  12  13
ENDBRANCH   5  12
BRANCH   5  18
HETATM   18  C   UNL     1     -10.910   8.812  69.602  1.00  0.00    -0.175 A  
HETATM   19  C   UNL     1     -10.462   8.556  68.288  1.00  0.00    -0.222 A  
HETATM   20  C   UNL     1     -11.387  11.111  68.890  1.00  0.00    -0.344 A  
HETATM   21  C   UNL     1     -11.004  10.811  67.590  1.00  0.00    -0.365 A  
HETATM   22  C   UNL     1     -10.528   9.537  67.291  1.00  0.00    -0.328 A  
HETATM   23  C   UNL     1     -11.343  10.125  69.881  1.00  0.00    -0.335 A  
ENDBRANCH   5  18
ENDBRANCH   3   5
ENDBRANCH   2   3
TORSDOF 7
ENDMDL
MODEL      107
REMARK 921   NORMALIZED FREE ENERGY PREDICTED BY IDOCK:   -4.11 KCAL/MOL
REMARK 922        TOTAL FREE ENERGY PREDICTED BY IDOCK:   -7.04 KCAL/MOL
REMARK 923 INTER-LIGAND FREE ENERGY PREDICTED BY IDOCK:   -6.36 KCAL/MOL
REMARK 924 INTRA-LIGAND FREE ENERGY PREDICTED BY IDOCK:   -0.68 KCAL/MOL
REMARK 927      BINDING AFFINITY PREDICTED BY RF-SCORE:    0.00 PKD
ROOT
HETATM    1  C   UNL     1     -14.304   7.478  71.615  1.00  0.00    -0.621 C  
HETATM    2  C   UNL     1     -12.847   7.224  71.246  1.00  0.00    -0.391 C  
ENDROOT
BRANCH   2   3
HETATM    3  C   UNL     1     -12.007   8.485  71.399  1.00  0.00    -0.300 C  
HETATM    4  O   UNL     1     -12.494   9.436  72.026  1.00  0.00    -0.369 OA 
BRANCH   3   5
HETATM    5  C   UNL     1     -10.511   8.507  70.862  1.00  0.00    -0.248 C  
BRANCH   5   6
HETATM    6  C   UNL     1     -10.487   7.398  69.736  1.00  0.00    -0.235 A  
HETATM    7  C   UNL     1     -10.233   5.090  68.956  1.00  0.00    -0.207 A  
HETATM    8  C   UNL     1     -10.624   7.780  68.384  1.00  0.00    -0.157 A  
HETATM    9  C   UNL     1     -10.295   6.026  69.995  1.00  0.00    -0.290 A  
HETATM   10  C   UNL     1     -10.555   6.844  67.346  1.00  0.00    -0.373 A  
HETATM   11  C   UNL     1     -10.359   5.498  67.634  1.00  0.00    -0.256 A  
ENDBRANCH   5   6
BRANCH   5  12
HETATM   12  C   UNL     1     -10.134   9.924  70.243  1.00  0.00    -0.295 C  
BRANCH  12  13
HETATM   13  C   UNL     1     -11.151  10.798  69.428  1.00  0.00    -0.268 C  
HETATM   14  C   UNL     1     -11.706  11.960  70.267  1.00  0.00    -0.293 C  
BRANCH  13  15
HETATM   15  N   UNL     1     -10.497  11.354  68.191  1.00  0.00    -0.181 NA 
HETATM   16  C   UNL     1     -11.284  11.155  66.968  1.00  0.00    -0.219 C  
HETATM   17  C   UNL     1     -10.199  12.791  68.304  1.00  0.00    -0.244 C  
ENDBRANCH  13  15
ENDBRANCH  12  13
ENDBRANCH   5  12
BRANCH   5  18
HETATM   18  C   UNL     1      -9.463   8.144  71.963  1.00  0.00    -0.279 A  
HETATM   19  C   UNL     1      -8.091   8.385  71.732  1.00  0.00    -0.192 A  
HETATM   20  C   UNL     1      -8.872   7.532  74.264  1.00  0.00    -0.247 A  
HETATM   21  C   UNL     1      -7.540   7.842  74.027  1.00  0.00    -0.210 A  
HETATM   22  C   UNL     1      -7.147   8.256  72.757  1.00  0.00    -0.126 A  
HETATM   23  C   UNL     1      -9.821   7.683  73.247  1.00  0.00    -0.360 A  
ENDBRANCH   5  18
ENDBRANCH   3   5
ENDBRANCH   2   3
TORSDOF 7
ENDMDL
MODEL      108
REMARK 921   NORMALIZED FREE ENERGY PREDICTED BY IDOCK:   -4.09 KCAL/MOL
REMARK 922        TOTAL FREE ENERGY PREDICTED BY IDOCK:   -7.02 KCAL/MOL
REMARK 923 INTER-LIGAND FREE ENERGY PREDICTED BY IDOCK:   -6.13 KCAL/MOL
REMARK 924 INTRA-LIGAND FREE ENERGY PREDICTED BY IDOCK:   -0.89 KCAL/MOL
REMARK 927      BINDING AFFINITY PREDICTED BY RF-SCORE:    0.00 PKD
ROOT
HETATM    1  C   UNL     1     -12.360  11.993  70.598  1.00  0.00    -0.394 C  
HETATM    2  C   UNL     1     -11.727  12.590  69.346  1.00  0.00    -0.383 C  
ENDROOT
BRANCH   2   3
HETATM    3  C   UNL     1     -11.170  11.506  68.434  1.00  0.00    -0.255 C  
HETATM    4  O   UNL     1     -11.607  10.354  68.564  1.00  0.00    -0.226 OA 
BRANCH   3   5
HETATM    5  C   UNL     1     -10.147  11.893  67.281  1.00  0.00    -0.213 C  
BRANCH   5   6
HETATM    6  C   UNL     1      -8.989  12.664  68.033  1.00  0.00    -0.200 A  
HETATM    7  C   UNL     1      -7.940  14.691  68.921  1.00  0.00    -0.149 A  
HETATM    8  C   UNL     1      -7.838  11.957  68.441  1.00  0.00    -0.141 A  
HETATM    9  C   UNL     1      -9.015  14.048  68.295  1.00  0.00    -0.190 A  
HETATM   10  C   UNL     1      -6.762  12.602  69.061  1.00  0.00    -0.097 A  
HETATM   11  C   UNL     1      -6.815  13.971  69.301  1.00  0.00    -0.105 A  
ENDBRANCH   5   6
BRANCH   5  12
HETATM   12  C   UNL     1      -9.564  10.599  66.559  1.00  0.00    -0.218 C  
BRANCH  12  13
HETATM   13  C   UNL     1      -8.696  10.667  65.254  1.00  0.00    -0.187 C  
HETATM   14  C   UNL     1      -7.374   9.899  65.408  1.00  0.00    -0.128 C  
BRANCH  13  15
HETATM   15  N   UNL     1      -9.458  10.105  64.084  1.00  0.00    -0.289 NA 
HETATM   16  C   UNL     1      -9.969  11.130  63.166  1.00  0.00    -0.356 C  
HETATM   17  C   UNL     1      -8.661   9.152  63.293  1.00  0.00    -0.175 C  
ENDBRANCH  13  15
ENDBRANCH  12  13
ENDBRANCH   5  12
BRANCH   5  18
HETATM   18  C   UNL     1     -10.772  12.833  66.201  1.00  0.00    -0.297 A  
HETATM   19  C   UNL     1     -12.111  12.642  65.795  1.00  0.00    -0.484 A  
HETATM   20  C   UNL     1     -10.751  14.875  64.841  1.00  0.00    -0.426 A  
HETATM   21  C   UNL     1     -12.088  14.697  64.515  1.00  0.00    -0.490 A  
HETATM   22  C   UNL     1     -12.765  13.574  64.981  1.00  0.00    -0.399 A  
HETATM   23  C   UNL     1     -10.103  13.957  65.675  1.00  0.00    -0.332 A  
ENDBRANCH   5  18
ENDBRANCH   3   5
ENDBRANCH   2   3
TORSDOF 7
ENDMDL
MODEL      109
REMARK 921   NORMALIZED FREE ENERGY PREDICTED BY IDOCK:   -4.07 KCAL/MOL
REMARK 922        TOTAL FREE ENERGY PREDICTED BY IDOCK:   -6.98 KCAL/MOL
REMARK 923 INTER-LIGAND FREE ENERGY PREDICTED BY IDOCK:   -6.34 KCAL/MOL
REMARK 924 INTRA-LIGAND FREE ENERGY PREDICTED BY IDOCK:   -0.65 KCAL/MOL
REMARK 927      BINDING AFFINITY PREDICTED BY RF-SCORE:    0.00 PKD
ROOT
HETATM    1  C   UNL     1      -9.392   7.581  68.813  1.00  0.00    -0.147 C  
HETATM    2  C   UNL     1      -9.453   9.104  68.825  1.00  0.00    -0.147 C  
ENDROOT
BRANCH   2   3
HETATM    3  C   UNL     1     -10.300   9.635  67.675  1.00  0.00    -0.237 C  
HETATM    4  O   UNL     1     -10.903   8.816  66.969  1.00  0.00    -0.193 OA 
BRANCH   3   5
HETATM    5  C   UNL     1     -10.479  11.203  67.486  1.00  0.00    -0.239 C  
BRANCH   5   6
HETATM    6  C   UNL     1      -9.003  11.769  67.517  1.00  0.00    -0.168 A  
HETATM    7  C   UNL     1      -6.640  11.731  66.870  1.00  0.00    -0.114 A  
HETATM    8  C   UNL     1      -8.696  12.858  68.361  1.00  0.00    -0.119 A  
HETATM    9  C   UNL     1      -7.941  11.223  66.769  1.00  0.00    -0.159 A  
HETATM   10  C   UNL     1      -7.394  13.361  68.466  1.00  0.00    -0.111 A  
HETATM   11  C   UNL     1      -6.366  12.796  67.720  1.00  0.00    -0.137 A  
ENDBRANCH   5   6
BRANCH   5  12
HETATM   12  C   UNL     1     -11.168  11.548  66.093  1.00  0.00    -0.265 C  
BRANCH  12  13
HETATM   13  C   UNL     1     -10.591  12.612  65.094  1.00  0.00    -0.298 C  
HETATM   14  C   UNL     1     -10.899  12.248  63.633  1.00  0.00    -0.522 C  
BRANCH  13  15
HETATM   15  N   UNL     1     -11.155  13.975  65.391  1.00  0.00    -0.309 NA 
HETATM   16  C   UNL     1     -10.129  15.009  65.577  1.00  0.00    -0.369 C  
HETATM   17  C   UNL     1     -12.081  14.445  64.347  1.00  0.00    -0.470 C  
ENDBRANCH  13  15
ENDBRANCH  12  13
ENDBRANCH   5  12
BRANCH   5  18
HETATM   18  C   UNL     1     -11.306  11.865  68.634  1.00  0.00    -0.331 A  
HETATM   19  C   UNL     1     -11.767  11.077  69.711  1.00  0.00    -0.410 A  
HETATM   20  C   UNL     1     -12.126  13.834  69.847  1.00  0.00    -0.412 A  
HETATM   21  C   UNL     1     -12.507  13.040  70.921  1.00  0.00    -0.396 A  
HETATM   22  C   UNL     1     -12.340  11.660  70.848  1.00  0.00    -0.436 A  
HETATM   23  C   UNL     1     -11.532  13.255  68.721  1.00  0.00    -0.346 A  
ENDBRANCH   5  18
ENDBRANCH   3   5
ENDBRANCH   2   3
TORSDOF 7
ENDMDL
MODEL      110
REMARK 921   NORMALIZED FREE ENERGY PREDICTED BY IDOCK:   -4.06 KCAL/MOL
REMARK 922        TOTAL FREE ENERGY PREDICTED BY IDOCK:   -6.97 KCAL/MOL
REMARK 923 INTER-LIGAND FREE ENERGY PREDICTED BY IDOCK:   -6.15 KCAL/MOL
REMARK 924 INTRA-LIGAND FREE ENERGY PREDICTED BY IDOCK:   -0.82 KCAL/MOL
REMARK 927      BINDING AFFINITY PREDICTED BY RF-SCORE:    0.00 PKD
ROOT
HETATM    1  C   UNL     1     -10.838   2.658  73.664  1.00  0.00    -0.289 C  
HETATM    2  C   UNL     1     -10.282   3.739  72.744  1.00  0.00    -0.236 C  
ENDROOT
BRANCH   2   3
HETATM    3  C   UNL     1     -11.265   4.891  72.583  1.00  0.00    -0.120 C  
HETATM    4  O   UNL     1     -12.366   4.800  73.144  1.00  0.00     0.025 OA 
BRANCH   3   5
HETATM    5  C   UNL     1     -10.819   6.208  71.813  1.00  0.00    -0.303 C  
BRANCH   5   6
HETATM    6  C   UNL     1     -10.469   5.704  70.355  1.00  0.00    -0.355 A  
HETATM    7  C   UNL     1      -9.206   4.328  68.770  1.00  0.00    -0.200 A  
HETATM    8  C   UNL     1     -11.105   6.300  69.245  1.00  0.00    -0.461 A  
HETATM    9  C   UNL     1      -9.515   4.703  70.083  1.00  0.00    -0.246 A  
HETATM   10  C   UNL     1     -10.791   5.929  67.933  1.00  0.00    -0.323 A  
HETATM   11  C   UNL     1      -9.840   4.942  67.697  1.00  0.00    -0.205 A  
ENDBRANCH   5   6
BRANCH   5  12
HETATM   12  C   UNL     1     -11.997   7.277  71.754  1.00  0.00    -0.342 C  
BRANCH  12  13
HETATM   13  C   UNL     1     -11.773   8.810  72.002  1.00  0.00    -0.372 C  
HETATM   14  C   UNL     1     -11.266   9.524  70.738  1.00  0.00    -0.383 C  
BRANCH  13  15
HETATM   15  N   UNL     1     -13.049   9.463  72.457  1.00  0.00    -0.369 NA 
HETATM   16  C   UNL     1     -13.276  10.788  71.868  1.00  0.00    -0.419 C  
HETATM   17  C   UNL     1     -14.239   8.640  72.181  1.00  0.00    -0.439 C  
ENDBRANCH  13  15
ENDBRANCH  12  13
ENDBRANCH   5  12
BRANCH   5  18
HETATM   18  C   UNL     1      -9.557   6.883  72.439  1.00  0.00    -0.167 A  
HETATM   19  C   UNL     1      -8.533   7.371  71.599  1.00  0.00    -0.120 A  
HETATM   20  C   UNL     1      -8.365   7.899  74.328  1.00  0.00    -0.297 A  
HETATM   21  C   UNL     1      -7.409   8.425  73.468  1.00  0.00    -0.123 A  
HETATM   22  C   UNL     1      -7.485   8.150  72.106  1.00  0.00    -0.124 A  
HETATM   23  C   UNL     1      -9.425   7.141  73.819  1.00  0.00    -0.286 A  
ENDBRANCH   5  18
ENDBRANCH   3   5
ENDBRANCH   2   3
TORSDOF 7
ENDMDL
MODEL      111
REMARK 921   NORMALIZED FREE ENERGY PREDICTED BY IDOCK:   -4.04 KCAL/MOL
REMARK 922        TOTAL FREE ENERGY PREDICTED BY IDOCK:   -6.95 KCAL/MOL
REMARK 923 INTER-LIGAND FREE ENERGY PREDICTED BY IDOCK:   -6.02 KCAL/MOL
REMARK 924 INTRA-LIGAND FREE ENERGY PREDICTED BY IDOCK:   -0.92 KCAL/MOL
REMARK 927      BINDING AFFINITY PREDICTED BY RF-SCORE:    0.00 PKD
ROOT
HETATM    1  C   UNL     1      -9.485  10.651  64.440  1.00  0.00    -0.317 C  
HETATM    2  C   UNL     1      -9.465  10.397  65.943  1.00  0.00    -0.237 C  
ENDROOT
BRANCH   2   3
HETATM    3  C   UNL     1     -10.608  11.120  66.643  1.00  0.00    -0.264 C  
HETATM    4  O   UNL     1     -11.646  10.485  66.871  1.00  0.00    -0.086 OA 
BRANCH   3   5
HETATM    5  C   UNL     1     -10.401  12.610  67.159  1.00  0.00    -0.239 C  
BRANCH   5   6
HETATM    6  C   UNL     1     -11.186  12.657  68.531  1.00  0.00    -0.315 A  
HETATM    7  C   UNL     1     -12.305  13.839  70.361  1.00  0.00    -0.423 A  
HETATM    8  C   UNL     1     -11.405  11.460  69.245  1.00  0.00    -0.355 A  
HETATM    9  C   UNL     1     -11.659  13.847  69.119  1.00  0.00    -0.359 A  
HETATM   10  C   UNL     1     -12.046  11.454  70.489  1.00  0.00    -0.487 A  
HETATM   11  C   UNL     1     -12.496  12.646  71.046  1.00  0.00    -0.354 A  
ENDBRANCH   5   6
BRANCH   5  12
HETATM   12  C   UNL     1      -8.862  12.936  67.398  1.00  0.00    -0.199 C  
BRANCH  12  13
HETATM   13  C   UNL     1      -8.164  12.793  68.796  1.00  0.00     0.117 C  
HETATM   14  C   UNL     1      -7.511  11.412  68.968  1.00  0.00    -0.093 C  
BRANCH  13  15
HETATM   15  N   UNL     1      -7.117  13.858  68.975  1.00  0.00    -0.111 NA 
HETATM   16  C   UNL     1      -6.050  13.811  67.968  1.00  0.00    -0.140 C  
HETATM   17  C   UNL     1      -7.682  15.218  68.967  1.00  0.00    -0.183 C  
ENDBRANCH  13  15
ENDBRANCH  12  13
ENDBRANCH   5  12
BRANCH   5  18
HETATM   18  C   UNL     1     -10.998  13.679  66.189  1.00  0.00    -0.285 A  
HETATM   19  C   UNL     1     -10.377  14.941  66.067  1.00  0.00    -0.313 A  
HETATM   20  C   UNL     1     -12.480  14.336  64.347  1.00  0.00    -0.328 A  
HETATM   21  C   UNL     1     -11.805  15.541  64.206  1.00  0.00    -0.179 A  
HETATM   22  C   UNL     1     -10.762  15.850  65.074  1.00  0.00    -0.426 A  
HETATM   23  C   UNL     1     -12.080  13.417  65.323  1.00  0.00    -0.446 A  
ENDBRANCH   5  18
ENDBRANCH   3   5
ENDBRANCH   2   3
TORSDOF 7
ENDMDL
MODEL      112
REMARK 921   NORMALIZED FREE ENERGY PREDICTED BY IDOCK:   -4.02 KCAL/MOL
REMARK 922        TOTAL FREE ENERGY PREDICTED BY IDOCK:   -6.92 KCAL/MOL
REMARK 923 INTER-LIGAND FREE ENERGY PREDICTED BY IDOCK:   -5.62 KCAL/MOL
REMARK 924 INTRA-LIGAND FREE ENERGY PREDICTED BY IDOCK:   -1.30 KCAL/MOL
REMARK 927      BINDING AFFINITY PREDICTED BY RF-SCORE:    0.00 PKD
ROOT
HETATM    1  C   UNL     1     -10.124   8.162  68.395  1.00  0.00    -0.226 C  
HETATM    2  C   UNL     1     -10.500   9.052  67.216  1.00  0.00    -0.343 C  
ENDROOT
BRANCH   2   3
HETATM    3  C   UNL     1     -10.970  10.423  67.683  1.00  0.00    -0.312 C  
HETATM    4  O   UNL     1     -12.010  10.485  68.354  1.00  0.00    -0.364 OA 
BRANCH   3   5
HETATM    5  C   UNL     1     -10.071  11.703  67.403  1.00  0.00    -0.218 C  
BRANCH   5   6
HETATM    6  C   UNL     1     -10.746  12.384  66.146  1.00  0.00    -0.292 A  
HETATM    7  C   UNL     1     -12.401  12.472  64.342  1.00  0.00    -0.537 A  
HETATM    8  C   UNL     1     -10.189  13.568  65.617  1.00  0.00    -0.306 A  
HETATM    9  C   UNL     1     -11.870  11.856  65.481  1.00  0.00    -0.135 A  
HETATM   10  C   UNL     1     -10.716  14.180  64.474  1.00  0.00    -0.323 A  
HETATM   11  C   UNL     1     -11.823  13.631  63.837  1.00  0.00    -0.419 A  
ENDBRANCH   5   6
BRANCH   5  12
HETATM   12  C   UNL     1     -10.081  12.705  68.639  1.00  0.00    -0.131 C  
BRANCH  12  13
HETATM   13  C   UNL     1     -11.151  13.840  68.811  1.00  0.00    -0.266 C  
HETATM   14  C   UNL     1     -12.132  13.529  69.952  1.00  0.00    -0.408 C  
BRANCH  13  15
HETATM   15  N   UNL     1     -10.481  15.160  69.084  1.00  0.00    -0.243 NA 
HETATM   16  C   UNL     1     -10.943  15.811  70.316  1.00  0.00    -0.357 C  
HETATM   17  C   UNL     1      -9.015  15.049  69.158  1.00  0.00    -0.186 C  
ENDBRANCH  13  15
ENDBRANCH  12  13
ENDBRANCH   5  12
BRANCH   5  18
HETATM   18  C   UNL     1      -8.590  11.344  67.058  1.00  0.00    -0.157 A  
HETATM   19  C   UNL     1      -7.630  11.256  68.090  1.00  0.00    -0.105 A  
HETATM   20  C   UNL     1      -6.874  10.502  65.519  1.00  0.00    -0.100 A  
HETATM   21  C   UNL     1      -5.974  10.362  66.567  1.00  0.00    -0.070 A  
HETATM   22  C   UNL     1      -6.347  10.752  67.850  1.00  0.00    -0.061 A  
HETATM   23  C   UNL     1      -8.165  10.984  65.762  1.00  0.00    -0.064 A  
ENDBRANCH   5  18
ENDBRANCH   3   5
ENDBRANCH   2   3
TORSDOF 7
ENDMDL
MODEL      113
REMARK 921   NORMALIZED FREE ENERGY PREDICTED BY IDOCK:   -4.02 KCAL/MOL
REMARK 922        TOTAL FREE ENERGY PREDICTED BY IDOCK:   -6.91 KCAL/MOL
REMARK 923 INTER-LIGAND FREE ENERGY PREDICTED BY IDOCK:   -6.15 KCAL/MOL
REMARK 924 INTRA-LIGAND FREE ENERGY PREDICTED BY IDOCK:   -0.76 KCAL/MOL
REMARK 927      BINDING AFFINITY PREDICTED BY RF-SCORE:    0.00 PKD
ROOT
HETATM    1  C   UNL     1     -14.236   7.726  71.703  1.00  0.00    -0.572 C  
HETATM    2  C   UNL     1     -12.947   7.077  71.211  1.00  0.00    -0.357 C  
ENDROOT
BRANCH   2   3
HETATM    3  C   UNL     1     -11.721   7.790  71.765  1.00  0.00    -0.284 C  
HETATM    4  O   UNL     1     -11.606   7.881  72.996  1.00  0.00    -0.351 OA 
BRANCH   3   5
HETATM    5  C   UNL     1     -10.581   8.286  70.774  1.00  0.00    -0.236 C  
BRANCH   5   6
HETATM    6  C   UNL     1     -11.030   9.746  70.367  1.00  0.00    -0.371 A  
HETATM    7  C   UNL     1     -10.837  11.794  69.037  1.00  0.00    -0.239 A  
HETATM    8  C   UNL     1     -12.057  10.383  71.096  1.00  0.00    -0.487 A  
HETATM    9  C   UNL     1     -10.435  10.484  69.325  1.00  0.00    -0.258 A  
HETATM   10  C   UNL     1     -12.454  11.695  70.812  1.00  0.00    -0.425 A  
HETATM   11  C   UNL     1     -11.842  12.399  69.781  1.00  0.00    -0.387 A  
ENDBRANCH   5   6
BRANCH   5  12
HETATM   12  C   UNL     1      -9.162   8.330  71.493  1.00  0.00    -0.231 C  
BRANCH  12  13
HETATM   13  C   UNL     1      -7.805   8.215  70.713  1.00  0.00    -0.089 C  
HETATM   14  C   UNL     1      -7.041   9.549  70.698  1.00  0.00    -0.128 C  
BRANCH  13  15
HETATM   15  N   UNL     1      -6.931   7.155  71.328  1.00  0.00    -0.060 NA 
HETATM   16  C   UNL     1      -7.573   6.429  72.431  1.00  0.00    -0.097 C  
HETATM   17  C   UNL     1      -6.468   6.161  70.346  1.00  0.00    -0.040 C  
ENDBRANCH  13  15
ENDBRANCH  12  13
ENDBRANCH   5  12
BRANCH   5  18
HETATM   18  C   UNL     1     -10.467   7.407  69.488  1.00  0.00    -0.236 A  
HETATM   19  C   UNL     1     -10.164   6.032  69.603  1.00  0.00    -0.268 A  
HETATM   20  C   UNL     1     -10.820   7.033  67.089  1.00  0.00    -0.427 A  
HETATM   21  C   UNL     1     -10.584   5.674  67.244  1.00  0.00    -0.328 A  
HETATM   22  C   UNL     1     -10.243   5.175  68.498  1.00  0.00    -0.182 A  
HETATM   23  C   UNL     1     -10.765   7.887  68.196  1.00  0.00    -0.101 A  
ENDBRANCH   5  18
ENDBRANCH   3   5
ENDBRANCH   2   3
TORSDOF 7
ENDMDL
MODEL      114
REMARK 921   NORMALIZED FREE ENERGY PREDICTED BY IDOCK:   -4.01 KCAL/MOL
REMARK 922        TOTAL FREE ENERGY PREDICTED BY IDOCK:   -6.91 KCAL/MOL
REMARK 923 INTER-LIGAND FREE ENERGY PREDICTED BY IDOCK:   -5.67 KCAL/MOL
REMARK 924 INTRA-LIGAND FREE ENERGY PREDICTED BY IDOCK:   -1.24 KCAL/MOL
REMARK 927      BINDING AFFINITY PREDICTED BY RF-SCORE:    0.00 PKD
ROOT
HETATM    1  C   UNL     1     -10.149   5.084  68.077  1.00  0.00    -0.169 C  
HETATM    2  C   UNL     1     -11.108   6.249  68.294  1.00  0.00    -0.364 C  
ENDROOT
BRANCH   2   3
HETATM    3  C   UNL     1     -11.048   6.758  69.729  1.00  0.00    -0.316 C  
HETATM    4  O   UNL     1     -11.500   6.030  70.624  1.00  0.00    -0.299 OA 
BRANCH   3   5
HETATM    5  C   UNL     1     -10.315   8.132  70.049  1.00  0.00    -0.215 C  
BRANCH   5   6
HETATM    6  C   UNL     1      -9.185   7.737  71.081  1.00  0.00    -0.158 A  
HETATM    7  C   UNL     1      -7.872   8.095  73.118  1.00  0.00    -0.213 A  
HETATM    8  C   UNL     1      -8.356   6.627  70.809  1.00  0.00    -0.129 A  
HETATM    9  C   UNL     1      -8.919   8.458  72.261  1.00  0.00    -0.303 A  
HETATM   10  C   UNL     1      -7.306   6.269  71.662  1.00  0.00    -0.089 A  
HETATM   11  C   UNL     1      -7.065   7.004  72.818  1.00  0.00    -0.073 A  
ENDBRANCH   5   6
BRANCH   5  12
HETATM   12  C   UNL     1      -9.666   8.765  68.741  1.00  0.00    -0.171 C  
BRANCH  12  13
HETATM   13  C   UNL     1      -8.221   9.375  68.714  1.00  0.00    -0.108 C  
HETATM   14  C   UNL     1      -7.233   8.469  67.963  1.00  0.00    -0.087 C  
BRANCH  13  15
HETATM   15  N   UNL     1      -8.233  10.733  68.066  1.00  0.00    -0.112 NA 
HETATM   16  C   UNL     1      -7.486  11.751  68.815  1.00  0.00    -0.109 C  
HETATM   17  C   UNL     1      -7.705  10.711  66.691  1.00  0.00    -0.132 C  
ENDBRANCH  13  15
ENDBRANCH  12  13
ENDBRANCH   5  12
BRANCH   5  18
HETATM   18  C   UNL     1     -11.262   9.188  70.703  1.00  0.00    -0.322 A  
HETATM   19  C   UNL     1     -11.216  10.533  70.274  1.00  0.00    -0.391 A  
HETATM   20  C   UNL     1     -13.203   9.792  72.078  1.00  0.00    -0.557 A  
HETATM   21  C   UNL     1     -13.174  11.090  71.585  1.00  0.00    -0.461 A  
HETATM   22  C   UNL     1     -12.173  11.464  70.694  1.00  0.00    -0.484 A  
HETATM   23  C   UNL     1     -12.261   8.854  71.641  1.00  0.00    -0.409 A  
ENDBRANCH   5  18
ENDBRANCH   3   5
ENDBRANCH   2   3
TORSDOF 7
ENDMDL
MODEL      115
REMARK 921   NORMALIZED FREE ENERGY PREDICTED BY IDOCK:   -4.00 KCAL/MOL
REMARK 922        TOTAL FREE ENERGY PREDICTED BY IDOCK:   -6.89 KCAL/MOL
REMARK 923 INTER-LIGAND FREE ENERGY PREDICTED BY IDOCK:   -6.00 KCAL/MOL
REMARK 924 INTRA-LIGAND FREE ENERGY PREDICTED BY IDOCK:   -0.89 KCAL/MOL
REMARK 927      BINDING AFFINITY PREDICTED BY RF-SCORE:    0.00 PKD
ROOT
HETATM    1  C   UNL     1      -7.410  16.420  67.252  1.00  0.00    -0.209 C  
HETATM    2  C   UNL     1      -7.544  14.910  67.088  1.00  0.00    -0.145 C  
ENDROOT
BRANCH   2   3
HETATM    3  C   UNL     1      -8.427  14.310  68.174  1.00  0.00    -0.167 C  
HETATM    4  O   UNL     1      -8.110  14.504  69.356  1.00  0.00    -0.041 OA 
BRANCH   3   5
HETATM    5  C   UNL     1      -9.772  13.563  67.775  1.00  0.00    -0.226 C  
BRANCH   5   6
HETATM    6  C   UNL     1     -10.847  14.136  68.782  1.00  0.00    -0.271 A  
HETATM    7  C   UNL     1     -12.485  13.899  70.589  1.00  0.00    -0.436 A  
HETATM    8  C   UNL     1     -11.217  15.495  68.701  1.00  0.00    -0.326 A  
HETATM    9  C   UNL     1     -11.503  13.353  69.753  1.00  0.00    -0.236 A  
HETATM   10  C   UNL     1     -12.203  16.039  69.533  1.00  0.00     0.003 A  
HETATM   11  C   UNL     1     -12.837  15.238  70.477  1.00  0.00    -0.421 A  
ENDBRANCH   5   6
BRANCH   5  12
HETATM   12  C   UNL     1     -10.198  13.890  66.276  1.00  0.00    -0.299 C  
BRANCH  12  13
HETATM   13  C   UNL     1     -11.397  13.181  65.555  1.00  0.00    -0.299 C  
HETATM   14  C   UNL     1     -12.703  13.979  65.702  1.00  0.00    -0.515 C  
BRANCH  13  15
HETATM   15  N   UNL     1     -11.098  12.994  64.092  1.00  0.00    -0.383 NA 
HETATM   16  C   UNL     1      -9.985  12.072  63.832  1.00  0.00    -0.318 C  
HETATM   17  C   UNL     1     -12.264  12.515  63.331  1.00  0.00    -0.517 C  
ENDBRANCH  13  15
ENDBRANCH  12  13
ENDBRANCH   5  12
BRANCH   5  18
HETATM   18  C   UNL     1      -9.682  12.013  67.946  1.00  0.00    -0.194 A  
HETATM   19  C   UNL     1      -8.495  11.430  68.442  1.00  0.00    -0.155 A  
HETATM   20  C   UNL     1     -10.713   9.790  68.065  1.00  0.00    -0.298 A  
HETATM   21  C   UNL     1      -9.555   9.259  68.615  1.00  0.00    -0.152 A  
HETATM   22  C   UNL     1      -8.441  10.075  68.792  1.00  0.00    -0.126 A  
HETATM   23  C   UNL     1     -10.777  11.149  67.738  1.00  0.00    -0.267 A  
ENDBRANCH   5  18
ENDBRANCH   3   5
ENDBRANCH   2   3
TORSDOF 7
ENDMDL
MODEL      116
REMARK 921   NORMALIZED FREE ENERGY PREDICTED BY IDOCK:   -4.00 KCAL/MOL
REMARK 922        TOTAL FREE ENERGY PREDICTED BY IDOCK:   -6.89 KCAL/MOL
REMARK 923 INTER-LIGAND FREE ENERGY PREDICTED BY IDOCK:   -5.95 KCAL/MOL
REMARK 924 INTRA-LIGAND FREE ENERGY PREDICTED BY IDOCK:   -0.94 KCAL/MOL
REMARK 927      BINDING AFFINITY PREDICTED BY RF-SCORE:    0.00 PKD
ROOT
HETATM    1  C   UNL     1      -6.236  11.334  67.941  1.00  0.00    -0.050 C  
HETATM    2  C   UNL     1      -7.491  11.658  68.743  1.00  0.00    -0.114 C  
ENDROOT
BRANCH   2   3
HETATM    3  C   UNL     1      -8.567  12.279  67.863  1.00  0.00    -0.169 C  
HETATM    4  O   UNL     1      -8.220  13.127  67.029  1.00  0.00    -0.149 OA 
BRANCH   3   5
HETATM    5  C   UNL     1     -10.064  11.750  67.953  1.00  0.00    -0.195 C  
BRANCH   5   6
HETATM    6  C   UNL     1      -9.976  10.252  67.455  1.00  0.00    -0.226 A  
HETATM    7  C   UNL     1     -10.351   7.845  67.712  1.00  0.00    -0.289 A  
HETATM    8  C   UNL     1      -9.309   9.962  66.246  1.00  0.00    -0.224 A  
HETATM    9  C   UNL     1     -10.499   9.159  68.173  1.00  0.00    -0.260 A  
HETATM   10  C   UNL     1      -9.156   8.648  65.789  1.00  0.00    -0.242 A  
HETATM   11  C   UNL     1      -9.678   7.590  66.524  1.00  0.00    -0.238 A  
ENDBRANCH   5   6
BRANCH   5  12
HETATM   12  C   UNL     1     -10.611  11.799  69.446  1.00  0.00     0.033 C  
BRANCH  12  13
HETATM   13  C   UNL     1     -12.124  12.027  69.795  1.00  0.00    -0.248 C  
HETATM   14  C   UNL     1     -12.784  10.747  70.331  1.00  0.00    -0.346 C  
BRANCH  13  15
HETATM   15  N   UNL     1     -12.271  13.122  70.817  1.00  0.00    -0.348 NA 
HETATM   16  C   UNL     1     -12.651  14.418  70.243  1.00  0.00    -0.323 C  
HETATM   17  C   UNL     1     -13.250  12.791  71.866  1.00  0.00    -0.412 C  
ENDBRANCH  13  15
ENDBRANCH  12  13
ENDBRANCH   5  12
BRANCH   5  18
HETATM   18  C   UNL     1     -11.046  12.541  67.030  1.00  0.00    -0.326 A  
HETATM   19  C   UNL     1     -11.220  13.930  67.217  1.00  0.00    -0.329 A  
HETATM   20  C   UNL     1     -12.437  12.733  65.018  1.00  0.00    -0.572 A  
HETATM   21  C   UNL     1     -12.533  14.107  65.190  1.00  0.00    -0.453 A  
HETATM   22  C   UNL     1     -11.936  14.704  66.297  1.00  0.00    -0.262 A  
HETATM   23  C   UNL     1     -11.701  11.961  65.924  1.00  0.00    -0.208 A  
ENDBRANCH   5  18
ENDBRANCH   3   5
ENDBRANCH   2   3
TORSDOF 7
ENDMDL
MODEL      117
REMARK 921   NORMALIZED FREE ENERGY PREDICTED BY IDOCK:   -3.97 KCAL/MOL
REMARK 922        TOTAL FREE ENERGY PREDICTED BY IDOCK:   -6.85 KCAL/MOL
REMARK 923 INTER-LIGAND FREE ENERGY PREDICTED BY IDOCK:   -5.72 KCAL/MOL
REMARK 924 INTRA-LIGAND FREE ENERGY PREDICTED BY IDOCK:   -1.13 KCAL/MOL
REMARK 927      BINDING AFFINITY PREDICTED BY RF-SCORE:    0.00 PKD
ROOT
HETATM    1  C   UNL     1     -10.739   6.883  67.401  1.00  0.00    -0.396 C  
HETATM    2  C   UNL     1     -11.396   6.425  68.698  1.00  0.00    -0.214 C  
ENDROOT
BRANCH   2   3
HETATM    3  C   UNL     1     -10.369   6.240  69.807  1.00  0.00    -0.207 C  
HETATM    4  O   UNL     1      -9.420   5.472  69.599  1.00  0.00    -0.129 OA 
BRANCH   3   5
HETATM    5  C   UNL     1     -10.473   7.111  71.133  1.00  0.00    -0.225 C  
BRANCH   5   6
HETATM    6  C   UNL     1     -10.343   6.054  72.301  1.00  0.00    -0.223 A  
HETATM    7  C   UNL     1     -11.098   4.094  73.561  1.00  0.00    -0.359 A  
HETATM    8  C   UNL     1      -9.313   6.200  73.255  1.00  0.00    -0.135 A  
HETATM    9  C   UNL     1     -11.229   4.973  72.479  1.00  0.00    -0.183 A  
HETATM   10  C   UNL     1      -9.187   5.324  74.339  1.00  0.00    -0.118 A  
HETATM   11  C   UNL     1     -10.081   4.270  74.491  1.00  0.00    -0.250 A  
ENDBRANCH   5   6
BRANCH   5  12
HETATM   12  C   UNL     1      -9.295   8.177  71.225  1.00  0.00    -0.195 C  
BRANCH  12  13
HETATM   13  C   UNL     1      -8.455   8.632  69.981  1.00  0.00    -0.130 C  
HETATM   14  C   UNL     1      -9.098   9.832  69.267  1.00  0.00    -0.189 C  
BRANCH  13  15
HETATM   15  N   UNL     1      -7.055   8.999  70.394  1.00  0.00    -0.056 NA 
HETATM   16  C   UNL     1      -6.711  10.401  70.129  1.00  0.00    -0.150 C  
HETATM   17  C   UNL     1      -6.797   8.735  71.819  1.00  0.00    -0.062 C  
ENDBRANCH  13  15
ENDBRANCH  12  13
ENDBRANCH   5  12
BRANCH   5  18
HETATM   18  C   UNL     1     -11.839   7.857  71.265  1.00  0.00    -0.321 A  
HETATM   19  C   UNL     1     -13.045   7.121  71.256  1.00  0.00    -0.361 A  
HETATM   20  C   UNL     1     -13.169   9.850  71.797  1.00  0.00    -0.535 A  
HETATM   21  C   UNL     1     -14.329   9.088  71.848  1.00  0.00    -0.300 A  
HETATM   22  C   UNL     1     -14.269   7.726  71.565  1.00  0.00    -0.540 A  
HETATM   23  C   UNL     1     -11.941   9.242  71.512  1.00  0.00    -0.439 A  
ENDBRANCH   5  18
ENDBRANCH   3   5
ENDBRANCH   2   3
TORSDOF 7
ENDMDL
MODEL      118
REMARK 921   NORMALIZED FREE ENERGY PREDICTED BY IDOCK:   -3.97 KCAL/MOL
REMARK 922        TOTAL FREE ENERGY PREDICTED BY IDOCK:   -6.84 KCAL/MOL
REMARK 923 INTER-LIGAND FREE ENERGY PREDICTED BY IDOCK:   -6.19 KCAL/MOL
REMARK 924 INTRA-LIGAND FREE ENERGY PREDICTED BY IDOCK:   -0.66 KCAL/MOL
REMARK 927      BINDING AFFINITY PREDICTED BY RF-SCORE:    0.00 PKD
ROOT
HETATM    1  C   UNL     1      -7.588   9.792  70.373  1.00  0.00    -0.165 C  
HETATM    2  C   UNL     1      -9.034   9.333  70.525  1.00  0.00    -0.296 C  
ENDROOT
BRANCH   2   3
HETATM    3  C   UNL     1      -9.215   8.470  71.767  1.00  0.00    -0.246 C  
HETATM    4  O   UNL     1      -8.602   8.793  72.795  1.00  0.00    -0.412 OA 
BRANCH   3   5
HETATM    5  C   UNL     1     -10.256   7.269  71.750  1.00  0.00    -0.211 C  
BRANCH   5   6
HETATM    6  C   UNL     1     -10.005   6.559  70.360  1.00  0.00    -0.202 A  
HETATM    7  C   UNL     1      -8.575   5.468  68.697  1.00  0.00    -0.103 A  
HETATM    8  C   UNL     1     -11.065   6.454  69.435  1.00  0.00    -0.450 A  
HETATM    9  C   UNL     1      -8.756   6.045  69.960  1.00  0.00    -0.135 A  
HETATM   10  C   UNL     1     -10.882   5.884  68.170  1.00  0.00    -0.323 A  
HETATM   11  C   UNL     1      -9.635   5.391  67.802  1.00  0.00    -0.147 A  
ENDBRANCH   5   6
BRANCH   5  12
HETATM   12  C   UNL     1      -9.989   6.249  72.942  1.00  0.00    -0.181 C  
BRANCH  12  13
HETATM   13  C   UNL     1      -9.002   5.035  72.823  1.00  0.00    -0.120 C  
HETATM   14  C   UNL     1      -7.884   5.105  73.876  1.00  0.00    -0.098 C  
BRANCH  13  15
HETATM   15  N   UNL     1      -9.743   3.735  72.978  1.00  0.00    -0.123 NA 
HETATM   16  C   UNL     1     -11.123   3.895  73.453  1.00  0.00    -0.232 C  
HETATM   17  C   UNL     1      -9.786   2.954  71.730  1.00  0.00    -0.148 C  
ENDBRANCH  13  15
ENDBRANCH  12  13
ENDBRANCH   5  12
BRANCH   5  18
HETATM   18  C   UNL     1     -11.741   7.749  71.820  1.00  0.00    -0.323 A  
HETATM   19  C   UNL     1     -12.031   9.131  71.849  1.00  0.00    -0.443 A  
HETATM   20  C   UNL     1     -14.153   7.342  71.635  1.00  0.00    -0.522 A  
HETATM   21  C   UNL     1     -14.402   8.707  71.597  1.00  0.00    -0.451 A  
HETATM   22  C   UNL     1     -13.343   9.602  71.717  1.00  0.00    -0.505 A  
HETATM   23  C   UNL     1     -12.841   6.870  71.743  1.00  0.00    -0.349 A  
ENDBRANCH   5  18
ENDBRANCH   3   5
ENDBRANCH   2   3
TORSDOF 7
ENDMDL
MODEL      119
REMARK 921   NORMALIZED FREE ENERGY PREDICTED BY IDOCK:   -3.96 KCAL/MOL
REMARK 922        TOTAL FREE ENERGY PREDICTED BY IDOCK:   -6.83 KCAL/MOL
REMARK 923 INTER-LIGAND FREE ENERGY PREDICTED BY IDOCK:   -6.25 KCAL/MOL
REMARK 924 INTRA-LIGAND FREE ENERGY PREDICTED BY IDOCK:   -0.57 KCAL/MOL
REMARK 927      BINDING AFFINITY PREDICTED BY RF-SCORE:    0.00 PKD
ROOT
HETATM    1  C   UNL     1     -11.809  10.995  70.540  1.00  0.00    -0.464 C  
HETATM    2  C   UNL     1     -11.212  10.364  69.287  1.00  0.00    -0.304 C  
ENDROOT
BRANCH   2   3
HETATM    3  C   UNL     1     -10.816  11.423  68.266  1.00  0.00    -0.209 C  
HETATM    4  O   UNL     1     -11.213  12.582  68.447  1.00  0.00    -0.234 OA 
BRANCH   3   5
HETATM    5  C   UNL     1      -9.827  11.046  67.081  1.00  0.00    -0.211 C  
BRANCH   5   6
HETATM    6  C   UNL     1     -10.602  11.485  65.775  1.00  0.00    -0.315 A  
HETATM    7  C   UNL     1     -10.848  11.666  63.344  1.00  0.00    -0.453 A  
HETATM    8  C   UNL     1     -11.797  12.226  65.895  1.00  0.00    -0.420 A  
HETATM    9  C   UNL     1     -10.149  11.212  64.469  1.00  0.00    -0.364 A  
HETATM   10  C   UNL     1     -12.491  12.686  64.770  1.00  0.00    -0.555 A  
HETATM   11  C   UNL     1     -12.015  12.405  63.494  1.00  0.00    -0.627 A  
ENDBRANCH   5   6
BRANCH   5  12
HETATM   12  C   UNL     1      -8.452  11.839  67.194  1.00  0.00    -0.170 C  
BRANCH  12  13
HETATM   13  C   UNL     1      -7.981  12.550  68.511  1.00  0.00    -0.097 C  
HETATM   14  C   UNL     1      -6.728  11.884  69.102  1.00  0.00    -0.105 C  
BRANCH  13  15
HETATM   15  N   UNL     1      -7.689  14.003  68.251  1.00  0.00    -0.130 NA 
HETATM   16  C   UNL     1      -6.285  14.271  67.918  1.00  0.00    -0.157 C  
HETATM   17  C   UNL     1      -8.521  14.566  67.174  1.00  0.00    -0.212 C  
ENDBRANCH  13  15
ENDBRANCH  12  13
ENDBRANCH   5  12
BRANCH   5  18
HETATM   18  C   UNL     1      -9.521   9.516  67.006  1.00  0.00    -0.197 A  
HETATM   19  C   UNL     1      -8.195   9.056  67.169  1.00  0.00    -0.110 A  
HETATM   20  C   UNL     1     -10.234   7.168  67.003  1.00  0.00    -0.339 A  
HETATM   21  C   UNL     1      -8.930   6.750  67.232  1.00  0.00    -0.117 A  
HETATM   22  C   UNL     1      -7.909   7.692  67.301  1.00  0.00    -0.117 A  
HETATM   23  C   UNL     1     -10.525   8.532  66.894  1.00  0.00    -0.345 A  
ENDBRANCH   5  18
ENDBRANCH   3   5
ENDBRANCH   2   3
TORSDOF 7
ENDMDL
MODEL      120
REMARK 921   NORMALIZED FREE ENERGY PREDICTED BY IDOCK:   -3.95 KCAL/MOL
REMARK 922        TOTAL FREE ENERGY PREDICTED BY IDOCK:   -6.82 KCAL/MOL
REMARK 923 INTER-LIGAND FREE ENERGY PREDICTED BY IDOCK:   -5.65 KCAL/MOL
REMARK 924 INTRA-LIGAND FREE ENERGY PREDICTED BY IDOCK:   -1.17 KCAL/MOL
REMARK 927      BINDING AFFINITY PREDICTED BY RF-SCORE:    0.00 PKD
ROOT
HETATM    1  C   UNL     1     -10.535   8.118  68.039  1.00  0.00    -0.242 C  
HETATM    2  C   UNL     1     -10.879   6.864  68.835  1.00  0.00    -0.247 C  
ENDROOT
BRANCH   2   3
HETATM    3  C   UNL     1      -9.856   6.605  69.932  1.00  0.00    -0.167 C  
HETATM    4  O   UNL     1      -8.728   6.217  69.598  1.00  0.00    -0.134 OA 
BRANCH   3   5
HETATM    5  C   UNL     1     -10.217   6.943  71.443  1.00  0.00    -0.212 C  
BRANCH   5   6
HETATM    6  C   UNL     1     -10.183   5.541  72.173  1.00  0.00    -0.247 A  
HETATM    7  C   UNL     1     -10.037   3.096  72.190  1.00  0.00    -0.200 A  
HETATM    8  C   UNL     1     -10.373   5.483  73.570  1.00  0.00    -0.252 A  
HETATM    9  C   UNL     1     -10.010   4.315  71.501  1.00  0.00    -0.243 A  
HETATM   10  C   UNL     1     -10.407   4.264  74.256  1.00  0.00    -0.287 A  
HETATM   11  C   UNL     1     -10.239   3.070  73.564  1.00  0.00    -0.203 A  
ENDBRANCH   5   6
BRANCH   5  12
HETATM   12  C   UNL     1      -9.145   7.924  72.093  1.00  0.00    -0.205 C  
BRANCH  12  13
HETATM   13  C   UNL     1      -7.599   7.661  72.035  1.00  0.00    -0.083 C  
HETATM   14  C   UNL     1      -6.875   8.707  71.173  1.00  0.00    -0.071 C  
BRANCH  13  15
HETATM   15  N   UNL     1      -7.010   7.670  73.419  1.00  0.00    -0.079 NA 
HETATM   16  C   UNL     1      -7.925   8.183  74.446  1.00  0.00    -0.253 C  
HETATM   17  C   UNL     1      -6.552   6.339  73.851  1.00  0.00    -0.071 C  
ENDBRANCH  13  15
ENDBRANCH  12  13
ENDBRANCH   5  12
BRANCH   5  18
HETATM   18  C   UNL     1     -11.638   7.572  71.604  1.00  0.00    -0.299 A  
HETATM   19  C   UNL     1     -11.773   8.968  71.772  1.00  0.00    -0.440 A  
HETATM   20  C   UNL     1     -14.084   7.448  71.456  1.00  0.00    -0.541 A  
HETATM   21  C   UNL     1     -14.181   8.830  71.554  1.00  0.00    -0.364 A  
HETATM   22  C   UNL     1     -13.027   9.589  71.726  1.00  0.00    -0.502 A  
HETATM   23  C   UNL     1     -12.830   6.829  71.478  1.00  0.00    -0.312 A  
ENDBRANCH   5  18
ENDBRANCH   3   5
ENDBRANCH   2   3
TORSDOF 7
ENDMDL
MODEL      121
REMARK 921   NORMALIZED FREE ENERGY PREDICTED BY IDOCK:   -3.95 KCAL/MOL
REMARK 922        TOTAL FREE ENERGY PREDICTED BY IDOCK:   -6.82 KCAL/MOL
REMARK 923 INTER-LIGAND FREE ENERGY PREDICTED BY IDOCK:   -5.96 KCAL/MOL
REMARK 924 INTRA-LIGAND FREE ENERGY PREDICTED BY IDOCK:   -0.85 KCAL/MOL
REMARK 927      BINDING AFFINITY PREDICTED BY RF-SCORE:    0.00 PKD
ROOT
HETATM    1  C   UNL     1      -6.410  11.400  67.679  1.00  0.00    -0.062 C  
HETATM    2  C   UNL     1      -7.815  11.329  68.267  1.00  0.00    -0.130 C  
ENDROOT
BRANCH   2   3
HETATM    3  C   UNL     1      -8.851  11.882  67.298  1.00  0.00    -0.179 C  
HETATM    4  O   UNL     1      -8.610  12.962  66.741  1.00  0.00    -0.168 OA 
BRANCH   3   5
HETATM    5  C   UNL     1     -10.139  11.020  66.943  1.00  0.00    -0.248 C  
BRANCH   5   6
HETATM    6  C   UNL     1     -11.127  12.057  66.274  1.00  0.00    -0.363 A  
HETATM    7  C   UNL     1     -12.477  14.101  66.285  1.00  0.00    -0.395 A  
HETATM    8  C   UNL     1     -11.647  11.788  64.989  1.00  0.00    -0.214 A  
HETATM    9  C   UNL     1     -11.562  13.240  66.903  1.00  0.00    -0.408 A  
HETATM   10  C   UNL     1     -12.567  12.645  64.376  1.00  0.00    -0.470 A  
HETATM   11  C   UNL     1     -12.981  13.803  65.025  1.00  0.00    -0.213 A  
ENDBRANCH   5   6
BRANCH   5  12
HETATM   12  C   UNL     1      -9.795   9.852  65.919  1.00  0.00    -0.342 C  
BRANCH  12  13
HETATM   13  C   UNL     1      -8.592   9.922  64.915  1.00  0.00    -0.169 C  
HETATM   14  C   UNL     1      -7.584   8.786  65.153  1.00  0.00    -0.096 C  
BRANCH  13  15
HETATM   15  N   UNL     1      -9.084   9.853  63.495  1.00  0.00    -0.252 NA 
HETATM   16  C   UNL     1      -8.830  11.075  62.723  1.00  0.00    -0.269 C  
HETATM   17  C   UNL     1      -8.507   8.723  62.748  1.00  0.00    -0.170 C  
ENDBRANCH  13  15
ENDBRANCH  12  13
ENDBRANCH   5  12
BRANCH   5  18
HETATM   18  C   UNL     1     -10.823  10.400  68.203  1.00  0.00    -0.311 A  
HETATM   19  C   UNL     1     -10.400   9.141  68.683  1.00  0.00    -0.233 A  
HETATM   20  C   UNL     1     -12.249  10.574  70.193  1.00  0.00    -0.358 A  
HETATM   21  C   UNL     1     -11.763   9.365  70.673  1.00  0.00    -0.302 A  
HETATM   22  C   UNL     1     -10.849   8.642  69.912  1.00  0.00    -0.210 A  
HETATM   23  C   UNL     1     -11.784  11.085  68.976  1.00  0.00    -0.402 A  
ENDBRANCH   5  18
ENDBRANCH   3   5
ENDBRANCH   2   3
TORSDOF 7
ENDMDL
MODEL      122
REMARK 921   NORMALIZED FREE ENERGY PREDICTED BY IDOCK:   -3.95 KCAL/MOL
REMARK 922        TOTAL FREE ENERGY PREDICTED BY IDOCK:   -6.81 KCAL/MOL
REMARK 923 INTER-LIGAND FREE ENERGY PREDICTED BY IDOCK:   -5.74 KCAL/MOL
REMARK 924 INTRA-LIGAND FREE ENERGY PREDICTED BY IDOCK:   -1.07 KCAL/MOL
REMARK 927      BINDING AFFINITY PREDICTED BY RF-SCORE:    0.00 PKD
ROOT
HETATM    1  C   UNL     1      -9.685   4.481  68.237  1.00  0.00    -0.186 C  
HETATM    2  C   UNL     1      -9.885   4.895  69.691  1.00  0.00    -0.288 C  
ENDROOT
BRANCH   2   3
HETATM    3  C   UNL     1     -10.625   6.222  69.793  1.00  0.00    -0.264 C  
HETATM    4  O   UNL     1     -11.580   6.417  69.028  1.00  0.00    -0.276 OA 
BRANCH   3   5
HETATM    5  C   UNL     1     -10.237   7.257  70.936  1.00  0.00    -0.203 C  
BRANCH   5   6
HETATM    6  C   UNL     1     -10.185   6.381  72.251  1.00  0.00    -0.205 A  
HETATM    7  C   UNL     1      -9.159   5.676  74.360  1.00  0.00    -0.123 A  
HETATM    8  C   UNL     1     -11.159   5.380  72.455  1.00  0.00    -0.310 A  
HETATM    9  C   UNL     1      -9.187   6.511  73.237  1.00  0.00    -0.140 A  
HETATM   10  C   UNL     1     -11.126   4.542  73.575  1.00  0.00    -0.398 A  
HETATM   11  C   UNL     1     -10.124   4.691  74.528  1.00  0.00    -0.266 A  
ENDBRANCH   5   6
BRANCH   5  12
HETATM   12  C   UNL     1      -8.815   7.920  70.663  1.00  0.00    -0.140 C  
BRANCH  12  13
HETATM   13  C   UNL     1      -8.033   7.742  69.315  1.00  0.00    -0.125 C  
HETATM   14  C   UNL     1      -8.058   9.024  68.468  1.00  0.00    -0.107 C  
BRANCH  13  15
HETATM   15  N   UNL     1      -6.604   7.355  69.581  1.00  0.00    -0.039 NA 
HETATM   16  C   UNL     1      -6.415   6.626  70.841  1.00  0.00    -0.052 C  
HETATM   17  C   UNL     1      -6.025   6.540  68.500  1.00  0.00    -0.021 C  
ENDBRANCH  13  15
ENDBRANCH  12  13
ENDBRANCH   5  12
BRANCH   5  18
HETATM   18  C   UNL     1     -11.295   8.391  71.116  1.00  0.00    -0.310 A  
HETATM   19  C   UNL     1     -12.405   8.187  71.965  1.00  0.00    -0.380 A  
HETATM   20  C   UNL     1     -12.025  10.722  70.878  1.00  0.00    -0.438 A  
HETATM   21  C   UNL     1     -13.068  10.508  71.770  1.00  0.00    -0.570 A  
HETATM   22  C   UNL     1     -13.266   9.238  72.303  1.00  0.00    -0.535 A  
HETATM   23  C   UNL     1     -11.150   9.678  70.558  1.00  0.00    -0.369 A  
ENDBRANCH   5  18
ENDBRANCH   3   5
ENDBRANCH   2   3
TORSDOF 7
ENDMDL
MODEL      123
REMARK 921   NORMALIZED FREE ENERGY PREDICTED BY IDOCK:   -3.92 KCAL/MOL
REMARK 922        TOTAL FREE ENERGY PREDICTED BY IDOCK:   -6.78 KCAL/MOL
REMARK 923 INTER-LIGAND FREE ENERGY PREDICTED BY IDOCK:   -5.77 KCAL/MOL
REMARK 924 INTRA-LIGAND FREE ENERGY PREDICTED BY IDOCK:   -1.01 KCAL/MOL
REMARK 927      BINDING AFFINITY PREDICTED BY RF-SCORE:    0.00 PKD
ROOT
HETATM    1  C   UNL     1      -6.929  11.223  69.134  1.00  0.00    -0.114 C  
HETATM    2  C   UNL     1      -8.335  10.720  69.442  1.00  0.00    -0.018 C  
ENDROOT
BRANCH   2   3
HETATM    3  C   UNL     1      -8.587   9.357  68.812  1.00  0.00    -0.127 C  
HETATM    4  O   UNL     1      -7.638   8.564  68.738  1.00  0.00    -0.093 OA 
BRANCH   3   5
HETATM    5  C   UNL     1     -10.061   8.948  68.380  1.00  0.00    -0.215 C  
BRANCH   5   6
HETATM    6  C   UNL     1     -10.958   9.371  69.611  1.00  0.00    -0.216 A  
HETATM    7  C   UNL     1     -11.856   9.045  71.867  1.00  0.00    -0.447 A  
HETATM    8  C   UNL     1     -11.794  10.502  69.502  1.00  0.00    -0.287 A  
HETATM    9  C   UNL     1     -11.007   8.656  70.824  1.00  0.00    -0.286 A  
HETATM   10  C   UNL     1     -12.648  10.887  70.543  1.00  0.00    -0.409 A  
HETATM   11  C   UNL     1     -12.677  10.157  71.726  1.00  0.00    -0.534 A  
ENDBRANCH   5   6
BRANCH   5  12
HETATM   12  C   UNL     1     -10.524   9.729  67.072  1.00  0.00    -0.295 C  
BRANCH  12  13
HETATM   13  C   UNL     1      -9.532  10.537  66.164  1.00  0.00    -0.180 C  
HETATM   14  C   UNL     1      -8.863   9.639  65.111  1.00  0.00    -0.215 C  
BRANCH  13  15
HETATM   15  N   UNL     1     -10.250  11.661  65.467  1.00  0.00    -0.249 NA 
HETATM   16  C   UNL     1     -10.651  11.341  64.092  1.00  0.00    -0.373 C  
HETATM   17  C   UNL     1     -11.452  12.103  66.193  1.00  0.00    -0.371 C  
ENDBRANCH  13  15
ENDBRANCH  12  13
ENDBRANCH   5  12
BRANCH   5  18
HETATM   18  C   UNL     1     -10.220   7.414  68.132  1.00  0.00    -0.223 A  
HETATM   19  C   UNL     1     -10.824   6.954  66.941  1.00  0.00    -0.380 A  
HETATM   20  C   UNL     1      -9.693   5.075  68.657  1.00  0.00    -0.221 A  
HETATM   21  C   UNL     1     -10.233   4.660  67.447  1.00  0.00    -0.095 A  
HETATM   22  C   UNL     1     -10.810   5.597  66.595  1.00  0.00    -0.280 A  
HETATM   23  C   UNL     1      -9.685   6.433  68.993  1.00  0.00    -0.145 A  
ENDBRANCH   5  18
ENDBRANCH   3   5
ENDBRANCH   2   3
TORSDOF 7
ENDMDL
MODEL      124
REMARK 921   NORMALIZED FREE ENERGY PREDICTED BY IDOCK:   -3.91 KCAL/MOL
REMARK 922        TOTAL FREE ENERGY PREDICTED BY IDOCK:   -6.76 KCAL/MOL
REMARK 923 INTER-LIGAND FREE ENERGY PREDICTED BY IDOCK:   -5.45 KCAL/MOL
REMARK 924 INTRA-LIGAND FREE ENERGY PREDICTED BY IDOCK:   -1.31 KCAL/MOL
REMARK 927      BINDING AFFINITY PREDICTED BY RF-SCORE:    0.00 PKD
ROOT
HETATM    1  C   UNL     1      -7.713   9.956  68.284  1.00  0.00    -0.085 C  
HETATM    2  C   UNL     1      -9.104   9.728  68.865  1.00  0.00    -0.148 C  
ENDROOT
BRANCH   2   3
HETATM    3  C   UNL     1      -9.031   9.114  70.257  1.00  0.00    -0.217 C  
HETATM    4  O   UNL     1      -8.280   9.643  71.088  1.00  0.00    -0.239 OA 
BRANCH   3   5
HETATM    5  C   UNL     1      -9.989   7.904  70.637  1.00  0.00    -0.188 C  
BRANCH   5   6
HETATM    6  C   UNL     1     -10.115   7.073  69.299  1.00  0.00    -0.178 A  
HETATM    7  C   UNL     1     -11.219   6.489  67.191  1.00  0.00    -0.313 A  
HETATM    8  C   UNL     1      -9.202   6.027  69.045  1.00  0.00    -0.125 A  
HETATM    9  C   UNL     1     -11.123   7.287  68.338  1.00  0.00     0.068 A  
HETATM   10  C   UNL     1      -9.303   5.226  67.902  1.00  0.00    -0.131 A  
HETATM   11  C   UNL     1     -10.313   5.459  66.975  1.00  0.00    -0.299 A  
ENDBRANCH   5   6
BRANCH   5  12
HETATM   12  C   UNL     1      -9.359   7.000  71.786  1.00  0.00    -0.150 C  
BRANCH  12  13
HETATM   13  C   UNL     1      -9.191   7.493  73.266  1.00  0.00    -0.205 C  
HETATM   14  C   UNL     1     -10.268   6.901  74.190  1.00  0.00    -0.331 C  
BRANCH  13  15
HETATM   15  N   UNL     1      -7.832   7.123  73.795  1.00  0.00    -0.103 NA 
HETATM   16  C   UNL     1      -7.120   6.148  72.959  1.00  0.00    -0.080 C  
HETATM   17  C   UNL     1      -6.953   8.292  73.969  1.00  0.00    -0.145 C  
ENDBRANCH  13  15
ENDBRANCH  12  13
ENDBRANCH   5  12
BRANCH   5  18
HETATM   18  C   UNL     1     -11.411   8.371  71.087  1.00  0.00    -0.310 A  
HETATM   19  C   UNL     1     -12.440   7.420  71.259  1.00  0.00    -0.381 A  
HETATM   20  C   UNL     1     -12.940  10.054  72.009  1.00  0.00    -0.514 A  
HETATM   21  C   UNL     1     -13.908   9.084  72.230  1.00  0.00    -0.547 A  
HETATM   22  C   UNL     1     -13.664   7.769  71.843  1.00  0.00    -0.352 A  
HETATM   23  C   UNL     1     -11.708   9.702  71.447  1.00  0.00    -0.478 A  
ENDBRANCH   5  18
ENDBRANCH   3   5
ENDBRANCH   2   3
TORSDOF 7
ENDMDL
MODEL      125
REMARK 921   NORMALIZED FREE ENERGY PREDICTED BY IDOCK:   -3.90 KCAL/MOL
REMARK 922        TOTAL FREE ENERGY PREDICTED BY IDOCK:   -6.75 KCAL/MOL
REMARK 923 INTER-LIGAND FREE ENERGY PREDICTED BY IDOCK:   -6.05 KCAL/MOL
REMARK 924 INTRA-LIGAND FREE ENERGY PREDICTED BY IDOCK:   -0.70 KCAL/MOL
REMARK 927      BINDING AFFINITY PREDICTED BY RF-SCORE:    0.00 PKD
ROOT
HETATM    1  C   UNL     1      -7.131  13.629  67.346  1.00  0.00    -0.097 C  
HETATM    2  C   UNL     1      -7.565  12.197  67.636  1.00  0.00    -0.140 C  
ENDROOT
BRANCH   2   3
HETATM    3  C   UNL     1      -8.998  12.145  68.150  1.00  0.00    -0.195 C  
HETATM    4  O   UNL     1      -9.413  13.103  68.816  1.00  0.00    -0.058 OA 
BRANCH   3   5
HETATM    5  C   UNL     1      -9.944  10.938  67.730  1.00  0.00    -0.198 C  
BRANCH   5   6
HETATM    6  C   UNL     1     -10.780  10.628  69.035  1.00  0.00    -0.257 A  
HETATM    7  C   UNL     1     -12.684  10.975  70.537  1.00  0.00    -0.331 A  
HETATM    8  C   UNL     1     -10.273   9.711  69.981  1.00  0.00    -0.296 A  
HETATM    9  C   UNL     1     -12.007  11.248  69.342  1.00  0.00    -0.410 A  
HETATM   10  C   UNL     1     -10.947   9.443  71.178  1.00  0.00    -0.430 A  
HETATM   11  C   UNL     1     -12.154  10.076  71.454  1.00  0.00    -0.498 A  
ENDBRANCH   5   6
BRANCH   5  12
HETATM   12  C   UNL     1     -10.918  11.348  66.540  1.00  0.00    -0.328 C  
BRANCH  12  13
HETATM   13  C   UNL     1     -10.673  12.600  65.627  1.00  0.00    -0.269 C  
HETATM   14  C   UNL     1     -10.451  12.201  64.160  1.00  0.00    -0.395 C  
BRANCH  13  15
HETATM   15  N   UNL     1     -11.838  13.549  65.707  1.00  0.00    -0.354 NA 
HETATM   16  C   UNL     1     -11.737  14.515  66.808  1.00  0.00    -0.377 C  
HETATM   17  C   UNL     1     -12.039  14.308  64.462  1.00  0.00    -0.480 C  
ENDBRANCH  13  15
ENDBRANCH  12  13
ENDBRANCH   5  12
BRANCH   5  18
HETATM   18  C   UNL     1      -9.151   9.659  67.313  1.00  0.00    -0.150 A  
HETATM   19  C   UNL     1      -8.065   9.218  68.101  1.00  0.00    -0.107 A  
HETATM   20  C   UNL     1      -8.903   7.606  65.992  1.00  0.00    -0.186 A  
HETATM   21  C   UNL     1      -7.884   7.167  66.826  1.00  0.00    -0.103 A  
HETATM   22  C   UNL     1      -7.456   7.978  67.873  1.00  0.00    -0.094 A  
HETATM   23  C   UNL     1      -9.529   8.833  66.234  1.00  0.00    -0.300 A  
ENDBRANCH   5  18
ENDBRANCH   3   5
ENDBRANCH   2   3
TORSDOF 7
ENDMDL
MODEL      126
REMARK 921   NORMALIZED FREE ENERGY PREDICTED BY IDOCK:   -3.89 KCAL/MOL
REMARK 922        TOTAL FREE ENERGY PREDICTED BY IDOCK:   -6.74 KCAL/MOL
REMARK 923 INTER-LIGAND FREE ENERGY PREDICTED BY IDOCK:   -5.83 KCAL/MOL
REMARK 924 INTRA-LIGAND FREE ENERGY PREDICTED BY IDOCK:   -0.91 KCAL/MOL
REMARK 927      BINDING AFFINITY PREDICTED BY RF-SCORE:    0.00 PKD
ROOT
HETATM    1  C   UNL     1      -7.579   6.369  72.604  1.00  0.00    -0.103 C  
HETATM    2  C   UNL     1      -8.987   6.565  72.054  1.00  0.00    -0.140 C  
ENDROOT
BRANCH   2   3
HETATM    3  C   UNL     1      -9.306   8.041  71.859  1.00  0.00    -0.167 C  
HETATM    4  O   UNL     1      -8.755   8.860  72.608  1.00  0.00    -0.373 OA 
BRANCH   3   5
HETATM    5  C   UNL     1     -10.230   8.496  70.648  1.00  0.00    -0.230 C  
BRANCH   5   6
HETATM    6  C   UNL     1     -11.702   8.293  71.186  1.00  0.00    -0.308 A  
HETATM    7  C   UNL     1     -13.672   6.923  71.681  1.00  0.00    -0.273 A  
HETATM    8  C   UNL     1     -12.448   9.416  71.604  1.00  0.00    -0.460 A  
HETATM    9  C   UNL     1     -12.348   7.042  71.241  1.00  0.00    -0.426 A  
HETATM   10  C   UNL     1     -13.774   9.297  72.037  1.00  0.00    -0.493 A  
HETATM   11  C   UNL     1     -14.385   8.049  72.075  1.00  0.00    -0.511 A  
ENDBRANCH   5   6
BRANCH   5  12
HETATM   12  C   UNL     1      -9.990  10.025  70.273  1.00  0.00    -0.184 C  
BRANCH  12  13
HETATM   13  C   UNL     1     -10.246  10.603  68.838  1.00  0.00    -0.201 C  
HETATM   14  C   UNL     1     -11.630  11.263  68.727  1.00  0.00    -0.383 C  
BRANCH  13  15
HETATM   15  N   UNL     1      -9.190  11.613  68.479  1.00  0.00    -0.187 NA 
HETATM   16  C   UNL     1      -7.841  11.043  68.375  1.00  0.00    -0.127 C  
HETATM   17  C   UNL     1      -9.480  12.313  67.216  1.00  0.00    -0.186 C  
ENDBRANCH  13  15
ENDBRANCH  12  13
ENDBRANCH   5  12
BRANCH   5  18
HETATM   18  C   UNL     1     -10.027   7.626  69.367  1.00  0.00    -0.180 A  
HETATM   19  C   UNL     1     -11.151   7.139  68.664  1.00  0.00    -0.005 A  
HETATM   20  C   UNL     1      -8.629   6.748  67.551  1.00  0.00    -0.120 A  
HETATM   21  C   UNL     1      -9.757   6.341  66.851  1.00  0.00    -0.184 A  
HETATM   22  C   UNL     1     -11.017   6.524  67.413  1.00  0.00    -0.458 A  
HETATM   23  C   UNL     1      -8.763   7.384  68.790  1.00  0.00    -0.128 A  
ENDBRANCH   5  18
ENDBRANCH   3   5
ENDBRANCH   2   3
TORSDOF 7
ENDMDL
MODEL      127
REMARK 921   NORMALIZED FREE ENERGY PREDICTED BY IDOCK:   -3.88 KCAL/MOL
REMARK 922        TOTAL FREE ENERGY PREDICTED BY IDOCK:   -6.72 KCAL/MOL
REMARK 923 INTER-LIGAND FREE ENERGY PREDICTED BY IDOCK:   -5.68 KCAL/MOL
REMARK 924 INTRA-LIGAND FREE ENERGY PREDICTED BY IDOCK:   -1.04 KCAL/MOL
REMARK 927      BINDING AFFINITY PREDICTED BY RF-SCORE:    0.00 PKD
ROOT
HETATM    1  C   UNL     1     -13.810   7.424  71.474  1.00  0.00    -0.483 C  
HETATM    2  C   UNL     1     -12.337   7.069  71.642  1.00  0.00    -0.407 C  
ENDROOT
BRANCH   2   3
HETATM    3  C   UNL     1     -11.447   8.291  71.460  1.00  0.00    -0.275 C  
HETATM    4  O   UNL     1     -11.718   9.311  72.109  1.00  0.00    -0.319 OA 
BRANCH   3   5
HETATM    5  C   UNL     1     -10.149   8.194  70.548  1.00  0.00    -0.201 C  
BRANCH   5   6
HETATM    6  C   UNL     1     -10.063   9.607  69.843  1.00  0.00    -0.279 A  
HETATM    7  C   UNL     1     -11.058  11.652  68.933  1.00  0.00    -0.287 A  
HETATM    8  C   UNL     1      -8.814  10.076  69.383  1.00  0.00    -0.200 A  
HETATM    9  C   UNL     1     -11.181  10.430  69.606  1.00  0.00    -0.333 A  
HETATM   10  C   UNL     1      -8.693  11.294  68.705  1.00  0.00    -0.136 A  
HETATM   11  C   UNL     1      -9.816  12.082  68.481  1.00  0.00    -0.177 A  
ENDBRANCH   5   6
BRANCH   5  12
HETATM   12  C   UNL     1      -8.842   7.936  71.419  1.00  0.00    -0.158 C  
BRANCH  12  13
HETATM   13  C   UNL     1      -8.730   8.338  72.931  1.00  0.00    -0.221 C  
HETATM   14  C   UNL     1      -9.061   7.159  73.860  1.00  0.00    -0.252 C  
BRANCH  13  15
HETATM   15  N   UNL     1      -7.345   8.836  73.244  1.00  0.00    -0.361 NA 
HETATM   16  C   UNL     1      -6.793   8.298  74.493  1.00  0.00    -0.160 C  
HETATM   17  C   UNL     1      -6.381   8.550  72.168  1.00  0.00    -0.072 C  
ENDBRANCH  13  15
ENDBRANCH  12  13
ENDBRANCH   5  12
BRANCH   5  18
HETATM   18  C   UNL     1     -10.254   7.082  69.456  1.00  0.00    -0.208 A  
HETATM   19  C   UNL     1     -10.947   7.342  68.253  1.00  0.00    -0.041 A  
HETATM   20  C   UNL     1      -9.561   4.938  68.483  1.00  0.00    -0.210 A  
HETATM   21  C   UNL     1     -10.195   5.252  67.288  1.00  0.00    -0.252 A  
HETATM   22  C   UNL     1     -10.899   6.447  67.177  1.00  0.00    -0.467 A  
HETATM   23  C   UNL     1      -9.588   5.842  69.551  1.00  0.00    -0.181 A  
ENDBRANCH   5  18
ENDBRANCH   3   5
ENDBRANCH   2   3
TORSDOF 7
ENDMDL
MODEL      128
REMARK 921   NORMALIZED FREE ENERGY PREDICTED BY IDOCK:   -3.88 KCAL/MOL
REMARK 922        TOTAL FREE ENERGY PREDICTED BY IDOCK:   -6.71 KCAL/MOL
REMARK 923 INTER-LIGAND FREE ENERGY PREDICTED BY IDOCK:   -6.34 KCAL/MOL
REMARK 924 INTRA-LIGAND FREE ENERGY PREDICTED BY IDOCK:   -0.37 KCAL/MOL
REMARK 927      BINDING AFFINITY PREDICTED BY RF-SCORE:    0.00 PKD
ROOT
HETATM    1  C   UNL     1     -12.231  15.590  70.223  1.00  0.00    -0.432 C  
HETATM    2  C   UNL     1     -10.959  15.469  69.391  1.00  0.00    -0.276 C  
ENDROOT
BRANCH   2   3
HETATM    3  C   UNL     1     -11.188  14.623  68.146  1.00  0.00    -0.289 C  
HETATM    4  O   UNL     1     -12.159  14.897  67.427  1.00  0.00    -0.246 OA 
BRANCH   3   5
HETATM    5  C   UNL     1     -10.130  13.507  67.745  1.00  0.00    -0.236 C  
BRANCH   5   6
HETATM    6  C   UNL     1     -10.501  12.274  68.661  1.00  0.00    -0.228 A  
HETATM    7  C   UNL     1     -10.033  10.093  69.674  1.00  0.00    -0.262 A  
HETATM    8  C   UNL     1     -11.776  12.217  69.262  1.00  0.00    -0.386 A  
HETATM    9  C   UNL     1      -9.637  11.185  68.893  1.00  0.00    -0.154 A  
HETATM   10  C   UNL     1     -12.174  11.121  70.037  1.00  0.00    -0.402 A  
HETATM   11  C   UNL     1     -11.300  10.059  70.243  1.00  0.00    -0.376 A  
ENDBRANCH   5   6
BRANCH   5  12
HETATM   12  C   UNL     1     -10.258  13.107  66.210  1.00  0.00    -0.294 C  
BRANCH  12  13
HETATM   13  C   UNL     1     -11.299  12.057  65.685  1.00  0.00    -0.329 C  
HETATM   14  C   UNL     1     -12.478  12.733  64.966  1.00  0.00    -0.572 C  
BRANCH  13  15
HETATM   15  N   UNL     1     -10.640  11.086  64.742  1.00  0.00    -0.308 NA 
HETATM   16  C   UNL     1     -10.517  11.590  63.369  1.00  0.00    -0.406 C  
HETATM   17  C   UNL     1      -9.299  10.678  65.193  1.00  0.00    -0.212 C  
ENDBRANCH  13  15
ENDBRANCH  12  13
ENDBRANCH   5  12
BRANCH   5  18
HETATM   18  C   UNL     1      -8.655  13.935  68.032  1.00  0.00    -0.178 A  
HETATM   19  C   UNL     1      -8.379  14.846  69.075  1.00  0.00    -0.175 A  
HETATM   20  C   UNL     1      -6.232  13.645  67.770  1.00  0.00    -0.159 A  
HETATM   21  C   UNL     1      -5.994  14.492  68.844  1.00  0.00    -0.086 A  
HETATM   22  C   UNL     1      -7.066  15.104  69.488  1.00  0.00    -0.195 A  
HETATM   23  C   UNL     1      -7.544  13.368  67.372  1.00  0.00    -0.138 A  
ENDBRANCH   5  18
ENDBRANCH   3   5
ENDBRANCH   2   3
TORSDOF 7
ENDMDL
MODEL      129
REMARK 921   NORMALIZED FREE ENERGY PREDICTED BY IDOCK:   -3.86 KCAL/MOL
REMARK 922        TOTAL FREE ENERGY PREDICTED BY IDOCK:   -6.69 KCAL/MOL
REMARK 923 INTER-LIGAND FREE ENERGY PREDICTED BY IDOCK:   -6.26 KCAL/MOL
REMARK 924 INTRA-LIGAND FREE ENERGY PREDICTED BY IDOCK:   -0.42 KCAL/MOL
REMARK 927      BINDING AFFINITY PREDICTED BY RF-SCORE:    0.00 PKD
ROOT
HETATM    1  C   UNL     1      -9.956   6.232  66.947  1.00  0.00    -0.215 C  
HETATM    2  C   UNL     1      -9.514   6.300  68.405  1.00  0.00    -0.118 C  
ENDROOT
BRANCH   2   3
HETATM    3  C   UNL     1     -10.608   6.882  69.290  1.00  0.00    -0.226 C  
HETATM    4  O   UNL     1     -11.622   6.198  69.489  1.00  0.00    -0.396 OA 
BRANCH   3   5
HETATM    5  C   UNL     1     -10.377   8.276  70.017  1.00  0.00    -0.212 C  
BRANCH   5   6
HETATM    6  C   UNL     1     -11.711   8.514  70.832  1.00  0.00    -0.274 A  
HETATM    7  C   UNL     1     -13.819   7.764  71.828  1.00  0.00    -0.440 A  
HETATM    8  C   UNL     1     -12.045   9.821  71.247  1.00  0.00    -0.470 A  
HETATM    9  C   UNL     1     -12.627   7.492  71.146  1.00  0.00    -0.293 A  
HETATM   10  C   UNL     1     -13.240  10.094  71.922  1.00  0.00    -0.557 A  
HETATM   11  C   UNL     1     -14.127   9.063  72.213  1.00  0.00    -0.485 A  
ENDBRANCH   5   6
BRANCH   5  12
HETATM   12  C   UNL     1      -9.133   8.218  71.009  1.00  0.00    -0.189 C  
BRANCH  12  13
HETATM   13  C   UNL     1      -8.966   7.109  72.106  1.00  0.00    -0.129 C  
HETATM   14  C   UNL     1      -7.509   6.635  72.220  1.00  0.00    -0.094 C  
BRANCH  13  15
HETATM   15  N   UNL     1      -9.424   7.619  73.446  1.00  0.00    -0.250 NA 
HETATM   16  C   UNL     1     -10.234   6.654  74.199  1.00  0.00    -0.363 C  
HETATM   17  C   UNL     1      -8.304   8.034  74.308  1.00  0.00    -0.227 C  
ENDBRANCH  13  15
ENDBRANCH  12  13
ENDBRANCH   5  12
BRANCH   5  18
HETATM   18  C   UNL     1     -10.169   9.458  69.017  1.00  0.00    -0.216 A  
HETATM   19  C   UNL     1      -9.122  10.382  69.230  1.00  0.00    -0.188 A  
HETATM   20  C   UNL     1     -10.583  10.567  66.868  1.00  0.00    -0.303 A  
HETATM   21  C   UNL     1      -9.505  11.417  67.075  1.00  0.00    -0.186 A  
HETATM   22  C   UNL     1      -8.782  11.334  68.261  1.00  0.00    -0.158 A  
HETATM   23  C   UNL     1     -10.909   9.600  67.825  1.00  0.00    -0.278 A  
ENDBRANCH   5  18
ENDBRANCH   3   5
ENDBRANCH   2   3
TORSDOF 7
ENDMDL
MODEL      130
REMARK 921   NORMALIZED FREE ENERGY PREDICTED BY IDOCK:   -3.85 KCAL/MOL
REMARK 922        TOTAL FREE ENERGY PREDICTED BY IDOCK:   -6.68 KCAL/MOL
REMARK 923 INTER-LIGAND FREE ENERGY PREDICTED BY IDOCK:   -6.06 KCAL/MOL
REMARK 924 INTRA-LIGAND FREE ENERGY PREDICTED BY IDOCK:   -0.61 KCAL/MOL
REMARK 927      BINDING AFFINITY PREDICTED BY RF-SCORE:    0.00 PKD
ROOT
HETATM    1  C   UNL     1     -11.812  11.114  68.487  1.00  0.00    -0.330 C  
HETATM    2  C   UNL     1     -10.487  11.834  68.708  1.00  0.00    -0.221 C  
ENDROOT
BRANCH   2   3
HETATM    3  C   UNL     1     -10.600  13.317  68.382  1.00  0.00    -0.252 C  
HETATM    4  O   UNL     1     -11.341  14.015  69.089  1.00  0.00    -0.254 OA 
BRANCH   3   5
HETATM    5  C   UNL     1      -9.692  13.945  67.238  1.00  0.00    -0.245 C  
BRANCH   5   6
HETATM    6  C   UNL     1      -8.218  13.553  67.653  1.00  0.00    -0.178 A  
HETATM    7  C   UNL     1      -6.169  12.231  67.424  1.00  0.00    -0.153 A  
HETATM    8  C   UNL     1      -7.626  14.173  68.775  1.00  0.00    -0.125 A  
HETATM    9  C   UNL     1      -7.453  12.577  66.986  1.00  0.00    -0.009 A  
HETATM   10  C   UNL     1      -6.346  13.822  69.216  1.00  0.00    -0.110 A  
HETATM   11  C   UNL     1      -5.617  12.850  68.539  1.00  0.00    -0.067 A  
ENDBRANCH   5   6
BRANCH   5  12
HETATM   12  C   UNL     1     -10.042  13.330  65.812  1.00  0.00    -0.293 C  
BRANCH  12  13
HETATM   13  C   UNL     1     -11.506  12.990  65.364  1.00  0.00    -0.312 C  
HETATM   14  C   UNL     1     -12.472  14.154  65.641  1.00  0.00    -0.490 C  
BRANCH  13  15
HETATM   15  N   UNL     1     -11.545  12.658  63.897  1.00  0.00    -0.411 NA 
HETATM   16  C   UNL     1     -10.354  11.942  63.423  1.00  0.00    -0.444 C  
HETATM   17  C   UNL     1     -12.725  11.859  63.527  1.00  0.00    -0.405 C  
ENDBRANCH  13  15
ENDBRANCH  12  13
ENDBRANCH   5  12
BRANCH   5  18
HETATM   18  C   UNL     1      -9.805  15.501  67.156  1.00  0.00    -0.236 A  
HETATM   19  C   UNL     1     -10.576  16.200  68.111  1.00  0.00    -0.290 A  
HETATM   20  C   UNL     1      -9.068  17.678  66.297  1.00  0.00    -0.212 A  
HETATM   21  C   UNL     1      -9.781  18.336  67.290  1.00  0.00    -0.301 A  
HETATM   22  C   UNL     1     -10.546  17.598  68.189  1.00  0.00    -0.359 A  
HETATM   23  C   UNL     1      -9.078  16.281  66.233  1.00  0.00    -0.366 A  
ENDBRANCH   5  18
ENDBRANCH   3   5
ENDBRANCH   2   3
TORSDOF 7
ENDMDL
MODEL      131
REMARK 921   NORMALIZED FREE ENERGY PREDICTED BY IDOCK:   -3.84 KCAL/MOL
REMARK 922        TOTAL FREE ENERGY PREDICTED BY IDOCK:   -6.67 KCAL/MOL
REMARK 923 INTER-LIGAND FREE ENERGY PREDICTED BY IDOCK:   -5.32 KCAL/MOL
REMARK 924 INTRA-LIGAND FREE ENERGY PREDICTED BY IDOCK:   -1.35 KCAL/MOL
REMARK 927      BINDING AFFINITY PREDICTED BY RF-SCORE:    0.00 PKD
ROOT
HETATM    1  C   UNL     1      -7.050  10.112  69.023  1.00  0.00    -0.072 C  
HETATM    2  C   UNL     1      -7.757   9.427  70.188  1.00  0.00    -0.140 C  
ENDROOT
BRANCH   2   3
HETATM    3  C   UNL     1      -8.347   8.087  69.768  1.00  0.00    -0.122 C  
HETATM    4  O   UNL     1      -7.635   7.079  69.874  1.00  0.00    -0.097 OA 
BRANCH   3   5
HETATM    5  C   UNL     1      -9.871   8.000  69.324  1.00  0.00    -0.178 C  
BRANCH   5   6
HETATM    6  C   UNL     1      -9.840   7.134  68.002  1.00  0.00    -0.158 A  
HETATM    7  C   UNL     1     -10.757   5.449  66.478  1.00  0.00    -0.309 A  
HETATM    8  C   UNL     1      -8.726   7.226  67.140  1.00  0.00    -0.121 A  
HETATM    9  C   UNL     1     -10.856   6.229  67.637  1.00  0.00    -0.433 A  
HETATM   10  C   UNL     1      -8.625   6.441  65.986  1.00  0.00    -0.149 A  
HETATM   11  C   UNL     1      -9.642   5.552  65.656  1.00  0.00     0.028 A  
ENDBRANCH   5   6
BRANCH   5  12
HETATM   12  C   UNL     1     -10.760   7.279  70.430  1.00  0.00    -0.253 C  
BRANCH  12  13
HETATM   13  C   UNL     1     -10.276   7.057  71.905  1.00  0.00    -0.187 C  
HETATM   14  C   UNL     1     -11.194   7.760  72.918  1.00  0.00    -0.434 C  
BRANCH  13  15
HETATM   15  N   UNL     1     -10.221   5.588  72.228  1.00  0.00    -0.193 NA 
HETATM   16  C   UNL     1     -11.355   5.120  73.034  1.00  0.00    -0.309 C  
HETATM   17  C   UNL     1     -10.148   4.745  71.024  1.00  0.00    -0.199 C  
ENDBRANCH  13  15
ENDBRANCH  12  13
ENDBRANCH   5  12
BRANCH   5  18
HETATM   18  C   UNL     1     -10.495   9.397  69.009  1.00  0.00    -0.233 A  
HETATM   19  C   UNL     1     -10.470   9.894  67.687  1.00  0.00    -0.296 A  
HETATM   20  C   UNL     1     -11.890  11.324  69.607  1.00  0.00    -0.430 A  
HETATM   21  C   UNL     1     -11.905  11.751  68.286  1.00  0.00    -0.340 A  
HETATM   22  C   UNL     1     -11.184  11.044  67.328  1.00  0.00    -0.330 A  
HETATM   23  C   UNL     1     -11.197  10.162  69.963  1.00  0.00    -0.361 A  
ENDBRANCH   5  18
ENDBRANCH   3   5
ENDBRANCH   2   3
TORSDOF 7
ENDMDL
MODEL      132
REMARK 921   NORMALIZED FREE ENERGY PREDICTED BY IDOCK:   -3.83 KCAL/MOL
REMARK 922        TOTAL FREE ENERGY PREDICTED BY IDOCK:   -6.64 KCAL/MOL
REMARK 923 INTER-LIGAND FREE ENERGY PREDICTED BY IDOCK:   -5.66 KCAL/MOL
REMARK 924 INTRA-LIGAND FREE ENERGY PREDICTED BY IDOCK:   -0.98 KCAL/MOL
REMARK 927      BINDING AFFINITY PREDICTED BY RF-SCORE:    0.00 PKD
ROOT
HETATM    1  C   UNL     1     -13.025  10.539  71.240  1.00  0.00    -0.532 C  
HETATM    2  C   UNL     1     -11.824  10.893  70.370  1.00  0.00    -0.449 C  
ENDROOT
BRANCH   2   3
HETATM    3  C   UNL     1     -10.677   9.914  70.581  1.00  0.00    -0.303 C  
HETATM    4  O   UNL     1     -10.588   9.349  71.680  1.00  0.00    -0.340 OA 
BRANCH   3   5
HETATM    5  C   UNL     1      -9.710   9.558  69.370  1.00  0.00    -0.190 C  
BRANCH   5   6
HETATM    6  C   UNL     1      -9.947  10.724  68.329  1.00  0.00    -0.182 A  
HETATM    7  C   UNL     1     -11.190  11.809  66.518  1.00  0.00    -0.380 A  
HETATM    8  C   UNL     1      -8.995  11.760  68.221  1.00  0.00    -0.180 A  
HETATM    9  C   UNL     1     -11.052  10.779  67.456  1.00  0.00    -0.374 A  
HETATM   10  C   UNL     1      -9.130  12.785  67.278  1.00  0.00    -0.200 A  
HETATM   11  C   UNL     1     -10.229  12.808  66.426  1.00  0.00    -0.263 A  
ENDBRANCH   5   6
BRANCH   5  12
HETATM   12  C   UNL     1      -8.186   9.536  69.829  1.00  0.00    -0.156 C  
BRANCH  12  13
HETATM   13  C   UNL     1      -7.576   8.391  70.711  1.00  0.00    -0.071 C  
HETATM   14  C   UNL     1      -6.411   7.683  70.001  1.00  0.00    -0.034 C  
BRANCH  13  15
HETATM   15  N   UNL     1      -7.089   8.940  72.025  1.00  0.00    -0.303 NA 
HETATM   16  C   UNL     1      -7.577   8.194  73.192  1.00  0.00    -0.147 C  
HETATM   17  C   UNL     1      -5.620   8.994  72.109  1.00  0.00    -0.068 C  
ENDBRANCH  13  15
ENDBRANCH  12  13
ENDBRANCH   5  12
BRANCH   5  18
HETATM   18  C   UNL     1     -10.053   8.191  68.697  1.00  0.00    -0.211 A  
HETATM   19  C   UNL     1      -9.544   7.893  67.414  1.00  0.00    -0.195 A  
HETATM   20  C   UNL     1     -10.908   5.893  68.789  1.00  0.00    -0.353 A  
HETATM   21  C   UNL     1     -10.337   5.609  67.556  1.00  0.00    -0.277 A  
HETATM   22  C   UNL     1      -9.667   6.612  66.862  1.00  0.00    -0.209 A  
HETATM   23  C   UNL     1     -10.766   7.165  69.353  1.00  0.00    -0.246 A  
ENDBRANCH   5  18
ENDBRANCH   3   5
ENDBRANCH   2   3
TORSDOF 7
ENDMDL
MODEL      133
REMARK 921   NORMALIZED FREE ENERGY PREDICTED BY IDOCK:   -3.82 KCAL/MOL
REMARK 922        TOTAL FREE ENERGY PREDICTED BY IDOCK:   -6.63 KCAL/MOL
REMARK 923 INTER-LIGAND FREE ENERGY PREDICTED BY IDOCK:   -5.93 KCAL/MOL
REMARK 924 INTRA-LIGAND FREE ENERGY PREDICTED BY IDOCK:   -0.70 KCAL/MOL
REMARK 927      BINDING AFFINITY PREDICTED BY RF-SCORE:    0.00 PKD
ROOT
HETATM    1  C   UNL     1      -9.856   6.220  67.034  1.00  0.00    -0.185 C  
HETATM    2  C   UNL     1     -11.021   6.283  68.015  1.00  0.00    -0.418 C  
ENDROOT
BRANCH   2   3
HETATM    3  C   UNL     1     -10.535   6.509  69.440  1.00  0.00    -0.221 C  
HETATM    4  O   UNL     1     -10.013   5.557  70.036  1.00  0.00    -0.183 OA 
BRANCH   3   5
HETATM    5  C   UNL     1     -10.602   7.965  70.075  1.00  0.00    -0.242 C  
BRANCH   5   6
HETATM    6  C   UNL     1      -9.498   7.946  71.206  1.00  0.00    -0.184 A  
HETATM    7  C   UNL     1      -8.770   8.040  73.544  1.00  0.00    -0.330 A  
HETATM    8  C   UNL     1      -8.135   7.901  70.843  1.00  0.00    -0.101 A  
HETATM    9  C   UNL     1      -9.789   8.010  72.583  1.00  0.00    -0.347 A  
HETATM   10  C   UNL     1      -7.118   7.937  71.803  1.00  0.00    -0.070 A  
HETATM   11  C   UNL     1      -7.437   8.007  73.154  1.00  0.00    -0.171 A  
ENDBRANCH   5   6
BRANCH   5  12
HETATM   12  C   UNL     1     -10.264   9.087  68.999  1.00  0.00    -0.216 C  
BRANCH  12  13
HETATM   13  C   UNL     1      -9.846  10.548  69.390  1.00  0.00    -0.182 C  
HETATM   14  C   UNL     1      -8.371  10.827  69.061  1.00  0.00    -0.138 C  
BRANCH  13  15
HETATM   15  N   UNL     1     -10.707  11.553  68.673  1.00  0.00    -0.199 NA 
HETATM   16  C   UNL     1     -11.532  10.970  67.609  1.00  0.00    -0.224 C  
HETATM   17  C   UNL     1     -11.603  12.285  69.584  1.00  0.00    -0.278 C  
ENDBRANCH  13  15
ENDBRANCH  12  13
ENDBRANCH   5  12
BRANCH   5  18
HETATM   18  C   UNL     1     -11.989   8.286  70.718  1.00  0.00    -0.118 A  
HETATM   19  C   UNL     1     -12.942   7.256  70.882  1.00  0.00    -0.125 A  
HETATM   20  C   UNL     1     -13.497   9.753  71.980  1.00  0.00    -0.498 A  
HETATM   21  C   UNL     1     -14.383   8.703  72.184  1.00  0.00    -0.518 A  
HETATM   22  C   UNL     1     -14.112   7.458  71.623  1.00  0.00    -0.552 A  
HETATM   23  C   UNL     1     -12.316   9.546  71.260  1.00  0.00    -0.430 A  
ENDBRANCH   5  18
ENDBRANCH   3   5
ENDBRANCH   2   3
TORSDOF 7
ENDMDL
MODEL      134
REMARK 921   NORMALIZED FREE ENERGY PREDICTED BY IDOCK:   -3.81 KCAL/MOL
REMARK 922        TOTAL FREE ENERGY PREDICTED BY IDOCK:   -6.63 KCAL/MOL
REMARK 923 INTER-LIGAND FREE ENERGY PREDICTED BY IDOCK:   -5.99 KCAL/MOL
REMARK 924 INTRA-LIGAND FREE ENERGY PREDICTED BY IDOCK:   -0.64 KCAL/MOL
REMARK 927      BINDING AFFINITY PREDICTED BY RF-SCORE:    0.00 PKD
ROOT
HETATM    1  C   UNL     1     -11.317   6.508  69.475  1.00  0.00    -0.419 C  
HETATM    2  C   UNL     1     -10.035   7.165  68.978  1.00  0.00    -0.174 C  
ENDROOT
BRANCH   2   3
HETATM    3  C   UNL     1     -10.280   7.974  67.711  1.00  0.00    -0.222 C  
HETATM    4  O   UNL     1     -10.707   7.377  66.713  1.00  0.00    -0.319 OA 
BRANCH   3   5
HETATM    5  C   UNL     1     -10.096   9.552  67.734  1.00  0.00    -0.244 C  
BRANCH   5   6
HETATM    6  C   UNL     1     -10.028   9.957  66.207  1.00  0.00    -0.322 A  
HETATM    7  C   UNL     1      -9.060   9.830  63.960  1.00  0.00    -0.280 A  
HETATM    8  C   UNL     1     -10.897  10.954  65.715  1.00  0.00    -0.120 A  
HETATM    9  C   UNL     1      -9.112   9.401  65.292  1.00  0.00    -0.287 A  
HETATM   10  C   UNL     1     -10.840  11.387  64.386  1.00  0.00    -0.397 A  
HETATM   11  C   UNL     1      -9.920  10.824  63.508  1.00  0.00    -0.403 A  
ENDBRANCH   5   6
BRANCH   5  12
HETATM   12  C   UNL     1     -11.329  10.273  68.436  1.00  0.00    -0.244 C  
BRANCH  12  13
HETATM   13  C   UNL     1     -11.261  10.860  69.890  1.00  0.00    -0.282 C  
HETATM   14  C   UNL     1     -11.873  12.268  69.966  1.00  0.00    -0.372 C  
BRANCH  13  15
HETATM   15  N   UNL     1     -11.980   9.958  70.857  1.00  0.00    -0.321 NA 
HETATM   16  C   UNL     1     -11.087   9.274  71.800  1.00  0.00    -0.327 C  
HETATM   17  C   UNL     1     -13.003  10.669  71.643  1.00  0.00    -0.477 C  
ENDBRANCH  13  15
ENDBRANCH  12  13
ENDBRANCH   5  12
BRANCH   5  18
HETATM   18  C   UNL     1      -8.779  10.002  68.443  1.00  0.00    -0.117 A  
HETATM   19  C   UNL     1      -8.193  11.244  68.112  1.00  0.00    -0.140 A  
HETATM   20  C   UNL     1      -7.107   9.794  70.226  1.00  0.00    -0.145 A  
HETATM   21  C   UNL     1      -6.595  11.049  69.922  1.00  0.00    -0.142 A  
HETATM   22  C   UNL     1      -7.129  11.768  68.857  1.00  0.00    -0.114 A  
HETATM   23  C   UNL     1      -8.185   9.280  69.498  1.00  0.00    -0.121 A  
ENDBRANCH   5  18
ENDBRANCH   3   5
ENDBRANCH   2   3
TORSDOF 7
ENDMDL
MODEL      135
REMARK 921   NORMALIZED FREE ENERGY PREDICTED BY IDOCK:   -3.81 KCAL/MOL
REMARK 922        TOTAL FREE ENERGY PREDICTED BY IDOCK:   -6.62 KCAL/MOL
REMARK 923 INTER-LIGAND FREE ENERGY PREDICTED BY IDOCK:   -5.61 KCAL/MOL
REMARK 924 INTRA-LIGAND FREE ENERGY PREDICTED BY IDOCK:   -1.01 KCAL/MOL
REMARK 927      BINDING AFFINITY PREDICTED BY RF-SCORE:    0.00 PKD
ROOT
HETATM    1  C   UNL     1     -10.988   6.127  66.980  1.00  0.00    -0.414 C  
HETATM    2  C   UNL     1     -10.640   7.607  67.090  1.00  0.00    -0.410 C  
ENDROOT
BRANCH   2   3
HETATM    3  C   UNL     1      -9.496   7.838  68.068  1.00  0.00    -0.144 C  
HETATM    4  O   UNL     1      -8.512   7.088  68.000  1.00  0.00    -0.124 OA 
BRANCH   3   5
HETATM    5  C   UNL     1      -9.540   9.083  69.055  1.00  0.00    -0.160 C  
BRANCH   5   6
HETATM    6  C   UNL     1     -10.181   8.505  70.380  1.00  0.00    -0.215 A  
HETATM    7  C   UNL     1     -11.973   7.399  71.631  1.00  0.00    -0.339 A  
HETATM    8  C   UNL     1      -9.505   8.675  71.607  1.00  0.00    -0.339 A  
HETATM    9  C   UNL     1     -11.427   7.850  70.423  1.00  0.00    -0.154 A  
HETATM   10  C   UNL     1     -10.055   8.231  72.815  1.00  0.00    -0.333 A  
HETATM   11  C   UNL     1     -11.290   7.592  72.826  1.00  0.00    -0.419 A  
ENDBRANCH   5   6
BRANCH   5  12
HETATM   12  C   UNL     1      -8.080   9.643  69.353  1.00  0.00    -0.118 C  
BRANCH  12  13
HETATM   13  C   UNL     1      -7.359  10.684  68.426  1.00  0.00    -0.091 C  
HETATM   14  C   UNL     1      -6.363  11.552  69.210  1.00  0.00    -0.091 C  
BRANCH  13  15
HETATM   15  N   UNL     1      -6.629   9.982  67.313  1.00  0.00    -0.069 NA 
HETATM   16  C   UNL     1      -6.077  10.893  66.304  1.00  0.00    -0.137 C  
HETATM   17  C   UNL     1      -5.529   9.134  67.801  1.00  0.00    -0.034 C  
ENDBRANCH  13  15
ENDBRANCH  12  13
ENDBRANCH   5  12
BRANCH   5  18
HETATM   18  C   UNL     1     -10.429  10.251  68.522  1.00  0.00    -0.217 A  
HETATM   19  C   UNL     1     -11.054  11.130  69.435  1.00  0.00    -0.314 A  
HETATM   20  C   UNL     1     -11.223  11.712  66.717  1.00  0.00    -0.371 A  
HETATM   21  C   UNL     1     -11.768  12.593  67.641  1.00  0.00    -0.420 A  
HETATM   22  C   UNL     1     -11.695  12.296  68.999  1.00  0.00    -0.376 A  
HETATM   23  C   UNL     1     -10.561  10.559  67.152  1.00  0.00    -0.319 A  
ENDBRANCH   5  18
ENDBRANCH   3   5
ENDBRANCH   2   3
TORSDOF 7
ENDMDL
MODEL      136
REMARK 921   NORMALIZED FREE ENERGY PREDICTED BY IDOCK:   -3.81 KCAL/MOL
REMARK 922        TOTAL FREE ENERGY PREDICTED BY IDOCK:   -6.62 KCAL/MOL
REMARK 923 INTER-LIGAND FREE ENERGY PREDICTED BY IDOCK:   -5.83 KCAL/MOL
REMARK 924 INTRA-LIGAND FREE ENERGY PREDICTED BY IDOCK:   -0.79 KCAL/MOL
REMARK 927      BINDING AFFINITY PREDICTED BY RF-SCORE:    0.00 PKD
ROOT
HETATM    1  C   UNL     1     -12.033  14.235  67.135  1.00  0.00    -0.449 C  
HETATM    2  C   UNL     1     -12.096  12.995  66.250  1.00  0.00    -0.453 C  
ENDROOT
BRANCH   2   3
HETATM    3  C   UNL     1     -10.741  12.688  65.627  1.00  0.00    -0.269 C  
HETATM    4  O   UNL     1     -10.289  13.486  64.793  1.00  0.00    -0.388 OA 
BRANCH   3   5
HETATM    5  C   UNL     1      -9.902  11.437  66.136  1.00  0.00    -0.255 C  
BRANCH   5   6
HETATM    6  C   UNL     1      -8.598  12.074  66.763  1.00  0.00    -0.177 A  
HETATM    7  C   UNL     1      -7.380  13.869  67.901  1.00  0.00    -0.157 A  
HETATM    8  C   UNL     1      -7.370  11.387  66.653  1.00  0.00    -0.107 A  
HETATM    9  C   UNL     1      -8.572  13.327  67.406  1.00  0.00    -0.204 A  
HETATM   10  C   UNL     1      -6.178  11.932  67.143  1.00  0.00    -0.154 A  
HETATM   11  C   UNL     1      -6.184  13.174  67.767  1.00  0.00    -0.156 A  
ENDBRANCH   5   6
BRANCH   5  12
HETATM   12  C   UNL     1     -10.696  10.614  67.243  1.00  0.00    -0.338 C  
BRANCH  12  13
HETATM   13  C   UNL     1     -10.464  10.808  68.782  1.00  0.00    -0.199 C  
HETATM   14  C   UNL     1     -11.774  11.124  69.521  1.00  0.00    -0.405 C  
BRANCH  13  15
HETATM   15  N   UNL     1      -9.846   9.575  69.383  1.00  0.00    -0.177 NA 
HETATM   16  C   UNL     1     -10.231   9.342  70.780  1.00  0.00    -0.299 C  
HETATM   17  C   UNL     1     -10.160   8.354  68.621  1.00  0.00    -0.193 C  
ENDBRANCH  13  15
ENDBRANCH  12  13
ENDBRANCH   5  12
BRANCH   5  18
HETATM   18  C   UNL     1      -9.495  10.466  64.982  1.00  0.00    -0.308 A  
HETATM   19  C   UNL     1      -9.629  10.878  63.638  1.00  0.00    -0.339 A  
HETATM   20  C   UNL     1      -8.375   8.447  64.152  1.00  0.00    -0.081 A  
HETATM   21  C   UNL     1      -8.460   8.910  62.847  1.00  0.00    -0.178 A  
HETATM   22  C   UNL     1      -9.099  10.120  62.587  1.00  0.00    -0.305 A  
HETATM   23  C   UNL     1      -8.883   9.215  65.205  1.00  0.00    -0.240 A  
ENDBRANCH   5  18
ENDBRANCH   3   5
ENDBRANCH   2   3
TORSDOF 7
ENDMDL
MODEL      137
REMARK 921   NORMALIZED FREE ENERGY PREDICTED BY IDOCK:   -3.79 KCAL/MOL
REMARK 922        TOTAL FREE ENERGY PREDICTED BY IDOCK:   -6.59 KCAL/MOL
REMARK 923 INTER-LIGAND FREE ENERGY PREDICTED BY IDOCK:   -6.62 KCAL/MOL
REMARK 924 INTRA-LIGAND FREE ENERGY PREDICTED BY IDOCK:    0.02 KCAL/MOL
REMARK 927      BINDING AFFINITY PREDICTED BY RF-SCORE:    0.00 PKD
ROOT
HETATM    1  C   UNL     1      -6.165  13.543  67.712  1.00  0.00    -0.159 C  
HETATM    2  C   UNL     1      -7.322  12.578  67.944  1.00  0.00    -0.115 C  
ENDROOT
BRANCH   2   3
HETATM    3  C   UNL     1      -8.609  13.322  68.270  1.00  0.00    -0.169 C  
HETATM    4  O   UNL     1      -8.518  14.450  68.776  1.00  0.00    -0.159 OA 
BRANCH   3   5
HETATM    5  C   UNL     1     -10.010  12.696  67.856  1.00  0.00    -0.228 C  
BRANCH   5   6
HETATM    6  C   UNL     1     -11.046  13.382  68.833  1.00  0.00    -0.307 A  
HETATM    7  C   UNL     1     -12.230  15.325  69.740  1.00  0.00    -0.326 A  
HETATM    8  C   UNL     1     -11.699  12.599  69.810  1.00  0.00    -0.354 A  
HETATM    9  C   UNL     1     -11.341  14.759  68.819  1.00  0.00    -0.301 A  
HETATM   10  C   UNL     1     -12.583  13.167  70.735  1.00  0.00    -0.338 A  
HETATM   11  C   UNL     1     -12.848  14.531  70.698  1.00  0.00    -0.399 A  
ENDBRANCH   5   6
BRANCH   5  12
HETATM   12  C   UNL     1     -10.377  13.036  66.344  1.00  0.00    -0.287 C  
BRANCH  12  13
HETATM   13  C   UNL     1     -11.769  12.695  65.705  1.00  0.00    -0.419 C  
HETATM   14  C   UNL     1     -12.639  13.950  65.531  1.00  0.00    -0.560 C  
BRANCH  13  15
HETATM   15  N   UNL     1     -11.587  12.034  64.366  1.00  0.00    -0.346 NA 
HETATM   16  C   UNL     1     -12.497  12.539  63.331  1.00  0.00    -0.408 C  
HETATM   17  C   UNL     1     -10.212  12.157  63.854  1.00  0.00    -0.400 C  
ENDBRANCH  13  15
ENDBRANCH  12  13
ENDBRANCH   5  12
BRANCH   5  18
HETATM   18  C   UNL     1     -10.067  11.147  68.051  1.00  0.00    -0.191 A  
HETATM   19  C   UNL     1     -10.047  10.296  66.925  1.00  0.00    -0.274 A  
HETATM   20  C   UNL     1      -9.902   9.140  69.453  1.00  0.00    -0.173 A  
HETATM   21  C   UNL     1      -9.816   8.334  68.326  1.00  0.00    -0.192 A  
HETATM   22  C   UNL     1      -9.901   8.911  67.062  1.00  0.00    -0.277 A  
HETATM   23  C   UNL     1     -10.024  10.527  69.318  1.00  0.00    -0.233 A  
ENDBRANCH   5  18
ENDBRANCH   3   5
ENDBRANCH   2   3
TORSDOF 7
ENDMDL
MODEL      138
REMARK 921   NORMALIZED FREE ENERGY PREDICTED BY IDOCK:   -3.78 KCAL/MOL
REMARK 922        TOTAL FREE ENERGY PREDICTED BY IDOCK:   -6.58 KCAL/MOL
REMARK 923 INTER-LIGAND FREE ENERGY PREDICTED BY IDOCK:   -6.03 KCAL/MOL
REMARK 924 INTRA-LIGAND FREE ENERGY PREDICTED BY IDOCK:   -0.54 KCAL/MOL
REMARK 927      BINDING AFFINITY PREDICTED BY RF-SCORE:    0.00 PKD
ROOT
HETATM    1  C   UNL     1     -11.905  15.580  70.422  1.00  0.00    -0.379 C  
HETATM    2  C   UNL     1     -11.806  15.059  68.993  1.00  0.00    -0.330 C  
ENDROOT
BRANCH   2   3
HETATM    3  C   UNL     1     -11.062  13.732  68.936  1.00  0.00    -0.266 C  
HETATM    4  O   UNL     1     -11.301  12.891  69.813  1.00  0.00    -0.168 OA 
BRANCH   3   5
HETATM    5  C   UNL     1     -10.100  13.418  67.709  1.00  0.00    -0.232 C  
BRANCH   5   6
HETATM    6  C   UNL     1     -10.882  13.974  66.452  1.00  0.00    -0.299 A  
HETATM    7  C   UNL     1     -11.205  15.559  64.613  1.00  0.00    -0.381 A  
HETATM    8  C   UNL     1     -12.102  13.374  66.075  1.00  0.00    -0.487 A  
HETATM    9  C   UNL     1     -10.450  15.076  65.688  1.00  0.00    -0.368 A  
HETATM   10  C   UNL     1     -12.860  13.861  65.004  1.00  0.00    -0.309 A  
HETATM   11  C   UNL     1     -12.410  14.955  64.273  1.00  0.00    -0.300 A  
ENDBRANCH   5   6
BRANCH   5  12
HETATM   12  C   UNL     1      -8.702  14.165  67.858  1.00  0.00    -0.182 C  
BRANCH  12  13
HETATM   13  C   UNL     1      -8.416  15.229  68.974  1.00  0.00    -0.221 C  
HETATM   14  C   UNL     1      -7.238  14.813  69.869  1.00  0.00    -0.044 C  
BRANCH  13  15
HETATM   15  N   UNL     1      -8.118  16.570  68.362  1.00  0.00    -0.187 NA 
HETATM   16  C   UNL     1      -9.235  17.519  68.450  1.00  0.00    -0.279 C  
HETATM   17  C   UNL     1      -6.934  17.215  68.954  1.00  0.00    -0.232 C  
ENDBRANCH  13  15
ENDBRANCH  12  13
ENDBRANCH   5  12
BRANCH   5  18
HETATM   18  C   UNL     1      -9.837  11.891  67.516  1.00  0.00    -0.194 A  
HETATM   19  C   UNL     1      -9.516  11.087  68.632  1.00  0.00    -0.197 A  
HETATM   20  C   UNL     1      -9.939   9.833  66.183  1.00  0.00    -0.338 A  
HETATM   21  C   UNL     1      -9.689   9.064  67.312  1.00  0.00    -0.232 A  
HETATM   22  C   UNL     1      -9.464   9.692  68.534  1.00  0.00    -0.145 A  
HETATM   23  C   UNL     1     -10.015  11.226  66.285  1.00  0.00    -0.260 A  
ENDBRANCH   5  18
ENDBRANCH   3   5
ENDBRANCH   2   3
TORSDOF 7
ENDMDL
MODEL      139
REMARK 921   NORMALIZED FREE ENERGY PREDICTED BY IDOCK:   -3.77 KCAL/MOL
REMARK 922        TOTAL FREE ENERGY PREDICTED BY IDOCK:   -6.57 KCAL/MOL
REMARK 923 INTER-LIGAND FREE ENERGY PREDICTED BY IDOCK:   -5.58 KCAL/MOL
REMARK 924 INTRA-LIGAND FREE ENERGY PREDICTED BY IDOCK:   -0.99 KCAL/MOL
REMARK 927      BINDING AFFINITY PREDICTED BY RF-SCORE:    0.00 PKD
ROOT
HETATM    1  C   UNL     1     -12.754   9.649  71.887  1.00  0.00    -0.499 C  
HETATM    2  C   UNL     1     -11.939   8.469  72.403  1.00  0.00    -0.434 C  
ENDROOT
BRANCH   2   3
HETATM    3  C   UNL     1     -12.037   7.273  71.465  1.00  0.00    -0.331 C  
HETATM    4  O   UNL     1     -13.151   6.985  71.005  1.00  0.00    -0.302 OA 
BRANCH   3   5
HETATM    5  C   UNL     1     -10.717   6.511  71.016  1.00  0.00    -0.289 C  
BRANCH   5   6
HETATM    6  C   UNL     1     -10.631   5.274  71.997  1.00  0.00    -0.279 A  
HETATM    7  C   UNL     1     -10.831   4.221  74.200  1.00  0.00    -0.264 A  
HETATM    8  C   UNL     1     -10.153   4.038  71.512  1.00  0.00    -0.166 A  
HETATM    9  C   UNL     1     -10.972   5.334  73.362  1.00  0.00    -0.372 A  
HETATM   10  C   UNL     1     -10.006   2.927  72.351  1.00  0.00    -0.235 A  
HETATM   11  C   UNL     1     -10.346   3.020  73.696  1.00  0.00    -0.225 A  
ENDBRANCH   5   6
BRANCH   5  12
HETATM   12  C   UNL     1     -10.816   6.009  69.509  1.00  0.00    -0.439 C  
BRANCH  12  13
HETATM   13  C   UNL     1      -9.568   5.873  68.569  1.00  0.00    -0.123 C  
HETATM   14  C   UNL     1      -9.120   4.410  68.423  1.00  0.00    -0.165 C  
BRANCH  13  15
HETATM   15  N   UNL     1      -9.870   6.433  67.206  1.00  0.00    -0.130 NA 
HETATM   16  C   UNL     1     -10.676   5.538  66.367  1.00  0.00    -0.194 C  
HETATM   17  C   UNL     1     -10.559   7.733  67.266  1.00  0.00    -0.306 C  
ENDBRANCH  13  15
ENDBRANCH  12  13
ENDBRANCH   5  12
BRANCH   5  18
HETATM   18  C   UNL     1      -9.428   7.380  71.173  1.00  0.00    -0.157 A  
HETATM   19  C   UNL     1      -8.298   6.848  71.831  1.00  0.00    -0.107 A  
HETATM   20  C   UNL     1      -8.057   9.333  70.599  1.00  0.00    -0.207 A  
HETATM   21  C   UNL     1      -6.945   8.753  71.195  1.00  0.00    -0.082 A  
HETATM   22  C   UNL     1      -7.068   7.517  71.822  1.00  0.00    -0.063 A  
HETATM   23  C   UNL     1      -9.281   8.654  70.587  1.00  0.00    -0.206 A  
ENDBRANCH   5  18
ENDBRANCH   3   5
ENDBRANCH   2   3
TORSDOF 7
ENDMDL
MODEL      140
REMARK 921   NORMALIZED FREE ENERGY PREDICTED BY IDOCK:   -3.77 KCAL/MOL
REMARK 922        TOTAL FREE ENERGY PREDICTED BY IDOCK:   -6.56 KCAL/MOL
REMARK 923 INTER-LIGAND FREE ENERGY PREDICTED BY IDOCK:   -6.95 KCAL/MOL
REMARK 924 INTRA-LIGAND FREE ENERGY PREDICTED BY IDOCK:    0.39 KCAL/MOL
REMARK 927      BINDING AFFINITY PREDICTED BY RF-SCORE:    0.00 PKD
ROOT
HETATM    1  C   UNL     1     -12.141  13.832  64.292  1.00  0.00    -0.481 C  
HETATM    2  C   UNL     1     -12.328  13.970  65.799  1.00  0.00    -0.506 C  
ENDROOT
BRANCH   2   3
HETATM    3  C   UNL     1     -11.739  12.779  66.543  1.00  0.00    -0.400 C  
HETATM    4  O   UNL     1     -11.996  11.643  66.120  1.00  0.00    -0.370 OA 
BRANCH   3   5
HETATM    5  C   UNL     1     -10.732  13.020  67.749  1.00  0.00    -0.242 C  
BRANCH   5   6
HETATM    6  C   UNL     1     -11.541  12.559  69.027  1.00  0.00    -0.365 A  
HETATM    7  C   UNL     1     -12.657  12.977  71.167  1.00  0.00    -0.388 A  
HETATM    8  C   UNL     1     -11.812  11.187  69.217  1.00  0.00    -0.422 A  
HETATM    9  C   UNL     1     -11.987  13.443  70.030  1.00  0.00    -0.407 A  
HETATM   10  C   UNL     1     -12.476  10.722  70.357  1.00  0.00    -0.430 A  
HETATM   11  C   UNL     1     -12.898  11.618  71.333  1.00  0.00    -0.461 A  
ENDBRANCH   5   6
BRANCH   5  12
HETATM   12  C   UNL     1      -9.412  12.146  67.592  1.00  0.00    -0.187 C  
BRANCH  12  13
HETATM   13  C   UNL     1      -9.366  10.607  67.894  1.00  0.00    -0.148 C  
HETATM   14  C   UNL     1      -9.265   9.776  66.605  1.00  0.00    -0.184 C  
BRANCH  13  15
HETATM   15  N   UNL     1      -8.197  10.278  68.783  1.00  0.00    -0.111 NA 
HETATM   16  C   UNL     1      -7.375  11.443  69.130  1.00  0.00    -0.081 C  
HETATM   17  C   UNL     1      -8.605   9.627  70.039  1.00  0.00    -0.215 C  
ENDBRANCH  13  15
ENDBRANCH  12  13
ENDBRANCH   5  12
BRANCH   5  18
HETATM   18  C   UNL     1     -10.326  14.520  67.912  1.00  0.00    -0.231 A  
HETATM   19  C   UNL     1     -11.310  15.483  68.227  1.00  0.00    -0.360 A  
HETATM   20  C   UNL     1      -8.644  16.284  68.195  1.00  0.00    -0.183 A  
HETATM   21  C   UNL     1      -9.627  17.191  68.567  1.00  0.00    -0.288 A  
HETATM   22  C   UNL     1     -10.961  16.795  68.570  1.00  0.00    -0.312 A  
HETATM   23  C   UNL     1      -8.989  14.966  67.875  1.00  0.00    -0.177 A  
ENDBRANCH   5  18
ENDBRANCH   3   5
ENDBRANCH   2   3
TORSDOF 7
ENDMDL
MODEL      141
REMARK 921   NORMALIZED FREE ENERGY PREDICTED BY IDOCK:   -3.77 KCAL/MOL
REMARK 922        TOTAL FREE ENERGY PREDICTED BY IDOCK:   -6.56 KCAL/MOL
REMARK 923 INTER-LIGAND FREE ENERGY PREDICTED BY IDOCK:   -5.58 KCAL/MOL
REMARK 924 INTRA-LIGAND FREE ENERGY PREDICTED BY IDOCK:   -0.98 KCAL/MOL
REMARK 927      BINDING AFFINITY PREDICTED BY RF-SCORE:    0.00 PKD
ROOT
HETATM    1  C   UNL     1     -13.109   9.414  71.573  1.00  0.00    -0.451 C  
HETATM    2  C   UNL     1     -11.941   8.652  72.189  1.00  0.00    -0.449 C  
ENDROOT
BRANCH   2   3
HETATM    3  C   UNL     1     -11.527   7.473  71.318  1.00  0.00    -0.274 C  
HETATM    4  O   UNL     1     -12.418   6.745  70.860  1.00  0.00    -0.364 OA 
BRANCH   3   5
HETATM    5  C   UNL     1      -9.998   7.278  70.929  1.00  0.00    -0.186 C  
BRANCH   5   6
HETATM    6  C   UNL     1      -9.832   5.713  70.781  1.00  0.00    -0.239 A  
HETATM    7  C   UNL     1      -9.490   3.671  69.470  1.00  0.00    -0.246 A  
HETATM    8  C   UNL     1      -9.977   4.891  71.919  1.00  0.00    -0.250 A  
HETATM    9  C   UNL     1      -9.580   5.066  69.555  1.00  0.00    -0.237 A  
HETATM   10  C   UNL     1      -9.895   3.496  71.833  1.00  0.00    -0.237 A  
HETATM   11  C   UNL     1      -9.651   2.888  70.607  1.00  0.00    -0.184 A  
ENDBRANCH   5   6
BRANCH   5  12
HETATM   12  C   UNL     1      -9.649   7.997  69.552  1.00  0.00    -0.164 C  
BRANCH  12  13
HETATM   13  C   UNL     1     -10.446   9.235  69.009  1.00  0.00    -0.216 C  
HETATM   14  C   UNL     1      -9.700  10.553  69.273  1.00  0.00    -0.215 C  
BRANCH  13  15
HETATM   15  N   UNL     1     -10.693   9.097  67.532  1.00  0.00    -0.245 NA 
HETATM   16  C   UNL     1     -10.233  10.250  66.747  1.00  0.00    -0.228 C  
HETATM   17  C   UNL     1     -10.072   7.890  66.962  1.00  0.00    -0.277 C  
ENDBRANCH  13  15
ENDBRANCH  12  13
ENDBRANCH   5  12
BRANCH   5  18
HETATM   18  C   UNL     1      -9.018   7.796  72.030  1.00  0.00    -0.175 A  
HETATM   19  C   UNL     1      -9.366   7.674  73.393  1.00  0.00    -0.324 A  
HETATM   20  C   UNL     1      -6.812   8.583  72.761  1.00  0.00    -0.065 A  
HETATM   21  C   UNL     1      -7.159   8.388  74.090  1.00  0.00    -0.183 A  
HETATM   22  C   UNL     1      -8.441   7.946  74.408  1.00  0.00    -0.233 A  
HETATM   23  C   UNL     1      -7.728   8.289  71.745  1.00  0.00    -0.136 A  
ENDBRANCH   5  18
ENDBRANCH   3   5
ENDBRANCH   2   3
TORSDOF 7
ENDMDL
MODEL      142
REMARK 921   NORMALIZED FREE ENERGY PREDICTED BY IDOCK:   -3.76 KCAL/MOL
REMARK 922        TOTAL FREE ENERGY PREDICTED BY IDOCK:   -6.56 KCAL/MOL
REMARK 923 INTER-LIGAND FREE ENERGY PREDICTED BY IDOCK:   -6.53 KCAL/MOL
REMARK 924 INTRA-LIGAND FREE ENERGY PREDICTED BY IDOCK:   -0.03 KCAL/MOL
REMARK 927      BINDING AFFINITY PREDICTED BY RF-SCORE:    0.00 PKD
ROOT
HETATM    1  C   UNL     1      -7.279  10.090  68.455  1.00  0.00    -0.076 C  
HETATM    2  C   UNL     1      -8.399  10.969  69.001  1.00  0.00    -0.089 C  
ENDROOT
BRANCH   2   3
HETATM    3  C   UNL     1      -9.587  11.009  68.049  1.00  0.00    -0.170 C  
HETATM    4  O   UNL     1      -9.823  10.000  67.370  1.00  0.00    -0.172 OA 
BRANCH   3   5
HETATM    5  C   UNL     1     -10.547  12.276  68.037  1.00  0.00    -0.235 C  
BRANCH   5   6
HETATM    6  C   UNL     1      -9.564  13.507  68.170  1.00  0.00    -0.215 A  
HETATM    7  C   UNL     1      -8.820  15.599  69.205  1.00  0.00    -0.264 A  
HETATM    8  C   UNL     1      -8.519  13.664  67.235  1.00  0.00    -0.203 A  
HETATM    9  C   UNL     1      -9.688  14.502  69.161  1.00  0.00    -0.062 A  
HETATM   10  C   UNL     1      -7.656  14.765  67.276  1.00  0.00    -0.195 A  
HETATM   11  C   UNL     1      -7.808  15.733  68.262  1.00  0.00    -0.129 A  
ENDBRANCH   5   6
BRANCH   5  12
HETATM   12  C   UNL     1     -11.366  12.374  66.676  1.00  0.00    -0.394 C  
BRANCH  12  13
HETATM   13  C   UNL     1     -10.728  12.863  65.328  1.00  0.00    -0.296 C  
HETATM   14  C   UNL     1     -10.295  11.683  64.442  1.00  0.00    -0.362 C  
BRANCH  13  15
HETATM   15  N   UNL     1     -11.701  13.720  64.564  1.00  0.00    -0.389 NA 
HETATM   16  C   UNL     1     -12.211  13.086  63.342  1.00  0.00    -0.472 C  
HETATM   17  C   UNL     1     -12.860  14.126  65.376  1.00  0.00    -0.368 C  
ENDBRANCH  13  15
ENDBRANCH  12  13
ENDBRANCH   5  12
BRANCH   5  18
HETATM   18  C   UNL     1     -11.552  12.290  69.232  1.00  0.00    -0.383 A  
HETATM   19  C   UNL     1     -11.934  11.075  69.842  1.00  0.00    -0.427 A  
HETATM   20  C   UNL     1     -12.790  13.458  71.000  1.00  0.00    -0.329 A  
HETATM   21  C   UNL     1     -13.091  12.251  71.616  1.00  0.00    -0.408 A  
HETATM   22  C   UNL     1     -12.676  11.058  71.030  1.00  0.00    -0.485 A  
HETATM   23  C   UNL     1     -12.029  13.477  69.826  1.00  0.00    -0.405 A  
ENDBRANCH   5  18
ENDBRANCH   3   5
ENDBRANCH   2   3
TORSDOF 7
ENDMDL
MODEL      143
REMARK 921   NORMALIZED FREE ENERGY PREDICTED BY IDOCK:   -3.76 KCAL/MOL
REMARK 922        TOTAL FREE ENERGY PREDICTED BY IDOCK:   -6.55 KCAL/MOL
REMARK 923 INTER-LIGAND FREE ENERGY PREDICTED BY IDOCK:   -5.56 KCAL/MOL
REMARK 924 INTRA-LIGAND FREE ENERGY PREDICTED BY IDOCK:   -0.99 KCAL/MOL
REMARK 927      BINDING AFFINITY PREDICTED BY RF-SCORE:    0.00 PKD
ROOT
HETATM    1  C   UNL     1     -10.899   6.368  66.962  1.00  0.00    -0.464 C  
HETATM    2  C   UNL     1     -10.651   7.527  67.921  1.00  0.00    -0.250 C  
ENDROOT
BRANCH   2   3
HETATM    3  C   UNL     1     -10.870   7.107  69.368  1.00  0.00    -0.206 C  
HETATM    4  O   UNL     1     -11.476   6.048  69.582  1.00  0.00    -0.394 OA 
BRANCH   3   5
HETATM    5  C   UNL     1     -10.227   7.962  70.544  1.00  0.00    -0.198 C  
BRANCH   5   6
HETATM    6  C   UNL     1     -10.932   9.372  70.429  1.00  0.00    -0.317 A  
HETATM    7  C   UNL     1     -12.572  11.052  71.129  1.00  0.00    -0.522 A  
HETATM    8  C   UNL     1     -10.573  10.242  69.378  1.00  0.00    -0.262 A  
HETATM    9  C   UNL     1     -11.945   9.812  71.304  1.00  0.00    -0.471 A  
HETATM   10  C   UNL     1     -11.205  11.478  69.199  1.00  0.00    -0.337 A  
HETATM   11  C   UNL     1     -12.205  11.882  70.077  1.00  0.00    -0.291 A  
ENDBRANCH   5   6
BRANCH   5  12
HETATM   12  C   UNL     1     -10.527   7.314  71.967  1.00  0.00    -0.228 C  
BRANCH  12  13
HETATM   13  C   UNL     1      -9.456   6.507  72.782  1.00  0.00    -0.142 C  
HETATM   14  C   UNL     1      -9.176   7.151  74.149  1.00  0.00    -0.276 C  
BRANCH  13  15
HETATM   15  N   UNL     1      -9.910   5.088  72.990  1.00  0.00    -0.149 NA 
HETATM   16  C   UNL     1     -11.364   4.951  73.139  1.00  0.00    -0.315 C  
HETATM   17  C   UNL     1      -9.483   4.190  71.905  1.00  0.00    -0.140 C  
ENDBRANCH  13  15
ENDBRANCH  12  13
ENDBRANCH   5  12
BRANCH   5  18
HETATM   18  C   UNL     1      -8.683   8.146  70.390  1.00  0.00    -0.136 A  
HETATM   19  C   UNL     1      -7.946   7.247  69.588  1.00  0.00    -0.127 A  
HETATM   20  C   UNL     1      -6.632   9.472  70.624  1.00  0.00    -0.103 A  
HETATM   21  C   UNL     1      -5.952   8.608  69.777  1.00  0.00    -0.028 A  
HETATM   22  C   UNL     1      -6.604   7.488  69.270  1.00  0.00    -0.040 A  
HETATM   23  C   UNL     1      -7.980   9.245  70.924  1.00  0.00    -0.161 A  
ENDBRANCH   5  18
ENDBRANCH   3   5
ENDBRANCH   2   3
TORSDOF 7
ENDMDL
MODEL      144
REMARK 921   NORMALIZED FREE ENERGY PREDICTED BY IDOCK:   -3.75 KCAL/MOL
REMARK 922        TOTAL FREE ENERGY PREDICTED BY IDOCK:   -6.54 KCAL/MOL
REMARK 923 INTER-LIGAND FREE ENERGY PREDICTED BY IDOCK:   -5.65 KCAL/MOL
REMARK 924 INTRA-LIGAND FREE ENERGY PREDICTED BY IDOCK:   -0.89 KCAL/MOL
REMARK 927      BINDING AFFINITY PREDICTED BY RF-SCORE:    0.00 PKD
ROOT
HETATM    1  C   UNL     1     -11.763  13.446  69.242  1.00  0.00    -0.383 C  
HETATM    2  C   UNL     1     -11.791  11.952  69.546  1.00  0.00    -0.395 C  
ENDROOT
BRANCH   2   3
HETATM    3  C   UNL     1     -11.408  11.129  68.323  1.00  0.00    -0.297 C  
HETATM    4  O   UNL     1     -11.963  11.392  67.247  1.00  0.00    -0.580 OA 
BRANCH   3   5
HETATM    5  C   UNL     1     -10.244  10.052  68.430  1.00  0.00    -0.196 C  
BRANCH   5   6
HETATM    6  C   UNL     1     -10.695   9.110  69.616  1.00  0.00    -0.236 A  
HETATM    7  C   UNL     1     -11.210   6.919  70.584  1.00  0.00    -0.346 A  
HETATM    8  C   UNL     1     -11.100   9.683  70.840  1.00  0.00    -0.422 A  
HETATM    9  C   UNL     1     -10.757   7.705  69.518  1.00  0.00    -0.211 A  
HETATM   10  C   UNL     1     -11.560   8.896  71.903  1.00  0.00    -0.442 A  
HETATM   11  C   UNL     1     -11.615   7.513  71.773  1.00  0.00    -0.304 A  
ENDBRANCH   5   6
BRANCH   5  12
HETATM   12  C   UNL     1     -10.103   9.211  67.086  1.00  0.00    -0.301 C  
BRANCH  12  13
HETATM   13  C   UNL     1      -8.741   8.608  66.594  1.00  0.00    -0.123 C  
HETATM   14  C   UNL     1      -8.809   7.078  66.462  1.00  0.00    -0.151 C  
BRANCH  13  15
HETATM   15  N   UNL     1      -8.351   9.199  65.266  1.00  0.00    -0.137 NA 
HETATM   16  C   UNL     1      -9.384  10.059  64.678  1.00  0.00    -0.279 C  
HETATM   17  C   UNL     1      -7.104   9.979  65.336  1.00  0.00    -0.138 C  
ENDBRANCH  13  15
ENDBRANCH  12  13
ENDBRANCH   5  12
BRANCH   5  18
HETATM   18  C   UNL     1      -8.859  10.685  68.775  1.00  0.00    -0.161 A  
HETATM   19  C   UNL     1      -8.443  11.865  68.121  1.00  0.00    -0.163 A  
HETATM   20  C   UNL     1      -6.874  10.891  70.204  1.00  0.00    -0.014 A  
HETATM   21  C   UNL     1      -6.529  12.086  69.588  1.00  0.00    -0.088 A  
HETATM   22  C   UNL     1      -7.305  12.566  68.537  1.00  0.00    -0.115 A  
HETATM   23  C   UNL     1      -8.024  10.201  69.805  1.00  0.00    -0.172 A  
ENDBRANCH   5  18
ENDBRANCH   3   5
ENDBRANCH   2   3
TORSDOF 7
ENDMDL
MODEL      145
REMARK 921   NORMALIZED FREE ENERGY PREDICTED BY IDOCK:   -3.71 KCAL/MOL
REMARK 922        TOTAL FREE ENERGY PREDICTED BY IDOCK:   -6.48 KCAL/MOL
REMARK 923 INTER-LIGAND FREE ENERGY PREDICTED BY IDOCK:   -5.55 KCAL/MOL
REMARK 924 INTRA-LIGAND FREE ENERGY PREDICTED BY IDOCK:   -0.93 KCAL/MOL
REMARK 927      BINDING AFFINITY PREDICTED BY RF-SCORE:    0.00 PKD
ROOT
HETATM    1  C   UNL     1      -6.593  10.676  69.698  1.00  0.00    -0.106 C  
HETATM    2  C   UNL     1      -8.043  10.392  69.324  1.00  0.00    -0.159 C  
ENDROOT
BRANCH   2   3
HETATM    3  C   UNL     1      -8.678   9.393  70.282  1.00  0.00    -0.230 C  
HETATM    4  O   UNL     1      -8.292   9.389  71.460  1.00  0.00    -0.270 OA 
BRANCH   3   5
HETATM    5  C   UNL     1      -9.881   8.479  69.787  1.00  0.00    -0.186 C  
BRANCH   5   6
HETATM    6  C   UNL     1     -11.116   8.962  70.648  1.00  0.00    -0.306 A  
HETATM    7  C   UNL     1     -12.764   8.689  72.439  1.00  0.00    -0.423 A  
HETATM    8  C   UNL     1     -11.775  10.161  70.300  1.00  0.00    -0.361 A  
HETATM    9  C   UNL     1     -11.637   8.241  71.740  1.00  0.00    -0.356 A  
HETATM   10  C   UNL     1     -12.906  10.604  70.995  1.00  0.00    -0.496 A  
HETATM   11  C   UNL     1     -13.399   9.867  72.066  1.00  0.00    -0.532 A  
ENDBRANCH   5   6
BRANCH   5  12
HETATM   12  C   UNL     1     -10.176   8.692  68.238  1.00  0.00    -0.237 C  
BRANCH  12  13
HETATM   13  C   UNL     1      -9.518   7.817  67.114  1.00  0.00    -0.155 C  
HETATM   14  C   UNL     1     -10.455   6.694  66.643  1.00  0.00    -0.222 C  
BRANCH  13  15
HETATM   15  N   UNL     1      -9.142   8.671  65.933  1.00  0.00    -0.201 NA 
HETATM   16  C   UNL     1      -9.792   9.987  65.926  1.00  0.00    -0.264 C  
HETATM   17  C   UNL     1      -7.689   8.888  65.829  1.00  0.00    -0.094 C  
ENDBRANCH  13  15
ENDBRANCH  12  13
ENDBRANCH   5  12
BRANCH   5  18
HETATM   18  C   UNL     1      -9.637   6.958  70.049  1.00  0.00    -0.158 A  
HETATM   19  C   UNL     1      -8.350   6.506  70.415  1.00  0.00    -0.127 A  
HETATM   20  C   UNL     1     -10.450   4.679  70.457  1.00  0.00     0.027 A  
HETATM   21  C   UNL     1      -9.188   4.282  70.877  1.00  0.00    -0.203 A  
HETATM   22  C   UNL     1      -8.135   5.191  70.843  1.00  0.00    -0.105 A  
HETATM   23  C   UNL     1     -10.672   6.000  70.051  1.00  0.00    -0.380 A  
ENDBRANCH   5  18
ENDBRANCH   3   5
ENDBRANCH   2   3
TORSDOF 7
ENDMDL
MODEL      146
REMARK 921   NORMALIZED FREE ENERGY PREDICTED BY IDOCK:   -3.70 KCAL/MOL
REMARK 922        TOTAL FREE ENERGY PREDICTED BY IDOCK:   -6.46 KCAL/MOL
REMARK 923 INTER-LIGAND FREE ENERGY PREDICTED BY IDOCK:   -5.71 KCAL/MOL
REMARK 924 INTRA-LIGAND FREE ENERGY PREDICTED BY IDOCK:   -0.76 KCAL/MOL
REMARK 927      BINDING AFFINITY PREDICTED BY RF-SCORE:    0.00 PKD
ROOT
HETATM    1  C   UNL     1     -12.174  10.825  70.646  1.00  0.00    -0.474 C  
HETATM    2  C   UNL     1     -10.939  10.459  69.832  1.00  0.00    -0.364 C  
ENDROOT
BRANCH   2   3
HETATM    3  C   UNL     1     -11.082  10.892  68.379  1.00  0.00    -0.262 C  
HETATM    4  O   UNL     1     -12.203  11.241  67.983  1.00  0.00    -0.621 OA 
BRANCH   3   5
HETATM    5  C   UNL     1      -9.793  10.996  67.455  1.00  0.00    -0.190 C  
BRANCH   5   6
HETATM    6  C   UNL     1     -10.259  11.892  66.239  1.00  0.00    -0.247 A  
HETATM    7  C   UNL     1     -10.644  14.049  65.142  1.00  0.00    -0.400 A  
HETATM    8  C   UNL     1     -10.833  11.277  65.106  1.00  0.00    -0.268 A  
HETATM    9  C   UNL     1     -10.171  13.298  66.226  1.00  0.00    -0.296 A  
HETATM   10  C   UNL     1     -11.311  12.028  64.026  1.00  0.00    -0.478 A  
HETATM   11  C   UNL     1     -11.216  13.415  64.046  1.00  0.00    -0.318 A  
ENDBRANCH   5   6
BRANCH   5  12
HETATM   12  C   UNL     1      -8.583  11.695  68.218  1.00  0.00    -0.162 C  
BRANCH  12  13
HETATM   13  C   UNL     1      -7.084  11.289  67.996  1.00  0.00    -0.070 C  
HETATM   14  C   UNL     1      -6.279  12.418  67.334  1.00  0.00    -0.158 C  
BRANCH  13  15
HETATM   15  N   UNL     1      -6.436  10.926  69.305  1.00  0.00    -0.062 NA 
HETATM   16  C   UNL     1      -6.080  12.088  70.128  1.00  0.00    -0.131 C  
HETATM   17  C   UNL     1      -7.274  10.036  70.126  1.00  0.00    -0.161 C  
ENDBRANCH  13  15
ENDBRANCH  12  13
ENDBRANCH   5  12
BRANCH   5  18
HETATM   18  C   UNL     1      -9.315   9.610  66.918  1.00  0.00    -0.183 A  
HETATM   19  C   UNL     1      -9.911   8.425  67.404  1.00  0.00    -0.249 A  
HETATM   20  C   UNL     1      -8.104   8.222  65.296  1.00  0.00    -0.142 A  
HETATM   21  C   UNL     1      -8.756   7.084  65.750  1.00  0.00    -0.116 A  
HETATM   22  C   UNL     1      -9.650   7.183  66.813  1.00  0.00    -0.230 A  
HETATM   23  C   UNL     1      -8.381   9.468  65.870  1.00  0.00    -0.124 A  
ENDBRANCH   5  18
ENDBRANCH   3   5
ENDBRANCH   2   3
TORSDOF 7
ENDMDL
MODEL      147
REMARK 921   NORMALIZED FREE ENERGY PREDICTED BY IDOCK:   -3.69 KCAL/MOL
REMARK 922        TOTAL FREE ENERGY PREDICTED BY IDOCK:   -6.46 KCAL/MOL
REMARK 923 INTER-LIGAND FREE ENERGY PREDICTED BY IDOCK:   -5.65 KCAL/MOL
REMARK 924 INTRA-LIGAND FREE ENERGY PREDICTED BY IDOCK:   -0.81 KCAL/MOL
REMARK 927      BINDING AFFINITY PREDICTED BY RF-SCORE:    0.00 PKD
ROOT
HETATM    1  C   UNL     1     -10.548   8.703  68.920  1.00  0.00    -0.166 C  
HETATM    2  C   UNL     1     -11.031   9.643  67.821  1.00  0.00    -0.203 C  
ENDROOT
BRANCH   2   3
HETATM    3  C   UNL     1     -10.624  11.083  68.104  1.00  0.00    -0.191 C  
HETATM    4  O   UNL     1     -11.002  11.597  69.166  1.00  0.00    -0.227 OA 
BRANCH   3   5
HETATM    5  C   UNL     1      -9.646  11.838  67.104  1.00  0.00    -0.189 C  
BRANCH   5   6
HETATM    6  C   UNL     1     -10.509  12.040  65.795  1.00  0.00    -0.290 A  
HETATM    7  C   UNL     1     -12.601  12.536  64.619  1.00  0.00    -0.507 A  
HETATM    8  C   UNL     1      -9.923  11.798  64.535  1.00  0.00    -0.273 A  
HETATM    9  C   UNL     1     -11.866  12.418  65.806  1.00  0.00    -0.467 A  
HETATM   10  C   UNL     1     -10.659  11.909  63.350  1.00  0.00    -0.485 A  
HETATM   11  C   UNL     1     -11.999  12.278  63.394  1.00  0.00    -0.588 A  
ENDBRANCH   5   6
BRANCH   5  12
HETATM   12  C   UNL     1      -9.193  13.249  67.684  1.00  0.00    -0.209 C  
BRANCH  12  13
HETATM   13  C   UNL     1      -9.393  14.597  66.906  1.00  0.00    -0.243 C  
HETATM   14  C   UNL     1     -10.464  15.482  67.564  1.00  0.00    -0.282 C  
BRANCH  13  15
HETATM   15  N   UNL     1      -8.099  15.362  66.835  1.00  0.00    -0.232 NA 
HETATM   16  C   UNL     1      -8.238  16.700  66.248  1.00  0.00    -0.330 C  
HETATM   17  C   UNL     1      -7.456  15.514  68.151  1.00  0.00    -0.114 C  
ENDBRANCH  13  15
ENDBRANCH  12  13
ENDBRANCH   5  12
BRANCH   5  18
HETATM   18  C   UNL     1      -8.371  11.005  66.754  1.00  0.00    -0.147 A  
HETATM   19  C   UNL     1      -8.504   9.754  66.113  1.00  0.00    -0.130 A  
HETATM   20  C   UNL     1      -5.944  10.791  66.461  1.00  0.00    -0.098 A  
HETATM   21  C   UNL     1      -6.111   9.596  65.774  1.00  0.00    -0.062 A  
HETATM   22  C   UNL     1      -7.390   9.071  65.612  1.00  0.00    -0.086 A  
HETATM   23  C   UNL     1      -7.059  11.487  66.942  1.00  0.00    -0.135 A  
ENDBRANCH   5  18
ENDBRANCH   3   5
ENDBRANCH   2   3
TORSDOF 7
ENDMDL
MODEL      148
REMARK 921   NORMALIZED FREE ENERGY PREDICTED BY IDOCK:   -3.66 KCAL/MOL
REMARK 922        TOTAL FREE ENERGY PREDICTED BY IDOCK:   -6.41 KCAL/MOL
REMARK 923 INTER-LIGAND FREE ENERGY PREDICTED BY IDOCK:   -5.59 KCAL/MOL
REMARK 924 INTRA-LIGAND FREE ENERGY PREDICTED BY IDOCK:   -0.81 KCAL/MOL
REMARK 927      BINDING AFFINITY PREDICTED BY RF-SCORE:    0.00 PKD
ROOT
HETATM    1  C   UNL     1     -10.698   5.968  67.187  1.00  0.00    -0.409 C  
HETATM    2  C   UNL     1      -9.949   6.101  68.508  1.00  0.00    -0.173 C  
ENDROOT
BRANCH   2   3
HETATM    3  C   UNL     1     -10.739   6.928  69.513  1.00  0.00    -0.246 C  
HETATM    4  O   UNL     1     -11.914   6.606  69.738  1.00  0.00    -0.245 OA 
BRANCH   3   5
HETATM    5  C   UNL     1     -10.015   8.090  70.321  1.00  0.00    -0.189 C  
BRANCH   5   6
HETATM    6  C   UNL     1     -11.197   9.029  70.793  1.00  0.00    -0.329 A  
HETATM    7  C   UNL     1     -12.462  11.126  70.754  1.00  0.00    -0.479 A  
HETATM    8  C   UNL     1     -12.058   8.594  71.823  1.00  0.00    -0.403 A  
HETATM    9  C   UNL     1     -11.431  10.315  70.267  1.00  0.00    -0.395 A  
HETATM   10  C   UNL     1     -13.084   9.408  72.315  1.00  0.00    -0.509 A  
HETATM   11  C   UNL     1     -13.286  10.675  71.778  1.00  0.00    -0.526 A  
ENDBRANCH   5   6
BRANCH   5  12
HETATM   12  C   UNL     1      -9.231   7.522  71.584  1.00  0.00    -0.152 C  
BRANCH  12  13
HETATM   13  C   UNL     1      -9.182   5.996  71.944  1.00  0.00    -0.150 C  
HETATM   14  C   UNL     1      -7.738   5.495  72.111  1.00  0.00    -0.102 C  
BRANCH  13  15
HETATM   15  N   UNL     1      -9.945   5.728  73.213  1.00  0.00    -0.173 NA 
HETATM   16  C   UNL     1     -11.200   4.996  73.002  1.00  0.00    -0.310 C  
HETATM   17  C   UNL     1      -9.153   4.984  74.206  1.00  0.00    -0.114 C  
ENDBRANCH  13  15
ENDBRANCH  12  13
ENDBRANCH   5  12
BRANCH   5  18
HETATM   18  C   UNL     1      -9.023   8.917  69.442  1.00  0.00    -0.145 A  
HETATM   19  C   UNL     1      -9.378   9.261  68.119  1.00  0.00    -0.143 A  
HETATM   20  C   UNL     1      -7.033  10.327  69.176  1.00  0.00    -0.066 A  
HETATM   21  C   UNL     1      -7.442  10.701  67.903  1.00  0.00    -0.090 A  
HETATM   22  C   UNL     1      -8.607  10.158  67.369  1.00  0.00    -0.122 A  
HETATM   23  C   UNL     1      -7.814   9.449  69.935  1.00  0.00    -0.126 A  
ENDBRANCH   5  18
ENDBRANCH   3   5
ENDBRANCH   2   3
TORSDOF 7
ENDMDL
MODEL      149
REMARK 921   NORMALIZED FREE ENERGY PREDICTED BY IDOCK:   -3.65 KCAL/MOL
REMARK 922        TOTAL FREE ENERGY PREDICTED BY IDOCK:   -6.40 KCAL/MOL
REMARK 923 INTER-LIGAND FREE ENERGY PREDICTED BY IDOCK:   -5.43 KCAL/MOL
REMARK 924 INTRA-LIGAND FREE ENERGY PREDICTED BY IDOCK:   -0.97 KCAL/MOL
REMARK 927      BINDING AFFINITY PREDICTED BY RF-SCORE:    0.00 PKD
ROOT
HETATM    1  C   UNL     1      -9.053  10.453  67.303  1.00  0.00    -0.146 C  
HETATM    2  C   UNL     1      -9.886  10.316  68.573  1.00  0.00    -0.174 C  
ENDROOT
BRANCH   2   3
HETATM    3  C   UNL     1      -9.153   9.505  69.633  1.00  0.00    -0.196 C  
HETATM    4  O   UNL     1      -8.154  10.008  70.165  1.00  0.00    -0.175 OA 
BRANCH   3   5
HETATM    5  C   UNL     1      -9.745   8.107  70.105  1.00  0.00    -0.175 C  
BRANCH   5   6
HETATM    6  C   UNL     1      -9.754   7.226  68.793  1.00  0.00    -0.151 A  
HETATM    7  C   UNL     1     -10.886   6.003  66.997  1.00  0.00    -0.413 A  
HETATM    8  C   UNL     1      -8.531   6.770  68.256  1.00  0.00    -0.125 A  
HETATM    9  C   UNL     1     -10.930   6.826  68.129  1.00  0.00    -0.277 A  
HETATM   10  C   UNL     1      -8.487   5.943  67.128  1.00  0.00    -0.107 A  
HETATM   11  C   UNL     1      -9.666   5.560  66.499  1.00  0.00    -0.179 A  
ENDBRANCH   5   6
BRANCH   5  12
HETATM   12  C   UNL     1      -8.825   7.429  71.213  1.00  0.00    -0.138 C  
BRANCH  12  13
HETATM   13  C   UNL     1      -9.198   6.082  71.927  1.00  0.00    -0.150 C  
HETATM   14  C   UNL     1      -8.342   4.911  71.419  1.00  0.00    -0.116 C  
BRANCH  13  15
HETATM   15  N   UNL     1      -9.024   6.208  73.416  1.00  0.00    -0.126 NA 
HETATM   16  C   UNL     1     -10.164   6.842  74.091  1.00  0.00    -0.339 C  
HETATM   17  C   UNL     1      -8.779   4.912  74.071  1.00  0.00    -0.111 C  
ENDBRANCH  13  15
ENDBRANCH  12  13
ENDBRANCH   5  12
BRANCH   5  18
HETATM   18  C   UNL     1     -11.201   8.217  70.660  1.00  0.00    -0.270 A  
HETATM   19  C   UNL     1     -11.982   7.052  70.818  1.00  0.00    -0.392 A  
HETATM   20  C   UNL     1     -12.999   9.460  71.776  1.00  0.00    -0.484 A  
HETATM   21  C   UNL     1     -13.713   8.286  71.978  1.00  0.00    -0.381 A  
HETATM   22  C   UNL     1     -13.211   7.084  71.487  1.00  0.00    -0.382 A  
HETATM   23  C   UNL     1     -11.759   9.425  71.128  1.00  0.00    -0.418 A  
ENDBRANCH   5  18
ENDBRANCH   3   5
ENDBRANCH   2   3
TORSDOF 7
ENDMDL
MODEL      150
REMARK 921   NORMALIZED FREE ENERGY PREDICTED BY IDOCK:   -3.65 KCAL/MOL
REMARK 922        TOTAL FREE ENERGY PREDICTED BY IDOCK:   -6.40 KCAL/MOL
REMARK 923 INTER-LIGAND FREE ENERGY PREDICTED BY IDOCK:   -5.28 KCAL/MOL
REMARK 924 INTRA-LIGAND FREE ENERGY PREDICTED BY IDOCK:   -1.12 KCAL/MOL
REMARK 927      BINDING AFFINITY PREDICTED BY RF-SCORE:    0.00 PKD
ROOT
HETATM    1  C   UNL     1     -10.419   4.887  66.841  1.00  0.00    -0.202 C  
HETATM    2  C   UNL     1     -10.972   6.288  67.078  1.00  0.00    -0.442 C  
ENDROOT
BRANCH   2   3
HETATM    3  C   UNL     1     -10.758   6.733  68.518  1.00  0.00    -0.231 C  
HETATM    4  O   UNL     1     -11.273   6.057  69.420  1.00  0.00    -0.395 OA 
BRANCH   3   5
HETATM    5  C   UNL     1      -9.801   7.964  68.830  1.00  0.00    -0.171 C  
BRANCH   5   6
HETATM    6  C   UNL     1      -9.625   8.682  67.433  1.00  0.00    -0.204 A  
HETATM    7  C   UNL     1     -10.297  10.285  65.706  1.00  0.00    -0.236 A  
HETATM    8  C   UNL     1      -8.599   8.258  66.561  1.00  0.00    -0.141 A  
HETATM    9  C   UNL     1     -10.466   9.715  66.974  1.00  0.00    -0.302 A  
HETATM   10  C   UNL     1      -8.436   8.823  65.291  1.00  0.00    -0.191 A  
HETATM   11  C   UNL     1      -9.286   9.838  64.865  1.00  0.00    -0.314 A  
ENDBRANCH   5   6
BRANCH   5  12
HETATM   12  C   UNL     1     -10.458   8.963  69.880  1.00  0.00    -0.223 C  
BRANCH  12  13
HETATM   13  C   UNL     1     -11.228   8.476  71.157  1.00  0.00    -0.267 C  
HETATM   14  C   UNL     1     -10.276   8.240  72.341  1.00  0.00    -0.397 C  
BRANCH  13  15
HETATM   15  N   UNL     1     -12.273   9.481  71.560  1.00  0.00    -0.361 NA 
HETATM   16  C   UNL     1     -12.419  10.591  70.610  1.00  0.00    -0.366 C  
HETATM   17  C   UNL     1     -13.601   8.874  71.748  1.00  0.00    -0.412 C  
ENDBRANCH  13  15
ENDBRANCH  12  13
ENDBRANCH   5  12
BRANCH   5  18
HETATM   18  C   UNL     1      -8.399   7.525  69.362  1.00  0.00    -0.132 A  
HETATM   19  C   UNL     1      -7.527   8.487  69.918  1.00  0.00    -0.063 A  
HETATM   20  C   UNL     1      -6.796   5.804  70.063  1.00  0.00    -0.060 A  
HETATM   21  C   UNL     1      -5.993   6.766  70.661  1.00  0.00    -0.027 A  
HETATM   22  C   UNL     1      -6.351   8.109  70.577  1.00  0.00    -0.036 A  
HETATM   23  C   UNL     1      -7.984   6.179  69.425  1.00  0.00    -0.104 A  
ENDBRANCH   5  18
ENDBRANCH   3   5
ENDBRANCH   2   3
TORSDOF 7
ENDMDL
MODEL      151
REMARK 921   NORMALIZED FREE ENERGY PREDICTED BY IDOCK:   -3.65 KCAL/MOL
REMARK 922        TOTAL FREE ENERGY PREDICTED BY IDOCK:   -6.39 KCAL/MOL
REMARK 923 INTER-LIGAND FREE ENERGY PREDICTED BY IDOCK:   -5.73 KCAL/MOL
REMARK 924 INTRA-LIGAND FREE ENERGY PREDICTED BY IDOCK:   -0.66 KCAL/MOL
REMARK 927      BINDING AFFINITY PREDICTED BY RF-SCORE:    0.00 PKD
ROOT
HETATM    1  C   UNL     1      -6.156   9.157  71.193  1.00  0.00    -0.067 C  
HETATM    2  C   UNL     1      -7.617   9.240  70.766  1.00  0.00    -0.154 C  
ENDROOT
BRANCH   2   3
HETATM    3  C   UNL     1      -8.533   8.590  71.794  1.00  0.00    -0.175 C  
HETATM    4  O   UNL     1      -8.279   8.765  72.994  1.00  0.00    -0.418 OA 
BRANCH   3   5
HETATM    5  C   UNL     1      -9.835   7.815  71.313  1.00  0.00    -0.194 C  
BRANCH   5   6
HETATM    6  C   UNL     1     -10.972   8.914  71.339  1.00  0.00    -0.380 A  
HETATM    7  C   UNL     1     -13.082   9.847  72.162  1.00  0.00    -0.497 A  
HETATM    8  C   UNL     1     -10.922   9.984  70.421  1.00  0.00    -0.384 A  
HETATM    9  C   UNL     1     -12.076   8.875  72.213  1.00  0.00    -0.392 A  
HETATM   10  C   UNL     1     -11.931  10.952  70.366  1.00  0.00    -0.453 A  
HETATM   11  C   UNL     1     -13.011  10.882  71.238  1.00  0.00    -0.492 A  
ENDBRANCH   5   6
BRANCH   5  12
HETATM   12  C   UNL     1      -9.662   7.242  69.839  1.00  0.00    -0.174 C  
BRANCH  12  13
HETATM   13  C   UNL     1      -8.767   5.998  69.505  1.00  0.00    -0.125 C  
HETATM   14  C   UNL     1      -9.610   4.732  69.282  1.00  0.00    -0.243 C  
BRANCH  13  15
HETATM   15  N   UNL     1      -7.937   6.258  68.277  1.00  0.00    -0.107 NA 
HETATM   16  C   UNL     1      -8.202   7.559  67.652  1.00  0.00    -0.118 C  
HETATM   17  C   UNL     1      -6.490   6.174  68.541  1.00  0.00    -0.053 C  
ENDBRANCH  13  15
ENDBRANCH  12  13
ENDBRANCH   5  12
BRANCH   5  18
HETATM   18  C   UNL     1     -10.233   6.643  72.266  1.00  0.00    -0.206 A  
HETATM   19  C   UNL     1     -11.515   6.059  72.163  1.00  0.00    -0.356 A  
HETATM   20  C   UNL     1      -9.666   4.885  73.881  1.00  0.00    -0.152 A  
HETATM   21  C   UNL     1     -10.910   4.295  73.708  1.00  0.00    -0.354 A  
HETATM   22  C   UNL     1     -11.840   4.889  72.860  1.00  0.00    -0.095 A  
HETATM   23  C   UNL     1      -9.331   6.041  73.168  1.00  0.00    -0.139 A  
ENDBRANCH   5  18
ENDBRANCH   3   5
ENDBRANCH   2   3
TORSDOF 7
ENDMDL
MODEL      152
REMARK 921   NORMALIZED FREE ENERGY PREDICTED BY IDOCK:   -3.59 KCAL/MOL
REMARK 922        TOTAL FREE ENERGY PREDICTED BY IDOCK:   -6.32 KCAL/MOL
REMARK 923 INTER-LIGAND FREE ENERGY PREDICTED BY IDOCK:   -5.68 KCAL/MOL
REMARK 924 INTRA-LIGAND FREE ENERGY PREDICTED BY IDOCK:   -0.63 KCAL/MOL
REMARK 927      BINDING AFFINITY PREDICTED BY RF-SCORE:    0.00 PKD
ROOT
HETATM    1  C   UNL     1     -11.235   4.691  73.277  1.00  0.00    -0.411 C  
HETATM    2  C   UNL     1     -10.000   5.155  72.512  1.00  0.00    -0.214 C  
ENDROOT
BRANCH   2   3
HETATM    3  C   UNL     1     -10.382   5.905  71.243  1.00  0.00    -0.221 C  
HETATM    4  O   UNL     1     -11.155   5.351  70.449  1.00  0.00    -0.149 OA 
BRANCH   3   5
HETATM    5  C   UNL     1      -9.881   7.399  71.028  1.00  0.00    -0.179 C  
BRANCH   5   6
HETATM    6  C   UNL     1      -8.621   7.525  71.974  1.00  0.00    -0.126 A  
HETATM    7  C   UNL     1      -6.290   7.063  72.572  1.00  0.00    -0.052 A  
HETATM    8  C   UNL     1      -8.745   8.199  73.208  1.00  0.00    -0.313 A  
HETATM    9  C   UNL     1      -7.362   6.965  71.677  1.00  0.00    -0.084 A  
HETATM   10  C   UNL     1      -7.675   8.291  74.105  1.00  0.00    -0.264 A  
HETATM   11  C   UNL     1      -6.447   7.722  73.785  1.00  0.00    -0.093 A  
ENDBRANCH   5   6
BRANCH   5  12
HETATM   12  C   UNL     1      -9.460   7.661  69.516  1.00  0.00    -0.152 C  
BRANCH  12  13
HETATM   13  C   UNL     1      -8.920   9.044  69.007  1.00  0.00    -0.140 C  
HETATM   14  C   UNL     1      -7.384   9.098  69.026  1.00  0.00    -0.073 C  
BRANCH  13  15
HETATM   15  N   UNL     1      -9.404   9.317  67.609  1.00  0.00    -0.128 NA 
HETATM   16  C   UNL     1     -10.524   8.463  67.196  1.00  0.00    -0.310 C  
HETATM   17  C   UNL     1      -9.813  10.718  67.413  1.00  0.00    -0.177 C  
ENDBRANCH  13  15
ENDBRANCH  12  13
ENDBRANCH   5  12
BRANCH   5  18
HETATM   18  C   UNL     1     -10.945   8.463  71.447  1.00  0.00    -0.311 A  
HETATM   19  C   UNL     1     -10.917   9.750  70.865  1.00  0.00    -0.411 A  
HETATM   20  C   UNL     1     -13.055   9.101  72.525  1.00  0.00    -0.445 A  
HETATM   21  C   UNL     1     -13.035  10.332  71.885  1.00  0.00    -0.554 A  
HETATM   22  C   UNL     1     -11.959  10.663  71.065  1.00  0.00    -0.442 A  
HETATM   23  C   UNL     1     -12.026   8.179  72.307  1.00  0.00    -0.434 A  
ENDBRANCH   5  18
ENDBRANCH   3   5
ENDBRANCH   2   3
TORSDOF 7
ENDMDL
MODEL      153
REMARK 921   NORMALIZED FREE ENERGY PREDICTED BY IDOCK:   -3.56 KCAL/MOL
REMARK 922        TOTAL FREE ENERGY PREDICTED BY IDOCK:   -6.27 KCAL/MOL
REMARK 923 INTER-LIGAND FREE ENERGY PREDICTED BY IDOCK:   -5.57 KCAL/MOL
REMARK 924 INTRA-LIGAND FREE ENERGY PREDICTED BY IDOCK:   -0.70 KCAL/MOL
REMARK 927      BINDING AFFINITY PREDICTED BY RF-SCORE:    0.00 PKD
ROOT
HETATM    1  C   UNL     1     -11.444   5.167  72.867  1.00  0.00    -0.329 C  
HETATM    2  C   UNL     1     -10.427   5.337  71.744  1.00  0.00    -0.278 C  
ENDROOT
BRANCH   2   3
HETATM    3  C   UNL     1     -10.779   6.517  70.849  1.00  0.00    -0.242 C  
HETATM    4  O   UNL     1     -11.721   6.386  70.055  1.00  0.00    -0.429 OA 
BRANCH   3   5
HETATM    5  C   UNL     1     -10.021   7.902  71.034  1.00  0.00    -0.200 C  
BRANCH   5   6
HETATM    6  C   UNL     1     -11.181   8.955  71.240  1.00  0.00    -0.368 A  
HETATM    7  C   UNL     1     -13.306   9.696  72.210  1.00  0.00    -0.498 A  
HETATM    8  C   UNL     1     -11.162  10.160  70.504  1.00  0.00    -0.411 A  
HETATM    9  C   UNL     1     -12.278   8.751  72.101  1.00  0.00    -0.448 A  
HETATM   10  C   UNL     1     -12.193  11.100  70.609  1.00  0.00    -0.492 A  
HETATM   11  C   UNL     1     -13.265  10.867  71.463  1.00  0.00    -0.420 A  
ENDBRANCH   5   6
BRANCH   5  12
HETATM   12  C   UNL     1      -9.069   7.880  72.309  1.00  0.00    -0.217 C  
BRANCH  12  13
HETATM   13  C   UNL     1      -7.615   7.290  72.280  1.00  0.00    -0.084 C  
HETATM   14  C   UNL     1      -6.551   8.384  72.463  1.00  0.00    -0.097 C  
BRANCH  13  15
HETATM   15  N   UNL     1      -7.445   6.254  73.359  1.00  0.00    -0.091 NA 
HETATM   16  C   UNL     1      -6.056   6.087  73.802  1.00  0.00    -0.063 C  
HETATM   17  C   UNL     1      -8.264   6.535  74.550  1.00  0.00    -0.132 C  
ENDBRANCH  13  15
ENDBRANCH  12  13
ENDBRANCH   5  12
BRANCH   5  18
HETATM   18  C   UNL     1      -9.177   8.306  69.782  1.00  0.00    -0.154 A  
HETATM   19  C   UNL     1      -8.540   9.566  69.743  1.00  0.00    -0.201 A  
HETATM   20  C   UNL     1      -8.016   7.758  67.691  1.00  0.00    -0.124 A  
HETATM   21  C   UNL     1      -7.352   8.977  67.716  1.00  0.00    -0.084 A  
HETATM   22  C   UNL     1      -7.623   9.886  68.734  1.00  0.00    -0.081 A  
HETATM   23  C   UNL     1      -8.914   7.427  68.712  1.00  0.00    -0.129 A  
ENDBRANCH   5  18
ENDBRANCH   3   5
ENDBRANCH   2   3
TORSDOF 7
ENDMDL
MODEL      154
REMARK 921   NORMALIZED FREE ENERGY PREDICTED BY IDOCK:   -3.54 KCAL/MOL
REMARK 922        TOTAL FREE ENERGY PREDICTED BY IDOCK:   -6.24 KCAL/MOL
REMARK 923 INTER-LIGAND FREE ENERGY PREDICTED BY IDOCK:   -5.17 KCAL/MOL
REMARK 924 INTRA-LIGAND FREE ENERGY PREDICTED BY IDOCK:   -1.07 KCAL/MOL
REMARK 927      BINDING AFFINITY PREDICTED BY RF-SCORE:    0.00 PKD
ROOT
HETATM    1  C   UNL     1     -11.871  13.488  65.209  1.00  0.00    -0.373 C  
HETATM    2  C   UNL     1     -10.350  13.389  65.234  1.00  0.00    -0.330 C  
ENDROOT
BRANCH   2   3
HETATM    3  C   UNL     1      -9.739  14.455  66.135  1.00  0.00    -0.312 C  
HETATM    4  O   UNL     1      -9.825  15.638  65.778  1.00  0.00    -0.315 OA 
BRANCH   3   5
HETATM    5  C   UNL     1      -9.121  14.042  67.540  1.00  0.00    -0.196 C  
BRANCH   5   6
HETATM    6  C   UNL     1     -10.302  14.272  68.565  1.00  0.00    -0.244 A  
HETATM    7  C   UNL     1     -12.142  13.492  69.982  1.00  0.00    -0.411 A  
HETATM    8  C   UNL     1     -10.646  15.589  68.940  1.00  0.00    -0.240 A  
HETATM    9  C   UNL     1     -11.074  13.230  69.114  1.00  0.00    -0.259 A  
HETATM   10  C   UNL     1     -11.718  15.850  69.801  1.00  0.00    -0.323 A  
HETATM   11  C   UNL     1     -12.465  14.800  70.322  1.00  0.00    -0.393 A  
ENDBRANCH   5   6
BRANCH   5  12
HETATM   12  C   UNL     1      -8.675  12.514  67.554  1.00  0.00    -0.182 C  
BRANCH  12  13
HETATM   13  C   UNL     1      -7.172  12.063  67.536  1.00  0.00    -0.127 C  
HETATM   14  C   UNL     1      -6.725  11.514  68.900  1.00  0.00    -0.086 C  
BRANCH  13  15
HETATM   15  N   UNL     1      -6.950  11.009  66.485  1.00  0.00    -0.137 NA 
HETATM   16  C   UNL     1      -6.031   9.944  66.904  1.00  0.00    -0.055 C  
HETATM   17  C   UNL     1      -8.203  10.372  66.046  1.00  0.00    -0.144 C  
ENDBRANCH  13  15
ENDBRANCH  12  13
ENDBRANCH   5  12
BRANCH   5  18
HETATM   18  C   UNL     1      -7.902  14.927  67.953  1.00  0.00    -0.145 A  
HETATM   19  C   UNL     1      -7.175  15.626  66.964  1.00  0.00    -0.175 A  
HETATM   20  C   UNL     1      -6.555  16.098  69.637  1.00  0.00    -0.182 A  
HETATM   21  C   UNL     1      -5.905  16.820  68.645  1.00  0.00    -0.132 A  
HETATM   22  C   UNL     1      -6.205  16.575  67.308  1.00  0.00    -0.209 A  
HETATM   23  C   UNL     1      -7.541  15.166  69.295  1.00  0.00    -0.201 A  
ENDBRANCH   5  18
ENDBRANCH   3   5
ENDBRANCH   2   3
TORSDOF 7
ENDMDL
MODEL      155
REMARK 921   NORMALIZED FREE ENERGY PREDICTED BY IDOCK:   -3.54 KCAL/MOL
REMARK 922        TOTAL FREE ENERGY PREDICTED BY IDOCK:   -6.24 KCAL/MOL
REMARK 923 INTER-LIGAND FREE ENERGY PREDICTED BY IDOCK:   -5.57 KCAL/MOL
REMARK 924 INTRA-LIGAND FREE ENERGY PREDICTED BY IDOCK:   -0.67 KCAL/MOL
REMARK 927      BINDING AFFINITY PREDICTED BY RF-SCORE:    0.00 PKD
ROOT
HETATM    1  C   UNL     1     -10.624  19.657  66.612  1.00  0.00    -0.599 C  
HETATM    2  C   UNL     1     -10.720  18.413  67.489  1.00  0.00    -0.399 C  
ENDROOT
BRANCH   2   3
HETATM    3  C   UNL     1     -10.479  17.145  66.681  1.00  0.00    -0.259 C  
HETATM    4  O   UNL     1     -10.429  17.241  65.447  1.00  0.00    -0.635 OA 
BRANCH   3   5
HETATM    5  C   UNL     1     -10.187  15.774  67.432  1.00  0.00    -0.270 C  
BRANCH   5   6
HETATM    6  C   UNL     1     -10.621  14.664  66.394  1.00  0.00    -0.301 A  
HETATM    7  C   UNL     1     -11.922  13.858  64.480  1.00  0.00    -0.464 A  
HETATM    8  C   UNL     1     -10.112  13.354  66.527  1.00  0.00    -0.280 A  
HETATM    9  C   UNL     1     -11.532  14.890  65.343  1.00  0.00    -0.320 A  
HETATM   10  C   UNL     1     -10.507  12.322  65.669  1.00  0.00    -0.293 A  
HETATM   11  C   UNL     1     -11.412  12.576  64.645  1.00  0.00    -0.377 A  
ENDBRANCH   5   6
BRANCH   5  12
HETATM   12  C   UNL     1      -8.642  15.620  67.784  1.00  0.00    -0.168 C  
BRANCH  12  13
HETATM   13  C   UNL     1      -7.511  15.641  66.697  1.00  0.00     0.130 C  
HETATM   14  C   UNL     1      -7.124  17.077  66.306  1.00  0.00    -0.236 C  
BRANCH  13  15
HETATM   15  N   UNL     1      -6.288  14.920  67.194  1.00  0.00    -0.172 NA 
HETATM   16  C   UNL     1      -5.179  15.815  67.547  1.00  0.00    -0.031 C  
HETATM   17  C   UNL     1      -6.566  14.068  68.362  1.00  0.00    -0.106 C  
ENDBRANCH  13  15
ENDBRANCH  12  13
ENDBRANCH   5  12
BRANCH   5  18
HETATM   18  C   UNL     1     -11.021  15.607  68.741  1.00  0.00    -0.281 A  
HETATM   19  C   UNL     1     -10.385  15.714  69.998  1.00  0.00    -0.309 A  
HETATM   20  C   UNL     1     -13.159  15.490  69.940  1.00  0.00     0.339 A  
HETATM   21  C   UNL     1     -12.511  15.665  71.156  1.00  0.00    -0.505 A  
HETATM   22  C   UNL     1     -11.123  15.763  71.186  1.00  0.00    -0.300 A  
HETATM   23  C   UNL     1     -12.425  15.464  68.750  1.00  0.00     0.264 A  
ENDBRANCH   5  18
ENDBRANCH   3   5
ENDBRANCH   2   3
TORSDOF 7
ENDMDL
MODEL      156
REMARK 921   NORMALIZED FREE ENERGY PREDICTED BY IDOCK:   -3.45 KCAL/MOL
REMARK 922        TOTAL FREE ENERGY PREDICTED BY IDOCK:   -6.12 KCAL/MOL
REMARK 923 INTER-LIGAND FREE ENERGY PREDICTED BY IDOCK:   -5.80 KCAL/MOL
REMARK 924 INTRA-LIGAND FREE ENERGY PREDICTED BY IDOCK:   -0.32 KCAL/MOL
REMARK 927      BINDING AFFINITY PREDICTED BY RF-SCORE:    0.00 PKD
ROOT
HETATM    1  C   UNL     1     -11.752  16.116  68.557  1.00  0.00    -0.170 C  
HETATM    2  C   UNL     1     -11.901  14.606  68.410  1.00  0.00    -0.330 C  
ENDROOT
BRANCH   2   3
HETATM    3  C   UNL     1     -11.005  14.065  67.303  1.00  0.00    -0.295 C  
HETATM    4  O   UNL     1     -10.598  14.858  66.443  1.00  0.00    -0.293 OA 
BRANCH   3   5
HETATM    5  C   UNL     1     -10.528  12.549  67.343  1.00  0.00    -0.231 C  
BRANCH   5   6
HETATM    6  C   UNL     1      -9.090  12.612  67.995  1.00  0.00    -0.207 A  
HETATM    7  C   UNL     1      -7.063  11.581  68.907  1.00  0.00    -0.111 A  
HETATM    8  C   UNL     1      -8.546  13.864  68.354  1.00  0.00    -0.169 A  
HETATM    9  C   UNL     1      -8.312  11.473  68.283  1.00  0.00    -0.154 A  
HETATM   10  C   UNL     1      -7.301  13.971  68.984  1.00  0.00    -0.081 A  
HETATM   11  C   UNL     1      -6.559  12.827  69.259  1.00  0.00    -0.086 A  
ENDBRANCH   5   6
BRANCH   5  12
HETATM   12  C   UNL     1     -11.496  11.657  68.238  1.00  0.00    -0.369 C  
BRANCH  12  13
HETATM   13  C   UNL     1     -11.195  11.310  69.739  1.00  0.00    -0.220 C  
HETATM   14  C   UNL     1     -12.266  11.882  70.682  1.00  0.00    -0.424 C  
BRANCH  13  15
HETATM   15  N   UNL     1     -11.115   9.820  69.931  1.00  0.00    -0.249 NA 
HETATM   16  C   UNL     1     -10.900   9.076  68.685  1.00  0.00    -0.017 C  
HETATM   17  C   UNL     1     -10.059   9.425  70.878  1.00  0.00    -0.296 C  
ENDBRANCH  13  15
ENDBRANCH  12  13
ENDBRANCH   5  12
BRANCH   5  18
HETATM   18  C   UNL     1     -10.421  11.906  65.924  1.00  0.00    -0.296 A  
HETATM   19  C   UNL     1     -11.361  12.246  64.926  1.00  0.00    -0.373 A  
HETATM   20  C   UNL     1      -9.193  10.654  64.207  1.00  0.00    -0.265 A  
HETATM   21  C   UNL     1     -10.097  11.061  63.234  1.00  0.00    -0.400 A  
HETATM   22  C   UNL     1     -11.188  11.846  63.596  1.00  0.00    -0.522 A  
HETATM   23  C   UNL     1      -9.352  11.073  65.532  1.00  0.00    -0.242 A  
ENDBRANCH   5  18
ENDBRANCH   3   5
ENDBRANCH   2   3
TORSDOF 7
ENDMDL
MODEL      157
REMARK 921   NORMALIZED FREE ENERGY PREDICTED BY IDOCK:   -3.45 KCAL/MOL
REMARK 922        TOTAL FREE ENERGY PREDICTED BY IDOCK:   -6.12 KCAL/MOL
REMARK 923 INTER-LIGAND FREE ENERGY PREDICTED BY IDOCK:   -4.75 KCAL/MOL
REMARK 924 INTRA-LIGAND FREE ENERGY PREDICTED BY IDOCK:   -1.36 KCAL/MOL
REMARK 927      BINDING AFFINITY PREDICTED BY RF-SCORE:    0.00 PKD
ROOT
HETATM    1  C   UNL     1     -12.130   6.661  70.407  1.00  0.00    -0.251 C  
HETATM    2  C   UNL     1     -10.968   6.205  69.533  1.00  0.00    -0.463 C  
ENDROOT
BRANCH   2   3
HETATM    3  C   UNL     1     -10.322   7.381  68.811  1.00  0.00    -0.199 C  
HETATM    4  O   UNL     1     -10.634   7.581  67.629  1.00  0.00    -0.239 OA 
BRANCH   3   5
HETATM    5  C   UNL     1      -9.371   8.372  69.611  1.00  0.00    -0.161 C  
BRANCH   5   6
HETATM    6  C   UNL     1      -8.045   8.415  68.751  1.00  0.00    -0.121 A  
HETATM    7  C   UNL     1      -6.416   7.433  67.207  1.00  0.00    -0.060 A  
HETATM    8  C   UNL     1      -7.196   9.539  68.843  1.00  0.00    -0.072 A  
HETATM    9  C   UNL     1      -7.626   7.366  67.909  1.00  0.00    -0.114 A  
HETATM   10  C   UNL     1      -5.985   9.602  68.146  1.00  0.00    -0.047 A  
HETATM   11  C   UNL     1      -5.596   8.548  67.327  1.00  0.00    -0.039 A  
ENDBRANCH   5   6
BRANCH   5  12
HETATM   12  C   UNL     1     -10.003   9.829  69.715  1.00  0.00    -0.265 C  
BRANCH  12  13
HETATM   13  C   UNL     1     -11.542  10.105  69.582  1.00  0.00    -0.153 C  
HETATM   14  C   UNL     1     -12.125  10.710  70.869  1.00  0.00    -0.489 C  
BRANCH  13  15
HETATM   15  N   UNL     1     -11.814  11.038  68.433  1.00  0.00    -0.552 NA 
HETATM   16  C   UNL     1     -12.081  12.421  68.848  1.00  0.00    -0.123 C  
HETATM   17  C   UNL     1     -10.714  11.068  67.454  1.00  0.00    -0.257 C  
ENDBRANCH  13  15
ENDBRANCH  12  13
ENDBRANCH   5  12
BRANCH   5  18
HETATM   18  C   UNL     1      -9.034   7.865  71.049  1.00  0.00    -0.152 A  
HETATM   19  C   UNL     1      -8.081   6.838  71.227  1.00  0.00    -0.111 A  
HETATM   20  C   UNL     1      -9.100   8.097  73.491  1.00  0.00    -0.277 A  
HETATM   21  C   UNL     1      -8.112   7.131  73.630  1.00  0.00    -0.140 A  
HETATM   22  C   UNL     1      -7.612   6.492  72.499  1.00  0.00    -0.095 A  
HETATM   23  C   UNL     1      -9.552   8.460  72.219  1.00  0.00    -0.374 A  
ENDBRANCH   5  18
ENDBRANCH   3   5
ENDBRANCH   2   3
TORSDOF 7
ENDMDL
MODEL      158
REMARK 921   NORMALIZED FREE ENERGY PREDICTED BY IDOCK:   -3.44 KCAL/MOL
REMARK 922        TOTAL FREE ENERGY PREDICTED BY IDOCK:   -6.10 KCAL/MOL
REMARK 923 INTER-LIGAND FREE ENERGY PREDICTED BY IDOCK:   -5.48 KCAL/MOL
REMARK 924 INTRA-LIGAND FREE ENERGY PREDICTED BY IDOCK:   -0.62 KCAL/MOL
REMARK 927      BINDING AFFINITY PREDICTED BY RF-SCORE:    0.00 PKD
ROOT
HETATM    1  C   UNL     1      -7.992   6.922  68.447  1.00  0.00    -0.122 C  
HETATM    2  C   UNL     1      -9.492   7.188  68.374  1.00  0.00    -0.138 C  
ENDROOT
BRANCH   2   3
HETATM    3  C   UNL     1     -10.122   7.201  69.760  1.00  0.00    -0.195 C  
HETATM    4  O   UNL     1     -10.395   6.114  70.287  1.00  0.00    -0.191 OA 
BRANCH   3   5
HETATM    5  C   UNL     1     -10.301   8.579  70.532  1.00  0.00    -0.226 C  
BRANCH   5   6
HETATM    6  C   UNL     1     -11.782   8.524  71.085  1.00  0.00    -0.322 A  
HETATM    7  C   UNL     1     -13.722   9.498  72.221  1.00  0.00    -0.444 A  
HETATM    8  C   UNL     1     -12.508   7.317  71.000  1.00  0.00    -0.323 A  
HETATM    9  C   UNL     1     -12.426   9.614  71.704  1.00  0.00    -0.494 A  
HETATM   10  C   UNL     1     -13.800   7.200  71.523  1.00  0.00    -0.421 A  
HETATM   11  C   UNL     1     -14.407   8.292  72.133  1.00  0.00    -0.498 A  
ENDBRANCH   5   6
BRANCH   5  12
HETATM   12  C   UNL     1      -9.272   8.711  71.739  1.00  0.00    -0.338 C  
BRANCH  12  13
HETATM   13  C   UNL     1      -8.100   7.696  71.977  1.00  0.00    -0.101 C  
HETATM   14  C   UNL     1      -6.770   8.415  72.254  1.00  0.00    -0.097 C  
BRANCH  13  15
HETATM   15  N   UNL     1      -8.416   6.785  73.132  1.00  0.00    -0.118 NA 
HETATM   16  C   UNL     1      -7.334   6.687  74.119  1.00  0.00    -0.094 C  
HETATM   17  C   UNL     1      -9.641   7.181  73.847  1.00  0.00    -0.278 C  
ENDBRANCH  13  15
ENDBRANCH  12  13
ENDBRANCH   5  12
BRANCH   5  18
HETATM   18  C   UNL     1     -10.148   9.824  69.600  1.00  0.00    -0.250 A  
HETATM   19  C   UNL     1     -11.269  10.318  68.899  1.00  0.00    -0.259 A  
HETATM   20  C   UNL     1      -8.900  11.776  68.793  1.00  0.00     0.018 A  
HETATM   21  C   UNL     1     -10.037  12.272  68.170  1.00  0.00    -0.211 A  
HETATM   22  C   UNL     1     -11.219  11.537  68.211  1.00  0.00    -0.322 A  
HETATM   23  C   UNL     1      -8.955  10.570  69.500  1.00  0.00    -0.054 A  
ENDBRANCH   5  18
ENDBRANCH   3   5
ENDBRANCH   2   3
TORSDOF 7
ENDMDL
MODEL      159
REMARK 921   NORMALIZED FREE ENERGY PREDICTED BY IDOCK:   -3.42 KCAL/MOL
REMARK 922        TOTAL FREE ENERGY PREDICTED BY IDOCK:   -6.07 KCAL/MOL
REMARK 923 INTER-LIGAND FREE ENERGY PREDICTED BY IDOCK:   -5.81 KCAL/MOL
REMARK 924 INTRA-LIGAND FREE ENERGY PREDICTED BY IDOCK:   -0.26 KCAL/MOL
REMARK 927      BINDING AFFINITY PREDICTED BY RF-SCORE:    0.00 PKD
ROOT
HETATM    1  C   UNL     1     -10.046  10.494  65.701  1.00  0.00    -0.333 C  
HETATM    2  C   UNL     1      -9.130  11.260  66.649  1.00  0.00    -0.187 C  
ENDROOT
BRANCH   2   3
HETATM    3  C   UNL     1      -9.891  11.764  67.869  1.00  0.00    -0.183 C  
HETATM    4  O   UNL     1     -10.274  10.931  68.702  1.00  0.00    -0.173 OA 
BRANCH   3   5
HETATM    5  C   UNL     1     -10.070  13.327  68.097  1.00  0.00    -0.241 C  
BRANCH   5   6
HETATM    6  C   UNL     1     -10.639  13.857  66.720  1.00  0.00    -0.277 A  
HETATM    7  C   UNL     1     -10.489  15.184  64.666  1.00  0.00    -0.086 A  
HETATM    8  C   UNL     1     -11.951  13.510  66.334  1.00  0.00    -0.459 A  
HETATM    9  C   UNL     1      -9.920  14.702  65.852  1.00  0.00    -0.352 A  
HETATM   10  C   UNL     1     -12.521  13.998  65.152  1.00  0.00    -0.472 A  
HETATM   11  C   UNL     1     -11.788  14.835  64.319  1.00  0.00    -0.335 A  
ENDBRANCH   5   6
BRANCH   5  12
HETATM   12  C   UNL     1     -11.103  13.631  69.269  1.00  0.00    -0.241 C  
BRANCH  12  13
HETATM   13  C   UNL     1     -11.418  15.082  69.775  1.00  0.00    -0.295 C  
HETATM   14  C   UNL     1     -11.995  15.964  68.656  1.00  0.00    -0.106 C  
BRANCH  13  15
HETATM   15  N   UNL     1     -12.394  15.042  70.921  1.00  0.00    -0.306 NA 
HETATM   16  C   UNL     1     -12.722  13.683  71.367  1.00  0.00    -0.352 C  
HETATM   17  C   UNL     1     -11.923  15.797  72.094  1.00  0.00    -0.485 C  
ENDBRANCH  13  15
ENDBRANCH  12  13
ENDBRANCH   5  12
BRANCH   5  18
HETATM   18  C   UNL     1      -8.724  14.055  68.410  1.00  0.00    -0.179 A  
HETATM   19  C   UNL     1      -8.718  15.447  68.647  1.00  0.00    -0.191 A  
HETATM   20  C   UNL     1      -6.351  14.034  69.035  1.00  0.00    -0.097 A  
HETATM   21  C   UNL     1      -6.394  15.391  69.325  1.00  0.00    -0.128 A  
HETATM   22  C   UNL     1      -7.573  16.101  69.119  1.00  0.00    -0.230 A  
HETATM   23  C   UNL     1      -7.501  13.375  68.586  1.00  0.00    -0.104 A  
ENDBRANCH   5  18
ENDBRANCH   3   5
ENDBRANCH   2   3
TORSDOF 7
ENDMDL
MODEL      160
REMARK 921   NORMALIZED FREE ENERGY PREDICTED BY IDOCK:   -3.39 KCAL/MOL
REMARK 922        TOTAL FREE ENERGY PREDICTED BY IDOCK:   -6.03 KCAL/MOL
REMARK 923 INTER-LIGAND FREE ENERGY PREDICTED BY IDOCK:   -5.03 KCAL/MOL
REMARK 924 INTRA-LIGAND FREE ENERGY PREDICTED BY IDOCK:   -1.00 KCAL/MOL
REMARK 927      BINDING AFFINITY PREDICTED BY RF-SCORE:    0.00 PKD
ROOT
HETATM    1  C   UNL     1     -10.694   7.111  66.877  1.00  0.00    -0.363 C  
HETATM    2  C   UNL     1      -9.637   8.040  67.463  1.00  0.00    -0.191 C  
ENDROOT
BRANCH   2   3
HETATM    3  C   UNL     1     -10.248   9.360  67.916  1.00  0.00    -0.211 C  
HETATM    4  O   UNL     1     -11.284   9.745  67.357  1.00  0.00    -0.120 OA 
BRANCH   3   5
HETATM    5  C   UNL     1      -9.618  10.138  69.151  1.00  0.00    -0.222 C  
BRANCH   5   6
HETATM    6  C   UNL     1     -10.576  11.379  69.357  1.00  0.00    -0.097 A  
HETATM    7  C   UNL     1     -11.319  13.663  68.874  1.00  0.00    -0.332 A  
HETATM    8  C   UNL     1     -11.572  11.326  70.356  1.00  0.00    -0.319 A  
HETATM    9  C   UNL     1     -10.476  12.574  68.618  1.00  0.00    -0.220 A  
HETATM   10  C   UNL     1     -12.409  12.417  70.615  1.00  0.00    -0.367 A  
HETATM   11  C   UNL     1     -12.282  13.585  69.873  1.00  0.00    -0.356 A  
ENDBRANCH   5   6
BRANCH   5  12
HETATM   12  C   UNL     1      -9.600   9.236  70.462  1.00  0.00    -0.317 C  
BRANCH  12  13
HETATM   13  C   UNL     1     -10.334   7.853  70.558  1.00  0.00    -0.205 C  
HETATM   14  C   UNL     1      -9.372   6.724  70.959  1.00  0.00    -0.160 C  
BRANCH  13  15
HETATM   15  N   UNL     1     -11.458   7.919  71.556  1.00  0.00    -0.258 NA 
HETATM   16  C   UNL     1     -12.446   6.845  71.403  1.00  0.00    -0.367 C  
HETATM   17  C   UNL     1     -10.982   7.896  72.949  1.00  0.00    -0.388 C  
ENDBRANCH  13  15
ENDBRANCH  12  13
ENDBRANCH   5  12
BRANCH   5  18
HETATM   18  C   UNL     1      -8.168  10.650  68.872  1.00  0.00    -0.145 A  
HETATM   19  C   UNL     1      -7.205  10.625  69.905  1.00  0.00    -0.109 A  
HETATM   20  C   UNL     1      -6.374  11.329  67.343  1.00  0.00    -0.076 A  
HETATM   21  C   UNL     1      -5.438  11.230  68.363  1.00  0.00    -0.042 A  
HETATM   22  C   UNL     1      -5.855  10.891  69.647  1.00  0.00    -0.055 A  
HETATM   23  C   UNL     1      -7.720  11.041  67.594  1.00  0.00    -0.112 A  
ENDBRANCH   5  18
ENDBRANCH   3   5
ENDBRANCH   2   3
TORSDOF 7
ENDMDL
MODEL      161
REMARK 921   NORMALIZED FREE ENERGY PREDICTED BY IDOCK:   -3.39 KCAL/MOL
REMARK 922        TOTAL FREE ENERGY PREDICTED BY IDOCK:   -6.03 KCAL/MOL
REMARK 923 INTER-LIGAND FREE ENERGY PREDICTED BY IDOCK:   -5.13 KCAL/MOL
REMARK 924 INTRA-LIGAND FREE ENERGY PREDICTED BY IDOCK:   -0.90 KCAL/MOL
REMARK 927      BINDING AFFINITY PREDICTED BY RF-SCORE:    0.00 PKD
ROOT
HETATM    1  C   UNL     1     -13.098   9.244  72.214  1.00  0.00    -0.517 C  
HETATM    2  C   UNL     1     -12.055   8.488  71.399  1.00  0.00    -0.345 C  
ENDROOT
BRANCH   2   3
HETATM    3  C   UNL     1     -12.108   6.992  71.679  1.00  0.00    -0.347 C  
HETATM    4  O   UNL     1     -13.181   6.511  72.071  1.00  0.00    -0.179 OA 
BRANCH   3   5
HETATM    5  C   UNL     1     -10.844   6.083  71.358  1.00  0.00    -0.328 C  
BRANCH   5   6
HETATM    6  C   UNL     1      -9.614   6.937  71.863  1.00  0.00    -0.159 A  
HETATM    7  C   UNL     1      -8.418   8.250  73.552  1.00  0.00    -0.264 A  
HETATM    8  C   UNL     1      -8.568   7.243  70.967  1.00  0.00    -0.128 A  
HETATM    9  C   UNL     1      -9.507   7.457  73.169  1.00  0.00    -0.249 A  
HETATM   10  C   UNL     1      -7.483   8.041  71.348  1.00  0.00    -0.071 A  
HETATM   11  C   UNL     1      -7.410   8.544  72.642  1.00  0.00    -0.065 A  
ENDBRANCH   5   6
BRANCH   5  12
HETATM   12  C   UNL     1     -10.908   4.698  72.140  1.00  0.00    -0.037 C  
BRANCH  12  13
HETATM   13  C   UNL     1      -9.760   4.198  73.085  1.00  0.00    -0.125 C  
HETATM   14  C   UNL     1     -10.245   4.034  74.535  1.00  0.00    -0.256 C  
BRANCH  13  15
HETATM   15  N   UNL     1      -9.211   2.883  72.599  1.00  0.00    -0.086 NA 
HETATM   16  C   UNL     1      -7.892   2.993  71.966  1.00  0.00    -0.054 C  
HETATM   17  C   UNL     1      -9.112   1.878  73.671  1.00  0.00    -0.068 C  
ENDBRANCH  13  15
ENDBRANCH  12  13
ENDBRANCH   5  12
BRANCH   5  18
HETATM   18  C   UNL     1     -10.675   5.792  69.833  1.00  0.00    -0.412 A  
HETATM   19  C   UNL     1     -11.224   6.683  68.883  1.00  0.00    -0.273 A  
HETATM   20  C   UNL     1      -9.622   4.599  67.965  1.00  0.00    -0.207 A  
HETATM   21  C   UNL     1     -10.119   5.529  67.063  1.00  0.00    -0.226 A  
HETATM   22  C   UNL     1     -10.931   6.564  67.519  1.00  0.00    -0.444 A  
HETATM   23  C   UNL     1      -9.894   4.730  69.331  1.00  0.00    -0.282 A  
ENDBRANCH   5  18
ENDBRANCH   3   5
ENDBRANCH   2   3
TORSDOF 7
ENDMDL
MODEL      162
REMARK 921   NORMALIZED FREE ENERGY PREDICTED BY IDOCK:   -3.37 KCAL/MOL
REMARK 922        TOTAL FREE ENERGY PREDICTED BY IDOCK:   -6.00 KCAL/MOL
REMARK 923 INTER-LIGAND FREE ENERGY PREDICTED BY IDOCK:   -5.07 KCAL/MOL
REMARK 924 INTRA-LIGAND FREE ENERGY PREDICTED BY IDOCK:   -0.93 KCAL/MOL
REMARK 927      BINDING AFFINITY PREDICTED BY RF-SCORE:    0.00 PKD
ROOT
HETATM    1  C   UNL     1     -11.499   5.434  72.055  1.00  0.00    -0.041 C  
HETATM    2  C   UNL     1     -10.359   6.220  71.417  1.00  0.00    -0.251 C  
ENDROOT
BRANCH   2   3
HETATM    3  C   UNL     1     -10.760   6.776  70.057  1.00  0.00    -0.247 C  
HETATM    4  O   UNL     1     -11.497   6.086  69.340  1.00  0.00    -0.372 OA 
BRANCH   3   5
HETATM    5  C   UNL     1     -10.328   8.250  69.649  1.00  0.00    -0.218 C  
BRANCH   5   6
HETATM    6  C   UNL     1      -8.811   8.344  70.082  1.00  0.00    -0.141 A  
HETATM    7  C   UNL     1      -6.467   7.638  69.978  1.00  0.00    -0.034 A  
HETATM    8  C   UNL     1      -8.438   9.235  71.111  1.00  0.00    -0.081 A  
HETATM    9  C   UNL     1      -7.788   7.551  69.523  1.00  0.00    -0.120 A  
HETATM   10  C   UNL     1      -7.118   9.317  71.569  1.00  0.00     0.091 A  
HETATM   11  C   UNL     1      -6.133   8.517  71.001  1.00  0.00    -0.037 A  
ENDBRANCH   5   6
BRANCH   5  12
HETATM   12  C   UNL     1     -10.464   8.485  68.081  1.00  0.00    -0.236 C  
BRANCH  12  13
HETATM   13  C   UNL     1      -9.295   9.040  67.195  1.00  0.00    -0.147 C  
HETATM   14  C   UNL     1      -9.435   8.605  65.727  1.00  0.00    -0.192 C  
BRANCH  13  15
HETATM   15  N   UNL     1      -9.250  10.543  67.260  1.00  0.00    -0.143 NA 
HETATM   16  C   UNL     1      -7.947  11.077  67.673  1.00  0.00    -0.115 C  
HETATM   17  C   UNL     1      -9.610  11.178  65.981  1.00  0.00    -0.217 C  
ENDBRANCH  13  15
ENDBRANCH  12  13
ENDBRANCH   5  12
BRANCH   5  18
HETATM   18  C   UNL     1     -11.144   9.353  70.396  1.00  0.00    -0.311 A  
HETATM   19  C   UNL     1     -11.202  10.662  69.868  1.00  0.00    -0.378 A  
HETATM   20  C   UNL     1     -12.788  10.059  72.075  1.00  0.00    -0.484 A  
HETATM   21  C   UNL     1     -12.876  11.316  71.492  1.00  0.00    -0.519 A  
HETATM   22  C   UNL     1     -12.073  11.622  70.396  1.00  0.00    -0.462 A  
HETATM   23  C   UNL     1     -11.936   9.091  71.533  1.00  0.00    -0.414 A  
ENDBRANCH   5  18
ENDBRANCH   3   5
ENDBRANCH   2   3
TORSDOF 7
ENDMDL
MODEL      163
REMARK 921   NORMALIZED FREE ENERGY PREDICTED BY IDOCK:   -3.35 KCAL/MOL
REMARK 922        TOTAL FREE ENERGY PREDICTED BY IDOCK:   -5.98 KCAL/MOL
REMARK 923 INTER-LIGAND FREE ENERGY PREDICTED BY IDOCK:   -5.16 KCAL/MOL
REMARK 924 INTRA-LIGAND FREE ENERGY PREDICTED BY IDOCK:   -0.81 KCAL/MOL
REMARK 927      BINDING AFFINITY PREDICTED BY RF-SCORE:    0.00 PKD
ROOT
HETATM    1  C   UNL     1     -10.883   6.730  67.668  1.00  0.00    -0.361 C  
HETATM    2  C   UNL     1     -10.531   7.962  66.841  1.00  0.00    -0.388 C  
ENDROOT
BRANCH   2   3
HETATM    3  C   UNL     1     -10.170   9.144  67.731  1.00  0.00    -0.224 C  
HETATM    4  O   UNL     1     -10.521   9.107  68.918  1.00  0.00    -0.218 OA 
BRANCH   3   5
HETATM    5  C   UNL     1      -9.269  10.320  67.155  1.00  0.00    -0.163 C  
BRANCH   5   6
HETATM    6  C   UNL     1     -10.134  10.932  65.982  1.00  0.00    -0.303 A  
HETATM    7  C   UNL     1     -10.686  11.246  63.616  1.00  0.00    -0.438 A  
HETATM    8  C   UNL     1     -11.156  11.857  66.285  1.00  0.00    -0.364 A  
HETATM    9  C   UNL     1      -9.924  10.638  64.620  1.00  0.00    -0.401 A  
HETATM   10  C   UNL     1     -11.913  12.470  65.281  1.00  0.00    -0.490 A  
HETATM   11  C   UNL     1     -11.677  12.163  63.945  1.00  0.00    -0.546 A  
ENDBRANCH   5   6
BRANCH   5  12
HETATM   12  C   UNL     1      -8.982  11.429  68.260  1.00  0.00    -0.175 C  
BRANCH  12  13
HETATM   13  C   UNL     1      -8.043  12.661  68.009  1.00  0.00    -0.161 C  
HETATM   14  C   UNL     1      -8.747  13.989  68.330  1.00  0.00    -0.182 C  
BRANCH  13  15
HETATM   15  N   UNL     1      -6.795  12.553  68.844  1.00  0.00    -0.097 NA 
HETATM   16  C   UNL     1      -6.602  13.680  69.764  1.00  0.00    -0.009 C  
HETATM   17  C   UNL     1      -6.749  11.313  69.637  1.00  0.00    -0.122 C  
ENDBRANCH  13  15
ENDBRANCH  12  13
ENDBRANCH   5  12
BRANCH   5  18
HETATM   18  C   UNL     1      -7.907   9.817  66.579  1.00  0.00    -0.109 A  
HETATM   19  C   UNL     1      -7.345   8.613  67.057  1.00  0.00    -0.080 A  
HETATM   20  C   UNL     1      -6.116   9.878  64.903  1.00  0.00    -0.103 A  
HETATM   21  C   UNL     1      -5.627   8.658  65.350  1.00  0.00    -0.046 A  
HETATM   22  C   UNL     1      -6.233   8.032  66.435  1.00  0.00    -0.046 A  
HETATM   23  C   UNL     1      -7.242  10.448  65.508  1.00  0.00    -0.138 A  
ENDBRANCH   5  18
ENDBRANCH   3   5
ENDBRANCH   2   3
TORSDOF 7
ENDMDL
MODEL      164
REMARK 921   NORMALIZED FREE ENERGY PREDICTED BY IDOCK:   -3.34 KCAL/MOL
REMARK 922        TOTAL FREE ENERGY PREDICTED BY IDOCK:   -5.96 KCAL/MOL
REMARK 923 INTER-LIGAND FREE ENERGY PREDICTED BY IDOCK:   -5.10 KCAL/MOL
REMARK 924 INTRA-LIGAND FREE ENERGY PREDICTED BY IDOCK:   -0.86 KCAL/MOL
REMARK 927      BINDING AFFINITY PREDICTED BY RF-SCORE:    0.00 PKD
ROOT
HETATM    1  C   UNL     1      -6.226  13.258  68.734  1.00  0.00    -0.090 C  
HETATM    2  C   UNL     1      -6.940  12.999  67.411  1.00  0.00    -0.123 C  
ENDROOT
BRANCH   2   3
HETATM    3  C   UNL     1      -7.372  11.544  67.289  1.00  0.00    -0.131 C  
HETATM    4  O   UNL     1      -6.685  10.682  67.855  1.00  0.00    -0.064 OA 
BRANCH   3   5
HETATM    5  C   UNL     1      -8.734  11.184  66.552  1.00  0.00    -0.174 C  
BRANCH   5   6
HETATM    6  C   UNL     1      -9.465  10.197  67.546  1.00  0.00    -0.172 A  
HETATM    7  C   UNL     1     -10.185   9.490  69.779  1.00  0.00    -0.249 A  
HETATM    8  C   UNL     1     -10.020   8.998  67.049  1.00  0.00    -0.295 A  
HETATM    9  C   UNL     1      -9.569  10.421  68.933  1.00  0.00    -0.197 A  
HETATM   10  C   UNL     1     -10.629   8.065  67.896  1.00  0.00    -0.210 A  
HETATM   11  C   UNL     1     -10.711   8.313  69.262  1.00  0.00    -0.140 A  
ENDBRANCH   5   6
BRANCH   5  12
HETATM   12  C   UNL     1      -9.627  12.479  66.311  1.00  0.00    -0.246 C  
BRANCH  12  13
HETATM   13  C   UNL     1     -11.193  12.434  66.225  1.00  0.00    -0.317 C  
HETATM   14  C   UNL     1     -11.849  12.826  67.559  1.00  0.00    -0.402 C  
BRANCH  13  15
HETATM   15  N   UNL     1     -11.689  13.355  65.143  1.00  0.00    -0.311 NA 
HETATM   16  C   UNL     1     -12.247  12.652  63.982  1.00  0.00    -0.463 C  
HETATM   17  C   UNL     1     -12.708  14.301  65.627  1.00  0.00    -0.373 C  
ENDBRANCH  13  15
ENDBRANCH  12  13
ENDBRANCH   5  12
BRANCH   5  18
HETATM   18  C   UNL     1      -8.513  10.464  65.183  1.00  0.00    -0.177 A  
HETATM   19  C   UNL     1      -7.430   9.570  65.027  1.00  0.00    -0.110 A  
HETATM   20  C   UNL     1      -9.279   9.776  62.956  1.00  0.00    -0.226 A  
HETATM   21  C   UNL     1      -8.243   8.857  62.860  1.00  0.00    -0.190 A  
HETATM   22  C   UNL     1      -7.311   8.763  63.889  1.00  0.00    -0.099 A  
HETATM   23  C   UNL     1      -9.413  10.566  64.103  1.00  0.00    -0.342 A  
ENDBRANCH   5  18
ENDBRANCH   3   5
ENDBRANCH   2   3
TORSDOF 7
ENDMDL
MODEL      165
REMARK 921   NORMALIZED FREE ENERGY PREDICTED BY IDOCK:   -3.34 KCAL/MOL
REMARK 922        TOTAL FREE ENERGY PREDICTED BY IDOCK:   -5.96 KCAL/MOL
REMARK 923 INTER-LIGAND FREE ENERGY PREDICTED BY IDOCK:   -4.93 KCAL/MOL
REMARK 924 INTRA-LIGAND FREE ENERGY PREDICTED BY IDOCK:   -1.03 KCAL/MOL
REMARK 927      BINDING AFFINITY PREDICTED BY RF-SCORE:    0.00 PKD
ROOT
HETATM    1  C   UNL     1      -9.776   4.513  66.768  1.00  0.00    -0.224 C  
HETATM    2  C   UNL     1      -9.221   5.933  66.813  1.00  0.00    -0.139 C  
ENDROOT
BRANCH   2   3
HETATM    3  C   UNL     1     -10.217   6.899  67.441  1.00  0.00    -0.203 C  
HETATM    4  O   UNL     1     -11.407   6.807  67.107  1.00  0.00    -0.330 OA 
BRANCH   3   5
HETATM    5  C   UNL     1      -9.735   7.904  68.574  1.00  0.00    -0.167 C  
BRANCH   5   6
HETATM    6  C   UNL     1      -8.380   7.279  69.096  1.00  0.00    -0.132 A  
HETATM    7  C   UNL     1      -7.082   5.581  70.293  1.00  0.00    -0.062 A  
HETATM    8  C   UNL     1      -7.170   7.974  68.884  1.00  0.00    -0.075 A  
HETATM    9  C   UNL     1      -8.303   6.066  69.809  1.00  0.00    -0.126 A  
HETATM   10  C   UNL     1      -5.951   7.491  69.373  1.00  0.00    -0.030 A  
HETATM   11  C   UNL     1      -5.909   6.294  70.078  1.00  0.00    -0.018 A  
ENDBRANCH   5   6
BRANCH   5  12
HETATM   12  C   UNL     1      -9.476   9.362  67.989  1.00  0.00    -0.148 C  
BRANCH  12  13
HETATM   13  C   UNL     1     -10.317   9.972  66.813  1.00  0.00    -0.217 C  
HETATM   14  C   UNL     1     -11.255  11.087  67.303  1.00  0.00    -0.330 C  
BRANCH  13  15
HETATM   15  N   UNL     1      -9.410  10.526  65.748  1.00  0.00    -0.179 NA 
HETATM   16  C   UNL     1      -8.060  10.844  66.230  1.00  0.00    -0.165 C  
HETATM   17  C   UNL     1      -9.272   9.622  64.594  1.00  0.00    -0.234 C  
ENDBRANCH  13  15
ENDBRANCH  12  13
ENDBRANCH   5  12
BRANCH   5  18
HETATM   18  C   UNL     1     -10.743   8.010  69.762  1.00  0.00    -0.231 A  
HETATM   19  C   UNL     1     -11.332   6.840  70.290  1.00  0.00    -0.404 A  
HETATM   20  C   UNL     1     -11.796   9.254  71.597  1.00  0.00    -0.453 A  
HETATM   21  C   UNL     1     -12.305   8.078  72.131  1.00  0.00    -0.358 A  
HETATM   22  C   UNL     1     -12.084   6.873  71.471  1.00  0.00    -0.401 A  
HETATM   23  C   UNL     1     -11.024   9.220  70.431  1.00  0.00    -0.302 A  
ENDBRANCH   5  18
ENDBRANCH   3   5
ENDBRANCH   2   3
TORSDOF 7
ENDMDL
MODEL      166
REMARK 921   NORMALIZED FREE ENERGY PREDICTED BY IDOCK:   -3.33 KCAL/MOL
REMARK 922        TOTAL FREE ENERGY PREDICTED BY IDOCK:   -5.94 KCAL/MOL
REMARK 923 INTER-LIGAND FREE ENERGY PREDICTED BY IDOCK:   -6.10 KCAL/MOL
REMARK 924 INTRA-LIGAND FREE ENERGY PREDICTED BY IDOCK:    0.16 KCAL/MOL
REMARK 927      BINDING AFFINITY PREDICTED BY RF-SCORE:    0.00 PKD
ROOT
HETATM    1  C   UNL     1      -6.598  12.017  66.917  1.00  0.00    -0.048 C  
HETATM    2  C   UNL     1      -7.542  12.240  68.093  1.00  0.00    -0.127 C  
ENDROOT
BRANCH   2   3
HETATM    3  C   UNL     1      -8.102  13.656  68.095  1.00  0.00    -0.156 C  
HETATM    4  O   UNL     1      -7.345  14.581  68.420  1.00  0.00    -0.100 OA 
BRANCH   3   5
HETATM    5  C   UNL     1      -9.582  13.920  67.578  1.00  0.00    -0.229 C  
BRANCH   5   6
HETATM    6  C   UNL     1      -9.711  15.496  67.561  1.00  0.00    -0.215 A  
HETATM    7  C   UNL     1      -9.761  17.690  68.649  1.00  0.00    -0.332 A  
HETATM    8  C   UNL     1     -10.001  16.154  66.347  1.00  0.00    -0.315 A  
HETATM    9  C   UNL     1      -9.589  16.302  68.710  1.00  0.00    -0.242 A  
HETATM   10  C   UNL     1     -10.179  17.541  66.288  1.00  0.00    -0.356 A  
HETATM   11  C   UNL     1     -10.059  18.308  67.441  1.00  0.00    -0.364 A  
ENDBRANCH   5   6
BRANCH   5  12
HETATM   12  C   UNL     1      -9.801  13.338  66.113  1.00  0.00    -0.286 C  
BRANCH  12  13
HETATM   13  C   UNL     1     -10.345  11.891  65.841  1.00  0.00    -0.242 C  
HETATM   14  C   UNL     1     -11.786  11.916  65.306  1.00  0.00    -0.232 C  
BRANCH  13  15
HETATM   15  N   UNL     1      -9.465  11.174  64.853  1.00  0.00    -0.221 NA 
HETATM   16  C   UNL     1      -9.219   9.768  65.196  1.00  0.00    -0.240 C  
HETATM   17  C   UNL     1     -10.002  11.213  63.482  1.00  0.00    -0.379 C  
ENDBRANCH  13  15
ENDBRANCH  12  13
ENDBRANCH   5  12
BRANCH   5  18
HETATM   18  C   UNL     1     -10.673  13.326  68.524  1.00  0.00    -0.280 A  
HETATM   19  C   UNL     1     -10.747  11.930  68.721  1.00  0.00    -0.257 A  
HETATM   20  C   UNL     1     -12.386  13.567  70.265  1.00  0.00    -0.370 A  
HETATM   21  C   UNL     1     -12.387  12.196  70.483  1.00  0.00    -0.358 A  
HETATM   22  C   UNL     1     -11.578  11.376  69.702  1.00  0.00    -0.399 A  
HETATM   23  C   UNL     1     -11.539  14.124  69.301  1.00  0.00    -0.350 A  
ENDBRANCH   5  18
ENDBRANCH   3   5
ENDBRANCH   2   3
TORSDOF 7
ENDMDL
MODEL      167
REMARK 921   NORMALIZED FREE ENERGY PREDICTED BY IDOCK:   -3.32 KCAL/MOL
REMARK 922        TOTAL FREE ENERGY PREDICTED BY IDOCK:   -5.93 KCAL/MOL
REMARK 923 INTER-LIGAND FREE ENERGY PREDICTED BY IDOCK:   -4.41 KCAL/MOL
REMARK 924 INTRA-LIGAND FREE ENERGY PREDICTED BY IDOCK:   -1.53 KCAL/MOL
REMARK 927      BINDING AFFINITY PREDICTED BY RF-SCORE:    0.00 PKD
ROOT
HETATM    1  C   UNL     1     -10.869   9.685  67.591  1.00  0.00    -0.276 C  
HETATM    2  C   UNL     1     -10.124   8.586  66.840  1.00  0.00    -0.364 C  
ENDROOT
BRANCH   2   3
HETATM    3  C   UNL     1     -10.248   7.246  67.553  1.00  0.00    -0.221 C  
HETATM    4  O   UNL     1     -11.185   6.501  67.234  1.00  0.00    -0.376 OA 
BRANCH   3   5
HETATM    5  C   UNL     1      -9.125   6.793  68.583  1.00  0.00    -0.127 C  
BRANCH   5   6
HETATM    6  C   UNL     1      -9.935   6.341  69.864  1.00  0.00    -0.206 A  
HETATM    7  C   UNL     1     -11.742   6.586  71.499  1.00  0.00    -0.376 A  
HETATM    8  C   UNL     1      -9.474   5.243  70.622  1.00  0.00    -0.222 A  
HETATM    9  C   UNL     1     -11.090   6.998  70.330  1.00  0.00    -0.323 A  
HETATM   10  C   UNL     1     -10.123   4.836  71.793  1.00  0.00    -0.261 A  
HETATM   11  C   UNL     1     -11.258   5.509  72.231  1.00  0.00    -0.281 A  
ENDBRANCH   5   6
BRANCH   5  12
HETATM   12  C   UNL     1      -8.270   5.576  68.018  1.00  0.00    -0.100 C  
BRANCH  12  13
HETATM   13  C   UNL     1      -8.117   5.278  66.485  1.00  0.00    -0.108 C  
HETATM   14  C   UNL     1      -6.645   5.305  66.044  1.00  0.00    -0.048 C  
BRANCH  13  15
HETATM   15  N   UNL     1      -8.708   3.937  66.146  1.00  0.00    -0.112 NA 
HETATM   16  C   UNL     1      -9.366   3.279  67.281  1.00  0.00    -0.192 C  
HETATM   17  C   UNL     1      -9.681   4.007  65.043  1.00  0.00    -0.195 C  
ENDBRANCH  13  15
ENDBRANCH  12  13
ENDBRANCH   5  12
BRANCH   5  18
HETATM   18  C   UNL     1      -8.154   7.952  68.974  1.00  0.00    -0.124 A  
HETATM   19  C   UNL     1      -7.068   8.273  68.129  1.00  0.00    -0.082 A  
HETATM   20  C   UNL     1      -7.573   9.926  70.311  1.00  0.00    -0.172 A  
HETATM   21  C   UNL     1      -6.556  10.253  69.425  1.00  0.00    -0.058 A  
HETATM   22  C   UNL     1      -6.295   9.420  68.341  1.00  0.00    -0.053 A  
HETATM   23  C   UNL     1      -8.362   8.793  70.087  1.00  0.00    -0.131 A  
ENDBRANCH   5  18
ENDBRANCH   3   5
ENDBRANCH   2   3
TORSDOF 7
ENDMDL
MODEL      168
REMARK 921   NORMALIZED FREE ENERGY PREDICTED BY IDOCK:   -3.32 KCAL/MOL
REMARK 922        TOTAL FREE ENERGY PREDICTED BY IDOCK:   -5.93 KCAL/MOL
REMARK 923 INTER-LIGAND FREE ENERGY PREDICTED BY IDOCK:   -4.94 KCAL/MOL
REMARK 924 INTRA-LIGAND FREE ENERGY PREDICTED BY IDOCK:   -1.00 KCAL/MOL
REMARK 927      BINDING AFFINITY PREDICTED BY RF-SCORE:    0.00 PKD
ROOT
HETATM    1  C   UNL     1      -6.749   8.243  70.876  1.00  0.00    -0.040 C  
HETATM    2  C   UNL     1      -8.236   8.025  70.623  1.00  0.00    -0.114 C  
ENDROOT
BRANCH   2   3
HETATM    3  C   UNL     1      -8.469   7.188  69.372  1.00  0.00    -0.134 C  
HETATM    4  O   UNL     1      -7.479   6.816  68.727  1.00  0.00    -0.091 OA 
BRANCH   3   5
HETATM    5  C   UNL     1      -9.943   6.724  68.996  1.00  0.00    -0.161 C  
BRANCH   5   6
HETATM    6  C   UNL     1     -10.560   6.243  70.370  1.00  0.00    -0.309 A  
HETATM    7  C   UNL     1     -12.234   6.330  72.156  1.00  0.00    -0.255 A  
HETATM    8  C   UNL     1      -9.875   5.276  71.136  1.00  0.00    -0.250 A  
HETATM    9  C   UNL     1     -11.756   6.755  70.910  1.00  0.00    -0.424 A  
HETATM   10  C   UNL     1     -10.350   4.857  72.384  1.00  0.00    -0.262 A  
HETATM   11  C   UNL     1     -11.531   5.385  72.893  1.00  0.00    -0.340 A  
ENDBRANCH   5   6
BRANCH   5  12
HETATM   12  C   UNL     1     -10.800   7.926  68.402  1.00  0.00     0.025 C  
BRANCH  12  13
HETATM   13  C   UNL     1     -10.171   9.304  67.994  1.00  0.00    -0.209 C  
HETATM   14  C   UNL     1     -10.142   9.489  66.469  1.00  0.00    -0.326 C  
BRANCH  13  15
HETATM   15  N   UNL     1     -10.941  10.440  68.612  1.00  0.00    -0.229 NA 
HETATM   16  C   UNL     1     -11.004  10.380  70.078  1.00  0.00    -0.308 C  
HETATM   17  C   UNL     1     -10.404  11.759  68.240  1.00  0.00    -0.206 C  
ENDBRANCH  13  15
ENDBRANCH  12  13
ENDBRANCH   5  12
BRANCH   5  18
HETATM   18  C   UNL     1      -9.967   5.538  67.980  1.00  0.00    -0.189 A  
HETATM   19  C   UNL     1     -10.584   5.705  66.721  1.00  0.00    -0.372 A  
HETATM   20  C   UNL     1      -9.193   3.342  67.204  1.00  0.00    -0.218 A  
HETATM   21  C   UNL     1      -9.752   3.564  65.952  1.00  0.00    -0.049 A  
HETATM   22  C   UNL     1     -10.459   4.740  65.715  1.00  0.00    -0.275 A  
HETATM   23  C   UNL     1      -9.297   4.317  68.202  1.00  0.00    -0.204 A  
ENDBRANCH   5  18
ENDBRANCH   3   5
ENDBRANCH   2   3
TORSDOF 7
ENDMDL
MODEL      169
REMARK 921   NORMALIZED FREE ENERGY PREDICTED BY IDOCK:   -3.25 KCAL/MOL
REMARK 922        TOTAL FREE ENERGY PREDICTED BY IDOCK:   -5.84 KCAL/MOL
REMARK 923 INTER-LIGAND FREE ENERGY PREDICTED BY IDOCK:   -5.09 KCAL/MOL
REMARK 924 INTRA-LIGAND FREE ENERGY PREDICTED BY IDOCK:   -0.74 KCAL/MOL
REMARK 927      BINDING AFFINITY PREDICTED BY RF-SCORE:    0.00 PKD
ROOT
HETATM    1  C   UNL     1     -12.748  12.575  64.359  1.00  0.00    -0.447 C  
HETATM    2  C   UNL     1     -12.305  12.445  65.812  1.00  0.00    -0.106 C  
ENDROOT
BRANCH   2   3
HETATM    3  C   UNL     1     -10.788  12.493  65.936  1.00  0.00    -0.269 C  
HETATM    4  O   UNL     1     -10.129  12.765  64.923  1.00  0.00    -0.274 OA 
BRANCH   3   5
HETATM    5  C   UNL     1     -10.106  12.311  67.361  1.00  0.00    -0.207 C  
BRANCH   5   6
HETATM    6  C   UNL     1      -9.618  10.807  67.368  1.00  0.00    -0.179 A  
HETATM    7  C   UNL     1      -9.813   8.450  66.730  1.00  0.00    -0.329 A  
HETATM    8  C   UNL     1      -8.507  10.443  68.158  1.00  0.00    -0.121 A  
HETATM    9  C   UNL     1     -10.256   9.775  66.651  1.00  0.00    -0.296 A  
HETATM   10  C   UNL     1      -8.069   9.117  68.242  1.00  0.00    -0.104 A  
HETATM   11  C   UNL     1      -8.723   8.120  67.526  1.00  0.00    -0.129 A  
ENDBRANCH   5   6
BRANCH   5  12
HETATM   12  C   UNL     1      -8.865  13.290  67.543  1.00  0.00    -0.206 C  
BRANCH  12  13
HETATM   13  C   UNL     1      -8.736  14.292  68.743  1.00  0.00    -0.096 C  
HETATM   14  C   UNL     1      -7.590  13.902  69.691  1.00  0.00     0.479 C  
BRANCH  13  15
HETATM   15  N   UNL     1      -8.503  15.691  68.240  1.00  0.00    -0.153 NA 
HETATM   16  C   UNL     1      -7.256  15.844  67.482  1.00  0.00    -0.177 C  
HETATM   17  C   UNL     1      -9.605  16.181  67.395  1.00  0.00    -0.229 C  
ENDBRANCH  13  15
ENDBRANCH  12  13
ENDBRANCH   5  12
BRANCH   5  18
HETATM   18  C   UNL     1     -11.101  12.533  68.545  1.00  0.00    -0.297 A  
HETATM   19  C   UNL     1     -11.500  11.437  69.341  1.00  0.00    -0.378 A  
HETATM   20  C   UNL     1     -12.299  13.989  70.115  1.00  0.00    -0.409 A  
HETATM   21  C   UNL     1     -12.619  12.900  70.914  1.00  0.00    -0.355 A  
HETATM   22  C   UNL     1     -12.231  11.622  70.521  1.00  0.00    -0.451 A  
HETATM   23  C   UNL     1     -11.549  13.808  68.948  1.00  0.00    -0.358 A  
ENDBRANCH   5  18
ENDBRANCH   3   5
ENDBRANCH   2   3
TORSDOF 7
ENDMDL
MODEL      170
REMARK 921   NORMALIZED FREE ENERGY PREDICTED BY IDOCK:   -3.24 KCAL/MOL
REMARK 922        TOTAL FREE ENERGY PREDICTED BY IDOCK:   -5.81 KCAL/MOL
REMARK 923 INTER-LIGAND FREE ENERGY PREDICTED BY IDOCK:   -4.97 KCAL/MOL
REMARK 924 INTRA-LIGAND FREE ENERGY PREDICTED BY IDOCK:   -0.85 KCAL/MOL
REMARK 927      BINDING AFFINITY PREDICTED BY RF-SCORE:    0.00 PKD
ROOT
HETATM    1  C   UNL     1      -6.522   9.750  67.525  1.00  0.00    -0.068 C  
HETATM    2  C   UNL     1      -6.763  10.684  66.344  1.00  0.00    -0.124 C  
ENDROOT
BRANCH   2   3
HETATM    3  C   UNL     1      -8.238  10.737  65.970  1.00  0.00    -0.164 C  
HETATM    4  O   UNL     1      -8.610  10.102  64.974  1.00  0.00    -0.150 OA 
BRANCH   3   5
HETATM    5  C   UNL     1      -9.265  11.497  66.916  1.00  0.00    -0.181 C  
BRANCH   5   6
HETATM    6  C   UNL     1      -9.811  10.370  67.881  1.00  0.00    -0.176 A  
HETATM    7  C   UNL     1     -10.611   8.103  68.350  1.00  0.00    -0.148 A  
HETATM    8  C   UNL     1     -10.087  10.686  69.229  1.00  0.00    -0.227 A  
HETATM    9  C   UNL     1     -10.081   9.051  67.467  1.00  0.00    -0.285 A  
HETATM   10  C   UNL     1     -10.622   9.740  70.109  1.00  0.00    -0.337 A  
HETATM   11  C   UNL     1     -10.884   8.447  69.669  1.00  0.00    -0.153 A  
ENDBRANCH   5   6
BRANCH   5  12
HETATM   12  C   UNL     1      -8.546  12.639  67.760  1.00  0.00    -0.179 C  
BRANCH  12  13
HETATM   13  C   UNL     1      -8.012  13.968  67.119  1.00  0.00    -0.059 C  
HETATM   14  C   UNL     1      -9.027  15.114  67.256  1.00  0.00    -0.213 C  
BRANCH  13  15
HETATM   15  N   UNL     1      -6.715  14.380  67.762  1.00  0.00    -0.165 NA 
HETATM   16  C   UNL     1      -6.864  15.451  68.755  1.00  0.00    -0.113 C  
HETATM   17  C   UNL     1      -6.022  13.257  68.414  1.00  0.00    -0.090 C  
ENDBRANCH  13  15
ENDBRANCH  12  13
ENDBRANCH   5  12
BRANCH   5  18
HETATM   18  C   UNL     1     -10.462  12.127  66.135  1.00  0.00    -0.281 A  
HETATM   19  C   UNL     1     -11.595  12.589  66.839  1.00  0.00    -0.436 A  
HETATM   20  C   UNL     1     -11.448  13.092  64.105  1.00  0.00    -0.452 A  
HETATM   21  C   UNL     1     -12.516  13.593  64.837  1.00  0.00    -0.423 A  
HETATM   22  C   UNL     1     -12.597  13.330  66.201  1.00  0.00    -0.208 A  
HETATM   23  C   UNL     1     -10.434  12.371  64.746  1.00  0.00    -0.333 A  
ENDBRANCH   5  18
ENDBRANCH   3   5
ENDBRANCH   2   3
TORSDOF 7
ENDMDL
MODEL      171
REMARK 921   NORMALIZED FREE ENERGY PREDICTED BY IDOCK:   -3.20 KCAL/MOL
REMARK 922        TOTAL FREE ENERGY PREDICTED BY IDOCK:   -5.77 KCAL/MOL
REMARK 923 INTER-LIGAND FREE ENERGY PREDICTED BY IDOCK:   -4.65 KCAL/MOL
REMARK 924 INTRA-LIGAND FREE ENERGY PREDICTED BY IDOCK:   -1.11 KCAL/MOL
REMARK 927      BINDING AFFINITY PREDICTED BY RF-SCORE:    0.00 PKD
ROOT
HETATM    1  C   UNL     1      -6.108  13.142  69.063  1.00  0.00    -0.089 C  
HETATM    2  C   UNL     1      -6.488  13.184  67.587  1.00  0.00    -0.166 C  
ENDROOT
BRANCH   2   3
HETATM    3  C   UNL     1      -7.223  11.919  67.166  1.00  0.00    -0.144 C  
HETATM    4  O   UNL     1      -6.613  10.842  67.232  1.00  0.00    -0.069 OA 
BRANCH   3   5
HETATM    5  C   UNL     1      -8.761  11.993  66.771  1.00  0.00    -0.192 C  
BRANCH   5   6
HETATM    6  C   UNL     1      -9.470  11.016  67.792  1.00  0.00    -0.169 A  
HETATM    7  C   UNL     1     -11.339   9.611  68.523  1.00  0.00     0.106 A  
HETATM    8  C   UNL     1      -8.845  10.727  69.024  1.00  0.00    -0.135 A  
HETATM    9  C   UNL     1     -10.732  10.431  67.565  1.00  0.00    -0.339 A  
HETATM   10  C   UNL     1      -9.456   9.914  69.984  1.00  0.00    -0.246 A  
HETATM   11  C   UNL     1     -10.704   9.355  69.732  1.00  0.00    -0.250 A  
ENDBRANCH   5   6
BRANCH   5  12
HETATM   12  C   UNL     1      -9.335  13.468  66.936  1.00  0.00    -0.255 C  
BRANCH  12  13
HETATM   13  C   UNL     1      -9.918  14.012  68.287  1.00  0.00    -0.236 C  
HETATM   14  C   UNL     1      -9.146  15.245  68.786  1.00  0.00    -0.200 C  
BRANCH  13  15
HETATM   15  N   UNL     1     -11.370  14.373  68.129  1.00  0.00    -0.280 NA 
HETATM   16  C   UNL     1     -11.856  14.268  66.748  1.00  0.00    -0.426 C  
HETATM   17  C   UNL     1     -12.254  13.558  68.979  1.00  0.00    -0.186 C  
ENDBRANCH  13  15
ENDBRANCH  12  13
ENDBRANCH   5  12
BRANCH   5  18
HETATM   18  C   UNL     1      -9.040  11.504  65.314  1.00  0.00    -0.027 A  
HETATM   19  C   UNL     1      -8.354  10.377  64.809  1.00  0.00    -0.157 A  
HETATM   20  C   UNL     1     -10.381  11.492  63.259  1.00  0.00    -0.435 A  
HETATM   21  C   UNL     1      -9.736  10.344  62.820  1.00  0.00    -0.233 A  
HETATM   22  C   UNL     1      -8.713   9.794  63.588  1.00  0.00    -0.235 A  
HETATM   23  C   UNL     1     -10.039  12.062  64.490  1.00  0.00    -0.293 A  
ENDBRANCH   5  18
ENDBRANCH   3   5
ENDBRANCH   2   3
TORSDOF 7
ENDMDL
MODEL      172
REMARK 921   NORMALIZED FREE ENERGY PREDICTED BY IDOCK:   -3.20 KCAL/MOL
REMARK 922        TOTAL FREE ENERGY PREDICTED BY IDOCK:   -5.76 KCAL/MOL
REMARK 923 INTER-LIGAND FREE ENERGY PREDICTED BY IDOCK:   -4.39 KCAL/MOL
REMARK 924 INTRA-LIGAND FREE ENERGY PREDICTED BY IDOCK:   -1.37 KCAL/MOL
REMARK 927      BINDING AFFINITY PREDICTED BY RF-SCORE:    0.00 PKD
ROOT
HETATM    1  C   UNL     1     -11.562   7.962  72.703  1.00  0.00    -0.435 C  
HETATM    2  C   UNL     1     -11.295   6.717  71.864  1.00  0.00    -0.318 C  
ENDROOT
BRANCH   2   3
HETATM    3  C   UNL     1     -10.587   7.066  70.562  1.00  0.00    -0.224 C  
HETATM    4  O   UNL     1     -11.071   7.962  69.857  1.00  0.00    -0.222 OA 
BRANCH   3   5
HETATM    5  C   UNL     1      -9.205   6.366  70.203  1.00  0.00    -0.160 C  
BRANCH   5   6
HETATM    6  C   UNL     1      -9.282   6.137  68.640  1.00  0.00    -0.123 A  
HETATM    7  C   UNL     1     -10.423   5.411  66.598  1.00  0.00    -0.356 A  
HETATM    8  C   UNL     1      -8.145   6.396  67.846  1.00  0.00    -0.115 A  
HETATM    9  C   UNL     1     -10.424   5.643  67.979  1.00  0.00    -0.264 A  
HETATM   10  C   UNL     1      -8.143   6.158  66.467  1.00  0.00    -0.110 A  
HETATM   11  C   UNL     1      -9.284   5.665  65.844  1.00  0.00    -0.145 A  
ENDBRANCH   5   6
BRANCH   5  12
HETATM   12  C   UNL     1      -7.968   7.302  70.558  1.00  0.00    -0.104 C  
BRANCH  12  13
HETATM   13  C   UNL     1      -8.079   8.540  71.515  1.00  0.00    -0.151 C  
HETATM   14  C   UNL     1      -7.275   8.334  72.809  1.00  0.00    -0.136 C  
BRANCH  13  15
HETATM   15  N   UNL     1      -7.591   9.786  70.827  1.00  0.00    -0.304 NA 
HETATM   16  C   UNL     1      -6.133   9.839  70.669  1.00  0.00    -0.088 C  
HETATM   17  C   UNL     1      -8.194   9.972  69.496  1.00  0.00    -0.167 C  
ENDBRANCH  13  15
ENDBRANCH  12  13
ENDBRANCH   5  12
BRANCH   5  18
HETATM   18  C   UNL     1      -9.016   4.989  70.915  1.00  0.00    -0.165 A  
HETATM   19  C   UNL     1      -8.267   4.914  72.110  1.00  0.00    -0.115 A  
HETATM   20  C   UNL     1      -9.605   2.630  71.247  1.00  0.00    -0.226 A  
HETATM   21  C   UNL     1      -8.916   2.606  72.452  1.00  0.00    -0.115 A  
HETATM   22  C   UNL     1      -8.236   3.744  72.878  1.00  0.00    -0.090 A  
HETATM   23  C   UNL     1      -9.656   3.806  70.491  1.00  0.00    -0.262 A  
ENDBRANCH   5  18
ENDBRANCH   3   5
ENDBRANCH   2   3
TORSDOF 7
ENDMDL
MODEL      173
REMARK 921   NORMALIZED FREE ENERGY PREDICTED BY IDOCK:   -3.20 KCAL/MOL
REMARK 922        TOTAL FREE ENERGY PREDICTED BY IDOCK:   -5.76 KCAL/MOL
REMARK 923 INTER-LIGAND FREE ENERGY PREDICTED BY IDOCK:   -5.09 KCAL/MOL
REMARK 924 INTRA-LIGAND FREE ENERGY PREDICTED BY IDOCK:   -0.67 KCAL/MOL
REMARK 927      BINDING AFFINITY PREDICTED BY RF-SCORE:    0.00 PKD
ROOT
HETATM    1  C   UNL     1     -11.119   6.276  69.550  1.00  0.00    -0.476 C  
HETATM    2  C   UNL     1      -9.934   6.916  68.835  1.00  0.00    -0.158 C  
ENDROOT
BRANCH   2   3
HETATM    3  C   UNL     1     -10.383   7.700  67.609  1.00  0.00    -0.237 C  
HETATM    4  O   UNL     1     -11.182   7.159  66.832  1.00  0.00    -0.243 OA 
BRANCH   3   5
HETATM    5  C   UNL     1      -9.915   9.207  67.420  1.00  0.00    -0.262 C  
BRANCH   5   6
HETATM    6  C   UNL     1      -9.368   9.261  65.938  1.00  0.00    -0.297 A  
HETATM    7  C   UNL     1      -9.257  10.226  63.690  1.00  0.00    -0.315 A  
HETATM    8  C   UNL     1      -8.493   8.250  65.486  1.00  0.00    -0.177 A  
HETATM    9  C   UNL     1      -9.732  10.252  65.006  1.00  0.00    -0.370 A  
HETATM   10  C   UNL     1      -8.023   8.221  64.169  1.00  0.00    -0.148 A  
HETATM   11  C   UNL     1      -8.406   9.211  63.270  1.00  0.00    -0.193 A  
ENDBRANCH   5   6
BRANCH   5  12
HETATM   12  C   UNL     1     -11.130  10.221  67.592  1.00  0.00    -0.319 C  
BRANCH  12  13
HETATM   13  C   UNL     1     -10.975  11.638  68.247  1.00  0.00    -0.226 C  
HETATM   14  C   UNL     1     -10.855  12.746  67.187  1.00  0.00    -0.282 C  
BRANCH  13  15
HETATM   15  N   UNL     1     -12.148  11.939  69.140  1.00  0.00    -0.251 NA 
HETATM   16  C   UNL     1     -12.555  10.804  69.978  1.00  0.00    -0.181 C  
HETATM   17  C   UNL     1     -11.905  13.088  70.028  1.00  0.00    -0.285 C  
ENDBRANCH  13  15
ENDBRANCH  12  13
ENDBRANCH   5  12
BRANCH   5  18
HETATM   18  C   UNL     1      -8.774   9.618  68.404  1.00  0.00    -0.120 A  
HETATM   19  C   UNL     1      -8.950   9.446  69.795  1.00  0.00    -0.199 A  
HETATM   20  C   UNL     1      -6.450  10.253  68.873  1.00  0.00    -0.051 A  
HETATM   21  C   UNL     1      -6.635  10.009  70.227  1.00  0.00    -0.127 A  
HETATM   22  C   UNL     1      -7.888   9.619  70.691  1.00  0.00    -0.084 A  
HETATM   23  C   UNL     1      -7.504  10.057  67.974  1.00  0.00    -0.088 A  
ENDBRANCH   5  18
ENDBRANCH   3   5
ENDBRANCH   2   3
TORSDOF 7
ENDMDL
MODEL      174
REMARK 921   NORMALIZED FREE ENERGY PREDICTED BY IDOCK:   -3.20 KCAL/MOL
REMARK 922        TOTAL FREE ENERGY PREDICTED BY IDOCK:   -5.76 KCAL/MOL
REMARK 923 INTER-LIGAND FREE ENERGY PREDICTED BY IDOCK:   -4.85 KCAL/MOL
REMARK 924 INTRA-LIGAND FREE ENERGY PREDICTED BY IDOCK:   -0.91 KCAL/MOL
REMARK 927      BINDING AFFINITY PREDICTED BY RF-SCORE:    0.00 PKD
ROOT
HETATM    1  C   UNL     1      -9.694   4.047  67.945  1.00  0.00    -0.148 C  
HETATM    2  C   UNL     1      -8.920   4.967  68.882  1.00  0.00    -0.127 C  
ENDROOT
BRANCH   2   3
HETATM    3  C   UNL     1      -9.669   6.272  69.121  1.00  0.00    -0.135 C  
HETATM    4  O   UNL     1     -10.209   6.820  68.151  1.00  0.00    -0.156 OA 
BRANCH   3   5
HETATM    5  C   UNL     1      -9.834   6.827  70.602  1.00  0.00    -0.191 C  
BRANCH   5   6
HETATM    6  C   UNL     1      -8.492   7.617  70.872  1.00  0.00    -0.124 A  
HETATM    7  C   UNL     1      -6.776   8.559  72.345  1.00  0.00    -0.090 A  
HETATM    8  C   UNL     1      -7.805   8.206  69.788  1.00  0.00    -0.105 A  
HETATM    9  C   UNL     1      -7.942   7.809  72.155  1.00  0.00    -0.130 A  
HETATM   10  C   UNL     1      -6.642   8.962  69.980  1.00  0.00    -0.042 A  
HETATM   11  C   UNL     1      -6.128   9.137  71.260  1.00  0.00    -0.070 A  
ENDBRANCH   5   6
BRANCH   5  12
HETATM   12  C   UNL     1     -11.080   7.810  70.720  1.00  0.00    -0.265 C  
BRANCH  12  13
HETATM   13  C   UNL     1     -10.931   9.358  70.930  1.00  0.00    -0.320 C  
HETATM   14  C   UNL     1     -10.858  10.110  69.592  1.00  0.00    -0.299 C  
BRANCH  13  15
HETATM   15  N   UNL     1     -12.085   9.895  71.733  1.00  0.00    -0.364 NA 
HETATM   16  C   UNL     1     -12.878  10.905  71.022  1.00  0.00    -0.376 C  
HETATM   17  C   UNL     1     -13.005   8.837  72.183  1.00  0.00    -0.406 C  
ENDBRANCH  13  15
ENDBRANCH  12  13
ENDBRANCH   5  12
BRANCH   5  18
HETATM   18  C   UNL     1      -9.985   5.693  71.665  1.00  0.00    -0.222 A  
HETATM   19  C   UNL     1     -11.151   5.625  72.458  1.00  0.00    -0.327 A  
HETATM   20  C   UNL     1      -9.305   3.550  72.648  1.00  0.00    -0.153 A  
HETATM   21  C   UNL     1     -10.492   3.478  73.364  1.00  0.00    -0.264 A  
HETATM   22  C   UNL     1     -11.409   4.521  73.280  1.00  0.00    -0.364 A  
HETATM   23  C   UNL     1      -9.056   4.641  71.808  1.00  0.00    -0.169 A  
ENDBRANCH   5  18
ENDBRANCH   3   5
ENDBRANCH   2   3
TORSDOF 7
ENDMDL
MODEL      175
REMARK 921   NORMALIZED FREE ENERGY PREDICTED BY IDOCK:   -3.20 KCAL/MOL
REMARK 922        TOTAL FREE ENERGY PREDICTED BY IDOCK:   -5.76 KCAL/MOL
REMARK 923 INTER-LIGAND FREE ENERGY PREDICTED BY IDOCK:   -4.89 KCAL/MOL
REMARK 924 INTRA-LIGAND FREE ENERGY PREDICTED BY IDOCK:   -0.87 KCAL/MOL
REMARK 927      BINDING AFFINITY PREDICTED BY RF-SCORE:    0.00 PKD
ROOT
HETATM    1  C   UNL     1      -6.427   8.064  67.281  1.00  0.00    -0.057 C  
HETATM    2  C   UNL     1      -7.522   8.897  66.625  1.00  0.00    -0.086 C  
ENDROOT
BRANCH   2   3
HETATM    3  C   UNL     1      -7.266  10.388  66.801  1.00  0.00    -0.109 C  
HETATM    4  O   UNL     1      -6.092  10.784  66.779  1.00  0.00    -0.065 OA 
BRANCH   3   5
HETATM    5  C   UNL     1      -8.492  11.395  66.889  1.00  0.00    -0.157 C  
BRANCH   5   6
HETATM    6  C   UNL     1      -9.357  10.848  68.094  1.00  0.00    -0.165 A  
HETATM    7  C   UNL     1     -11.478  10.480  69.263  1.00  0.00    -0.323 A  
HETATM    8  C   UNL     1      -8.709  10.268  69.205  1.00  0.00    -0.176 A  
HETATM    9  C   UNL     1     -10.762  10.936  68.150  1.00  0.00    -0.256 A  
HETATM   10  C   UNL     1      -9.424   9.818  70.320  1.00  0.00    -0.250 A  
HETATM   11  C   UNL     1     -10.811   9.925  70.348  1.00  0.00    -0.380 A  
ENDBRANCH   5   6
BRANCH   5  12
HETATM   12  C   UNL     1      -8.008  12.880  67.194  1.00  0.00    -0.104 C  
BRANCH  12  13
HETATM   13  C   UNL     1      -8.313  13.619  68.544  1.00  0.00    -0.110 C  
HETATM   14  C   UNL     1      -7.024  14.003  69.288  1.00  0.00    -0.084 C  
BRANCH  13  15
HETATM   15  N   UNL     1      -9.125  14.860  68.295  1.00  0.00    -0.174 NA 
HETATM   16  C   UNL     1      -8.887  15.466  66.979  1.00  0.00    -0.228 C  
HETATM   17  C   UNL     1     -10.574  14.627  68.425  1.00  0.00    -0.241 C  
ENDBRANCH  13  15
ENDBRANCH  12  13
ENDBRANCH   5  12
BRANCH   5  18
HETATM   18  C   UNL     1      -9.365  11.407  65.594  1.00  0.00    -0.242 A  
HETATM   19  C   UNL     1     -10.295  12.449  65.383  1.00  0.00    -0.303 A  
HETATM   20  C   UNL     1      -9.877  10.619  63.327  1.00  0.00    -0.364 A  
HETATM   21  C   UNL     1     -10.733  11.693  63.124  1.00  0.00    -0.312 A  
HETATM   22  C   UNL     1     -10.952  12.601  64.156  1.00  0.00    -0.427 A  
HETATM   23  C   UNL     1      -9.201  10.479  64.544  1.00  0.00    -0.278 A  
ENDBRANCH   5  18
ENDBRANCH   3   5
ENDBRANCH   2   3
TORSDOF 7
ENDMDL
MODEL      176
REMARK 921   NORMALIZED FREE ENERGY PREDICTED BY IDOCK:   -3.19 KCAL/MOL
REMARK 922        TOTAL FREE ENERGY PREDICTED BY IDOCK:   -5.75 KCAL/MOL
REMARK 923 INTER-LIGAND FREE ENERGY PREDICTED BY IDOCK:   -4.56 KCAL/MOL
REMARK 924 INTRA-LIGAND FREE ENERGY PREDICTED BY IDOCK:   -1.19 KCAL/MOL
REMARK 927      BINDING AFFINITY PREDICTED BY RF-SCORE:    0.00 PKD
ROOT
HETATM    1  C   UNL     1      -9.898   4.512  66.707  1.00  0.00    -0.242 C  
HETATM    2  C   UNL     1      -9.295   5.887  66.440  1.00  0.00    -0.171 C  
ENDROOT
BRANCH   2   3
HETATM    3  C   UNL     1     -10.038   6.976  67.202  1.00  0.00    -0.217 C  
HETATM    4  O   UNL     1     -11.276   6.985  67.146  1.00  0.00    -0.315 OA 
BRANCH   3   5
HETATM    5  C   UNL     1      -9.230   7.984  68.127  1.00  0.00    -0.134 C  
BRANCH   5   6
HETATM    6  C   UNL     1     -10.060   9.328  68.054  1.00  0.00    -0.234 A  
HETATM    7  C   UNL     1     -10.903  11.308  66.884  1.00  0.00    -0.333 A  
HETATM    8  C   UNL     1     -10.678   9.824  69.222  1.00  0.00    -0.246 A  
HETATM    9  C   UNL     1     -10.197  10.099  66.883  1.00  0.00    -0.295 A  
HETATM   10  C   UNL     1     -11.377  11.036  69.224  1.00  0.00    -0.350 A  
HETATM   11  C   UNL     1     -11.489  11.778  68.053  1.00  0.00    -0.388 A  
ENDBRANCH   5   6
BRANCH   5  12
HETATM   12  C   UNL     1      -9.157   7.467  69.631  1.00  0.00    -0.140 C  
BRANCH  12  13
HETATM   13  C   UNL     1      -9.874   6.160  70.120  1.00  0.00    -0.171 C  
HETATM   14  C   UNL     1      -8.866   5.093  70.575  1.00  0.00    -0.142 C  
BRANCH  13  15
HETATM   15  N   UNL     1     -10.812   6.467  71.257  1.00  0.00    -0.247 NA 
HETATM   16  C   UNL     1     -10.295   7.474  72.192  1.00  0.00    -0.210 C  
HETATM   17  C   UNL     1     -12.134   6.921  70.795  1.00  0.00    -0.349 C  
ENDBRANCH  13  15
ENDBRANCH  12  13
ENDBRANCH   5  12
BRANCH   5  18
HETATM   18  C   UNL     1      -7.778   8.250  67.615  1.00  0.00    -0.099 A  
HETATM   19  C   UNL     1      -7.544   8.443  66.236  1.00  0.00    -0.086 A  
HETATM   20  C   UNL     1      -5.425   8.831  67.999  1.00  0.00    -0.035 A  
HETATM   21  C   UNL     1      -5.244   9.079  66.645  1.00  0.00    -0.038 A  
HETATM   22  C   UNL     1      -6.299   8.872  65.761  1.00  0.00    -0.056 A  
HETATM   23  C   UNL     1      -6.675   8.425  68.477  1.00  0.00    -0.063 A  
ENDBRANCH   5  18
ENDBRANCH   3   5
ENDBRANCH   2   3
TORSDOF 7
ENDMDL
MODEL      177
REMARK 921   NORMALIZED FREE ENERGY PREDICTED BY IDOCK:   -3.18 KCAL/MOL
REMARK 922        TOTAL FREE ENERGY PREDICTED BY IDOCK:   -5.73 KCAL/MOL
REMARK 923 INTER-LIGAND FREE ENERGY PREDICTED BY IDOCK:   -4.93 KCAL/MOL
REMARK 924 INTRA-LIGAND FREE ENERGY PREDICTED BY IDOCK:   -0.80 KCAL/MOL
REMARK 927      BINDING AFFINITY PREDICTED BY RF-SCORE:    0.00 PKD
ROOT
HETATM    1  C   UNL     1      -8.430  11.937  68.332  1.00  0.00    -0.155 C  
HETATM    2  C   UNL     1      -8.936  10.506  68.185  1.00  0.00    -0.138 C  
ENDROOT
BRANCH   2   3
HETATM    3  C   UNL     1      -8.649   9.685  69.435  1.00  0.00    -0.158 C  
HETATM    4  O   UNL     1      -7.778  10.095  70.215  1.00  0.00    -0.184 OA 
BRANCH   3   5
HETATM    5  C   UNL     1      -9.539   8.409  69.763  1.00  0.00    -0.170 C  
BRANCH   5   6
HETATM    6  C   UNL     1      -8.862   7.783  71.047  1.00  0.00    -0.145 A  
HETATM    7  C   UNL     1      -7.492   6.105  72.190  1.00  0.00    -0.095 A  
HETATM    8  C   UNL     1      -9.121   8.351  72.313  1.00  0.00    -0.313 A  
HETATM    9  C   UNL     1      -8.027   6.649  71.016  1.00  0.00    -0.107 A  
HETATM   10  C   UNL     1      -8.591   7.803  73.486  1.00  0.00    -0.279 A  
HETATM   11  C   UNL     1      -7.775   6.679  73.423  1.00  0.00    -0.090 A  
ENDBRANCH   5   6
BRANCH   5  12
HETATM   12  C   UNL     1     -11.045   8.813  70.080  1.00  0.00    -0.214 C  
BRANCH  12  13
HETATM   13  C   UNL     1     -11.430   9.960  71.079  1.00  0.00    -0.388 C  
HETATM   14  C   UNL     1     -11.966  11.199  70.344  1.00  0.00    -0.469 C  
BRANCH  13  15
HETATM   15  N   UNL     1     -12.468   9.482  72.058  1.00  0.00    -0.367 NA 
HETATM   16  C   UNL     1     -13.742  10.204  71.965  1.00  0.00    -0.111 C  
HETATM   17  C   UNL     1     -12.756   8.044  71.923  1.00  0.00    -0.327 C  
ENDBRANCH  13  15
ENDBRANCH  12  13
ENDBRANCH   5  12
BRANCH   5  18
HETATM   18  C   UNL     1      -9.533   7.351  68.613  1.00  0.00    -0.139 A  
HETATM   19  C   UNL     1     -10.726   6.678  68.272  1.00  0.00    -0.317 A  
HETATM   20  C   UNL     1      -8.484   6.276  66.673  1.00  0.00    -0.114 A  
HETATM   21  C   UNL     1      -9.689   5.682  66.324  1.00  0.00    -0.162 A  
HETATM   22  C   UNL     1     -10.807   5.872  67.130  1.00  0.00    -0.373 A  
HETATM   23  C   UNL     1      -8.408   7.101  67.800  1.00  0.00    -0.118 A  
ENDBRANCH   5  18
ENDBRANCH   3   5
ENDBRANCH   2   3
TORSDOF 7
ENDMDL
MODEL      178
REMARK 921   NORMALIZED FREE ENERGY PREDICTED BY IDOCK:   -3.16 KCAL/MOL
REMARK 922        TOTAL FREE ENERGY PREDICTED BY IDOCK:   -5.71 KCAL/MOL
REMARK 923 INTER-LIGAND FREE ENERGY PREDICTED BY IDOCK:   -5.14 KCAL/MOL
REMARK 924 INTRA-LIGAND FREE ENERGY PREDICTED BY IDOCK:   -0.57 KCAL/MOL
REMARK 927      BINDING AFFINITY PREDICTED BY RF-SCORE:    0.00 PKD
ROOT
HETATM    1  C   UNL     1      -5.996   8.334  70.629  1.00  0.00    -0.032 C  
HETATM    2  C   UNL     1      -7.230   9.198  70.398  1.00  0.00    -0.084 C  
ENDROOT
BRANCH   2   3
HETATM    3  C   UNL     1      -8.407   8.722  71.239  1.00  0.00    -0.176 C  
HETATM    4  O   UNL     1      -8.302   8.777  72.472  1.00  0.00    -0.398 OA 
BRANCH   3   5
HETATM    5  C   UNL     1      -9.759   8.284  70.528  1.00  0.00    -0.185 C  
BRANCH   5   6
HETATM    6  C   UNL     1      -9.489   6.797  70.063  1.00  0.00    -0.158 A  
HETATM    7  C   UNL     1      -9.677   4.367  70.314  1.00  0.00    -0.281 A  
HETATM    8  C   UNL     1      -8.677   6.561  68.933  1.00  0.00    -0.127 A  
HETATM    9  C   UNL     1      -9.986   5.665  70.738  1.00  0.00    -0.254 A  
HETATM   10  C   UNL     1      -8.362   5.264  68.513  1.00  0.00    -0.089 A  
HETATM   11  C   UNL     1      -8.863   4.167  69.205  1.00  0.00    -0.142 A  
ENDBRANCH   5   6
BRANCH   5  12
HETATM   12  C   UNL     1     -10.990   8.326  71.537  1.00  0.00    -0.312 C  
BRANCH  12  13
HETATM   13  C   UNL     1     -12.454   7.950  71.116  1.00  0.00    -0.203 C  
HETATM   14  C   UNL     1     -12.976   6.732  71.895  1.00  0.00    -0.229 C  
BRANCH  13  15
HETATM   15  N   UNL     1     -13.383   9.112  71.340  1.00  0.00    -0.332 NA 
HETATM   16  C   UNL     1     -14.371   8.880  72.400  1.00  0.00    -0.300 C  
HETATM   17  C   UNL     1     -12.667  10.358  71.659  1.00  0.00    -0.455 C  
ENDBRANCH  13  15
ENDBRANCH  12  13
ENDBRANCH   5  12
BRANCH   5  18
HETATM   18  C   UNL     1     -10.102   9.157  69.279  1.00  0.00    -0.196 A  
HETATM   19  C   UNL     1      -9.929  10.558  69.334  1.00  0.00    -0.220 A  
HETATM   20  C   UNL     1     -10.608   9.408  66.891  1.00  0.00    -0.238 A  
HETATM   21  C   UNL     1     -10.364  10.773  66.961  1.00  0.00    -0.275 A  
HETATM   22  C   UNL     1     -10.038  11.350  68.184  1.00  0.00    -0.200 A  
HETATM   23  C   UNL     1     -10.476   8.611  68.034  1.00  0.00    -0.254 A  
ENDBRANCH   5  18
ENDBRANCH   3   5
ENDBRANCH   2   3
TORSDOF 7
ENDMDL
MODEL      179
REMARK 921   NORMALIZED FREE ENERGY PREDICTED BY IDOCK:   -3.15 KCAL/MOL
REMARK 922        TOTAL FREE ENERGY PREDICTED BY IDOCK:   -5.70 KCAL/MOL
REMARK 923 INTER-LIGAND FREE ENERGY PREDICTED BY IDOCK:   -4.72 KCAL/MOL
REMARK 924 INTRA-LIGAND FREE ENERGY PREDICTED BY IDOCK:   -0.98 KCAL/MOL
REMARK 927      BINDING AFFINITY PREDICTED BY RF-SCORE:    0.00 PKD
ROOT
HETATM    1  C   UNL     1     -11.931  10.644  69.192  1.00  0.00    -0.230 C  
HETATM    2  C   UNL     1     -11.129   9.920  70.267  1.00  0.00    -0.368 C  
ENDROOT
BRANCH   2   3
HETATM    3  C   UNL     1      -9.723   9.592  69.783  1.00  0.00    -0.214 C  
HETATM    4  O   UNL     1      -9.065  10.495  69.248  1.00  0.00    -0.189 OA 
BRANCH   3   5
HETATM    5  C   UNL     1      -9.101   8.159  70.076  1.00  0.00    -0.151 C  
BRANCH   5   6
HETATM    6  C   UNL     1      -9.303   7.364  68.725  1.00  0.00    -0.144 A  
HETATM    7  C   UNL     1     -10.670   6.535  66.868  1.00  0.00    -0.403 A  
HETATM    8  C   UNL     1      -8.220   6.646  68.175  1.00  0.00    -0.114 A  
HETATM    9  C   UNL     1     -10.531   7.293  68.037  1.00  0.00    -0.249 A  
HETATM   10  C   UNL     1      -8.361   5.883  67.010  1.00  0.00    -0.105 A  
HETATM   11  C   UNL     1      -9.588   5.828  66.357  1.00  0.00    -0.175 A  
ENDBRANCH   5   6
BRANCH   5  12
HETATM   12  C   UNL     1      -7.551   8.255  70.427  1.00  0.00    -0.075 C  
BRANCH  12  13
HETATM   13  C   UNL     1      -6.961   7.823  71.816  1.00  0.00    -0.064 C  
HETATM   14  C   UNL     1      -5.896   6.725  71.665  1.00  0.00    -0.037 C  
BRANCH  13  15
HETATM   15  N   UNL     1      -6.352   9.005  72.521  1.00  0.00    -0.280 NA 
HETATM   16  C   UNL     1      -6.019   8.745  73.927  1.00  0.00    -0.103 C  
HETATM   17  C   UNL     1      -5.135   9.498  71.855  1.00  0.00    -0.073 C  
ENDBRANCH  13  15
ENDBRANCH  12  13
ENDBRANCH   5  12
BRANCH   5  18
HETATM   18  C   UNL     1      -9.832   7.402  71.231  1.00  0.00    -0.182 A  
HETATM   19  C   UNL     1     -10.172   6.040  71.073  1.00  0.00    -0.253 A  
HETATM   20  C   UNL     1     -10.581   7.221  73.561  1.00  0.00    -0.408 A  
HETATM   21  C   UNL     1     -10.841   5.868  73.394  1.00  0.00    -0.275 A  
HETATM   22  C   UNL     1     -10.649   5.280  72.147  1.00  0.00    -0.281 A  
HETATM   23  C   UNL     1     -10.082   7.977  72.494  1.00  0.00    -0.346 A  
ENDBRANCH   5  18
ENDBRANCH   3   5
ENDBRANCH   2   3
TORSDOF 7
ENDMDL
MODEL      180
REMARK 921   NORMALIZED FREE ENERGY PREDICTED BY IDOCK:   -3.15 KCAL/MOL
REMARK 922        TOTAL FREE ENERGY PREDICTED BY IDOCK:   -5.69 KCAL/MOL
REMARK 923 INTER-LIGAND FREE ENERGY PREDICTED BY IDOCK:   -4.49 KCAL/MOL
REMARK 924 INTRA-LIGAND FREE ENERGY PREDICTED BY IDOCK:   -1.19 KCAL/MOL
REMARK 927      BINDING AFFINITY PREDICTED BY RF-SCORE:    0.00 PKD
ROOT
HETATM    1  C   UNL     1     -13.040   8.802  71.678  1.00  0.00    -0.394 C  
HETATM    2  C   UNL     1     -11.625   8.684  72.232  1.00  0.00    -0.424 C  
ENDROOT
BRANCH   2   3
HETATM    3  C   UNL     1     -10.586   9.067  71.187  1.00  0.00    -0.290 C  
HETATM    4  O   UNL     1     -10.686  10.177  70.645  1.00  0.00    -0.297 OA 
BRANCH   3   5
HETATM    5  C   UNL     1      -9.355   8.101  70.906  1.00  0.00    -0.173 C  
BRANCH   5   6
HETATM    6  C   UNL     1      -8.122   9.078  70.757  1.00  0.00    -0.194 A  
HETATM    7  C   UNL     1      -6.903  10.897  69.657  1.00  0.00    -0.137 A  
HETATM    8  C   UNL     1      -7.010   8.927  71.613  1.00  0.00    -0.058 A  
HETATM    9  C   UNL     1      -8.040  10.089  69.779  1.00  0.00    -0.188 A  
HETATM   10  C   UNL     1      -5.871   9.730  71.486  1.00  0.00     0.008 A  
HETATM   11  C   UNL     1      -5.819  10.716  70.507  1.00  0.00    -0.116 A  
ENDBRANCH   5   6
BRANCH   5  12
HETATM   12  C   UNL     1      -9.114   7.097  72.117  1.00  0.00    -0.143 C  
BRANCH  12  13
HETATM   13  C   UNL     1      -9.545   5.589  72.076  1.00  0.00    -0.151 C  
HETATM   14  C   UNL     1      -8.332   4.651  71.981  1.00  0.00    -0.117 C  
BRANCH  13  15
HETATM   15  N   UNL     1     -10.345   5.235  73.300  1.00  0.00    -0.191 NA 
HETATM   16  C   UNL     1     -10.190   6.192  74.403  1.00  0.00    -0.316 C  
HETATM   17  C   UNL     1     -11.785   5.104  73.020  1.00  0.00    -0.150 C  
ENDBRANCH  13  15
ENDBRANCH  12  13
ENDBRANCH   5  12
BRANCH   5  18
HETATM   18  C   UNL     1      -9.517   7.274  69.591  1.00  0.00    -0.155 A  
HETATM   19  C   UNL     1      -8.381   6.704  68.976  1.00  0.00    -0.120 A  
HETATM   20  C   UNL     1     -10.892   6.076  67.948  1.00  0.00    -0.378 A  
HETATM   21  C   UNL     1      -9.761   5.477  67.409  1.00  0.00    -0.147 A  
HETATM   22  C   UNL     1      -8.505   5.801  67.913  1.00  0.00    -0.103 A  
HETATM   23  C   UNL     1     -10.771   6.960  69.026  1.00  0.00    -0.259 A  
ENDBRANCH   5  18
ENDBRANCH   3   5
ENDBRANCH   2   3
TORSDOF 7
ENDMDL
MODEL      181
REMARK 921   NORMALIZED FREE ENERGY PREDICTED BY IDOCK:   -3.14 KCAL/MOL
REMARK 922        TOTAL FREE ENERGY PREDICTED BY IDOCK:   -5.68 KCAL/MOL
REMARK 923 INTER-LIGAND FREE ENERGY PREDICTED BY IDOCK:   -5.40 KCAL/MOL
REMARK 924 INTRA-LIGAND FREE ENERGY PREDICTED BY IDOCK:   -0.29 KCAL/MOL
REMARK 927      BINDING AFFINITY PREDICTED BY RF-SCORE:    0.00 PKD
ROOT
HETATM    1  C   UNL     1     -10.840   5.615  69.232  1.00  0.00    -0.309 C  
HETATM    2  C   UNL     1      -9.757   6.672  69.419  1.00  0.00    -0.153 C  
ENDROOT
BRANCH   2   3
HETATM    3  C   UNL     1     -10.131   7.979  68.734  1.00  0.00    -0.195 C  
HETATM    4  O   UNL     1     -10.758   7.918  67.667  1.00  0.00    -0.221 OA 
BRANCH   3   5
HETATM    5  C   UNL     1      -9.817   9.364  69.448  1.00  0.00    -0.183 C  
BRANCH   5   6
HETATM    6  C   UNL     1     -10.011  10.441  68.308  1.00  0.00    -0.168 A  
HETATM    7  C   UNL     1     -11.170  12.337  67.275  1.00  0.00    -0.358 A  
HETATM    8  C   UNL     1      -9.177  10.404  67.170  1.00  0.00    -0.159 A  
HETATM    9  C   UNL     1     -11.008  11.436  68.335  1.00  0.00    -0.263 A  
HETATM   10  C   UNL     1      -9.343  11.300  66.108  1.00  0.00    -0.230 A  
HETATM   11  C   UNL     1     -10.340  12.267  66.162  1.00  0.00    -0.269 A  
ENDBRANCH   5   6
BRANCH   5  12
HETATM   12  C   UNL     1     -10.828   9.645  70.645  1.00  0.00    -0.386 C  
BRANCH  12  13
HETATM   13  C   UNL     1     -11.939   8.627  71.083  1.00  0.00    -0.279 C  
HETATM   14  C   UNL     1     -11.586   7.934  72.409  1.00  0.00    -0.436 C  
BRANCH  13  15
HETATM   15  N   UNL     1     -13.265   9.323  71.230  1.00  0.00    -0.301 NA 
HETATM   16  C   UNL     1     -14.166   8.677  72.191  1.00  0.00    -0.439 C  
HETATM   17  C   UNL     1     -13.124  10.735  71.626  1.00  0.00    -0.446 C  
ENDBRANCH  13  15
ENDBRANCH  12  13
ENDBRANCH   5  12
BRANCH   5  18
HETATM   18  C   UNL     1      -8.356   9.450  69.993  1.00  0.00    -0.190 A  
HETATM   19  C   UNL     1      -7.771   8.326  70.615  1.00  0.00    -0.083 A  
HETATM   20  C   UNL     1      -6.169  10.554  70.145  1.00  0.00    -0.117 A  
HETATM   21  C   UNL     1      -5.606   9.409  70.692  1.00  0.00    -0.045 A  
HETATM   22  C   UNL     1      -6.409   8.300  70.940  1.00  0.00    -0.037 A  
HETATM   23  C   UNL     1      -7.525  10.573  69.798  1.00  0.00    -0.127 A  
ENDBRANCH   5  18
ENDBRANCH   3   5
ENDBRANCH   2   3
TORSDOF 7
ENDMDL
MODEL      182
REMARK 921   NORMALIZED FREE ENERGY PREDICTED BY IDOCK:   -3.13 KCAL/MOL
REMARK 922        TOTAL FREE ENERGY PREDICTED BY IDOCK:   -5.66 KCAL/MOL
REMARK 923 INTER-LIGAND FREE ENERGY PREDICTED BY IDOCK:   -5.82 KCAL/MOL
REMARK 924 INTRA-LIGAND FREE ENERGY PREDICTED BY IDOCK:    0.16 KCAL/MOL
REMARK 927      BINDING AFFINITY PREDICTED BY RF-SCORE:    0.00 PKD
ROOT
HETATM    1  C   UNL     1     -10.744   7.071  66.986  1.00  0.00    -0.423 C  
HETATM    2  C   UNL     1      -9.661   7.986  67.546  1.00  0.00    -0.206 C  
ENDROOT
BRANCH   2   3
HETATM    3  C   UNL     1      -9.686   9.352  66.874  1.00  0.00    -0.186 C  
HETATM    4  O   UNL     1      -9.973   9.404  65.670  1.00  0.00    -0.304 OA 
BRANCH   3   5
HETATM    5  C   UNL     1      -9.462  10.664  67.743  1.00  0.00    -0.165 C  
BRANCH   5   6
HETATM    6  C   UNL     1     -10.136  10.327  69.134  1.00  0.00    -0.232 A  
HETATM    7  C   UNL     1     -10.137   9.321  71.367  1.00  0.00    -0.348 A  
HETATM    8  C   UNL     1     -11.480  10.692  69.358  1.00  0.00    -0.356 A  
HETATM    9  C   UNL     1      -9.479   9.638  70.173  1.00  0.00    -0.298 A  
HETATM   10  C   UNL     1     -12.139  10.369  70.550  1.00  0.00    -0.423 A  
HETATM   11  C   UNL     1     -11.466   9.683  71.555  1.00  0.00    -0.439 A  
ENDBRANCH   5   6
BRANCH   5  12
HETATM   12  C   UNL     1      -7.914  10.973  67.946  1.00  0.00    -0.112 C  
BRANCH  12  13
HETATM   13  C   UNL     1      -7.352  11.741  69.193  1.00  0.00    -0.005 C  
HETATM   14  C   UNL     1      -6.496  10.829  70.086  1.00  0.00    -0.155 C  
BRANCH  13  15
HETATM   15  N   UNL     1      -6.524  12.920  68.758  1.00  0.00    -0.079 NA 
HETATM   16  C   UNL     1      -5.341  13.150  69.595  1.00  0.00    -0.086 C  
HETATM   17  C   UNL     1      -6.071  12.811  67.361  1.00  0.00    -0.119 C  
ENDBRANCH  13  15
ENDBRANCH  12  13
ENDBRANCH   5  12
BRANCH   5  18
HETATM   18  C   UNL     1     -10.152  11.925  67.132  1.00  0.00    -0.222 A  
HETATM   19  C   UNL     1     -11.415  11.804  66.514  1.00  0.00    -0.325 A  
HETATM   20  C   UNL     1     -10.353  14.355  66.852  1.00  0.00    -0.265 A  
HETATM   21  C   UNL     1     -11.623  14.208  66.311  1.00  0.00    -0.379 A  
HETATM   22  C   UNL     1     -12.149  12.932  66.128  1.00  0.00    -0.458 A  
HETATM   23  C   UNL     1      -9.629  13.229  67.260  1.00  0.00    -0.234 A  
ENDBRANCH   5  18
ENDBRANCH   3   5
ENDBRANCH   2   3
TORSDOF 7
ENDMDL
MODEL      183
REMARK 921   NORMALIZED FREE ENERGY PREDICTED BY IDOCK:   -3.07 KCAL/MOL
REMARK 922        TOTAL FREE ENERGY PREDICTED BY IDOCK:   -5.59 KCAL/MOL
REMARK 923 INTER-LIGAND FREE ENERGY PREDICTED BY IDOCK:   -5.00 KCAL/MOL
REMARK 924 INTRA-LIGAND FREE ENERGY PREDICTED BY IDOCK:   -0.59 KCAL/MOL
REMARK 927      BINDING AFFINITY PREDICTED BY RF-SCORE:    0.00 PKD
ROOT
HETATM    1  C   UNL     1     -12.214  10.581  70.233  1.00  0.00    -0.393 C  
HETATM    2  C   UNL     1     -10.950  10.928  69.455  1.00  0.00    -0.304 C  
ENDROOT
BRANCH   2   3
HETATM    3  C   UNL     1     -10.626   9.862  68.417  1.00  0.00    -0.222 C  
HETATM    4  O   UNL     1     -11.045   8.713  68.612  1.00  0.00     0.087 OA 
BRANCH   3   5
HETATM    5  C   UNL     1      -9.874  10.268  67.077  1.00  0.00    -0.238 C  
BRANCH   5   6
HETATM    6  C   UNL     1      -8.614  11.085  67.572  1.00  0.00    -0.128 A  
HETATM    7  C   UNL     1      -6.729  11.478  69.087  1.00  0.00    -0.108 A  
HETATM    8  C   UNL     1      -8.280  12.298  66.932  1.00  0.00    -0.112 A  
HETATM    9  C   UNL     1      -7.805  10.692  68.657  1.00  0.00    -0.121 A  
HETATM   10  C   UNL     1      -7.209  13.086  67.367  1.00  0.00    -0.123 A  
HETATM   11  C   UNL     1      -6.433  12.674  68.445  1.00  0.00    -0.078 A  
ENDBRANCH   5   6
BRANCH   5  12
HETATM   12  C   UNL     1      -9.407   8.985  66.259  1.00  0.00    -0.284 C  
BRANCH  12  13
HETATM   13  C   UNL     1      -8.563   7.825  66.895  1.00  0.00    -0.130 C  
HETATM   14  C   UNL     1      -9.116   6.443  66.515  1.00  0.00    -0.162 C  
BRANCH  13  15
HETATM   15  N   UNL     1      -7.126   7.917  66.459  1.00  0.00    -0.074 NA 
HETATM   16  C   UNL     1      -6.349   6.701  66.730  1.00  0.00    -0.042 C  
HETATM   17  C   UNL     1      -6.986   8.229  65.027  1.00  0.00    -0.074 C  
ENDBRANCH  13  15
ENDBRANCH  12  13
ENDBRANCH   5  12
BRANCH   5  18
HETATM   18  C   UNL     1     -10.738  11.174  66.143  1.00  0.00    -0.285 A  
HETATM   19  C   UNL     1     -11.456  12.261  66.688  1.00  0.00    -0.431 A  
HETATM   20  C   UNL     1     -11.404  11.970  63.920  1.00  0.00    -0.503 A  
HETATM   21  C   UNL     1     -12.044  13.067  64.481  1.00  0.00    -0.468 A  
HETATM   22  C   UNL     1     -12.082  13.205  65.866  1.00  0.00    -0.501 A  
HETATM   23  C   UNL     1     -10.758  11.038  64.739  1.00  0.00    -0.304 A  
ENDBRANCH   5  18
ENDBRANCH   3   5
ENDBRANCH   2   3
TORSDOF 7
ENDMDL
MODEL      184
REMARK 921   NORMALIZED FREE ENERGY PREDICTED BY IDOCK:   -3.07 KCAL/MOL
REMARK 922        TOTAL FREE ENERGY PREDICTED BY IDOCK:   -5.58 KCAL/MOL
REMARK 923 INTER-LIGAND FREE ENERGY PREDICTED BY IDOCK:   -4.74 KCAL/MOL
REMARK 924 INTRA-LIGAND FREE ENERGY PREDICTED BY IDOCK:   -0.84 KCAL/MOL
REMARK 927      BINDING AFFINITY PREDICTED BY RF-SCORE:    0.00 PKD
ROOT
HETATM    1  C   UNL     1      -6.022  11.350  69.756  1.00  0.00    -0.112 C  
HETATM    2  C   UNL     1      -7.419  10.990  69.262  1.00  0.00    -0.100 C  
ENDROOT
BRANCH   2   3
HETATM    3  C   UNL     1      -7.597   9.481  69.151  1.00  0.00    -0.075 C  
HETATM    4  O   UNL     1      -6.636   8.758  69.451  1.00  0.00    -0.044 OA 
BRANCH   3   5
HETATM    5  C   UNL     1      -9.019   8.880  68.774  1.00  0.00    -0.134 C  
BRANCH   5   6
HETATM    6  C   UNL     1      -8.767   8.109  67.417  1.00  0.00    -0.124 A  
HETATM    7  C   UNL     1      -9.009   6.178  65.930  1.00  0.00    -0.133 A  
HETATM    8  C   UNL     1      -7.930   8.687  66.438  1.00  0.00    -0.099 A  
HETATM    9  C   UNL     1      -9.303   6.839  67.128  1.00  0.00    -0.154 A  
HETATM   10  C   UNL     1      -7.631   8.023  65.243  1.00  0.00    -0.085 A  
HETATM   11  C   UNL     1      -8.172   6.767  64.990  1.00  0.00    -0.096 A  
ENDBRANCH   5   6
BRANCH   5  12
HETATM   12  C   UNL     1      -9.539   7.869  69.889  1.00  0.00    -0.168 C  
BRANCH  12  13
HETATM   13  C   UNL     1     -11.053   7.729  70.276  1.00  0.00    -0.234 C  
HETATM   14  C   UNL     1     -11.636   6.381  69.820  1.00  0.00    -0.397 C  
BRANCH  13  15
HETATM   15  N   UNL     1     -11.231   7.863  71.764  1.00  0.00    -0.251 NA 
HETATM   16  C   UNL     1     -10.033   8.349  72.460  1.00  0.00    -0.285 C  
HETATM   17  C   UNL     1     -12.349   8.752  72.124  1.00  0.00    -0.389 C  
ENDBRANCH  13  15
ENDBRANCH  12  13
ENDBRANCH   5  12
BRANCH   5  18
HETATM   18  C   UNL     1     -10.105   9.979  68.547  1.00  0.00    -0.187 A  
HETATM   19  C   UNL     1     -10.609  10.707  69.647  1.00  0.00    -0.260 A  
HETATM   20  C   UNL     1     -11.385  11.481  67.088  1.00  0.00    -0.354 A  
HETATM   21  C   UNL     1     -11.810  12.218  68.185  1.00  0.00    -0.372 A  
HETATM   22  C   UNL     1     -11.433  11.824  69.465  1.00  0.00    -0.363 A  
HETATM   23  C   UNL     1     -10.543  10.378  67.267  1.00  0.00    -0.322 A  
ENDBRANCH   5  18
ENDBRANCH   3   5
ENDBRANCH   2   3
TORSDOF 7
ENDMDL
MODEL      185
REMARK 921   NORMALIZED FREE ENERGY PREDICTED BY IDOCK:   -3.05 KCAL/MOL
REMARK 922        TOTAL FREE ENERGY PREDICTED BY IDOCK:   -5.55 KCAL/MOL
REMARK 923 INTER-LIGAND FREE ENERGY PREDICTED BY IDOCK:   -4.72 KCAL/MOL
REMARK 924 INTRA-LIGAND FREE ENERGY PREDICTED BY IDOCK:   -0.83 KCAL/MOL
REMARK 927      BINDING AFFINITY PREDICTED BY RF-SCORE:    0.00 PKD
ROOT
HETATM    1  C   UNL     1      -9.178   9.401  65.482  1.00  0.00    -0.292 C  
HETATM    2  C   UNL     1      -9.969   8.445  66.367  1.00  0.00    -0.291 C  
ENDROOT
BRANCH   2   3
HETATM    3  C   UNL     1     -10.251   9.057  67.733  1.00  0.00    -0.230 C  
HETATM    4  O   UNL     1     -11.063   9.990  67.797  1.00  0.00    -0.286 OA 
BRANCH   3   5
HETATM    5  C   UNL     1      -9.595   8.420  69.033  1.00  0.00    -0.160 C  
BRANCH   5   6
HETATM    6  C   UNL     1     -10.772   8.396  70.089  1.00  0.00    -0.238 A  
HETATM    7  C   UNL     1     -12.600   7.294  71.290  1.00  0.00    -0.402 A  
HETATM    8  C   UNL     1     -11.124   9.587  70.760  1.00  0.00    -0.390 A  
HETATM    9  C   UNL     1     -11.535   7.249  70.382  1.00  0.00    -0.279 A  
HETATM   10  C   UNL     1     -12.192   9.632  71.663  1.00  0.00    -0.484 A  
HETATM   11  C   UNL     1     -12.930   8.484  71.927  1.00  0.00    -0.394 A  
ENDBRANCH   5   6
BRANCH   5  12
HETATM   12  C   UNL     1      -9.076   6.940  68.760  1.00  0.00    -0.133 C  
BRANCH  12  13
HETATM   13  C   UNL     1      -7.986   6.602  67.683  1.00  0.00    -0.115 C  
HETATM   14  C   UNL     1      -6.564   6.847  68.215  1.00  0.00    -0.058 C  
BRANCH  13  15
HETATM   15  N   UNL     1      -8.105   5.169  67.243  1.00  0.00    -0.103 NA 
HETATM   16  C   UNL     1      -8.627   4.274  68.283  1.00  0.00    -0.095 C  
HETATM   17  C   UNL     1      -8.953   5.010  66.049  1.00  0.00    -0.136 C  
ENDBRANCH  13  15
ENDBRANCH  12  13
ENDBRANCH   5  12
BRANCH   5  18
HETATM   18  C   UNL     1      -8.415   9.271  69.600  1.00  0.00    -0.140 A  
HETATM   19  C   UNL     1      -7.750   8.855  70.774  1.00  0.00    -0.126 A  
HETATM   20  C   UNL     1      -6.721  11.033  69.379  1.00  0.00    -0.112 A  
HETATM   21  C   UNL     1      -6.051  10.559  70.498  1.00  0.00    -0.118 A  
HETATM   22  C   UNL     1      -6.572   9.478  71.204  1.00  0.00    -0.027 A  
HETATM   23  C   UNL     1      -7.885  10.397  68.935  1.00  0.00    -0.115 A  
ENDBRANCH   5  18
ENDBRANCH   3   5
ENDBRANCH   2   3
TORSDOF 7
ENDMDL
MODEL      186
REMARK 921   NORMALIZED FREE ENERGY PREDICTED BY IDOCK:   -3.00 KCAL/MOL
REMARK 922        TOTAL FREE ENERGY PREDICTED BY IDOCK:   -5.48 KCAL/MOL
REMARK 923 INTER-LIGAND FREE ENERGY PREDICTED BY IDOCK:   -4.47 KCAL/MOL
REMARK 924 INTRA-LIGAND FREE ENERGY PREDICTED BY IDOCK:   -1.01 KCAL/MOL
REMARK 927      BINDING AFFINITY PREDICTED BY RF-SCORE:    0.00 PKD
ROOT
HETATM    1  C   UNL     1      -9.653   4.232  67.910  1.00  0.00    -0.207 C  
HETATM    2  C   UNL     1      -9.279   5.237  68.994  1.00  0.00    -0.152 C  
ENDROOT
BRANCH   2   3
HETATM    3  C   UNL     1     -10.244   6.415  69.015  1.00  0.00    -0.183 C  
HETATM    4  O   UNL     1     -11.400   6.228  68.610  1.00  0.00    -0.337 OA 
BRANCH   3   5
HETATM    5  C   UNL     1      -9.788   7.798  69.653  1.00  0.00    -0.182 C  
BRANCH   5   6
HETATM    6  C   UNL     1      -8.696   8.346  68.650  1.00  0.00    -0.133 A  
HETATM    7  C   UNL     1      -6.656   9.594  68.118  1.00  0.00    -0.061 A  
HETATM    8  C   UNL     1      -8.854   8.125  67.265  1.00  0.00    -0.136 A  
HETATM    9  C   UNL     1      -7.569   9.089  69.052  1.00  0.00    -0.078 A  
HETATM   10  C   UNL     1      -7.946   8.636  66.331  1.00  0.00    -0.099 A  
HETATM   11  C   UNL     1      -6.846   9.371  66.760  1.00  0.00    -0.080 A  
ENDBRANCH   5   6
BRANCH   5  12
HETATM   12  C   UNL     1     -11.002   8.822  69.753  1.00  0.00    -0.146 C  
BRANCH  12  13
HETATM   13  C   UNL     1     -10.865  10.346  69.406  1.00  0.00    -0.248 C  
HETATM   14  C   UNL     1     -11.441  10.669  68.018  1.00  0.00    -0.289 C  
BRANCH  13  15
HETATM   15  N   UNL     1     -11.566  11.188  70.437  1.00  0.00    -0.300 NA 
HETATM   16  C   UNL     1     -11.932  12.526  69.956  1.00  0.00    -0.299 C  
HETATM   17  C   UNL     1     -12.787  10.549  70.956  1.00  0.00    -0.407 C  
ENDBRANCH  13  15
ENDBRANCH  12  13
ENDBRANCH   5  12
BRANCH   5  18
HETATM   18  C   UNL     1      -9.149   7.634  71.069  1.00  0.00    -0.150 A  
HETATM   19  C   UNL     1      -9.806   8.162  72.201  1.00  0.00    -0.313 A  
HETATM   20  C   UNL     1      -7.533   6.606  72.603  1.00  0.00    -0.092 A  
HETATM   21  C   UNL     1      -8.240   7.082  73.699  1.00  0.00    -0.134 A  
HETATM   22  C   UNL     1      -9.369   7.871  73.499  1.00  0.00    -0.333 A  
HETATM   23  C   UNL     1      -7.983   6.877  71.306  1.00  0.00    -0.108 A  
ENDBRANCH   5  18
ENDBRANCH   3   5
ENDBRANCH   2   3
TORSDOF 7
ENDMDL
MODEL      187
REMARK 921   NORMALIZED FREE ENERGY PREDICTED BY IDOCK:   -3.00 KCAL/MOL
REMARK 922        TOTAL FREE ENERGY PREDICTED BY IDOCK:   -5.48 KCAL/MOL
REMARK 923 INTER-LIGAND FREE ENERGY PREDICTED BY IDOCK:   -4.95 KCAL/MOL
REMARK 924 INTRA-LIGAND FREE ENERGY PREDICTED BY IDOCK:   -0.53 KCAL/MOL
REMARK 927      BINDING AFFINITY PREDICTED BY RF-SCORE:    0.00 PKD
ROOT
HETATM    1  C   UNL     1     -10.564   8.054  68.546  1.00  0.00    -0.144 C  
HETATM    2  C   UNL     1     -10.635   9.319  67.699  1.00  0.00    -0.324 C  
ENDROOT
BRANCH   2   3
HETATM    3  C   UNL     1      -9.825   9.175  66.417  1.00  0.00    -0.280 C  
HETATM    4  O   UNL     1      -9.741   8.051  65.905  1.00  0.00    -0.029 OA 
BRANCH   3   5
HETATM    5  C   UNL     1      -9.217  10.467  65.719  1.00  0.00    -0.215 C  
BRANCH   5   6
HETATM    6  C   UNL     1      -8.319  11.128  66.840  1.00  0.00    -0.147 A  
HETATM    7  C   UNL     1      -6.815  11.022  68.770  1.00  0.00    -0.073 A  
HETATM    8  C   UNL     1      -8.292  12.533  66.967  1.00  0.00    -0.144 A  
HETATM    9  C   UNL     1      -7.555  10.389  67.765  1.00  0.00    -0.089 A  
HETATM   10  C   UNL     1      -7.558  13.165  67.976  1.00  0.00    -0.144 A  
HETATM   11  C   UNL     1      -6.818  12.407  68.878  1.00  0.00    -0.099 A  
ENDBRANCH   5   6
BRANCH   5  12
HETATM   12  C   UNL     1      -8.325  10.083  64.458  1.00  0.00    -0.168 C  
BRANCH  12  13
HETATM   13  C   UNL     1      -7.109   9.095  64.541  1.00  0.00    -0.091 C  
HETATM   14  C   UNL     1      -7.405   7.766  63.829  1.00  0.00    -0.096 C  
BRANCH  13  15
HETATM   15  N   UNL     1      -5.881   9.716  63.932  1.00  0.00    -0.091 NA 
HETATM   16  C   UNL     1      -6.163  10.543  62.752  1.00  0.00    -0.123 C  
HETATM   17  C   UNL     1      -5.128  10.543  64.889  1.00  0.00    -0.139 C  
ENDBRANCH  13  15
ENDBRANCH  12  13
ENDBRANCH   5  12
BRANCH   5  18
HETATM   18  C   UNL     1     -10.311  11.488  65.269  1.00  0.00    -0.322 A  
HETATM   19  C   UNL     1     -10.456  11.804  63.900  1.00  0.00    -0.437 A  
HETATM   20  C   UNL     1     -12.329  12.818  65.693  1.00  0.00    -0.444 A  
HETATM   21  C   UNL     1     -12.484  13.055  64.334  1.00  0.00    -0.406 A  
HETATM   22  C   UNL     1     -11.540  12.559  63.438  1.00  0.00    -0.547 A  
HETATM   23  C   UNL     1     -11.259  12.044  66.154  1.00  0.00    -0.394 A  
ENDBRANCH   5  18
ENDBRANCH   3   5
ENDBRANCH   2   3
TORSDOF 7
ENDMDL
MODEL      188
REMARK 921   NORMALIZED FREE ENERGY PREDICTED BY IDOCK:   -2.99 KCAL/MOL
REMARK 922        TOTAL FREE ENERGY PREDICTED BY IDOCK:   -5.46 KCAL/MOL
REMARK 923 INTER-LIGAND FREE ENERGY PREDICTED BY IDOCK:   -4.32 KCAL/MOL
REMARK 924 INTRA-LIGAND FREE ENERGY PREDICTED BY IDOCK:   -1.14 KCAL/MOL
REMARK 927      BINDING AFFINITY PREDICTED BY RF-SCORE:    0.00 PKD
ROOT
HETATM    1  C   UNL     1     -10.555   7.680  73.081  1.00  0.00    -0.438 C  
HETATM    2  C   UNL     1     -10.689   8.655  71.917  1.00  0.00    -0.414 C  
ENDROOT
BRANCH   2   3
HETATM    3  C   UNL     1     -10.768   7.921  70.584  1.00  0.00    -0.228 C  
HETATM    4  O   UNL     1     -11.777   7.240  70.354  1.00  0.00    -0.263 OA 
BRANCH   3   5
HETATM    5  C   UNL     1      -9.631   8.137  69.495  1.00  0.00    -0.168 C  
BRANCH   5   6
HETATM    6  C   UNL     1      -9.893   9.595  68.943  1.00  0.00    -0.179 A  
HETATM    7  C   UNL     1     -11.314  11.325  67.948  1.00  0.00    -0.367 A  
HETATM    8  C   UNL     1      -8.823  10.511  68.872  1.00  0.00    -0.166 A  
HETATM    9  C   UNL     1     -11.145  10.038  68.473  1.00  0.00    -0.219 A  
HETATM   10  C   UNL     1      -8.990  11.795  68.341  1.00  0.00    -0.168 A  
HETATM   11  C   UNL     1     -10.237  12.201  67.879  1.00  0.00    -0.203 A  
ENDBRANCH   5   6
BRANCH   5  12
HETATM   12  C   UNL     1      -8.179   8.050  70.143  1.00  0.00    -0.120 C  
BRANCH  12  13
HETATM   13  C   UNL     1      -7.308   6.746  70.115  1.00  0.00    -0.085 C  
HETATM   14  C   UNL     1      -5.819   7.050  70.351  1.00  0.00    -0.024 C  
BRANCH  13  15
HETATM   15  N   UNL     1      -7.782   5.772  71.160  1.00  0.00    -0.106 NA 
HETATM   16  C   UNL     1      -7.706   4.369  70.735  1.00  0.00    -0.056 C  
HETATM   17  C   UNL     1      -7.045   5.897  72.429  1.00  0.00    -0.085 C  
ENDBRANCH  13  15
ENDBRANCH  12  13
ENDBRANCH   5  12
BRANCH   5  18
HETATM   18  C   UNL     1      -9.717   7.118  68.315  1.00  0.00    -0.148 A  
HETATM   19  C   UNL     1      -9.194   7.464  67.049  1.00  0.00    -0.169 A  
HETATM   20  C   UNL     1     -10.099   4.859  67.434  1.00  0.00    -0.196 A  
HETATM   21  C   UNL     1      -9.518   5.210  66.223  1.00  0.00    -0.164 A  
HETATM   22  C   UNL     1      -9.078   6.516  66.025  1.00  0.00    -0.111 A  
HETATM   23  C   UNL     1     -10.195   5.799  68.466  1.00  0.00    -0.246 A  
ENDBRANCH   5  18
ENDBRANCH   3   5
ENDBRANCH   2   3
TORSDOF 7
ENDMDL
MODEL      189
REMARK 921   NORMALIZED FREE ENERGY PREDICTED BY IDOCK:   -2.96 KCAL/MOL
REMARK 922        TOTAL FREE ENERGY PREDICTED BY IDOCK:   -5.42 KCAL/MOL
REMARK 923 INTER-LIGAND FREE ENERGY PREDICTED BY IDOCK:   -5.01 KCAL/MOL
REMARK 924 INTRA-LIGAND FREE ENERGY PREDICTED BY IDOCK:   -0.41 KCAL/MOL
REMARK 927      BINDING AFFINITY PREDICTED BY RF-SCORE:    0.00 PKD
ROOT
HETATM    1  C   UNL     1      -7.828   9.599  69.544  1.00  0.00    -0.117 C  
HETATM    2  C   UNL     1      -7.801   8.118  69.903  1.00  0.00    -0.104 C  
ENDROOT
BRANCH   2   3
HETATM    3  C   UNL     1      -9.185   7.493  69.790  1.00  0.00    -0.147 C  
HETATM    4  O   UNL     1      -9.716   7.453  68.671  1.00  0.00    -0.149 OA 
BRANCH   3   5
HETATM    5  C   UNL     1      -9.853   6.816  71.063  1.00  0.00    -0.192 C  
BRANCH   5   6
HETATM    6  C   UNL     1     -11.176   7.649  71.296  1.00  0.00    -0.277 A  
HETATM    7  C   UNL     1     -13.587   7.845  71.687  1.00  0.00    -0.397 A  
HETATM    8  C   UNL     1     -11.130   9.058  71.227  1.00  0.00    -0.382 A  
HETATM    9  C   UNL     1     -12.435   7.063  71.536  1.00  0.00    -0.426 A  
HETATM   10  C   UNL     1     -12.282   9.838  71.371  1.00  0.00    -0.486 A  
HETATM   11  C   UNL     1     -13.511   9.230  71.602  1.00  0.00    -0.465 A  
ENDBRANCH   5   6
BRANCH   5  12
HETATM   12  C   UNL     1     -10.208   5.288  70.793  1.00  0.00    -0.317 C  
BRANCH  12  13
HETATM   13  C   UNL     1      -9.535   4.443  69.655  1.00  0.00    -0.182 C  
HETATM   14  C   UNL     1      -8.026   4.717  69.558  1.00  0.00    -0.066 C  
BRANCH  13  15
HETATM   15  N   UNL     1      -9.753   2.973  69.890  1.00  0.00    -0.041 NA 
HETATM   16  C   UNL     1      -8.798   2.114  69.181  1.00  0.00    -0.093 C  
HETATM   17  C   UNL     1      -9.706   2.613  71.317  1.00  0.00    -0.132 C  
ENDBRANCH  13  15
ENDBRANCH  12  13
ENDBRANCH   5  12
BRANCH   5  18
HETATM   18  C   UNL     1      -8.958   6.907  72.341  1.00  0.00    -0.143 A  
HETATM   19  C   UNL     1      -8.196   5.789  72.744  1.00  0.00    -0.112 A  
HETATM   20  C   UNL     1      -7.834   8.191  74.104  1.00  0.00    -0.285 A  
HETATM   21  C   UNL     1      -7.050   7.094  74.433  1.00  0.00    -0.108 A  
HETATM   22  C   UNL     1      -7.240   5.889  73.763  1.00  0.00    -0.085 A  
HETATM   23  C   UNL     1      -8.773   8.100  73.070  1.00  0.00    -0.309 A  
ENDBRANCH   5  18
ENDBRANCH   3   5
ENDBRANCH   2   3
TORSDOF 7
ENDMDL
MODEL      190
REMARK 921   NORMALIZED FREE ENERGY PREDICTED BY IDOCK:   -2.95 KCAL/MOL
REMARK 922        TOTAL FREE ENERGY PREDICTED BY IDOCK:   -5.41 KCAL/MOL
REMARK 923 INTER-LIGAND FREE ENERGY PREDICTED BY IDOCK:   -5.38 KCAL/MOL
REMARK 924 INTRA-LIGAND FREE ENERGY PREDICTED BY IDOCK:   -0.03 KCAL/MOL
REMARK 927      BINDING AFFINITY PREDICTED BY RF-SCORE:    0.00 PKD
ROOT
HETATM    1  C   UNL     1      -6.708   7.849  68.618  1.00  0.00    -0.058 C  
HETATM    2  C   UNL     1      -6.958   8.970  67.615  1.00  0.00    -0.075 C  
ENDROOT
BRANCH   2   3
HETATM    3  C   UNL     1      -7.924  10.007  68.171  1.00  0.00    -0.100 C  
HETATM    4  O   UNL     1      -7.501  10.798  69.027  1.00  0.00    -0.098 OA 
BRANCH   3   5
HETATM    5  C   UNL     1      -9.390  10.125  67.568  1.00  0.00    -0.168 C  
BRANCH   5   6
HETATM    6  C   UNL     1     -10.087   8.766  67.976  1.00  0.00    -0.241 A  
HETATM    7  C   UNL     1     -11.000   7.191  69.615  1.00  0.00    -0.236 A  
HETATM    8  C   UNL     1     -10.360   7.802  66.982  1.00  0.00    -0.405 A  
HETATM    9  C   UNL     1     -10.428   8.430  69.301  1.00  0.00    -0.223 A  
HETATM   10  C   UNL     1     -10.925   6.561  67.298  1.00  0.00    -0.475 A  
HETATM   11  C   UNL     1     -11.245   6.257  68.616  1.00  0.00    -0.328 A  
ENDBRANCH   5   6
BRANCH   5  12
HETATM   12  C   UNL     1     -10.182  11.355  68.194  1.00  0.00    -0.200 C  
BRANCH  12  13
HETATM   13  C   UNL     1      -9.579  12.800  68.290  1.00  0.00    -0.211 C  
HETATM   14  C   UNL     1      -8.532  13.055  67.193  1.00  0.00    -0.176 C  
BRANCH  13  15
HETATM   15  N   UNL     1     -10.666  13.835  68.180  1.00  0.00    -0.242 NA 
HETATM   16  C   UNL     1     -12.016  13.264  68.100  1.00  0.00    -0.304 C  
HETATM   17  C   UNL     1     -10.650  14.796  69.296  1.00  0.00    -0.240 C  
ENDBRANCH  13  15
ENDBRANCH  12  13
ENDBRANCH   5  12
BRANCH   5  18
HETATM   18  C   UNL     1      -9.399  10.260  66.012  1.00  0.00    -0.224 A  
HETATM   19  C   UNL     1     -10.492  10.880  65.367  1.00  0.00    -0.291 A  
HETATM   20  C   UNL     1      -8.278  10.183  63.831  1.00  0.00    -0.164 A  
HETATM   21  C   UNL     1      -9.338  10.856  63.238  1.00  0.00    -0.324 A  
HETATM   22  C   UNL     1     -10.451  11.192  64.003  1.00  0.00    -0.447 A  
HETATM   23  C   UNL     1      -8.307   9.892  65.199  1.00  0.00    -0.152 A  
ENDBRANCH   5  18
ENDBRANCH   3   5
ENDBRANCH   2   3
TORSDOF 7
ENDMDL
MODEL      191
REMARK 921   NORMALIZED FREE ENERGY PREDICTED BY IDOCK:   -2.95 KCAL/MOL
REMARK 922        TOTAL FREE ENERGY PREDICTED BY IDOCK:   -5.41 KCAL/MOL
REMARK 923 INTER-LIGAND FREE ENERGY PREDICTED BY IDOCK:   -4.75 KCAL/MOL
REMARK 924 INTRA-LIGAND FREE ENERGY PREDICTED BY IDOCK:   -0.66 KCAL/MOL
REMARK 927      BINDING AFFINITY PREDICTED BY RF-SCORE:    0.00 PKD
ROOT
HETATM    1  C   UNL     1      -6.146   9.185  71.437  1.00  0.00    -0.072 C  
HETATM    2  C   UNL     1      -7.390   9.394  70.580  1.00  0.00    -0.140 C  
ENDROOT
BRANCH   2   3
HETATM    3  C   UNL     1      -8.642   8.897  71.289  1.00  0.00    -0.198 C  
HETATM    4  O   UNL     1      -8.713   9.041  72.517  1.00  0.00    -0.318 OA 
BRANCH   3   5
HETATM    5  C   UNL     1      -9.855   8.321  70.437  1.00  0.00    -0.194 C  
BRANCH   5   6
HETATM    6  C   UNL     1     -10.448   7.166  71.339  1.00  0.00    -0.220 A  
HETATM    7  C   UNL     1     -10.285   5.039  72.542  1.00  0.00    -0.247 A  
HETATM    8  C   UNL     1     -11.812   7.201  71.700  1.00  0.00    -0.340 A  
HETATM    9  C   UNL     1      -9.698   6.061  71.786  1.00  0.00    -0.171 A  
HETATM   10  C   UNL     1     -12.399   6.176  72.450  1.00  0.00    -0.059 A  
HETATM   11  C   UNL     1     -11.634   5.094  72.871  1.00  0.00    -0.282 A  
ENDBRANCH   5   6
BRANCH   5  12
HETATM   12  C   UNL     1     -10.963   9.434  70.174  1.00  0.00    -0.282 C  
BRANCH  12  13
HETATM   13  C   UNL     1     -10.613  10.909  69.771  1.00  0.00    -0.074 C  
HETATM   14  C   UNL     1      -9.917  10.977  68.402  1.00  0.00    -0.194 C  
BRANCH  13  15
HETATM   15  N   UNL     1     -11.857  11.755  69.732  1.00  0.00    -0.332 NA 
HETATM   16  C   UNL     1     -12.487  11.936  71.046  1.00  0.00    -0.290 C  
HETATM   17  C   UNL     1     -11.618  13.091  69.161  1.00  0.00    -0.316 C  
ENDBRANCH  13  15
ENDBRANCH  12  13
ENDBRANCH   5  12
BRANCH   5  18
HETATM   18  C   UNL     1      -9.407   7.722  69.066  1.00  0.00    -0.150 A  
HETATM   19  C   UNL     1     -10.379   7.303  68.132  1.00  0.00    -0.234 A  
HETATM   20  C   UNL     1      -7.708   7.295  67.348  1.00  0.00    -0.110 A  
HETATM   21  C   UNL     1      -8.692   6.953  66.430  1.00  0.00    -0.147 A  
HETATM   22  C   UNL     1     -10.026   6.944  66.825  1.00  0.00    -0.248 A  
HETATM   23  C   UNL     1      -8.061   7.677  68.647  1.00  0.00    -0.127 A  
ENDBRANCH   5  18
ENDBRANCH   3   5
ENDBRANCH   2   3
TORSDOF 7
ENDMDL
MODEL      192
REMARK 921   NORMALIZED FREE ENERGY PREDICTED BY IDOCK:   -2.94 KCAL/MOL
REMARK 922        TOTAL FREE ENERGY PREDICTED BY IDOCK:   -5.40 KCAL/MOL
REMARK 923 INTER-LIGAND FREE ENERGY PREDICTED BY IDOCK:   -4.80 KCAL/MOL
REMARK 924 INTRA-LIGAND FREE ENERGY PREDICTED BY IDOCK:   -0.60 KCAL/MOL
REMARK 927      BINDING AFFINITY PREDICTED BY RF-SCORE:    0.00 PKD
ROOT
HETATM    1  C   UNL     1      -7.001  13.100  68.481  1.00  0.00    -0.103 C  
HETATM    2  C   UNL     1      -8.275  12.264  68.529  1.00  0.00    -0.096 C  
ENDROOT
BRANCH   2   3
HETATM    3  C   UNL     1      -8.006  10.819  68.127  1.00  0.00    -0.114 C  
HETATM    4  O   UNL     1      -6.831  10.428  68.110  1.00  0.00    -0.071 OA 
BRANCH   3   5
HETATM    5  C   UNL     1      -9.225   9.835  67.859  1.00  0.00    -0.133 C  
BRANCH   5   6
HETATM    6  C   UNL     1     -10.297  10.239  68.948  1.00  0.00    -0.221 A  
HETATM    7  C   UNL     1     -12.111  11.646  69.804  1.00  0.00    -0.357 A  
HETATM    8  C   UNL     1     -10.335   9.542  70.175  1.00  0.00    -0.300 A  
HETATM    9  C   UNL     1     -11.214  11.297  68.788  1.00  0.00    -0.311 A  
HETATM   10  C   UNL     1     -11.227   9.895  71.193  1.00  0.00    -0.404 A  
HETATM   11  C   UNL     1     -12.116  10.948  71.006  1.00  0.00    -0.425 A  
ENDBRANCH   5   6
BRANCH   5  12
HETATM   12  C   UNL     1      -9.826  10.036  66.399  1.00  0.00    -0.283 C  
BRANCH  12  13
HETATM   13  C   UNL     1      -8.939  10.358  65.146  1.00  0.00    -0.191 C  
HETATM   14  C   UNL     1      -8.721   9.115  64.267  1.00  0.00    -0.180 C  
BRANCH  13  15
HETATM   15  N   UNL     1      -9.570  11.442  64.316  1.00  0.00    -0.216 NA 
HETATM   16  C   UNL     1      -9.474  11.209  62.870  1.00  0.00    -0.359 C  
HETATM   17  C   UNL     1     -10.991  11.653  64.643  1.00  0.00    -0.301 C  
ENDBRANCH  13  15
ENDBRANCH  12  13
ENDBRANCH   5  12
BRANCH   5  18
HETATM   18  C   UNL     1      -8.846   8.331  68.045  1.00  0.00    -0.135 A  
HETATM   19  C   UNL     1      -9.453   7.349  67.232  1.00  0.00    -0.179 A  
HETATM   20  C   UNL     1      -7.396   6.563  68.936  1.00  0.00    -0.093 A  
HETATM   21  C   UNL     1      -7.965   5.634  68.076  1.00  0.00    -0.097 A  
HETATM   22  C   UNL     1      -9.003   6.023  67.233  1.00  0.00    -0.109 A  
HETATM   23  C   UNL     1      -7.829   7.894  68.918  1.00  0.00    -0.117 A  
ENDBRANCH   5  18
ENDBRANCH   3   5
ENDBRANCH   2   3
TORSDOF 7
ENDMDL
MODEL      193
REMARK 921   NORMALIZED FREE ENERGY PREDICTED BY IDOCK:   -2.94 KCAL/MOL
REMARK 922        TOTAL FREE ENERGY PREDICTED BY IDOCK:   -5.40 KCAL/MOL
REMARK 923 INTER-LIGAND FREE ENERGY PREDICTED BY IDOCK:   -5.89 KCAL/MOL
REMARK 924 INTRA-LIGAND FREE ENERGY PREDICTED BY IDOCK:    0.50 KCAL/MOL
REMARK 927      BINDING AFFINITY PREDICTED BY RF-SCORE:    0.00 PKD
ROOT
HETATM    1  C   UNL     1      -6.593   9.020  69.157  1.00  0.00    -0.050 C  
HETATM    2  C   UNL     1      -7.299   9.969  70.119  1.00  0.00    -0.171 C  
ENDROOT
BRANCH   2   3
HETATM    3  C   UNL     1      -8.180   9.210  71.101  1.00  0.00    -0.087 C  
HETATM    4  O   UNL     1      -7.707   8.927  72.210  1.00  0.00    -0.354 OA 
BRANCH   3   5
HETATM    5  C   UNL     1      -9.696   8.906  70.730  1.00  0.00    -0.281 C  
BRANCH   5   6
HETATM    6  C   UNL     1      -9.681   7.405  70.235  1.00  0.00    -0.172 A  
HETATM    7  C   UNL     1      -8.706   5.161  70.112  1.00  0.00    -0.128 A  
HETATM    8  C   UNL     1     -10.669   6.964  69.330  1.00  0.00    -0.265 A  
HETATM    9  C   UNL     1      -8.702   6.466  70.618  1.00  0.00    -0.144 A  
HETATM   10  C   UNL     1     -10.668   5.661  68.819  1.00  0.00    -0.267 A  
HETATM   11  C   UNL     1      -9.685   4.760  69.211  1.00  0.00    -0.266 A  
ENDBRANCH   5   6
BRANCH   5  12
HETATM   12  C   UNL     1     -10.647   9.055  71.998  1.00  0.00    -0.321 C  
BRANCH  12  13
HETATM   13  C   UNL     1     -11.476   7.861  72.589  1.00  0.00    -0.395 C  
HETATM   14  C   UNL     1     -12.561   7.380  71.611  1.00  0.00    -0.391 C  
BRANCH  13  15
HETATM   15  N   UNL     1     -10.572   6.706  72.926  1.00  0.00    -0.230 NA 
HETATM   16  C   UNL     1      -9.861   6.867  74.200  1.00  0.00    -0.311 C  
HETATM   17  C   UNL     1     -11.286   5.419  72.970  1.00  0.00    -0.293 C  
ENDBRANCH  13  15
ENDBRANCH  12  13
ENDBRANCH   5  12
BRANCH   5  18
HETATM   18  C   UNL     1     -10.237   9.819  69.584  1.00  0.00    -0.254 A  
HETATM   19  C   UNL     1      -9.986   9.477  68.237  1.00  0.00    -0.184 A  
HETATM   20  C   UNL     1     -11.684  11.621  68.759  1.00  0.00    -0.392 A  
HETATM   21  C   UNL     1     -11.472  11.219  67.447  1.00  0.00    -0.300 A  
HETATM   22  C   UNL     1     -10.613  10.156  67.185  1.00  0.00    -0.308 A  
HETATM   23  C   UNL     1     -11.077  10.929  69.813  1.00  0.00    -0.328 A  
ENDBRANCH   5  18
ENDBRANCH   3   5
ENDBRANCH   2   3
TORSDOF 7
ENDMDL
MODEL      194
REMARK 921   NORMALIZED FREE ENERGY PREDICTED BY IDOCK:   -2.93 KCAL/MOL
REMARK 922        TOTAL FREE ENERGY PREDICTED BY IDOCK:   -5.38 KCAL/MOL
REMARK 923 INTER-LIGAND FREE ENERGY PREDICTED BY IDOCK:   -4.72 KCAL/MOL
REMARK 924 INTRA-LIGAND FREE ENERGY PREDICTED BY IDOCK:   -0.67 KCAL/MOL
REMARK 927      BINDING AFFINITY PREDICTED BY RF-SCORE:    0.00 PKD
ROOT
HETATM    1  C   UNL     1     -12.732   9.532  71.908  1.00  0.00    -0.496 C  
HETATM    2  C   UNL     1     -11.364   9.807  71.293  1.00  0.00    -0.445 C  
ENDROOT
BRANCH   2   3
HETATM    3  C   UNL     1     -10.465   8.580  71.369  1.00  0.00    -0.237 C  
HETATM    4  O   UNL     1     -10.810   7.650  72.110  1.00  0.00    -0.224 OA 
BRANCH   3   5
HETATM    5  C   UNL     1      -9.190   8.476  70.425  1.00  0.00    -0.173 C  
BRANCH   5   6
HETATM    6  C   UNL     1      -9.485   9.503  69.260  1.00  0.00    -0.171 A  
HETATM    7  C   UNL     1      -9.078  11.584  68.033  1.00  0.00    -0.174 A  
HETATM    8  C   UNL     1     -10.570   9.267  68.388  1.00  0.00    -0.234 A  
HETATM    9  C   UNL     1      -8.744  10.683  69.051  1.00  0.00    -0.152 A  
HETATM   10  C   UNL     1     -10.907  10.171  67.375  1.00  0.00    -0.323 A  
HETATM   11  C   UNL     1     -10.160  11.331  67.198  1.00  0.00    -0.223 A  
ENDBRANCH   5   6
BRANCH   5  12
HETATM   12  C   UNL     1      -7.859   8.891  71.194  1.00  0.00    -0.172 C  
BRANCH  12  13
HETATM   13  C   UNL     1      -7.176   7.978  72.272  1.00  0.00    -0.094 C  
HETATM   14  C   UNL     1      -5.643   8.075  72.212  1.00  0.00    -0.037 C  
BRANCH  13  15
HETATM   15  N   UNL     1      -7.639   8.355  73.654  1.00  0.00    -0.327 NA 
HETATM   16  C   UNL     1      -8.250   7.245  74.393  1.00  0.00    -0.177 C  
HETATM   17  C   UNL     1      -6.555   8.905  74.485  1.00  0.00    -0.043 C  
ENDBRANCH  13  15
ENDBRANCH  12  13
ENDBRANCH   5  12
BRANCH   5  18
HETATM   18  C   UNL     1      -8.996   7.051  69.817  1.00  0.00    -0.141 A  
HETATM   19  C   UNL     1      -9.848   5.997  70.215  1.00  0.00    -0.221 A  
HETATM   20  C   UNL     1      -8.045   5.526  68.146  1.00  0.00    -0.096 A  
HETATM   21  C   UNL     1      -8.941   4.531  68.513  1.00  0.00    -0.145 A  
HETATM   22  C   UNL     1      -9.834   4.761  69.556  1.00  0.00    -0.292 A  
HETATM   23  C   UNL     1      -8.074   6.769  68.787  1.00  0.00    -0.120 A  
ENDBRANCH   5  18
ENDBRANCH   3   5
ENDBRANCH   2   3
TORSDOF 7
ENDMDL
MODEL      195
REMARK 921   NORMALIZED FREE ENERGY PREDICTED BY IDOCK:   -2.93 KCAL/MOL
REMARK 922        TOTAL FREE ENERGY PREDICTED BY IDOCK:   -5.38 KCAL/MOL
REMARK 923 INTER-LIGAND FREE ENERGY PREDICTED BY IDOCK:   -5.11 KCAL/MOL
REMARK 924 INTRA-LIGAND FREE ENERGY PREDICTED BY IDOCK:   -0.26 KCAL/MOL
REMARK 927      BINDING AFFINITY PREDICTED BY RF-SCORE:    0.00 PKD
ROOT
HETATM    1  C   UNL     1      -9.243  11.059  63.028  1.00  0.00    -0.337 C  
HETATM    2  C   UNL     1      -9.879  10.274  64.169  1.00  0.00    -0.319 C  
ENDROOT
BRANCH   2   3
HETATM    3  C   UNL     1     -10.532  11.201  65.185  1.00  0.00    -0.277 C  
HETATM    4  O   UNL     1     -11.594  11.756  64.870  1.00  0.00    -0.261 OA 
BRANCH   3   5
HETATM    5  C   UNL     1      -9.909  11.341  66.641  1.00  0.00    -0.235 C  
BRANCH   5   6
HETATM    6  C   UNL     1      -9.854   9.858  67.183  1.00  0.00    -0.235 A  
HETATM    7  C   UNL     1     -10.547   7.508  67.177  1.00  0.00    -0.415 A  
HETATM    8  C   UNL     1      -9.058   9.561  68.311  1.00  0.00    -0.127 A  
HETATM    9  C   UNL     1     -10.593   8.795  66.627  1.00  0.00    -0.141 A  
HETATM   10  C   UNL     1      -9.018   8.277  68.864  1.00  0.00    -0.144 A  
HETATM   11  C   UNL     1      -9.763   7.250  68.295  1.00  0.00    -0.152 A  
ENDBRANCH   5   6
BRANCH   5  12
HETATM   12  C   UNL     1      -8.443  11.960  66.591  1.00  0.00    -0.143 C  
BRANCH  12  13
HETATM   13  C   UNL     1      -7.149  11.113  66.855  1.00  0.00    -0.131 C  
HETATM   14  C   UNL     1      -6.389  10.810  65.554  1.00  0.00    -0.026 C  
BRANCH  13  15
HETATM   15  N   UNL     1      -6.230  11.836  67.803  1.00  0.00    -0.054 NA 
HETATM   16  C   UNL     1      -6.929  12.727  68.737  1.00  0.00    -0.096 C  
HETATM   17  C   UNL     1      -5.398  10.917  68.598  1.00  0.00    -0.040 C  
ENDBRANCH  13  15
ENDBRANCH  12  13
ENDBRANCH   5  12
BRANCH   5  18
HETATM   18  C   UNL     1     -10.788  12.207  67.599  1.00  0.00    -0.272 A  
HETATM   19  C   UNL     1     -11.360  11.619  68.749  1.00  0.00    -0.324 A  
HETATM   20  C   UNL     1     -11.608  14.371  68.413  1.00  0.00    -0.351 A  
HETATM   21  C   UNL     1     -12.100  13.775  69.566  1.00  0.00    -0.386 A  
HETATM   22  C   UNL     1     -11.988  12.397  69.728  1.00  0.00    -0.359 A  
HETATM   23  C   UNL     1     -10.959  13.598  67.444  1.00  0.00    -0.289 A  
ENDBRANCH   5  18
ENDBRANCH   3   5
ENDBRANCH   2   3
TORSDOF 7
ENDMDL
MODEL      196
REMARK 921   NORMALIZED FREE ENERGY PREDICTED BY IDOCK:   -2.92 KCAL/MOL
REMARK 922        TOTAL FREE ENERGY PREDICTED BY IDOCK:   -5.36 KCAL/MOL
REMARK 923 INTER-LIGAND FREE ENERGY PREDICTED BY IDOCK:   -5.32 KCAL/MOL
REMARK 924 INTRA-LIGAND FREE ENERGY PREDICTED BY IDOCK:   -0.04 KCAL/MOL
REMARK 927      BINDING AFFINITY PREDICTED BY RF-SCORE:    0.00 PKD
ROOT
HETATM    1  C   UNL     1     -11.035   7.150  66.959  1.00  0.00    -0.304 C  
HETATM    2  C   UNL     1     -10.222   8.438  67.000  1.00  0.00    -0.377 C  
ENDROOT
BRANCH   2   3
HETATM    3  C   UNL     1     -10.658   9.334  68.151  1.00  0.00    -0.198 C  
HETATM    4  O   UNL     1     -11.589  10.127  67.953  1.00  0.00    -0.256 OA 
BRANCH   3   5
HETATM    5  C   UNL     1      -9.998   9.152  69.586  1.00  0.00    -0.198 C  
BRANCH   5   6
HETATM    6  C   UNL     1      -8.678  10.019  69.519  1.00  0.00    -0.205 A  
HETATM    7  C   UNL     1      -6.446  10.655  70.303  1.00  0.00    -0.138 A  
HETATM    8  C   UNL     1      -8.590  11.076  68.587  1.00  0.00    -0.157 A  
HETATM    9  C   UNL     1      -7.573   9.827  70.371  1.00  0.00    -0.165 A  
HETATM   10  C   UNL     1      -7.467  11.908  68.525  1.00  0.00    -0.117 A  
HETATM   11  C   UNL     1      -6.394  11.696  69.383  1.00  0.00    -0.106 A  
ENDBRANCH   5   6
BRANCH   5  12
HETATM   12  C   UNL     1     -10.951   9.695  70.740  1.00  0.00    -0.397 C  
BRANCH  12  13
HETATM   13  C   UNL     1     -12.271  10.494  70.452  1.00  0.00    -0.328 C  
HETATM   14  C   UNL     1     -13.468   9.911  71.220  1.00  0.00    -0.353 C  
BRANCH  13  15
HETATM   15  N   UNL     1     -12.104  11.942  70.828  1.00  0.00    -0.313 NA 
HETATM   16  C   UNL     1     -12.020  12.844  69.674  1.00  0.00    -0.292 C  
HETATM   17  C   UNL     1     -13.184  12.430  71.702  1.00  0.00    -0.269 C  
ENDBRANCH  13  15
ENDBRANCH  12  13
ENDBRANCH   5  12
BRANCH   5  18
HETATM   18  C   UNL     1      -9.622   7.669  69.900  1.00  0.00    -0.160 A  
HETATM   19  C   UNL     1     -10.580   6.811  70.484  1.00  0.00    -0.260 A  
HETATM   20  C   UNL     1      -8.154   5.717  69.667  1.00  0.00    -0.102 A  
HETATM   21  C   UNL     1      -9.141   4.887  70.181  1.00  0.00    -0.157 A  
HETATM   22  C   UNL     1     -10.349   5.435  70.602  1.00  0.00    -0.333 A  
HETATM   23  C   UNL     1      -8.393   7.088  69.527  1.00  0.00    -0.133 A  
ENDBRANCH   5  18
ENDBRANCH   3   5
ENDBRANCH   2   3
TORSDOF 7
ENDMDL
MODEL      197
REMARK 921   NORMALIZED FREE ENERGY PREDICTED BY IDOCK:   -2.91 KCAL/MOL
REMARK 922        TOTAL FREE ENERGY PREDICTED BY IDOCK:   -5.36 KCAL/MOL
REMARK 923 INTER-LIGAND FREE ENERGY PREDICTED BY IDOCK:   -6.12 KCAL/MOL
REMARK 924 INTRA-LIGAND FREE ENERGY PREDICTED BY IDOCK:    0.76 KCAL/MOL
REMARK 927      BINDING AFFINITY PREDICTED BY RF-SCORE:    0.00 PKD
ROOT
HETATM    1  C   UNL     1      -9.467  15.835  69.249  1.00  0.00    -0.270 C  
HETATM    2  C   UNL     1     -10.418  15.569  68.087  1.00  0.00    -0.259 C  
ENDROOT
BRANCH   2   3
HETATM    3  C   UNL     1      -9.825  14.571  67.102  1.00  0.00    -0.245 C  
HETATM    4  O   UNL     1      -8.818  14.909  66.464  1.00  0.00    -0.266 OA 
BRANCH   3   5
HETATM    5  C   UNL     1     -10.431  13.105  67.003  1.00  0.00    -0.248 C  
BRANCH   5   6
HETATM    6  C   UNL     1      -9.198  12.155  67.281  1.00  0.00    -0.185 A  
HETATM    7  C   UNL     1      -7.192  11.496  68.523  1.00  0.00    -0.096 A  
HETATM    8  C   UNL     1      -8.939  11.081  66.403  1.00  0.00    -0.190 A  
HETATM    9  C   UNL     1      -8.298  12.337  68.349  1.00  0.00    -0.144 A  
HETATM   10  C   UNL     1      -7.830  10.245  66.573  1.00  0.00    -0.116 A  
HETATM   11  C   UNL     1      -6.956  10.454  67.634  1.00  0.00    -0.083 A  
ENDBRANCH   5   6
BRANCH   5  12
HETATM   12  C   UNL     1     -11.563  12.866  68.096  1.00  0.00    -0.378 C  
BRANCH  12  13
HETATM   13  C   UNL     1     -11.935  11.444  68.645  1.00  0.00    -0.249 C  
HETATM   14  C   UNL     1     -11.356  10.324  67.764  1.00  0.00    -0.137 C  
BRANCH  13  15
HETATM   15  N   UNL     1     -11.431  11.272  70.052  1.00  0.00    -0.293 NA 
HETATM   16  C   UNL     1     -12.494  11.287  71.064  1.00  0.00    -0.400 C  
HETATM   17  C   UNL     1     -10.659  10.031  70.231  1.00  0.00    -0.295 C  
ENDBRANCH  13  15
ENDBRANCH  12  13
ENDBRANCH   5  12
BRANCH   5  18
HETATM   18  C   UNL     1     -11.019  12.783  65.592  1.00  0.00    -0.302 A  
HETATM   19  C   UNL     1     -10.156  12.386  64.546  1.00  0.00    -0.276 A  
HETATM   20  C   UNL     1     -12.902  12.296  64.096  1.00  0.00    -0.371 A  
HETATM   21  C   UNL     1     -12.032  11.848  63.112  1.00  0.00    -0.287 A  
HETATM   22  C   UNL     1     -10.659  11.905  63.331  1.00  0.00    -0.485 A  
HETATM   23  C   UNL     1     -12.402  12.754  65.320  1.00  0.00    -0.546 A  
ENDBRANCH   5  18
ENDBRANCH   3   5
ENDBRANCH   2   3
TORSDOF 7
ENDMDL
MODEL      198
REMARK 921   NORMALIZED FREE ENERGY PREDICTED BY IDOCK:   -2.79 KCAL/MOL
REMARK 922        TOTAL FREE ENERGY PREDICTED BY IDOCK:   -5.19 KCAL/MOL
REMARK 923 INTER-LIGAND FREE ENERGY PREDICTED BY IDOCK:   -5.77 KCAL/MOL
REMARK 924 INTRA-LIGAND FREE ENERGY PREDICTED BY IDOCK:    0.59 KCAL/MOL
REMARK 927      BINDING AFFINITY PREDICTED BY RF-SCORE:    0.00 PKD
ROOT
HETATM    1  C   UNL     1      -5.960  15.568  68.962  1.00  0.00    -0.104 C  
HETATM    2  C   UNL     1      -7.183  14.673  69.128  1.00  0.00    -0.142 C  
ENDROOT
BRANCH   2   3
HETATM    3  C   UNL     1      -7.545  13.979  67.822  1.00  0.00    -0.170 C  
HETATM    4  O   UNL     1      -6.644  13.392  67.206  1.00  0.00    -0.234 OA 
BRANCH   3   5
HETATM    5  C   UNL     1      -9.062  13.925  67.350  1.00  0.00    -0.217 C  
BRANCH   5   6
HETATM    6  C   UNL     1      -9.554  15.423  67.456  1.00  0.00    -0.206 A  
HETATM    7  C   UNL     1      -9.691  17.734  66.653  1.00  0.00    -0.314 A  
HETATM    8  C   UNL     1     -10.286  15.834  68.591  1.00  0.00    -0.221 A  
HETATM    9  C   UNL     1      -9.273  16.408  66.488  1.00  0.00    -0.306 A  
HETATM   10  C   UNL     1     -10.697  17.161  68.759  1.00  0.00    -0.289 A  
HETATM   11  C   UNL     1     -10.399  18.110  67.788  1.00  0.00    -0.413 A  
ENDBRANCH   5   6
BRANCH   5  12
HETATM   12  C   UNL     1      -9.188  13.412  65.849  1.00  0.00     0.181 C  
BRANCH  12  13
HETATM   13  C   UNL     1     -10.567  13.188  65.135  1.00  0.00    -0.319 C  
HETATM   14  C   UNL     1     -11.236  11.879  65.585  1.00  0.00    -0.360 C  
BRANCH  13  15
HETATM   15  N   UNL     1     -11.499  14.336  65.415  1.00  0.00    -0.323 NA 
HETATM   16  C   UNL     1     -11.525  15.346  64.349  1.00  0.00    -0.255 C  
HETATM   17  C   UNL     1     -12.884  13.899  65.652  1.00  0.00    -0.424 C  
ENDBRANCH  13  15
ENDBRANCH  12  13
ENDBRANCH   5  12
BRANCH   5  18
HETATM   18  C   UNL     1      -9.953  13.026  68.266  1.00  0.00    -0.235 A  
HETATM   19  C   UNL     1     -11.154  13.542  68.800  1.00  0.00    -0.298 A  
HETATM   20  C   UNL     1     -10.590  10.843  69.189  1.00  0.00    -0.253 A  
HETATM   21  C   UNL     1     -11.794  11.363  69.643  1.00  0.00    -0.431 A  
HETATM   22  C   UNL     1     -12.071  12.715  69.461  1.00  0.00    -0.253 A  
HETATM   23  C   UNL     1      -9.683  11.663  68.508  1.00  0.00    -0.187 A  
ENDBRANCH   5  18
ENDBRANCH   3   5
ENDBRANCH   2   3
TORSDOF 7
ENDMDL
MODEL      199
REMARK 921   NORMALIZED FREE ENERGY PREDICTED BY IDOCK:   -2.78 KCAL/MOL
REMARK 922        TOTAL FREE ENERGY PREDICTED BY IDOCK:   -5.17 KCAL/MOL
REMARK 923 INTER-LIGAND FREE ENERGY PREDICTED BY IDOCK:   -4.37 KCAL/MOL
REMARK 924 INTRA-LIGAND FREE ENERGY PREDICTED BY IDOCK:   -0.80 KCAL/MOL
REMARK 927      BINDING AFFINITY PREDICTED BY RF-SCORE:    0.00 PKD
ROOT
HETATM    1  C   UNL     1     -11.003   6.362  67.147  1.00  0.00    -0.476 C  
HETATM    2  C   UNL     1      -9.774   7.236  67.368  1.00  0.00    -0.191 C  
ENDROOT
BRANCH   2   3
HETATM    3  C   UNL     1     -10.161   8.693  67.586  1.00  0.00    -0.213 C  
HETATM    4  O   UNL     1     -11.112   9.147  66.935  1.00  0.00     0.078 OA 
BRANCH   3   5
HETATM    5  C   UNL     1      -9.423   9.547  68.706  1.00  0.00    -0.147 C  
BRANCH   5   6
HETATM    6  C   UNL     1     -10.592  10.321  69.436  1.00  0.00    -0.262 A  
HETATM    7  C   UNL     1     -12.031  12.274  69.779  1.00  0.00    -0.365 A  
HETATM    8  C   UNL     1     -11.230   9.726  70.545  1.00  0.00    -0.381 A  
HETATM    9  C   UNL     1     -11.024  11.611  69.068  1.00  0.00    -0.283 A  
HETATM   10  C   UNL     1     -12.232  10.392  71.260  1.00  0.00    -0.491 A  
HETATM   11  C   UNL     1     -12.632  11.667  70.875  1.00  0.00    -0.409 A  
ENDBRANCH   5   6
BRANCH   5  12
HETATM   12  C   UNL     1      -8.655   8.612  69.741  1.00  0.00    -0.131 C  
BRANCH  12  13
HETATM   13  C   UNL     1      -7.869   9.172  70.977  1.00  0.00    -0.116 C  
HETATM   14  C   UNL     1      -8.361   8.551  72.295  1.00  0.00    -0.184 C  
BRANCH  13  15
HETATM   15  N   UNL     1      -6.395   8.908  70.830  1.00  0.00    -0.043 NA 
HETATM   16  C   UNL     1      -5.617  10.098  70.462  1.00  0.00    -0.073 C  
HETATM   17  C   UNL     1      -5.795   8.340  72.048  1.00  0.00    -0.043 C  
ENDBRANCH  13  15
ENDBRANCH  12  13
ENDBRANCH   5  12
BRANCH   5  18
HETATM   18  C   UNL     1      -8.412  10.581  68.116  1.00  0.00    -0.123 A  
HETATM   19  C   UNL     1      -8.237  11.831  68.749  1.00  0.00    -0.027 A  
HETATM   20  C   UNL     1      -6.549  11.177  66.634  1.00  0.00    -0.137 A  
HETATM   21  C   UNL     1      -6.357  12.369  67.320  1.00  0.00    -0.142 A  
HETATM   22  C   UNL     1      -7.209  12.702  68.369  1.00  0.00    -0.111 A  
HETATM   23  C   UNL     1      -7.560  10.295  67.028  1.00  0.00    -0.099 A  
ENDBRANCH   5  18
ENDBRANCH   3   5
ENDBRANCH   2   3
TORSDOF 7
ENDMDL
MODEL      200
REMARK 921   NORMALIZED FREE ENERGY PREDICTED BY IDOCK:   -2.77 KCAL/MOL
REMARK 922        TOTAL FREE ENERGY PREDICTED BY IDOCK:   -5.16 KCAL/MOL
REMARK 923 INTER-LIGAND FREE ENERGY PREDICTED BY IDOCK:   -4.42 KCAL/MOL
REMARK 924 INTRA-LIGAND FREE ENERGY PREDICTED BY IDOCK:   -0.75 KCAL/MOL
REMARK 927      BINDING AFFINITY PREDICTED BY RF-SCORE:    0.00 PKD
ROOT
HETATM    1  C   UNL     1      -6.359  11.058  69.228  1.00  0.00    -0.065 C  
HETATM    2  C   UNL     1      -7.263  10.193  70.099  1.00  0.00    -0.162 C  
ENDROOT
BRANCH   2   3
HETATM    3  C   UNL     1      -7.666   8.912  69.381  1.00  0.00    -0.093 C  
HETATM    4  O   UNL     1      -6.792   8.294  68.758  1.00  0.00    -0.059 OA 
BRANCH   3   5
HETATM    5  C   UNL     1      -9.144   8.349  69.543  1.00  0.00    -0.153 C  
BRANCH   5   6
HETATM    6  C   UNL     1      -9.140   7.653  70.962  1.00  0.00    -0.150 A  
HETATM    7  C   UNL     1      -8.439   5.907  72.532  1.00  0.00    -0.116 A  
HETATM    8  C   UNL     1      -9.976   8.156  71.982  1.00  0.00    -0.299 A  
HETATM    9  C   UNL     1      -8.369   6.515  71.273  1.00  0.00    -0.125 A  
HETATM   10  C   UNL     1     -10.051   7.544  73.238  1.00  0.00    -0.386 A  
HETATM   11  C   UNL     1      -9.281   6.418  73.512  1.00  0.00    -0.143 A  
ENDBRANCH   5   6
BRANCH   5  12
HETATM   12  C   UNL     1     -10.222   9.519  69.510  1.00  0.00    -0.225 C  
BRANCH  12  13
HETATM   13  C   UNL     1     -10.033  10.832  68.671  1.00  0.00    -0.182 C  
HETATM   14  C   UNL     1     -10.223  10.579  67.167  1.00  0.00    -0.270 C  
BRANCH  13  15
HETATM   15  N   UNL     1     -11.005  11.889  69.119  1.00  0.00    -0.224 NA 
HETATM   16  C   UNL     1     -11.751  12.508  68.017  1.00  0.00    -0.355 C  
HETATM   17  C   UNL     1     -11.985  11.383  70.095  1.00  0.00    -0.377 C  
ENDBRANCH  13  15
ENDBRANCH  12  13
ENDBRANCH   5  12
BRANCH   5  18
HETATM   18  C   UNL     1      -9.515   7.292  68.454  1.00  0.00    -0.142 A  
HETATM   19  C   UNL     1     -10.872   7.016  68.178  1.00  0.00    -0.214 A  
HETATM   20  C   UNL     1      -8.933   5.853  66.554  1.00  0.00    -0.133 A  
HETATM   21  C   UNL     1     -10.276   5.655  66.265  1.00  0.00    -0.163 A  
HETATM   22  C   UNL     1     -11.246   6.225  67.085  1.00  0.00    -0.260 A  
HETATM   23  C   UNL     1      -8.558   6.662  67.631  1.00  0.00    -0.120 A  
ENDBRANCH   5  18
ENDBRANCH   3   5
ENDBRANCH   2   3
TORSDOF 7
ENDMDL
MODEL      201
REMARK 921   NORMALIZED FREE ENERGY PREDICTED BY IDOCK:   -2.77 KCAL/MOL
REMARK 922        TOTAL FREE ENERGY PREDICTED BY IDOCK:   -5.16 KCAL/MOL
REMARK 923 INTER-LIGAND FREE ENERGY PREDICTED BY IDOCK:   -4.88 KCAL/MOL
REMARK 924 INTRA-LIGAND FREE ENERGY PREDICTED BY IDOCK:   -0.28 KCAL/MOL
REMARK 927      BINDING AFFINITY PREDICTED BY RF-SCORE:    0.00 PKD
ROOT
HETATM    1  C   UNL     1     -10.243  15.468  69.820  1.00  0.00    -0.301 C  
HETATM    2  C   UNL     1     -10.777  14.824  68.546  1.00  0.00    -0.247 C  
ENDROOT
BRANCH   2   3
HETATM    3  C   UNL     1      -9.646  14.312  67.665  1.00  0.00    -0.219 C  
HETATM    4  O   UNL     1      -8.822  15.133  67.239  1.00  0.00    -0.179 OA 
BRANCH   3   5
HETATM    5  C   UNL     1      -9.485  12.750  67.414  1.00  0.00    -0.190 C  
BRANCH   5   6
HETATM    6  C   UNL     1      -7.969  12.457  67.756  1.00  0.00    -0.156 A  
HETATM    7  C   UNL     1      -6.051  12.394  69.278  1.00  0.00    -0.095 A  
HETATM    8  C   UNL     1      -7.095  12.043  66.727  1.00  0.00     0.041 A  
HETATM    9  C   UNL     1      -7.412  12.621  69.039  1.00  0.00     0.098 A  
HETATM   10  C   UNL     1      -5.734  11.824  66.965  1.00  0.00    -0.134 A  
HETATM   11  C   UNL     1      -5.213  12.000  68.242  1.00  0.00    -0.048 A  
ENDBRANCH   5   6
BRANCH   5  12
HETATM   12  C   UNL     1     -10.435  11.905  68.372  1.00  0.00    -0.231 C  
BRANCH  12  13
HETATM   13  C   UNL     1      -9.934  10.666  69.195  1.00  0.00    -0.211 C  
HETATM   14  C   UNL     1     -11.028  10.124  70.130  1.00  0.00    -0.376 C  
BRANCH  13  15
HETATM   15  N   UNL     1      -9.486   9.565  68.272  1.00  0.00    -0.133 NA 
HETATM   16  C   UNL     1      -8.574   8.603  68.902  1.00  0.00    -0.130 C  
HETATM   17  C   UNL     1     -10.613   8.808  67.702  1.00  0.00    -0.213 C  
ENDBRANCH  13  15
ENDBRANCH  12  13
ENDBRANCH   5  12
BRANCH   5  18
HETATM   18  C   UNL     1      -9.767  12.339  65.934  1.00  0.00    -0.247 A  
HETATM   19  C   UNL     1      -9.404  11.051  65.483  1.00  0.00    -0.242 A  
HETATM   20  C   UNL     1     -10.864  12.686  63.767  1.00  0.00    -0.466 A  
HETATM   21  C   UNL     1     -10.552  11.391  63.378  1.00  0.00    -0.435 A  
HETATM   22  C   UNL     1      -9.810  10.577  64.229  1.00  0.00    -0.402 A  
HETATM   23  C   UNL     1     -10.479  13.152  65.029  1.00  0.00    -0.358 A  
ENDBRANCH   5  18
ENDBRANCH   3   5
ENDBRANCH   2   3
TORSDOF 7
ENDMDL
MODEL      202
REMARK 921   NORMALIZED FREE ENERGY PREDICTED BY IDOCK:   -2.76 KCAL/MOL
REMARK 922        TOTAL FREE ENERGY PREDICTED BY IDOCK:   -5.15 KCAL/MOL
REMARK 923 INTER-LIGAND FREE ENERGY PREDICTED BY IDOCK:   -4.91 KCAL/MOL
REMARK 924 INTRA-LIGAND FREE ENERGY PREDICTED BY IDOCK:   -0.24 KCAL/MOL
REMARK 927      BINDING AFFINITY PREDICTED BY RF-SCORE:    0.00 PKD
ROOT
HETATM    1  C   UNL     1      -5.442   7.371  67.770  1.00  0.00    -0.026 C  
HETATM    2  C   UNL     1      -6.788   7.738  67.153  1.00  0.00    -0.069 C  
ENDROOT
BRANCH   2   3
HETATM    3  C   UNL     1      -7.370   8.990  67.796  1.00  0.00    -0.084 C  
HETATM    4  O   UNL     1      -6.582   9.830  68.254  1.00  0.00    -0.056 OA 
BRANCH   3   5
HETATM    5  C   UNL     1      -8.939   9.239  67.760  1.00  0.00    -0.131 C  
BRANCH   5   6
HETATM    6  C   UNL     1      -9.565   7.795  67.903  1.00  0.00    -0.167 A  
HETATM    7  C   UNL     1     -10.906   5.911  67.095  1.00  0.00    -0.373 A  
HETATM    8  C   UNL     1      -9.391   7.081  69.108  1.00  0.00    -0.140 A  
HETATM    9  C   UNL     1     -10.333   7.173  66.899  1.00  0.00    -0.349 A  
HETATM   10  C   UNL     1      -9.970   5.823  69.306  1.00  0.00    -0.238 A  
HETATM   11  C   UNL     1     -10.728   5.238  68.298  1.00  0.00     0.032 A  
ENDBRANCH   5   6
BRANCH   5  12
HETATM   12  C   UNL     1      -9.412  10.163  68.967  1.00  0.00    -0.195 C  
BRANCH  12  13
HETATM   13  C   UNL     1     -10.544   9.745  69.970  1.00  0.00    -0.276 C  
HETATM   14  C   UNL     1      -9.968   9.269  71.313  1.00  0.00    -0.341 C  
BRANCH  13  15
HETATM   15  N   UNL     1     -11.482  10.896  70.217  1.00  0.00    -0.311 NA 
HETATM   16  C   UNL     1     -11.426  11.934  69.180  1.00  0.00    -0.296 C  
HETATM   17  C   UNL     1     -12.884  10.467  70.348  1.00  0.00    -0.206 C  
ENDBRANCH  13  15
ENDBRANCH  12  13
ENDBRANCH   5  12
BRANCH   5  18
HETATM   18  C   UNL     1      -9.424   9.877  66.419  1.00  0.00    -0.234 A  
HETATM   19  C   UNL     1     -10.491  10.802  66.426  1.00  0.00    -0.293 A  
HETATM   20  C   UNL     1      -9.125  10.387  64.037  1.00  0.00    -0.271 A  
HETATM   21  C   UNL     1     -10.134  11.339  64.092  1.00  0.00    -0.373 A  
HETATM   22  C   UNL     1     -10.826  11.537  65.283  1.00  0.00    -0.319 A  
HETATM   23  C   UNL     1      -8.773   9.668  65.185  1.00  0.00    -0.192 A  
ENDBRANCH   5  18
ENDBRANCH   3   5
ENDBRANCH   2   3
TORSDOF 7
ENDMDL
MODEL      203
REMARK 921   NORMALIZED FREE ENERGY PREDICTED BY IDOCK:   -2.75 KCAL/MOL
REMARK 922        TOTAL FREE ENERGY PREDICTED BY IDOCK:   -5.12 KCAL/MOL
REMARK 923 INTER-LIGAND FREE ENERGY PREDICTED BY IDOCK:   -3.95 KCAL/MOL
REMARK 924 INTRA-LIGAND FREE ENERGY PREDICTED BY IDOCK:   -1.17 KCAL/MOL
REMARK 927      BINDING AFFINITY PREDICTED BY RF-SCORE:    0.00 PKD
ROOT
HETATM    1  C   UNL     1     -11.212   6.930  72.874  1.00  0.00    -0.254 C  
HETATM    2  C   UNL     1     -10.958   7.744  71.610  1.00  0.00    -0.272 C  
ENDROOT
BRANCH   2   3
HETATM    3  C   UNL     1     -10.741   6.842  70.402  1.00  0.00    -0.246 C  
HETATM    4  O   UNL     1     -11.698   6.165  70.002  1.00  0.00    -0.336 OA 
BRANCH   3   5
HETATM    5  C   UNL     1      -9.353   6.878  69.628  1.00  0.00    -0.145 C  
BRANCH   5   6
HETATM    6  C   UNL     1      -9.494   8.102  68.637  1.00  0.00    -0.147 A  
HETATM    7  C   UNL     1     -10.473   9.233  66.697  1.00  0.00    -0.237 A  
HETATM    8  C   UNL     1      -8.628   9.208  68.774  1.00  0.00    -0.131 A  
HETATM    9  C   UNL     1     -10.422   8.146  67.578  1.00  0.00    -0.326 A  
HETATM   10  C   UNL     1      -8.675  10.291  67.889  1.00  0.00    -0.122 A  
HETATM   11  C   UNL     1      -9.599  10.302  66.850  1.00  0.00    -0.211 A  
ENDBRANCH   5   6
BRANCH   5  12
HETATM   12  C   UNL     1      -8.136   7.119  70.625  1.00  0.00    -0.113 C  
BRANCH  12  13
HETATM   13  C   UNL     1      -7.653   6.043  71.659  1.00  0.00    -0.100 C  
HETATM   14  C   UNL     1      -6.286   5.455  71.274  1.00  0.00    -0.034 C  
BRANCH  13  15
HETATM   15  N   UNL     1      -7.559   6.640  73.038  1.00  0.00    -0.092 NA 
HETATM   16  C   UNL     1      -6.446   6.111  73.835  1.00  0.00    -0.070 C  
HETATM   17  C   UNL     1      -7.435   8.108  73.013  1.00  0.00    -0.129 C  
ENDBRANCH  13  15
ENDBRANCH  12  13
ENDBRANCH   5  12
BRANCH   5  18
HETATM   18  C   UNL     1      -9.081   5.579  68.805  1.00  0.00    -0.131 A  
HETATM   19  C   UNL     1      -9.566   4.338  69.272  1.00  0.00    -0.261 A  
HETATM   20  C   UNL     1      -8.387   4.429  66.751  1.00  0.00    -0.105 A  
HETATM   21  C   UNL     1      -8.935   3.238  67.209  1.00  0.00    -0.180 A  
HETATM   22  C   UNL     1      -9.512   3.188  68.474  1.00  0.00    -0.207 A  
HETATM   23  C   UNL     1      -8.462   5.584  67.538  1.00  0.00    -0.106 A  
ENDBRANCH   5  18
ENDBRANCH   3   5
ENDBRANCH   2   3
TORSDOF 7
ENDMDL
MODEL      204
REMARK 921   NORMALIZED FREE ENERGY PREDICTED BY IDOCK:   -2.74 KCAL/MOL
REMARK 922        TOTAL FREE ENERGY PREDICTED BY IDOCK:   -5.12 KCAL/MOL
REMARK 923 INTER-LIGAND FREE ENERGY PREDICTED BY IDOCK:   -4.96 KCAL/MOL
REMARK 924 INTRA-LIGAND FREE ENERGY PREDICTED BY IDOCK:   -0.16 KCAL/MOL
REMARK 927      BINDING AFFINITY PREDICTED BY RF-SCORE:    0.00 PKD
ROOT
HETATM    1  C   UNL     1     -10.863   7.101  67.494  1.00  0.00    -0.311 C  
HETATM    2  C   UNL     1     -10.063   8.001  68.430  1.00  0.00    -0.221 C  
ENDROOT
BRANCH   2   3
HETATM    3  C   UNL     1     -10.484   9.458  68.295  1.00  0.00    -0.217 C  
HETATM    4  O   UNL     1     -11.378   9.877  69.043  1.00  0.00    -0.147 OA 
BRANCH   3   5
HETATM    5  C   UNL     1      -9.702  10.417  67.297  1.00  0.00    -0.195 C  
BRANCH   5   6
HETATM    6  C   UNL     1      -8.238  10.482  67.890  1.00  0.00    -0.107 A  
HETATM    7  C   UNL     1      -5.800  10.342  67.697  1.00  0.00    -0.044 A  
HETATM    8  C   UNL     1      -8.061  10.670  69.278  1.00  0.00    -0.133 A  
HETATM    9  C   UNL     1      -7.073  10.325  67.114  1.00  0.00    -0.089 A  
HETATM   10  C   UNL     1      -6.788  10.681  69.860  1.00  0.00    -0.149 A  
HETATM   11  C   UNL     1      -5.658  10.517  69.068  1.00  0.00    -0.041 A  
ENDBRANCH   5   6
BRANCH   5  12
HETATM   12  C   UNL     1      -9.668   9.821  65.821  1.00  0.00    -0.340 C  
BRANCH  12  13
HETATM   13  C   UNL     1      -8.654  10.306  64.727  1.00  0.00    -0.184 C  
HETATM   14  C   UNL     1      -8.097   9.132  63.905  1.00  0.00    -0.155 C  
BRANCH  13  15
HETATM   15  N   UNL     1      -9.311  11.290  63.797  1.00  0.00    -0.179 NA 
HETATM   16  C   UNL     1      -8.962  11.089  62.385  1.00  0.00    -0.297 C  
HETATM   17  C   UNL     1     -10.780  11.276  63.902  1.00  0.00    -0.384 C  
ENDBRANCH  13  15
ENDBRANCH  12  13
ENDBRANCH   5  12
BRANCH   5  18
HETATM   18  C   UNL     1     -10.299  11.859  67.244  1.00  0.00    -0.228 A  
HETATM   19  C   UNL     1      -9.440  12.969  67.088  1.00  0.00    -0.230 A  
HETATM   20  C   UNL     1     -12.189  13.407  67.009  1.00  0.00    -0.321 A  
HETATM   21  C   UNL     1     -11.320  14.467  66.791  1.00  0.00    -0.358 A  
HETATM   22  C   UNL     1      -9.946  14.252  66.843  1.00  0.00    -0.263 A  
HETATM   23  C   UNL     1     -11.685  12.121  67.230  1.00  0.00    -0.369 A  
ENDBRANCH   5  18
ENDBRANCH   3   5
ENDBRANCH   2   3
TORSDOF 7
ENDMDL
MODEL      205
REMARK 921   NORMALIZED FREE ENERGY PREDICTED BY IDOCK:   -2.71 KCAL/MOL
REMARK 922        TOTAL FREE ENERGY PREDICTED BY IDOCK:   -5.07 KCAL/MOL
REMARK 923 INTER-LIGAND FREE ENERGY PREDICTED BY IDOCK:   -4.65 KCAL/MOL
REMARK 924 INTRA-LIGAND FREE ENERGY PREDICTED BY IDOCK:   -0.42 KCAL/MOL
REMARK 927      BINDING AFFINITY PREDICTED BY RF-SCORE:    0.00 PKD
ROOT
HETATM    1  C   UNL     1     -12.233  11.641  70.171  1.00  0.00    -0.367 C  
HETATM    2  C   UNL     1     -11.611  10.734  69.115  1.00  0.00    -0.376 C  
ENDROOT
BRANCH   2   3
HETATM    3  C   UNL     1     -10.514  11.453  68.343  1.00  0.00    -0.200 C  
HETATM    4  O   UNL     1     -10.366  12.668  68.535  1.00  0.00    -0.234 OA 
BRANCH   3   5
HETATM    5  C   UNL     1      -9.527  10.622  67.414  1.00  0.00    -0.172 C  
BRANCH   5   6
HETATM    6  C   UNL     1      -8.094  11.189  67.766  1.00  0.00    -0.117 A  
HETATM    7  C   UNL     1      -6.308  11.778  69.336  1.00  0.00    -0.114 A  
HETATM    8  C   UNL     1      -7.294  11.736  66.739  1.00  0.00    -0.052 A  
HETATM    9  C   UNL     1      -7.564  11.219  69.071  1.00  0.00    -0.106 A  
HETATM   10  C   UNL     1      -6.042  12.300  67.006  1.00  0.00    -0.045 A  
HETATM   11  C   UNL     1      -5.549  12.320  68.306  1.00  0.00    -0.054 A  
ENDBRANCH   5   6
BRANCH   5  12
HETATM   12  C   UNL     1      -9.594   9.065  67.738  1.00  0.00    -0.178 C  
BRANCH  12  13
HETATM   13  C   UNL     1      -8.866   7.980  66.870  1.00  0.00    -0.132 C  
HETATM   14  C   UNL     1      -7.358   7.932  67.163  1.00  0.00    -0.091 C  
BRANCH  13  15
HETATM   15  N   UNL     1      -9.459   6.619  67.119  1.00  0.00    -0.132 NA 
HETATM   16  C   UNL     1     -10.799   6.661  67.717  1.00  0.00    -0.294 C  
HETATM   17  C   UNL     1      -9.539   5.801  65.897  1.00  0.00     0.008 C  
ENDBRANCH  13  15
ENDBRANCH  12  13
ENDBRANCH   5  12
BRANCH   5  18
HETATM   18  C   UNL     1      -9.802  10.832  65.891  1.00  0.00    -0.290 A  
HETATM   19  C   UNL     1     -10.656  11.875  65.469  1.00  0.00    -0.313 A  
HETATM   20  C   UNL     1      -9.286  10.425  63.527  1.00  0.00    -0.333 A  
HETATM   21  C   UNL     1     -10.079  11.499  63.147  1.00  0.00    -0.395 A  
HETATM   22  C   UNL     1     -10.775  12.216  64.117  1.00  0.00    -0.405 A  
HETATM   23  C   UNL     1      -9.148  10.098  64.880  1.00  0.00    -0.256 A  
ENDBRANCH   5  18
ENDBRANCH   3   5
ENDBRANCH   2   3
TORSDOF 7
ENDMDL
MODEL      206
REMARK 921   NORMALIZED FREE ENERGY PREDICTED BY IDOCK:   -2.66 KCAL/MOL
REMARK 922        TOTAL FREE ENERGY PREDICTED BY IDOCK:   -5.01 KCAL/MOL
REMARK 923 INTER-LIGAND FREE ENERGY PREDICTED BY IDOCK:   -3.59 KCAL/MOL
REMARK 924 INTRA-LIGAND FREE ENERGY PREDICTED BY IDOCK:   -1.42 KCAL/MOL
REMARK 927      BINDING AFFINITY PREDICTED BY RF-SCORE:    0.00 PKD
ROOT
HETATM    1  C   UNL     1     -11.178   6.309  69.617  1.00  0.00    -0.506 C  
HETATM    2  C   UNL     1     -10.651   7.713  69.343  1.00  0.00    -0.217 C  
ENDROOT
BRANCH   2   3
HETATM    3  C   UNL     1     -10.094   7.831  67.931  1.00  0.00    -0.185 C  
HETATM    4  O   UNL     1     -10.886   7.738  66.983  1.00  0.00    -0.316 OA 
BRANCH   3   5
HETATM    5  C   UNL     1      -8.559   8.181  67.714  1.00  0.00    -0.131 C  
BRANCH   5   6
HETATM    6  C   UNL     1      -8.101   7.211  66.553  1.00  0.00    -0.114 A  
HETATM    7  C   UNL     1      -8.056   5.042  65.415  1.00  0.00    -0.116 A  
HETATM    8  C   UNL     1      -7.180   7.672  65.588  1.00  0.00    -0.065 A  
HETATM    9  C   UNL     1      -8.531   5.874  66.436  1.00  0.00    -0.120 A  
HETATM   10  C   UNL     1      -6.701   6.838  64.572  1.00  0.00    -0.042 A  
HETATM   11  C   UNL     1      -7.140   5.521  64.487  1.00  0.00    -0.050 A  
ENDBRANCH   5   6
BRANCH   5  12
HETATM   12  C   UNL     1      -8.363   9.697  67.270  1.00  0.00    -0.114 C  
BRANCH  12  13
HETATM   13  C   UNL     1      -9.550  10.716  67.161  1.00  0.00    -0.164 C  
HETATM   14  C   UNL     1      -9.457  11.817  68.229  1.00  0.00    -0.193 C  
BRANCH  13  15
HETATM   15  N   UNL     1      -9.575  11.354  65.798  1.00  0.00    -0.227 NA 
HETATM   16  C   UNL     1     -10.082  10.469  64.743  1.00  0.00    -0.336 C  
HETATM   17  C   UNL     1     -10.371  12.592  65.765  1.00  0.00    -0.279 C  
ENDBRANCH  13  15
ENDBRANCH  12  13
ENDBRANCH   5  12
BRANCH   5  18
HETATM   18  C   UNL     1      -7.688   7.910  68.982  1.00  0.00    -0.101 A  
HETATM   19  C   UNL     1      -7.289   8.989  69.802  1.00  0.00    -0.058 A  
HETATM   20  C   UNL     1      -6.727   6.401  70.661  1.00  0.00    -0.057 A  
HETATM   21  C   UNL     1      -6.409   7.477  71.478  1.00  0.00    -0.035 A  
HETATM   22  C   UNL     1      -6.677   8.772  71.043  1.00  0.00    -0.070 A  
HETATM   23  C   UNL     1      -7.360   6.614  69.432  1.00  0.00    -0.092 A  
ENDBRANCH   5  18
ENDBRANCH   3   5
ENDBRANCH   2   3
TORSDOF 7
ENDMDL
MODEL      207
REMARK 921   NORMALIZED FREE ENERGY PREDICTED BY IDOCK:   -2.64 KCAL/MOL
REMARK 922        TOTAL FREE ENERGY PREDICTED BY IDOCK:   -4.98 KCAL/MOL
REMARK 923 INTER-LIGAND FREE ENERGY PREDICTED BY IDOCK:   -4.12 KCAL/MOL
REMARK 924 INTRA-LIGAND FREE ENERGY PREDICTED BY IDOCK:   -0.86 KCAL/MOL
REMARK 927      BINDING AFFINITY PREDICTED BY RF-SCORE:    0.00 PKD
ROOT
HETATM    1  C   UNL     1     -11.658   9.128  71.554  1.00  0.00    -0.439 C  
HETATM    2  C   UNL     1     -11.734   7.700  71.024  1.00  0.00    -0.306 C  
ENDROOT
BRANCH   2   3
HETATM    3  C   UNL     1     -10.687   6.809  71.678  1.00  0.00    -0.225 C  
HETATM    4  O   UNL     1     -10.895   6.418  72.836  1.00  0.00    -0.236 OA 
BRANCH   3   5
HETATM    5  C   UNL     1      -9.433   6.314  70.835  1.00  0.00    -0.185 C  
BRANCH   5   6
HETATM    6  C   UNL     1      -8.334   7.422  71.090  1.00  0.00    -0.114 A  
HETATM    7  C   UNL     1      -7.164   9.500  70.529  1.00  0.00    -0.141 A  
HETATM    8  C   UNL     1      -7.413   7.254  72.145  1.00  0.00    -0.080 A  
HETATM    9  C   UNL     1      -8.186   8.573  70.291  1.00  0.00    -0.115 A  
HETATM   10  C   UNL     1      -6.387   8.177  72.379  1.00  0.00    -0.068 A  
HETATM   11  C   UNL     1      -6.264   9.301  71.569  1.00  0.00    -0.046 A  
ENDBRANCH   5   6
BRANCH   5  12
HETATM   12  C   UNL     1      -8.911   4.899  71.342  1.00  0.00    -0.153 C  
BRANCH  12  13
HETATM   13  C   UNL     1      -9.859   3.669  71.567  1.00  0.00    -0.157 C  
HETATM   14  C   UNL     1      -9.612   2.562  70.530  1.00  0.00    -0.138 C  
BRANCH  13  15
HETATM   15  N   UNL     1      -9.668   3.100  72.947  1.00  0.00    -0.111 NA 
HETATM   16  C   UNL     1      -8.676   3.825  73.751  1.00  0.00    -0.089 C  
HETATM   17  C   UNL     1     -10.921   3.049  73.719  1.00  0.00    -0.222 C  
ENDBRANCH  13  15
ENDBRANCH  12  13
ENDBRANCH   5  12
BRANCH   5  18
HETATM   18  C   UNL     1      -9.726   6.224  69.304  1.00  0.00    -0.157 A  
HETATM   19  C   UNL     1      -8.822   5.549  68.455  1.00  0.00    -0.107 A  
HETATM   20  C   UNL     1     -11.228   6.439  67.376  1.00  0.00    -0.283 A  
HETATM   21  C   UNL     1     -10.350   5.713  66.583  1.00  0.00    -0.311 A  
HETATM   22  C   UNL     1      -9.140   5.279  67.118  1.00  0.00    -0.112 A  
HETATM   23  C   UNL     1     -10.922   6.689  68.718  1.00  0.00    -0.322 A  
ENDBRANCH   5  18
ENDBRANCH   3   5
ENDBRANCH   2   3
TORSDOF 7
ENDMDL
MODEL      208
REMARK 921   NORMALIZED FREE ENERGY PREDICTED BY IDOCK:   -2.60 KCAL/MOL
REMARK 922        TOTAL FREE ENERGY PREDICTED BY IDOCK:   -4.92 KCAL/MOL
REMARK 923 INTER-LIGAND FREE ENERGY PREDICTED BY IDOCK:   -4.02 KCAL/MOL
REMARK 924 INTRA-LIGAND FREE ENERGY PREDICTED BY IDOCK:   -0.90 KCAL/MOL
REMARK 927      BINDING AFFINITY PREDICTED BY RF-SCORE:    0.00 PKD
ROOT
HETATM    1  C   UNL     1     -12.238  10.819  70.502  1.00  0.00    -0.457 C  
HETATM    2  C   UNL     1     -10.799  10.314  70.495  1.00  0.00    -0.281 C  
ENDROOT
BRANCH   2   3
HETATM    3  C   UNL     1     -10.690   8.958  69.812  1.00  0.00    -0.225 C  
HETATM    4  O   UNL     1     -11.518   8.087  70.111  1.00  0.00    -0.159 OA 
BRANCH   3   5
HETATM    5  C   UNL     1      -9.609   8.735  68.668  1.00  0.00    -0.159 C  
BRANCH   5   6
HETATM    6  C   UNL     1      -8.224   8.974  69.391  1.00  0.00    -0.117 A  
HETATM    7  C   UNL     1      -6.699   8.778  71.299  1.00  0.00    -0.078 A  
HETATM    8  C   UNL     1      -7.228   9.738  68.745  1.00  0.00    -0.072 A  
HETATM    9  C   UNL     1      -7.924   8.496  70.683  1.00  0.00    -0.104 A  
HETATM   10  C   UNL     1      -6.006  10.025  69.365  1.00  0.00    -0.037 A  
HETATM   11  C   UNL     1      -5.743   9.544  70.642  1.00  0.00    -0.057 A  
ENDBRANCH   5   6
BRANCH   5  12
HETATM   12  C   UNL     1      -9.673   7.255  68.085  1.00  0.00    -0.155 C  
BRANCH  12  13
HETATM   13  C   UNL     1      -8.452   6.270  68.118  1.00  0.00    -0.114 C  
HETATM   14  C   UNL     1      -8.890   4.812  67.902  1.00  0.00    -0.114 C  
BRANCH  13  15
HETATM   15  N   UNL     1      -7.445   6.641  67.064  1.00  0.00    -0.086 NA 
HETATM   16  C   UNL     1      -6.052   6.523  67.512  1.00  0.00    -0.024 C  
HETATM   17  C   UNL     1      -7.590   5.845  65.834  1.00  0.00    -0.086 C  
ENDBRANCH  13  15
ENDBRANCH  12  13
ENDBRANCH   5  12
BRANCH   5  18
HETATM   18  C   UNL     1      -9.753   9.747  67.487  1.00  0.00    -0.192 A  
HETATM   19  C   UNL     1      -9.669   9.288  66.154  1.00  0.00    -0.349 A  
HETATM   20  C   UNL     1     -10.372  11.946  66.591  1.00  0.00    -0.242 A  
HETATM   21  C   UNL     1     -10.348  11.448  65.295  1.00  0.00    -0.336 A  
HETATM   22  C   UNL     1      -9.983  10.123  65.076  1.00  0.00    -0.375 A  
HETATM   23  C   UNL     1     -10.081  11.107  67.672  1.00  0.00    -0.203 A  
ENDBRANCH   5  18
ENDBRANCH   3   5
ENDBRANCH   2   3
TORSDOF 7
ENDMDL
MODEL      209
REMARK 921   NORMALIZED FREE ENERGY PREDICTED BY IDOCK:   -2.60 KCAL/MOL
REMARK 922        TOTAL FREE ENERGY PREDICTED BY IDOCK:   -4.91 KCAL/MOL
REMARK 923 INTER-LIGAND FREE ENERGY PREDICTED BY IDOCK:   -4.04 KCAL/MOL
REMARK 924 INTRA-LIGAND FREE ENERGY PREDICTED BY IDOCK:   -0.87 KCAL/MOL
REMARK 927      BINDING AFFINITY PREDICTED BY RF-SCORE:    0.00 PKD
ROOT
HETATM    1  C   UNL     1      -9.045   4.262  69.168  1.00  0.00    -0.185 C  
HETATM    2  C   UNL     1      -7.999   4.595  70.226  1.00  0.00    -0.064 C  
ENDROOT
BRANCH   2   3
HETATM    3  C   UNL     1      -8.185   6.006  70.766  1.00  0.00    -0.125 C  
HETATM    4  O   UNL     1      -7.836   6.955  70.050  1.00  0.00    -0.106 OA 
BRANCH   3   5
HETATM    5  C   UNL     1      -8.916   6.228  72.160  1.00  0.00    -0.137 C  
BRANCH   5   6
HETATM    6  C   UNL     1      -7.839   6.968  73.049  1.00  0.00    -0.102 A  
HETATM    7  C   UNL     1      -7.111   8.773  74.538  1.00  0.00    -0.109 A  
HETATM    8  C   UNL     1      -6.513   6.487  73.076  1.00  0.00    -0.067 A  
HETATM    9  C   UNL     1      -8.113   8.126  73.805  1.00  0.00    -0.285 A  
HETATM   10  C   UNL     1      -5.510   7.138  73.803  1.00  0.00    -0.046 A  
HETATM   11  C   UNL     1      -5.811   8.281  74.535  1.00  0.00    -0.107 A  
ENDBRANCH   5   6
BRANCH   5  12
HETATM   12  C   UNL     1     -10.213   7.136  72.001  1.00  0.00    -0.209 C  
BRANCH  12  13
HETATM   13  C   UNL     1     -10.871   7.451  70.612  1.00  0.00    -0.242 C  
HETATM   14  C   UNL     1     -11.571   6.217  70.020  1.00  0.00    -0.378 C  
BRANCH  13  15
HETATM   15  N   UNL     1     -11.870   8.568  70.742  1.00  0.00    -0.222 NA 
HETATM   16  C   UNL     1     -13.143   8.153  71.342  1.00  0.00    -0.225 C  
HETATM   17  C   UNL     1     -11.354   9.704  71.525  1.00  0.00    -0.350 C  
ENDBRANCH  13  15
ENDBRANCH  12  13
ENDBRANCH   5  12
BRANCH   5  18
HETATM   18  C   UNL     1      -9.322   4.888  72.855  1.00  0.00    -0.145 A  
HETATM   19  C   UNL     1      -8.371   4.180  73.622  1.00  0.00    -0.093 A  
HETATM   20  C   UNL     1     -11.006   3.280  73.629  1.00  0.00    -0.330 A  
HETATM   21  C   UNL     1     -10.064   2.646  74.426  1.00  0.00    -0.172 A  
HETATM   22  C   UNL     1      -8.743   3.086  74.413  1.00  0.00    -0.082 A  
HETATM   23  C   UNL     1     -10.640   4.388  72.856  1.00  0.00    -0.264 A  
ENDBRANCH   5  18
ENDBRANCH   3   5
ENDBRANCH   2   3
TORSDOF 7
ENDMDL
MODEL      210
REMARK 921   NORMALIZED FREE ENERGY PREDICTED BY IDOCK:   -2.56 KCAL/MOL
REMARK 922        TOTAL FREE ENERGY PREDICTED BY IDOCK:   -4.86 KCAL/MOL
REMARK 923 INTER-LIGAND FREE ENERGY PREDICTED BY IDOCK:   -4.66 KCAL/MOL
REMARK 924 INTRA-LIGAND FREE ENERGY PREDICTED BY IDOCK:   -0.20 KCAL/MOL
REMARK 927      BINDING AFFINITY PREDICTED BY RF-SCORE:    0.00 PKD
ROOT
HETATM    1  C   UNL     1      -6.087  13.760  69.625  1.00  0.00    -0.118 C  
HETATM    2  C   UNL     1      -6.596  14.178  68.250  1.00  0.00    -0.114 C  
ENDROOT
BRANCH   2   3
HETATM    3  C   UNL     1      -7.115  12.982  67.463  1.00  0.00    -0.154 C  
HETATM    4  O   UNL     1      -6.324  12.385  66.720  1.00  0.00    -0.139 OA 
BRANCH   3   5
HETATM    5  C   UNL     1      -8.601  12.467  67.698  1.00  0.00    -0.178 C  
BRANCH   5   6
HETATM    6  C   UNL     1      -8.979  11.744  66.345  1.00  0.00    -0.201 A  
HETATM    7  C   UNL     1      -8.591  10.101  64.569  1.00  0.00    -0.198 A  
HETATM    8  C   UNL     1     -10.092  12.197  65.605  1.00  0.00    -0.274 A  
HETATM    9  C   UNL     1      -8.241  10.676  65.797  1.00  0.00    -0.161 A  
HETATM   10  C   UNL     1     -10.437  11.628  64.374  1.00  0.00    -0.374 A  
HETATM   11  C   UNL     1      -9.685  10.578  63.857  1.00  0.00    -0.384 A  
ENDBRANCH   5   6
BRANCH   5  12
HETATM   12  C   UNL     1      -8.676  11.437  68.909  1.00  0.00    -0.012 C  
BRANCH  12  13
HETATM   13  C   UNL     1      -7.925  10.059  68.907  1.00  0.00    -0.101 C  
HETATM   14  C   UNL     1      -6.565  10.151  69.619  1.00  0.00    -0.069 C  
BRANCH  13  15
HETATM   15  N   UNL     1      -8.760   9.002  69.577  1.00  0.00    -0.139 NA 
HETATM   16  C   UNL     1      -9.943   9.533  70.265  1.00  0.00    -0.259 C  
HETATM   17  C   UNL     1      -9.216   7.961  68.641  1.00  0.00    -0.142 C  
ENDBRANCH  13  15
ENDBRANCH  12  13
ENDBRANCH   5  12
BRANCH   5  18
HETATM   18  C   UNL     1      -9.613  13.627  67.961  1.00  0.00    -0.216 A  
HETATM   19  C   UNL     1      -9.486  14.843  67.253  1.00  0.00    -0.216 A  
HETATM   20  C   UNL     1     -11.719  14.491  68.878  1.00  0.00    -0.354 A  
HETATM   21  C   UNL     1     -11.601  15.646  68.117  1.00  0.00    -0.290 A  
HETATM   22  C   UNL     1     -10.479  15.829  67.315  1.00  0.00    -0.308 A  
HETATM   23  C   UNL     1     -10.740  13.494  68.799  1.00  0.00    -0.261 A  
ENDBRANCH   5  18
ENDBRANCH   3   5
ENDBRANCH   2   3
TORSDOF 7
ENDMDL
MODEL      211
REMARK 921   NORMALIZED FREE ENERGY PREDICTED BY IDOCK:   -2.46 KCAL/MOL
REMARK 922        TOTAL FREE ENERGY PREDICTED BY IDOCK:   -4.72 KCAL/MOL
REMARK 923 INTER-LIGAND FREE ENERGY PREDICTED BY IDOCK:   -5.08 KCAL/MOL
REMARK 924 INTRA-LIGAND FREE ENERGY PREDICTED BY IDOCK:    0.36 KCAL/MOL
REMARK 927      BINDING AFFINITY PREDICTED BY RF-SCORE:    0.00 PKD
ROOT
HETATM    1  C   UNL     1     -13.488   9.540  72.310  1.00  0.00    -0.521 C  
HETATM    2  C   UNL     1     -12.579   9.262  71.117  1.00  0.00    -0.324 C  
ENDROOT
BRANCH   2   3
HETATM    3  C   UNL     1     -12.171   7.796  71.060  1.00  0.00    -0.215 C  
HETATM    4  O   UNL     1     -13.028   6.942  71.329  1.00  0.00    -0.350 OA 
BRANCH   3   5
HETATM    5  C   UNL     1     -10.718   7.400  70.552  1.00  0.00    -0.247 C  
BRANCH   5   6
HETATM    6  C   UNL     1      -9.812   7.513  71.842  1.00  0.00    -0.196 A  
HETATM    7  C   UNL     1      -9.436   7.381  74.259  1.00  0.00    -0.098 A  
HETATM    8  C   UNL     1      -8.483   7.970  71.717  1.00  0.00    -0.164 A  
HETATM    9  C   UNL     1     -10.265   7.217  73.143  1.00  0.00    -0.317 A  
HETATM   10  C   UNL     1      -7.657   8.140  72.834  1.00  0.00    -0.181 A  
HETATM   11  C   UNL     1      -8.136   7.845  74.106  1.00  0.00    -0.290 A  
ENDBRANCH   5   6
BRANCH   5  12
HETATM   12  C   UNL     1     -10.682   5.913  69.986  1.00  0.00    -0.396 C  
BRANCH  12  13
HETATM   13  C   UNL     1      -9.370   5.054  69.922  1.00  0.00    -0.139 C  
HETATM   14  C   UNL     1      -8.270   5.756  69.110  1.00  0.00    -0.101 C  
BRANCH  13  15
HETATM   15  N   UNL     1      -8.855   4.772  71.308  1.00  0.00    -0.125 NA 
HETATM   16  C   UNL     1      -9.509   3.630  71.958  1.00  0.00    -0.135 C  
HETATM   17  C   UNL     1      -7.403   4.534  71.336  1.00  0.00    -0.059 C  
ENDBRANCH  13  15
ENDBRANCH  12  13
ENDBRANCH   5  12
BRANCH   5  18
HETATM   18  C   UNL     1     -10.172   8.369  69.455  1.00  0.00    -0.208 A  
HETATM   19  C   UNL     1      -9.375   9.474  69.828  1.00  0.00    -0.227 A  
HETATM   20  C   UNL     1      -9.689   8.931  67.115  1.00  0.00    -0.241 A  
HETATM   21  C   UNL     1      -8.857   9.968  67.514  1.00  0.00    -0.130 A  
HETATM   22  C   UNL     1      -8.710  10.248  68.869  1.00  0.00    -0.152 A  
HETATM   23  C   UNL     1     -10.335   8.141  68.072  1.00  0.00    -0.267 A  
ENDBRANCH   5  18
ENDBRANCH   3   5
ENDBRANCH   2   3
TORSDOF 7
ENDMDL
MODEL      212
REMARK 921   NORMALIZED FREE ENERGY PREDICTED BY IDOCK:   -2.40 KCAL/MOL
REMARK 922        TOTAL FREE ENERGY PREDICTED BY IDOCK:   -4.63 KCAL/MOL
REMARK 923 INTER-LIGAND FREE ENERGY PREDICTED BY IDOCK:   -6.33 KCAL/MOL
REMARK 924 INTRA-LIGAND FREE ENERGY PREDICTED BY IDOCK:    1.70 KCAL/MOL
REMARK 927      BINDING AFFINITY PREDICTED BY RF-SCORE:    0.00 PKD
ROOT
HETATM    1  C   UNL     1     -12.536  11.507  70.911  1.00  0.00    -0.464 C  
HETATM    2  C   UNL     1     -12.014  12.634  70.026  1.00  0.00    -0.377 C  
ENDROOT
BRANCH   2   3
HETATM    3  C   UNL     1     -11.630  12.122  68.644  1.00  0.00    -0.321 C  
HETATM    4  O   UNL     1     -12.401  11.333  68.080  1.00  0.00    -0.500 OA 
BRANCH   3   5
HETATM    5  C   UNL     1     -10.333  12.692  67.924  1.00  0.00    -0.221 C  
BRANCH   5   6
HETATM    6  C   UNL     1     -10.483  14.261  68.039  1.00  0.00    -0.235 A  
HETATM    7  C   UNL     1     -10.568  16.518  67.089  1.00  0.00    -0.270 A  
HETATM    8  C   UNL     1     -10.588  14.855  69.315  1.00  0.00    -0.248 A  
HETATM    9  C   UNL     1     -10.481  15.130  66.929  1.00  0.00    -0.282 A  
HETATM   10  C   UNL     1     -10.668  16.243  69.474  1.00  0.00    -0.323 A  
HETATM   11  C   UNL     1     -10.658  17.074  68.359  1.00  0.00    -0.375 A  
ENDBRANCH   5   6
BRANCH   5  12
HETATM   12  C   UNL     1      -9.002  12.214  68.655  1.00  0.00    -0.004 C  
BRANCH  12  13
HETATM   13  C   UNL     1      -7.598  12.859  68.382  1.00  0.00    -0.133 C  
HETATM   14  C   UNL     1      -7.084  12.528  66.972  1.00  0.00     0.031 C  
BRANCH  13  15
HETATM   15  N   UNL     1      -7.663  14.354  68.543  1.00  0.00    -0.128 NA 
HETATM   16  C   UNL     1      -7.121  14.833  69.821  1.00  0.00    -0.132 C  
HETATM   17  C   UNL     1      -6.966  15.072  67.463  1.00  0.00    -0.186 C  
ENDBRANCH  13  15
ENDBRANCH  12  13
ENDBRANCH   5  12
BRANCH   5  18
HETATM   18  C   UNL     1     -10.249  12.294  66.416  1.00  0.00    -0.247 A  
HETATM   19  C   UNL     1      -9.906  10.971  66.057  1.00  0.00    -0.273 A  
HETATM   20  C   UNL     1     -10.690  12.723  64.041  1.00  0.00    -0.457 A  
HETATM   21  C   UNL     1     -10.413  11.399  63.728  1.00  0.00    -0.456 A  
HETATM   22  C   UNL     1     -10.008  10.526  64.734  1.00  0.00    -0.412 A  
HETATM   23  C   UNL     1     -10.611  13.163  65.366  1.00  0.00    -0.311 A  
ENDBRANCH   5  18
ENDBRANCH   3   5
ENDBRANCH   2   3
TORSDOF 7
ENDMDL
MODEL      213
REMARK 921   NORMALIZED FREE ENERGY PREDICTED BY IDOCK:   -2.36 KCAL/MOL
REMARK 922        TOTAL FREE ENERGY PREDICTED BY IDOCK:   -4.58 KCAL/MOL
REMARK 923 INTER-LIGAND FREE ENERGY PREDICTED BY IDOCK:   -4.19 KCAL/MOL
REMARK 924 INTRA-LIGAND FREE ENERGY PREDICTED BY IDOCK:   -0.39 KCAL/MOL
REMARK 927      BINDING AFFINITY PREDICTED BY RF-SCORE:    0.00 PKD
ROOT
HETATM    1  C   UNL     1      -9.421   9.098  70.193  1.00  0.00    -0.235 C  
HETATM    2  C   UNL     1      -8.375   8.043  70.533  1.00  0.00    -0.123 C  
ENDROOT
BRANCH   2   3
HETATM    3  C   UNL     1      -8.354   6.928  69.495  1.00  0.00    -0.133 C  
HETATM    4  O   UNL     1      -7.480   6.966  68.617  1.00  0.00    -0.094 OA 
BRANCH   3   5
HETATM    5  C   UNL     1      -9.359   5.705  69.631  1.00  0.00    -0.171 C  
BRANCH   5   6
HETATM    6  C   UNL     1      -9.699   5.650  71.174  1.00  0.00    -0.218 A  
HETATM    7  C   UNL     1      -9.105   5.305  73.525  1.00  0.00    -0.128 A  
HETATM    8  C   UNL     1     -11.034   5.831  71.596  1.00  0.00    -0.308 A  
HETATM    9  C   UNL     1      -8.743   5.392  72.175  1.00  0.00    -0.130 A  
HETATM   10  C   UNL     1     -11.396   5.738  72.944  1.00  0.00    -0.298 A  
HETATM   11  C   UNL     1     -10.429   5.475  73.909  1.00  0.00    -0.308 A  
ENDBRANCH   5   6
BRANCH   5  12
HETATM   12  C   UNL     1     -10.687   5.945  68.786  1.00  0.00    -0.354 C  
BRANCH  12  13
HETATM   13  C   UNL     1     -10.681   6.191  67.237  1.00  0.00    -0.335 C  
HETATM   14  C   UNL     1     -10.291   7.637  66.891  1.00  0.00    -0.388 C  
BRANCH  13  15
HETATM   15  N   UNL     1      -9.727   5.248  66.555  1.00  0.00    -0.154 NA 
HETATM   16  C   UNL     1     -10.393   4.201  65.771  1.00  0.00    -0.065 C  
HETATM   17  C   UNL     1      -8.781   5.942  65.666  1.00  0.00    -0.146 C  
ENDBRANCH  13  15
ENDBRANCH  12  13
ENDBRANCH   5  12
BRANCH   5  18
HETATM   18  C   UNL     1      -8.726   4.344  69.197  1.00  0.00    -0.116 A  
HETATM   19  C   UNL     1      -7.372   4.296  68.798  1.00  0.00    -0.056 A  
HETATM   20  C   UNL     1      -8.757   1.895  69.054  1.00  0.00    -0.119 A  
HETATM   21  C   UNL     1      -7.407   1.876  68.731  1.00  0.00    -0.043 A  
HETATM   22  C   UNL     1      -6.717   3.076  68.590  1.00  0.00    -0.040 A  
HETATM   23  C   UNL     1      -9.406   3.112  69.286  1.00  0.00    -0.223 A  
ENDBRANCH   5  18
ENDBRANCH   3   5
ENDBRANCH   2   3
TORSDOF 7
ENDMDL
MODEL      214
REMARK 921   NORMALIZED FREE ENERGY PREDICTED BY IDOCK:   -2.24 KCAL/MOL
REMARK 922        TOTAL FREE ENERGY PREDICTED BY IDOCK:   -4.40 KCAL/MOL
REMARK 923 INTER-LIGAND FREE ENERGY PREDICTED BY IDOCK:   -5.36 KCAL/MOL
REMARK 924 INTRA-LIGAND FREE ENERGY PREDICTED BY IDOCK:    0.95 KCAL/MOL
REMARK 927      BINDING AFFINITY PREDICTED BY RF-SCORE:    0.00 PKD
ROOT
HETATM    1  C   UNL     1     -10.231  14.391  65.262  1.00  0.00    -0.416 C  
HETATM    2  C   UNL     1     -10.572  15.866  65.445  1.00  0.00    -0.439 C  
ENDROOT
BRANCH   2   3
HETATM    3  C   UNL     1     -10.386  16.303  66.892  1.00  0.00    -0.299 C  
HETATM    4  O   UNL     1     -10.798  17.424  67.220  1.00  0.00    -0.263 OA 
BRANCH   3   5
HETATM    5  C   UNL     1      -9.784  15.284  67.953  1.00  0.00    -0.211 C  
BRANCH   5   6
HETATM    6  C   UNL     1     -10.847  15.268  69.122  1.00  0.00    -0.250 A  
HETATM    7  C   UNL     1     -13.137  15.130  69.984  1.00  0.00     0.076 A  
HETATM    8  C   UNL     1     -10.420  15.482  70.450  1.00  0.00    -0.222 A  
HETATM    9  C   UNL     1     -12.230  15.087  68.918  1.00  0.00    -0.136 A  
HETATM   10  C   UNL     1     -11.328  15.532  71.514  1.00  0.00    -0.466 A  
HETATM   11  C   UNL     1     -12.687  15.355  71.279  1.00  0.00    -0.501 A  
ENDBRANCH   5   6
BRANCH   5  12
HETATM   12  C   UNL     1      -9.626  13.825  67.337  1.00  0.00    -0.229 C  
BRANCH  12  13
HETATM   13  C   UNL     1      -9.974  12.519  68.133  1.00  0.00    -0.224 C  
HETATM   14  C   UNL     1     -11.373  11.990  67.777  1.00  0.00    -0.370 C  
BRANCH  13  15
HETATM   15  N   UNL     1      -8.957  11.445  67.855  1.00  0.00    -0.147 NA 
HETATM   16  C   UNL     1      -7.868  11.878  66.973  1.00  0.00    -0.152 C  
HETATM   17  C   UNL     1      -8.352  10.905  69.084  1.00  0.00    -0.069 C  
ENDBRANCH  13  15
ENDBRANCH  12  13
ENDBRANCH   5  12
BRANCH   5  18
HETATM   18  C   UNL     1      -8.403  15.742  68.522  1.00  0.00    -0.175 A  
HETATM   19  C   UNL     1      -7.474  14.778  68.970  1.00  0.00    -0.142 A  
HETATM   20  C   UNL     1      -6.665  17.440  68.869  1.00  0.00    -0.226 A  
HETATM   21  C   UNL     1      -5.753  16.461  69.240  1.00  0.00    -0.137 A  
HETATM   22  C   UNL     1      -6.161  15.132  69.304  1.00  0.00    -0.109 A  
HETATM   23  C   UNL     1      -7.971  17.085  68.512  1.00  0.00    -0.249 A  
ENDBRANCH   5  18
ENDBRANCH   3   5
ENDBRANCH   2   3
TORSDOF 7
ENDMDL
MODEL      215
REMARK 921   NORMALIZED FREE ENERGY PREDICTED BY IDOCK:   -2.24 KCAL/MOL
REMARK 922        TOTAL FREE ENERGY PREDICTED BY IDOCK:   -4.40 KCAL/MOL
REMARK 923 INTER-LIGAND FREE ENERGY PREDICTED BY IDOCK:   -4.41 KCAL/MOL
REMARK 924 INTRA-LIGAND FREE ENERGY PREDICTED BY IDOCK:    0.01 KCAL/MOL
REMARK 927      BINDING AFFINITY PREDICTED BY RF-SCORE:    0.00 PKD
ROOT
HETATM    1  C   UNL     1      -6.395   8.870  70.750  1.00  0.00    -0.049 C  
HETATM    2  C   UNL     1      -7.906   8.692  70.657  1.00  0.00    -0.101 C  
ENDROOT
BRANCH   2   3
HETATM    3  C   UNL     1      -8.278   7.639  69.621  1.00  0.00    -0.128 C  
HETATM    4  O   UNL     1      -7.533   6.658  69.495  1.00  0.00    -0.088 OA 
BRANCH   3   5
HETATM    5  C   UNL     1      -9.649   7.764  68.825  1.00  0.00    -0.154 C  
BRANCH   5   6
HETATM    6  C   UNL     1      -9.671   6.491  67.889  1.00  0.00    -0.126 A  
HETATM    7  C   UNL     1      -8.663   4.476  66.925  1.00  0.00    -0.111 A  
HETATM    8  C   UNL     1     -10.783   6.268  67.050  1.00  0.00    -0.435 A  
HETATM    9  C   UNL     1      -8.614   5.562  67.808  1.00  0.00    -0.108 A  
HETATM   10  C   UNL     1     -10.828   5.186  66.163  1.00  0.00    -0.163 A  
HETATM   11  C   UNL     1      -9.766   4.290  66.102  1.00  0.00    -0.220 A  
ENDBRANCH   5   6
BRANCH   5  12
HETATM   12  C   UNL     1     -10.899   7.742  69.809  1.00  0.00    -0.211 C  
BRANCH  12  13
HETATM   13  C   UNL     1     -11.502   6.417  70.396  1.00  0.00    -0.393 C  
HETATM   14  C   UNL     1     -10.423   5.544  71.057  1.00  0.00    -0.314 C  
BRANCH  13  15
HETATM   15  N   UNL     1     -12.572   6.726  71.408  1.00  0.00    -0.340 NA 
HETATM   16  C   UNL     1     -12.417   5.994  72.671  1.00  0.00     0.275 C  
HETATM   17  C   UNL     1     -12.652   8.161  71.728  1.00  0.00    -0.330 C  
ENDBRANCH  13  15
ENDBRANCH  12  13
ENDBRANCH   5  12
BRANCH   5  18
HETATM   18  C   UNL     1      -9.725   9.051  67.943  1.00  0.00    -0.185 A  
HETATM   19  C   UNL     1      -8.813   9.228  66.879  1.00  0.00    -0.141 A  
HETATM   20  C   UNL     1     -10.884  11.068  67.161  1.00  0.00    -0.336 A  
HETATM   21  C   UNL     1     -10.013  11.176  66.085  1.00  0.00    -0.273 A  
HETATM   22  C   UNL     1      -8.970  10.265  65.951  1.00  0.00    -0.181 A  
HETATM   23  C   UNL     1     -10.743  10.018  68.075  1.00  0.00    -0.303 A  
ENDBRANCH   5  18
ENDBRANCH   3   5
ENDBRANCH   2   3
TORSDOF 7
ENDMDL
MODEL      216
REMARK 921   NORMALIZED FREE ENERGY PREDICTED BY IDOCK:   -2.23 KCAL/MOL
REMARK 922        TOTAL FREE ENERGY PREDICTED BY IDOCK:   -4.40 KCAL/MOL
REMARK 923 INTER-LIGAND FREE ENERGY PREDICTED BY IDOCK:   -4.54 KCAL/MOL
REMARK 924 INTRA-LIGAND FREE ENERGY PREDICTED BY IDOCK:    0.14 KCAL/MOL
REMARK 927      BINDING AFFINITY PREDICTED BY RF-SCORE:    0.00 PKD
ROOT
HETATM    1  C   UNL     1      -6.374   7.001  68.143  1.00  0.00    -0.039 C  
HETATM    2  C   UNL     1      -7.091   7.274  69.461  1.00  0.00    -0.074 C  
ENDROOT
BRANCH   2   3
HETATM    3  C   UNL     1      -7.561   5.981  70.115  1.00  0.00    -0.095 C  
HETATM    4  O   UNL     1      -6.701   5.207  70.559  1.00  0.00    -0.037 OA 
BRANCH   3   5
HETATM    5  C   UNL     1      -9.115   5.717  70.313  1.00  0.00    -0.163 C  
BRANCH   5   6
HETATM    6  C   UNL     1      -9.644   5.402  68.857  1.00  0.00    -0.188 A  
HETATM    7  C   UNL     1      -9.811   4.001  66.854  1.00  0.00    -0.157 A  
HETATM    8  C   UNL     1     -10.414   6.369  68.175  1.00  0.00    -0.267 A  
HETATM    9  C   UNL     1      -9.359   4.209  68.163  1.00  0.00    -0.212 A  
HETATM   10  C   UNL     1     -10.859   6.163  66.865  1.00  0.00    -0.411 A  
HETATM   11  C   UNL     1     -10.557   4.977  66.205  1.00  0.00    -0.332 A  
ENDBRANCH   5   6
BRANCH   5  12
HETATM   12  C   UNL     1      -9.378   4.473  71.271  1.00  0.00    -0.209 C  
BRANCH  12  13
HETATM   13  C   UNL     1      -9.215   4.545  72.830  1.00  0.00    -0.128 C  
HETATM   14  C   UNL     1      -8.361   3.385  73.367  1.00  0.00    -0.075 C  
BRANCH  13  15
HETATM   15  N   UNL     1      -8.582   5.849  73.234  1.00  0.00    -0.119 NA 
HETATM   16  C   UNL     1      -9.366   6.603  74.220  1.00  0.00    -0.222 C  
HETATM   17  C   UNL     1      -7.224   5.677  73.777  1.00  0.00    -0.086 C  
ENDBRANCH  13  15
ENDBRANCH  12  13
ENDBRANCH   5  12
BRANCH   5  18
HETATM   18  C   UNL     1      -9.878   6.957  70.879  1.00  0.00    -0.193 A  
HETATM   19  C   UNL     1      -9.209   8.195  71.002  1.00  0.00    -0.178 A  
HETATM   20  C   UNL     1     -11.944   8.117  71.516  1.00  0.00    -0.334 A  
HETATM   21  C   UNL     1     -11.273   9.331  71.563  1.00  0.00    -0.457 A  
HETATM   22  C   UNL     1      -9.903   9.369  71.319  1.00  0.00    -0.245 A  
HETATM   23  C   UNL     1     -11.256   6.947  71.177  1.00  0.00    -0.314 A  
ENDBRANCH   5  18
ENDBRANCH   3   5
ENDBRANCH   2   3
TORSDOF 7
ENDMDL
MODEL      217
REMARK 921   NORMALIZED FREE ENERGY PREDICTED BY IDOCK:   -2.22 KCAL/MOL
REMARK 922        TOTAL FREE ENERGY PREDICTED BY IDOCK:   -4.38 KCAL/MOL
REMARK 923 INTER-LIGAND FREE ENERGY PREDICTED BY IDOCK:   -5.52 KCAL/MOL
REMARK 924 INTRA-LIGAND FREE ENERGY PREDICTED BY IDOCK:    1.15 KCAL/MOL
REMARK 927      BINDING AFFINITY PREDICTED BY RF-SCORE:    0.00 PKD
ROOT
HETATM    1  C   UNL     1      -5.968  15.017  70.289  1.00  0.00    -0.150 C  
HETATM    2  C   UNL     1      -6.439  14.063  69.197  1.00  0.00    -0.113 C  
ENDROOT
BRANCH   2   3
HETATM    3  C   UNL     1      -7.037  14.820  68.018  1.00  0.00    -0.138 C  
HETATM    4  O   UNL     1      -6.323  15.007  67.023  1.00  0.00    -0.184 OA 
BRANCH   3   5
HETATM    5  C   UNL     1      -8.570  15.241  68.047  1.00  0.00    -0.152 C  
BRANCH   5   6
HETATM    6  C   UNL     1      -9.233  14.367  66.908  1.00  0.00    -0.269 A  
HETATM    7  C   UNL     1      -9.787  12.231  65.844  1.00  0.00    -0.266 A  
HETATM    8  C   UNL     1      -9.837  15.009  65.806  1.00  0.00    -0.386 A  
HETATM    9  C   UNL     1      -9.229  12.958  66.902  1.00  0.00    -0.234 A  
HETATM   10  C   UNL     1     -10.389  14.281  64.745  1.00  0.00    -0.373 A  
HETATM   11  C   UNL     1     -10.364  12.891  64.766  1.00  0.00    -0.345 A  
ENDBRANCH   5   6
BRANCH   5  12
HETATM   12  C   UNL     1      -9.241  14.909  69.451  1.00  0.00    -0.046 C  
BRANCH  12  13
HETATM   13  C   UNL     1     -10.794  14.884  69.672  1.00  0.00    -0.253 C  
HETATM   14  C   UNL     1     -11.448  16.215  69.270  1.00  0.00    -0.304 C  
BRANCH  13  15
HETATM   15  N   UNL     1     -11.422  13.769  68.881  1.00  0.00    -0.282 NA 
HETATM   16  C   UNL     1     -11.935  12.673  69.712  1.00  0.00    -0.295 C  
HETATM   17  C   UNL     1     -12.522  14.233  68.020  1.00  0.00     0.242 C  
ENDBRANCH  13  15
ENDBRANCH  12  13
ENDBRANCH   5  12
BRANCH   5  18
HETATM   18  C   UNL     1      -8.792  16.754  67.727  1.00  0.00    -0.208 A  
HETATM   19  C   UNL     1      -9.764  17.135  66.777  1.00  0.00    -0.277 A  
HETATM   20  C   UNL     1      -8.491  19.135  68.236  1.00  0.00    -0.367 A  
HETATM   21  C   UNL     1      -9.500  19.475  67.344  1.00  0.00    -0.415 A  
HETATM   22  C   UNL     1     -10.127  18.476  66.604  1.00  0.00    -0.414 A  
HETATM   23  C   UNL     1      -8.144  17.793  68.427  1.00  0.00    -0.297 A  
ENDBRANCH   5  18
ENDBRANCH   3   5
ENDBRANCH   2   3
TORSDOF 7
ENDMDL
MODEL      218
REMARK 921   NORMALIZED FREE ENERGY PREDICTED BY IDOCK:   -2.18 KCAL/MOL
REMARK 922        TOTAL FREE ENERGY PREDICTED BY IDOCK:   -4.32 KCAL/MOL
REMARK 923 INTER-LIGAND FREE ENERGY PREDICTED BY IDOCK:   -3.48 KCAL/MOL
REMARK 924 INTRA-LIGAND FREE ENERGY PREDICTED BY IDOCK:   -0.84 KCAL/MOL
REMARK 927      BINDING AFFINITY PREDICTED BY RF-SCORE:    0.00 PKD
ROOT
HETATM    1  C   UNL     1     -10.758   6.647  67.558  1.00  0.00    -0.387 C  
HETATM    2  C   UNL     1      -9.519   7.067  66.776  1.00  0.00    -0.205 C  
ENDROOT
BRANCH   2   3
HETATM    3  C   UNL     1      -9.449   8.580  66.618  1.00  0.00    -0.207 C  
HETATM    4  O   UNL     1     -10.411   9.156  66.091  1.00  0.00    -0.221 OA 
BRANCH   3   5
HETATM    5  C   UNL     1      -8.218   9.381  67.226  1.00  0.00    -0.117 C  
BRANCH   5   6
HETATM    6  C   UNL     1      -7.262   9.621  65.989  1.00  0.00    -0.098 A  
HETATM    7  C   UNL     1      -5.447  10.791  64.832  1.00  0.00    -0.078 A  
HETATM    8  C   UNL     1      -7.452   8.867  64.811  1.00  0.00    -0.103 A  
HETATM    9  C   UNL     1      -6.235  10.585  65.971  1.00  0.00    -0.123 A  
HETATM   10  C   UNL     1      -6.669   9.079  63.671  1.00  0.00    -0.089 A  
HETATM   11  C   UNL     1      -5.666  10.042  63.683  1.00  0.00    -0.121 A  
ENDBRANCH   5   6
BRANCH   5  12
HETATM   12  C   UNL     1      -8.676  10.776  67.841  1.00  0.00    -0.129 C  
BRANCH  12  13
HETATM   13  C   UNL     1     -10.168  11.260  67.842  1.00  0.00    -0.181 C  
HETATM   14  C   UNL     1     -10.856  10.984  69.189  1.00  0.00    -0.283 C  
BRANCH  13  15
HETATM   15  N   UNL     1     -10.245  12.733  67.544  1.00  0.00    -0.214 NA 
HETATM   16  C   UNL     1     -10.437  13.037  66.121  1.00  0.00    -0.279 C  
HETATM   17  C   UNL     1     -11.316  13.409  68.295  1.00  0.00    -0.295 C  
ENDBRANCH  13  15
ENDBRANCH  12  13
ENDBRANCH   5  12
BRANCH   5  18
HETATM   18  C   UNL     1      -7.448   8.576  68.321  1.00  0.00    -0.096 A  
HETATM   19  C   UNL     1      -7.801   8.725  69.680  1.00  0.00    -0.090 A  
HETATM   20  C   UNL     1      -5.927   6.778  69.011  1.00  0.00    -0.022 A  
HETATM   21  C   UNL     1      -6.345   6.902  70.329  1.00  0.00    -0.039 A  
HETATM   22  C   UNL     1      -7.272   7.884  70.666  1.00  0.00    -0.053 A  
HETATM   23  C   UNL     1      -6.473   7.602  68.021  1.00  0.00    -0.054 A  
ENDBRANCH   5  18
ENDBRANCH   3   5
ENDBRANCH   2   3
TORSDOF 7
ENDMDL
MODEL      219
REMARK 921   NORMALIZED FREE ENERGY PREDICTED BY IDOCK:   -2.18 KCAL/MOL
REMARK 922        TOTAL FREE ENERGY PREDICTED BY IDOCK:   -4.32 KCAL/MOL
REMARK 923 INTER-LIGAND FREE ENERGY PREDICTED BY IDOCK:   -4.44 KCAL/MOL
REMARK 924 INTRA-LIGAND FREE ENERGY PREDICTED BY IDOCK:    0.12 KCAL/MOL
REMARK 927      BINDING AFFINITY PREDICTED BY RF-SCORE:    0.00 PKD
ROOT
HETATM    1  C   UNL     1     -12.011   9.742  69.398  1.00  0.00     0.388 C  
HETATM    2  C   UNL     1     -10.844  10.654  69.761  1.00  0.00    -0.317 C  
ENDROOT
BRANCH   2   3
HETATM    3  C   UNL     1     -10.957  12.003  69.065  1.00  0.00    -0.210 C  
HETATM    4  O   UNL     1     -11.777  12.820  69.507  1.00  0.00    -0.300 OA 
BRANCH   3   5
HETATM    5  C   UNL     1      -9.958  12.369  67.884  1.00  0.00    -0.204 C  
BRANCH   5   6
HETATM    6  C   UNL     1      -8.726  11.403  68.105  1.00  0.00    -0.154 A  
HETATM    7  C   UNL     1      -7.624   9.217  67.998  1.00  0.00    -0.084 A  
HETATM    8  C   UNL     1      -7.566  11.894  68.739  1.00  0.00    -0.090 A  
HETATM    9  C   UNL     1      -8.724  10.043  67.735  1.00  0.00    -0.125 A  
HETATM   10  C   UNL     1      -6.469  11.067  69.008  1.00  0.00    -0.056 A  
HETATM   11  C   UNL     1      -6.500   9.727  68.636  1.00  0.00    -0.047 A  
ENDBRANCH   5   6
BRANCH   5  12
HETATM   12  C   UNL     1     -10.615  12.101  66.459  1.00  0.00    -0.269 C  
BRANCH  12  13
HETATM   13  C   UNL     1     -12.003  12.695  66.033  1.00  0.00    -0.417 C  
HETATM   14  C   UNL     1     -12.273  14.051  66.705  1.00  0.00    -0.439 C  
BRANCH  13  15
HETATM   15  N   UNL     1     -12.069  12.865  64.539  1.00  0.00    -0.389 NA 
HETATM   16  C   UNL     1     -10.758  13.074  63.912  1.00  0.00    -0.284 C  
HETATM   17  C   UNL     1     -12.711  11.725  63.865  1.00  0.00    -0.207 C  
ENDBRANCH  13  15
ENDBRANCH  12  13
ENDBRANCH   5  12
BRANCH   5  18
HETATM   18  C   UNL     1      -9.465  13.850  67.939  1.00  0.00    -0.212 A  
HETATM   19  C   UNL     1      -9.652  14.608  69.116  1.00  0.00    -0.091 A  
HETATM   20  C   UNL     1      -8.152  15.724  67.053  1.00  0.00    -0.272 A  
HETATM   21  C   UNL     1      -8.296  16.417  68.248  1.00  0.00    -0.189 A  
HETATM   22  C   UNL     1      -9.057  15.866  69.274  1.00  0.00    -0.253 A  
HETATM   23  C   UNL     1      -8.726  14.457  66.903  1.00  0.00    -0.218 A  
ENDBRANCH   5  18
ENDBRANCH   3   5
ENDBRANCH   2   3
TORSDOF 7
ENDMDL
MODEL      220
REMARK 921   NORMALIZED FREE ENERGY PREDICTED BY IDOCK:   -2.15 KCAL/MOL
REMARK 922        TOTAL FREE ENERGY PREDICTED BY IDOCK:   -4.28 KCAL/MOL
REMARK 923 INTER-LIGAND FREE ENERGY PREDICTED BY IDOCK:   -3.46 KCAL/MOL
REMARK 924 INTRA-LIGAND FREE ENERGY PREDICTED BY IDOCK:   -0.82 KCAL/MOL
REMARK 927      BINDING AFFINITY PREDICTED BY RF-SCORE:    0.00 PKD
ROOT
HETATM    1  C   UNL     1      -6.604  10.652  70.198  1.00  0.00    -0.151 C  
HETATM    2  C   UNL     1      -6.771   9.243  70.756  1.00  0.00    -0.094 C  
ENDROOT
BRANCH   2   3
HETATM    3  C   UNL     1      -7.206   8.265  69.672  1.00  0.00    -0.061 C  
HETATM    4  O   UNL     1      -6.620   8.305  68.582  1.00  0.00    -0.052 OA 
BRANCH   3   5
HETATM    5  C   UNL     1      -8.301   7.160  70.000  1.00  0.00    -0.138 C  
BRANCH   5   6
HETATM    6  C   UNL     1      -7.535   6.107  70.895  1.00  0.00    -0.095 A  
HETATM    7  C   UNL     1      -5.913   4.302  71.231  1.00  0.00    -0.017 A  
HETATM    8  C   UNL     1      -7.885   5.969  72.255  1.00  0.00    -0.102 A  
HETATM    9  C   UNL     1      -6.527   5.253  70.406  1.00  0.00    -0.031 A  
HETATM   10  C   UNL     1      -7.276   5.014  73.077  1.00  0.00    -0.086 A  
HETATM   11  C   UNL     1      -6.288   4.181  72.563  1.00  0.00    -0.021 A  
ENDBRANCH   5   6
BRANCH   5  12
HETATM   12  C   UNL     1      -9.527   7.776  70.807  1.00  0.00    -0.163 C  
BRANCH  12  13
HETATM   13  C   UNL     1     -10.138   9.185  70.490  1.00  0.00    -0.235 C  
HETATM   14  C   UNL     1     -10.646   9.274  69.041  1.00  0.00    -0.225 C  
BRANCH  13  15
HETATM   15  N   UNL     1     -11.274   9.492  71.428  1.00  0.00    -0.375 NA 
HETATM   16  C   UNL     1     -12.422  10.133  70.775  1.00  0.00    -0.326 C  
HETATM   17  C   UNL     1     -11.768   8.296  72.131  1.00  0.00    -0.365 C  
ENDBRANCH  13  15
ENDBRANCH  12  13
ENDBRANCH   5  12
BRANCH   5  18
HETATM   18  C   UNL     1      -8.847   6.447  68.722  1.00  0.00    -0.124 A  
HETATM   19  C   UNL     1     -10.006   5.644  68.807  1.00  0.00    -0.221 A  
HETATM   20  C   UNL     1      -8.923   6.131  66.289  1.00  0.00    -0.162 A  
HETATM   21  C   UNL     1     -10.100   5.403  66.399  1.00  0.00    -0.239 A  
HETATM   22  C   UNL     1     -10.635   5.148  67.659  1.00  0.00    -0.062 A  
HETATM   23  C   UNL     1      -8.307   6.648  67.435  1.00  0.00    -0.121 A  
ENDBRANCH   5  18
ENDBRANCH   3   5
ENDBRANCH   2   3
TORSDOF 7
ENDMDL
MODEL      221
REMARK 921   NORMALIZED FREE ENERGY PREDICTED BY IDOCK:   -2.09 KCAL/MOL
REMARK 922        TOTAL FREE ENERGY PREDICTED BY IDOCK:   -4.20 KCAL/MOL
REMARK 923 INTER-LIGAND FREE ENERGY PREDICTED BY IDOCK:   -3.12 KCAL/MOL
REMARK 924 INTRA-LIGAND FREE ENERGY PREDICTED BY IDOCK:   -1.08 KCAL/MOL
REMARK 927      BINDING AFFINITY PREDICTED BY RF-SCORE:    0.00 PKD
ROOT
HETATM    1  C   UNL     1      -7.727   9.105  70.784  1.00  0.00    -0.162 C  
HETATM    2  C   UNL     1      -7.545   7.833  71.605  1.00  0.00    -0.088 C  
ENDROOT
BRANCH   2   3
HETATM    3  C   UNL     1      -7.004   6.694  70.751  1.00  0.00    -0.067 C  
HETATM    4  O   UNL     1      -5.777   6.603  70.612  1.00  0.00    -0.022 OA 
BRANCH   3   5
HETATM    5  C   UNL     1      -8.002   5.603  70.167  1.00  0.00    -0.099 C  
BRANCH   5   6
HETATM    6  C   UNL     1      -7.321   4.223  70.528  1.00  0.00    -0.048 A  
HETATM    7  C   UNL     1      -5.833   2.336  70.051  1.00  0.00    -0.018 A  
HETATM    8  C   UNL     1      -7.698   3.554  71.712  1.00  0.00    -0.057 A  
HETATM    9  C   UNL     1      -6.370   3.584  69.709  1.00  0.00    -0.028 A  
HETATM   10  C   UNL     1      -7.166   2.304  72.050  1.00  0.00    -0.038 A  
HETATM   11  C   UNL     1      -6.233   1.696  71.217  1.00  0.00    -0.018 A  
ENDBRANCH   5   6
BRANCH   5  12
HETATM   12  C   UNL     1      -9.437   5.701  70.848  1.00  0.00    -0.202 C  
BRANCH  12  13
HETATM   13  C   UNL     1     -10.486   6.807  70.476  1.00  0.00    -0.209 C  
HETATM   14  C   UNL     1     -11.411   6.355  69.334  1.00  0.00    -0.443 C  
BRANCH  13  15
HETATM   15  N   UNL     1     -11.323   7.164  71.674  1.00  0.00    -0.244 NA 
HETATM   16  C   UNL     1     -11.108   8.533  72.156  1.00  0.00    -0.366 C  
HETATM   17  C   UNL     1     -12.766   6.996  71.430  1.00  0.00    -0.374 C  
ENDBRANCH  13  15
ENDBRANCH  12  13
ENDBRANCH   5  12
BRANCH   5  18
HETATM   18  C   UNL     1      -8.172   5.702  68.617  1.00  0.00    -0.103 A  
HETATM   19  C   UNL     1      -7.632   6.805  67.920  1.00  0.00    -0.107 A  
HETATM   20  C   UNL     1      -8.732   4.720  66.439  1.00  0.00    -0.112 A  
HETATM   21  C   UNL     1      -8.132   5.785  65.781  1.00  0.00    -0.116 A  
HETATM   22  C   UNL     1      -7.594   6.834  66.521  1.00  0.00    -0.089 A  
HETATM   23  C   UNL     1      -8.749   4.678  67.837  1.00  0.00    -0.111 A  
ENDBRANCH   5  18
ENDBRANCH   3   5
ENDBRANCH   2   3
TORSDOF 7
ENDMDL
MODEL      222
REMARK 921   NORMALIZED FREE ENERGY PREDICTED BY IDOCK:   -2.02 KCAL/MOL
REMARK 922        TOTAL FREE ENERGY PREDICTED BY IDOCK:   -4.10 KCAL/MOL
REMARK 923 INTER-LIGAND FREE ENERGY PREDICTED BY IDOCK:   -4.56 KCAL/MOL
REMARK 924 INTRA-LIGAND FREE ENERGY PREDICTED BY IDOCK:    0.46 KCAL/MOL
REMARK 927      BINDING AFFINITY PREDICTED BY RF-SCORE:    0.00 PKD
ROOT
HETATM    1  C   UNL     1      -9.315  10.754  63.643  1.00  0.00    -0.301 C  
HETATM    2  C   UNL     1      -9.514   9.970  64.935  1.00  0.00    -0.355 C  
ENDROOT
BRANCH   2   3
HETATM    3  C   UNL     1     -10.310  10.773  65.955  1.00  0.00    -0.238 C  
HETATM    4  O   UNL     1     -11.526  10.918  65.762  1.00  0.00     0.155 OA 
BRANCH   3   5
HETATM    5  C   UNL     1      -9.599  11.297  67.276  1.00  0.00    -0.188 C  
BRANCH   5   6
HETATM    6  C   UNL     1     -10.013  10.247  68.383  1.00  0.00    -0.173 A  
HETATM    7  C   UNL     1     -10.524   7.977  69.150  1.00  0.00    -0.217 A  
HETATM    8  C   UNL     1     -10.351  10.700  69.676  1.00  0.00    -0.185 A  
HETATM    9  C   UNL     1     -10.105   8.860  68.148  1.00  0.00    -0.227 A  
HETATM   10  C   UNL     1     -10.777   9.817  70.675  1.00  0.00    -0.394 A  
HETATM   11  C   UNL     1     -10.863   8.454  70.410  1.00  0.00    -0.246 A  
ENDBRANCH   5   6
BRANCH   5  12
HETATM   12  C   UNL     1      -8.016  11.326  67.115  1.00  0.00    -0.151 C  
BRANCH  12  13
HETATM   13  C   UNL     1      -7.044  10.565  68.082  1.00  0.00    -0.082 C  
HETATM   14  C   UNL     1      -7.326  10.902  69.555  1.00  0.00    -0.095 C  
BRANCH  13  15
HETATM   15  N   UNL     1      -7.163   9.077  67.887  1.00  0.00    -0.079 NA 
HETATM   16  C   UNL     1      -6.649   8.610  66.594  1.00  0.00    -0.060 C  
HETATM   17  C   UNL     1      -6.482   8.310  68.944  1.00  0.00    -0.052 C  
ENDBRANCH  13  15
ENDBRANCH  12  13
ENDBRANCH   5  12
BRANCH   5  18
HETATM   18  C   UNL     1     -10.087  12.717  67.709  1.00  0.00    -0.220 A  
HETATM   19  C   UNL     1      -9.155  13.663  68.191  1.00  0.00    -0.195 A  
HETATM   20  C   UNL     1     -11.780  14.492  67.775  1.00  0.00    -0.403 A  
HETATM   21  C   UNL     1     -10.827  15.415  68.183  1.00  0.00    -0.285 A  
HETATM   22  C   UNL     1      -9.518  14.998  68.404  1.00  0.00    -0.201 A  
HETATM   23  C   UNL     1     -11.414  13.162  67.539  1.00  0.00    -0.371 A  
ENDBRANCH   5  18
ENDBRANCH   3   5
ENDBRANCH   2   3
TORSDOF 7
ENDMDL
MODEL      223
REMARK 921   NORMALIZED FREE ENERGY PREDICTED BY IDOCK:   -1.72 KCAL/MOL
REMARK 922        TOTAL FREE ENERGY PREDICTED BY IDOCK:   -3.68 KCAL/MOL
REMARK 923 INTER-LIGAND FREE ENERGY PREDICTED BY IDOCK:   -3.10 KCAL/MOL
REMARK 924 INTRA-LIGAND FREE ENERGY PREDICTED BY IDOCK:   -0.58 KCAL/MOL
REMARK 927      BINDING AFFINITY PREDICTED BY RF-SCORE:    0.00 PKD
ROOT
HETATM    1  C   UNL     1      -6.496  10.720  69.941  1.00  0.00    -0.135 C  
HETATM    2  C   UNL     1      -6.786   9.288  69.507  1.00  0.00    -0.047 C  
ENDROOT
BRANCH   2   3
HETATM    3  C   UNL     1      -7.758   8.605  70.459  1.00  0.00    -0.086 C  
HETATM    4  O   UNL     1      -8.180   9.255  71.426  1.00  0.00    -0.330 OA 
BRANCH   3   5
HETATM    5  C   UNL     1      -8.290   7.143  70.131  1.00  0.00    -0.137 C  
BRANCH   5   6
HETATM    6  C   UNL     1      -9.264   7.352  68.904  1.00  0.00    -0.142 A  
HETATM    7  C   UNL     1     -11.029   6.614  67.373  1.00  0.00    -0.434 A  
HETATM    8  C   UNL     1      -9.164   8.529  68.131  1.00  0.00    -0.142 A  
HETATM    9  C   UNL     1     -10.223   6.402  68.498  1.00  0.00    -0.198 A  
HETATM   10  C   UNL     1      -9.965   8.737  67.003  1.00  0.00    -0.307 A  
HETATM   11  C   UNL     1     -10.899   7.778  66.625  1.00  0.00     0.289 A  
ENDBRANCH   5   6
BRANCH   5  12
HETATM   12  C   UNL     1      -7.099   6.168  69.725  1.00  0.00    -0.072 C  
BRANCH  12  13
HETATM   13  C   UNL     1      -6.958   5.541  68.293  1.00  0.00    -0.061 C  
HETATM   14  C   UNL     1      -5.902   6.275  67.451  1.00  0.00    -0.016 C  
BRANCH  13  15
HETATM   15  N   UNL     1      -6.587   4.086  68.387  1.00  0.00    -0.044 NA 
HETATM   16  C   UNL     1      -7.609   3.181  67.847  1.00  0.00    -0.057 C  
HETATM   17  C   UNL     1      -5.315   3.780  67.713  1.00  0.00    -0.016 C  
ENDBRANCH  13  15
ENDBRANCH  12  13
ENDBRANCH   5  12
BRANCH   5  18
HETATM   18  C   UNL     1      -9.084   6.504  71.314  1.00  0.00    -0.148 A  
HETATM   19  C   UNL     1      -8.508   5.450  72.057  1.00  0.00    -0.127 A  
HETATM   20  C   UNL     1     -10.926   6.515  72.935  1.00  0.00    -0.282 A  
HETATM   21  C   UNL     1     -10.301   5.526  73.683  1.00  0.00    -0.261 A  
HETATM   22  C   UNL     1      -9.099   4.984  73.237  1.00  0.00    -0.125 A  
HETATM   23  C   UNL     1     -10.324   6.999  71.769  1.00  0.00    -0.216 A  
ENDBRANCH   5  18
ENDBRANCH   3   5
ENDBRANCH   2   3
TORSDOF 7
ENDMDL
MODEL      224
REMARK 921   NORMALIZED FREE ENERGY PREDICTED BY IDOCK:   -1.71 KCAL/MOL
REMARK 922        TOTAL FREE ENERGY PREDICTED BY IDOCK:   -3.66 KCAL/MOL
REMARK 923 INTER-LIGAND FREE ENERGY PREDICTED BY IDOCK:   -3.00 KCAL/MOL
REMARK 924 INTRA-LIGAND FREE ENERGY PREDICTED BY IDOCK:   -0.67 KCAL/MOL
REMARK 927      BINDING AFFINITY PREDICTED BY RF-SCORE:    0.00 PKD
ROOT
HETATM    1  C   UNL     1      -7.199   1.996  69.612  1.00  0.00    -0.036 C  
HETATM    2  C   UNL     1      -6.622   2.538  70.914  1.00  0.00    -0.031 C  
ENDROOT
BRANCH   2   3
HETATM    3  C   UNL     1      -6.810   4.045  71.020  1.00  0.00    -0.032 C  
HETATM    4  O   UNL     1      -5.925   4.777  70.554  1.00  0.00    -0.016 OA 
BRANCH   3   5
HETATM    5  C   UNL     1      -8.165   4.633  71.608  1.00  0.00    -0.104 C  
BRANCH   5   6
HETATM    6  C   UNL     1      -7.701   5.835  72.524  1.00  0.00    -0.102 A  
HETATM    7  C   UNL     1      -6.041   7.448  73.328  1.00  0.00    -0.056 A  
HETATM    8  C   UNL     1      -8.588   6.349  73.494  1.00  0.00    -0.128 A  
HETATM    9  C   UNL     1      -6.419   6.416  72.460  1.00  0.00    -0.059 A  
HETATM   10  C   UNL     1      -8.207   7.376  74.366  1.00  0.00    -0.225 A  
HETATM   11  C   UNL     1      -6.933   7.925  74.281  1.00  0.00    -0.153 A  
ENDBRANCH   5   6
BRANCH   5  12
HETATM   12  C   UNL     1      -9.122   5.163  70.452  1.00  0.00    -0.173 C  
BRANCH  12  13
HETATM   13  C   UNL     1      -9.240   6.680  70.069  1.00  0.00    -0.158 C  
HETATM   14  C   UNL     1      -8.268   7.062  68.942  1.00  0.00    -0.122 C  
BRANCH  13  15
HETATM   15  N   UNL     1     -10.644   7.008  69.639  1.00  0.00    -0.226 NA 
HETATM   16  C   UNL     1     -11.675   6.481  70.541  1.00  0.00    -0.375 C  
HETATM   17  C   UNL     1     -10.871   8.456  69.497  1.00  0.00    -0.117 C  
ENDBRANCH  13  15
ENDBRANCH  12  13
ENDBRANCH   5  12
BRANCH   5  18
HETATM   18  C   UNL     1      -8.951   3.600  72.477  1.00  0.00    -0.127 A  
HETATM   19  C   UNL     1      -8.369   3.090  73.659  1.00  0.00    -0.073 A  
HETATM   20  C   UNL     1     -11.014   2.427  73.099  1.00  0.00    -0.236 A  
HETATM   21  C   UNL     1     -10.437   1.997  74.286  1.00  0.00    -0.188 A  
HETATM   22  C   UNL     1      -9.110   2.317  74.560  1.00  0.00    -0.089 A  
HETATM   23  C   UNL     1     -10.282   3.219  72.208  1.00  0.00    -0.172 A  
ENDBRANCH   5  18
ENDBRANCH   3   5
ENDBRANCH   2   3
TORSDOF 7
ENDMDL
MODEL      225
REMARK 921   NORMALIZED FREE ENERGY PREDICTED BY IDOCK:   -1.56 KCAL/MOL
REMARK 922        TOTAL FREE ENERGY PREDICTED BY IDOCK:   -3.46 KCAL/MOL
REMARK 923 INTER-LIGAND FREE ENERGY PREDICTED BY IDOCK:   -3.07 KCAL/MOL
REMARK 924 INTRA-LIGAND FREE ENERGY PREDICTED BY IDOCK:   -0.39 KCAL/MOL
REMARK 927      BINDING AFFINITY PREDICTED BY RF-SCORE:    0.00 PKD
ROOT
HETATM    1  C   UNL     1     -12.566   9.517  71.468  1.00  0.00    -0.462 C  
HETATM    2  C   UNL     1     -11.349   9.104  70.647  1.00  0.00    -0.323 C  
ENDROOT
BRANCH   2   3
HETATM    3  C   UNL     1     -10.911   7.684  70.980  1.00  0.00    -0.248 C  
HETATM    4  O   UNL     1     -11.650   7.000  71.702  1.00  0.00    -0.260 OA 
BRANCH   3   5
HETATM    5  C   UNL     1      -9.600   7.085  70.310  1.00  0.00    -0.168 C  
BRANCH   5   6
HETATM    6  C   UNL     1      -8.890   8.339  69.659  1.00  0.00    -0.139 A  
HETATM    7  C   UNL     1      -7.581  10.406  69.775  1.00  0.00    -0.141 A  
HETATM    8  C   UNL     1      -9.021   8.566  68.272  1.00  0.00    -0.139 A  
HETATM    9  C   UNL     1      -8.149   9.286  70.393  1.00  0.00    -0.178 A  
HETATM   10  C   UNL     1      -8.459   9.690  67.656  1.00  0.00    -0.125 A  
HETATM   11  C   UNL     1      -7.738  10.610  68.410  1.00  0.00    -0.106 A  
ENDBRANCH   5   6
BRANCH   5  12
HETATM   12  C   UNL     1      -8.644   6.417  71.393  1.00  0.00    -0.130 C  
BRANCH  12  13
HETATM   13  C   UNL     1      -9.025   5.114  72.180  1.00  0.00    -0.129 C  
HETATM   14  C   UNL     1      -8.254   3.889  71.661  1.00  0.00    -0.079 C  
BRANCH  13  15
HETATM   15  N   UNL     1      -8.746   5.283  73.649  1.00  0.00    -0.110 NA 
HETATM   16  C   UNL     1      -9.927   5.662  74.433  1.00  0.00    -0.251 C  
HETATM   17  C   UNL     1      -8.170   4.074  74.261  1.00  0.00    -0.091 C  
ENDBRANCH  13  15
ENDBRANCH  12  13
ENDBRANCH   5  12
BRANCH   5  18
HETATM   18  C   UNL     1      -9.910   6.035  69.196  1.00  0.00    -0.185 A  
HETATM   19  C   UNL     1     -11.069   6.177  68.401  1.00  0.00    -0.343 A  
HETATM   20  C   UNL     1      -9.252   4.174  67.738  1.00  0.00    -0.187 A  
HETATM   21  C   UNL     1     -10.366   4.382  66.935  1.00  0.00     0.059 A  
HETATM   22  C   UNL     1     -11.281   5.374  67.273  1.00  0.00     0.792 A  
HETATM   23  C   UNL     1      -9.027   4.991  68.851  1.00  0.00    -0.127 A  
ENDBRANCH   5  18
ENDBRANCH   3   5
ENDBRANCH   2   3
TORSDOF 7
ENDMDL
MODEL      226
REMARK 921   NORMALIZED FREE ENERGY PREDICTED BY IDOCK:   -1.50 KCAL/MOL
REMARK 922        TOTAL FREE ENERGY PREDICTED BY IDOCK:   -3.37 KCAL/MOL
REMARK 923 INTER-LIGAND FREE ENERGY PREDICTED BY IDOCK:   -3.17 KCAL/MOL
REMARK 924 INTRA-LIGAND FREE ENERGY PREDICTED BY IDOCK:   -0.20 KCAL/MOL
REMARK 927      BINDING AFFINITY PREDICTED BY RF-SCORE:    0.00 PKD
ROOT
HETATM    1  C   UNL     1      -8.409   3.849  69.149  1.00  0.00    -0.089 C  
HETATM    2  C   UNL     1      -7.797   4.337  70.457  1.00  0.00    -0.052 C  
ENDROOT
BRANCH   2   3
HETATM    3  C   UNL     1      -7.651   5.853  70.471  1.00  0.00    -0.091 C  
HETATM    4  O   UNL     1      -6.853   6.368  69.676  1.00  0.00    -0.060 OA 
BRANCH   3   5
HETATM    5  C   UNL     1      -8.593   6.728  71.405  1.00  0.00    -0.124 C  
BRANCH   5   6
HETATM    6  C   UNL     1      -7.599   7.410  72.428  1.00  0.00    -0.090 A  
HETATM    7  C   UNL     1      -7.081   8.543  74.538  1.00  0.00    -0.214 A  
HETATM    8  C   UNL     1      -6.245   7.580  72.069  1.00  0.00    -0.039 A  
HETATM    9  C   UNL     1      -7.992   7.903  73.688  1.00  0.00    -0.232 A  
HETATM   10  C   UNL     1      -5.337   8.226  72.916  1.00  0.00    -0.045 A  
HETATM   11  C   UNL     1      -5.757   8.707  74.151  1.00  0.00    -0.122 A  
ENDBRANCH   5   6
BRANCH   5  12
HETATM   12  C   UNL     1      -9.369   7.841  70.573  1.00  0.00    -0.163 C  
BRANCH  12  13
HETATM   13  C   UNL     1      -9.366   7.892  69.005  1.00  0.00    -0.151 C  
HETATM   14  C   UNL     1     -10.652   7.293  68.412  1.00  0.00    -0.209 C  
BRANCH  13  15
HETATM   15  N   UNL     1      -9.218   9.310  68.523  1.00  0.00    -0.135 NA 
HETATM   16  C   UNL     1      -8.821  10.252  69.577  1.00  0.00    -0.148 C  
HETATM   17  C   UNL     1      -8.249   9.437  67.421  1.00  0.00    -0.121 C  
ENDBRANCH  13  15
ENDBRANCH  12  13
ENDBRANCH   5  12
BRANCH   5  18
HETATM   18  C   UNL     1      -9.634   5.872  72.194  1.00  0.00    -0.164 A  
HETATM   19  C   UNL     1     -10.976   6.304  72.282  1.00  0.00    -0.297 A  
HETATM   20  C   UNL     1     -10.331   3.791  73.292  1.00  0.00    -0.242 A  
HETATM   21  C   UNL     1     -11.653   4.214  73.302  1.00  0.00    -0.137 A  
HETATM   22  C   UNL     1     -11.974   5.476  72.809  1.00  0.00    -0.094 A  
HETATM   23  C   UNL     1      -9.336   4.607  72.743  1.00  0.00    -0.148 A  
ENDBRANCH   5  18
ENDBRANCH   3   5
ENDBRANCH   2   3
TORSDOF 7
ENDMDL
MODEL      227
REMARK 921   NORMALIZED FREE ENERGY PREDICTED BY IDOCK:   -1.27 KCAL/MOL
REMARK 922        TOTAL FREE ENERGY PREDICTED BY IDOCK:   -3.05 KCAL/MOL
REMARK 923 INTER-LIGAND FREE ENERGY PREDICTED BY IDOCK:   -3.02 KCAL/MOL
REMARK 924 INTRA-LIGAND FREE ENERGY PREDICTED BY IDOCK:   -0.03 KCAL/MOL
REMARK 927      BINDING AFFINITY PREDICTED BY RF-SCORE:    0.00 PKD
ROOT
HETATM    1  C   UNL     1     -11.914  10.910  69.214  1.00  0.00    -0.382 C  
HETATM    2  C   UNL     1     -11.078  10.110  70.206  1.00  0.00    -0.384 C  
ENDROOT
BRANCH   2   3
HETATM    3  C   UNL     1      -9.670   9.868  69.677  1.00  0.00    -0.229 C  
HETATM    4  O   UNL     1      -9.033  10.841  69.250  1.00  0.00    -0.136 OA 
BRANCH   3   5
HETATM    5  C   UNL     1      -9.021   8.421  69.792  1.00  0.00    -0.146 C  
BRANCH   5   6
HETATM    6  C   UNL     1      -8.867   8.188  71.348  1.00  0.00    -0.185 A  
HETATM    7  C   UNL     1      -7.675   7.353  73.319  1.00  0.00    -0.116 A  
HETATM    8  C   UNL     1      -9.918   8.563  72.212  1.00  0.00    -0.385 A  
HETATM    9  C   UNL     1      -7.741   7.582  71.939  1.00  0.00    -0.088 A  
HETATM   10  C   UNL     1      -9.855   8.328  73.590  1.00  0.00     0.568 A  
HETATM   11  C   UNL     1      -8.732   7.723  74.143  1.00  0.00    -0.293 A  
ENDBRANCH   5   6
BRANCH   5  12
HETATM   12  C   UNL     1      -9.966   7.306  69.162  1.00  0.00    -0.170 C  
BRANCH  12  13
HETATM   13  C   UNL     1      -9.896   5.794  69.574  1.00  0.00    -0.178 C  
HETATM   14  C   UNL     1     -10.946   5.444  70.641  1.00  0.00    -0.104 C  
BRANCH  13  15
HETATM   15  N   UNL     1     -10.101   4.910  68.374  1.00  0.00    -0.117 NA 
HETATM   16  C   UNL     1     -10.205   5.648  67.109  1.00  0.00    -0.212 C  
HETATM   17  C   UNL     1      -9.036   3.905  68.220  1.00  0.00    -0.121 C  
ENDBRANCH  13  15
ENDBRANCH  12  13
ENDBRANCH   5  12
BRANCH   5  18
HETATM   18  C   UNL     1      -7.615   8.329  69.118  1.00  0.00    -0.088 A  
HETATM   19  C   UNL     1      -7.517   8.093  67.729  1.00  0.00    -0.094 A  
HETATM   20  C   UNL     1      -5.184   8.663  69.137  1.00  0.00    -0.035 A  
HETATM   21  C   UNL     1      -5.129   8.494  67.760  1.00  0.00    -0.034 A  
HETATM   22  C   UNL     1      -6.293   8.196  67.058  1.00  0.00    -0.056 A  
HETATM   23  C   UNL     1      -6.411   8.584  69.806  1.00  0.00    -0.035 A  
ENDBRANCH   5  18
ENDBRANCH   3   5
ENDBRANCH   2   3
TORSDOF 7
ENDMDL
MODEL      228
REMARK 921   NORMALIZED FREE ENERGY PREDICTED BY IDOCK:   -1.26 KCAL/MOL
REMARK 922        TOTAL FREE ENERGY PREDICTED BY IDOCK:   -3.03 KCAL/MOL
REMARK 923 INTER-LIGAND FREE ENERGY PREDICTED BY IDOCK:   -4.15 KCAL/MOL
REMARK 924 INTRA-LIGAND FREE ENERGY PREDICTED BY IDOCK:    1.12 KCAL/MOL
REMARK 927      BINDING AFFINITY PREDICTED BY RF-SCORE:    0.00 PKD
ROOT
HETATM    1  C   UNL     1      -6.942   9.051  67.895  1.00  0.00    -0.078 C  
HETATM    2  C   UNL     1      -7.055   9.674  66.508  1.00  0.00    -0.089 C  
ENDROOT
BRANCH   2   3
HETATM    3  C   UNL     1      -8.175  10.705  66.451  1.00  0.00    -0.146 C  
HETATM    4  O   UNL     1      -8.657  10.981  65.344  1.00  0.00    -0.158 OA 
BRANCH   3   5
HETATM    5  C   UNL     1      -8.765  11.304  67.800  1.00  0.00    -0.134 C  
BRANCH   5   6
HETATM    6  C   UNL     1      -9.488  10.077  68.486  1.00  0.00    -0.150 A  
HETATM    7  C   UNL     1     -10.076   8.700  70.425  1.00  0.00    -0.213 A  
HETATM    8  C   UNL     1     -10.174   9.140  67.683  1.00  0.00    -0.293 A  
HETATM    9  C   UNL     1      -9.461   9.829  69.873  1.00  0.00    -0.264 A  
HETATM   10  C   UNL     1     -10.784   8.008  68.235  1.00  0.00    -0.081 A  
HETATM   11  C   UNL     1     -10.734   7.789  69.607  1.00  0.00    -0.223 A  
ENDBRANCH   5   6
BRANCH   5  12
HETATM   12  C   UNL     1      -7.611  11.858  68.746  1.00  0.00    -0.090 C  
BRANCH  12  13
HETATM   13  C   UNL     1      -6.300  12.521  68.197  1.00  0.00    -0.076 C  
HETATM   14  C   UNL     1      -6.600  13.793  67.388  1.00  0.00     0.032 C  
BRANCH  13  15
HETATM   15  N   UNL     1      -5.369  12.866  69.327  1.00  0.00    -0.073 NA 
HETATM   16  C   UNL     1      -5.503  14.249  69.799  1.00  0.00    -0.096 C  
HETATM   17  C   UNL     1      -5.534  11.977  70.490  1.00  0.00    -0.156 C  
ENDBRANCH  13  15
ENDBRANCH  12  13
ENDBRANCH   5  12
BRANCH   5  18
HETATM   18  C   UNL     1      -9.807  12.442  67.556  1.00  0.00    -0.194 A  
HETATM   19  C   UNL     1     -10.882  12.231  66.666  1.00  0.00    -0.296 A  
HETATM   20  C   UNL     1     -10.846  14.583  68.155  1.00  0.00    -0.246 A  
HETATM   21  C   UNL     1     -11.925  14.316  67.322  1.00  0.00    -0.439 A  
HETATM   22  C   UNL     1     -11.936  13.147  66.567  1.00  0.00    -0.459 A  
HETATM   23  C   UNL     1      -9.803  13.658  68.272  1.00  0.00    -0.232 A  
ENDBRANCH   5  18
ENDBRANCH   3   5
ENDBRANCH   2   3
TORSDOF 7
ENDMDL
MODEL      229
REMARK 921   NORMALIZED FREE ENERGY PREDICTED BY IDOCK:   -0.96 KCAL/MOL
REMARK 922        TOTAL FREE ENERGY PREDICTED BY IDOCK:   -2.60 KCAL/MOL
REMARK 923 INTER-LIGAND FREE ENERGY PREDICTED BY IDOCK:   -2.98 KCAL/MOL
REMARK 924 INTRA-LIGAND FREE ENERGY PREDICTED BY IDOCK:    0.38 KCAL/MOL
REMARK 927      BINDING AFFINITY PREDICTED BY RF-SCORE:    0.00 PKD
ROOT
HETATM    1  C   UNL     1     -11.540  10.575  68.913  1.00  0.00    -0.266 C  
HETATM    2  C   UNL     1     -10.517  10.179  69.972  1.00  0.00    -0.325 C  
ENDROOT
BRANCH   2   3
HETATM    3  C   UNL     1      -9.285   9.542  69.344  1.00  0.00    -0.176 C  
HETATM    4  O   UNL     1      -8.342  10.283  69.030  1.00  0.00    -0.127 OA 
BRANCH   3   5
HETATM    5  C   UNL     1      -9.192   7.961  69.216  1.00  0.00    -0.148 C  
BRANCH   5   6
HETATM    6  C   UNL     1     -10.226   7.424  70.285  1.00  0.00    -0.203 A  
HETATM    7  C   UNL     1     -10.861   6.733  72.548  1.00  0.00    -0.271 A  
HETATM    8  C   UNL     1     -11.520   7.045  69.867  1.00  0.00    -0.223 A  
HETATM    9  C   UNL     1      -9.924   7.260  71.651  1.00  0.00    -0.192 A  
HETATM   10  C   UNL     1     -12.454   6.512  70.762  1.00  0.00     0.018 A  
HETATM   11  C   UNL     1     -12.123   6.357  72.104  1.00  0.00    -0.316 A  
ENDBRANCH   5   6
BRANCH   5  12
HETATM   12  C   UNL     1      -9.604   7.468  67.760  1.00  0.00    -0.166 C  
BRANCH  12  13
HETATM   13  C   UNL     1     -10.001   5.984  67.441  1.00  0.00    -0.141 C  
HETATM   14  C   UNL     1     -11.387   5.894  66.782  1.00  0.00     0.262 C  
BRANCH  13  15
HETATM   15  N   UNL     1      -8.983   5.349  66.533  1.00  0.00    -0.117 NA 
HETATM   16  C   UNL     1      -7.787   4.866  67.234  1.00  0.00    -0.095 C  
HETATM   17  C   UNL     1      -9.535   4.223  65.760  1.00  0.00    -0.176 C  
ENDBRANCH  13  15
ENDBRANCH  12  13
ENDBRANCH   5  12
BRANCH   5  18
HETATM   18  C   UNL     1      -7.771   7.405  69.553  1.00  0.00    -0.108 A  
HETATM   19  C   UNL     1      -7.612   6.475  70.604  1.00  0.00    -0.102 A  
HETATM   20  C   UNL     1      -5.406   7.047  69.005  1.00  0.00    -0.014 A  
HETATM   21  C   UNL     1      -5.299   6.087  70.002  1.00  0.00    -0.012 A  
HETATM   22  C   UNL     1      -6.397   5.811  70.811  1.00  0.00    -0.035 A  
HETATM   23  C   UNL     1      -6.626   7.695  68.782  1.00  0.00    -0.049 A  
ENDBRANCH   5  18
ENDBRANCH   3   5
ENDBRANCH   2   3
TORSDOF 7
ENDMDL
MODEL      230
REMARK 921   NORMALIZED FREE ENERGY PREDICTED BY IDOCK:   -0.79 KCAL/MOL
REMARK 922        TOTAL FREE ENERGY PREDICTED BY IDOCK:   -2.37 KCAL/MOL
REMARK 923 INTER-LIGAND FREE ENERGY PREDICTED BY IDOCK:   -3.03 KCAL/MOL
REMARK 924 INTRA-LIGAND FREE ENERGY PREDICTED BY IDOCK:    0.66 KCAL/MOL
REMARK 927      BINDING AFFINITY PREDICTED BY RF-SCORE:    0.00 PKD
ROOT
HETATM    1  C   UNL     1     -11.285   5.973  68.442  1.00  0.00    -0.120 C  
HETATM    2  C   UNL     1     -11.059   6.676  69.776  1.00  0.00    -0.398 C  
ENDROOT
BRANCH   2   3
HETATM    3  C   UNL     1      -9.923   7.686  69.686  1.00  0.00    -0.185 C  
HETATM    4  O   UNL     1     -10.185   8.823  69.271  1.00  0.00    -0.200 OA 
BRANCH   3   5
HETATM    5  C   UNL     1      -8.479   7.298  70.226  1.00  0.00    -0.137 C  
BRANCH   5   6
HETATM    6  C   UNL     1      -8.692   7.073  71.776  1.00  0.00    -0.122 A  
HETATM    7  C   UNL     1      -9.081   5.660  73.739  1.00  0.00    -0.127 A  
HETATM    8  C   UNL     1      -8.774   8.190  72.633  1.00  0.00    -0.277 A  
HETATM    9  C   UNL     1      -8.845   5.803  72.366  1.00  0.00    -0.131 A  
HETATM   10  C   UNL     1      -9.017   8.047  74.004  1.00  0.00    -0.131 A  
HETATM   11  C   UNL     1      -9.170   6.780  74.556  1.00  0.00    -0.238 A  
ENDBRANCH   5   6
BRANCH   5  12
HETATM   12  C   UNL     1      -7.941   5.963  69.547  1.00  0.00    -0.105 C  
BRANCH  12  13
HETATM   13  C   UNL     1      -8.283   4.531  70.089  1.00  0.00    -0.067 C  
HETATM   14  C   UNL     1      -9.075   3.707  69.061  1.00  0.00    -0.202 C  
BRANCH  13  15
HETATM   15  N   UNL     1      -7.025   3.789  70.451  1.00  0.00    -0.034 NA 
HETATM   16  C   UNL     1      -6.774   2.611  69.611  1.00  0.00    -0.033 C  
HETATM   17  C   UNL     1      -5.826   4.642  70.396  1.00  0.00    -0.017 C  
ENDBRANCH  13  15
ENDBRANCH  12  13
ENDBRANCH   5  12
BRANCH   5  18
HETATM   18  C   UNL     1      -7.425   8.432  70.012  1.00  0.00    -0.063 A  
HETATM   19  C   UNL     1      -6.126   8.106  69.563  1.00  0.00    -0.033 A  
HETATM   20  C   UNL     1      -6.814  10.796  69.772  1.00  0.00    -0.151 A  
HETATM   21  C   UNL     1      -5.569  10.445  69.268  1.00  0.00    -0.037 A  
HETATM   22  C   UNL     1      -5.219   9.101  69.177  1.00  0.00    -0.036 A  
HETATM   23  C   UNL     1      -7.730   9.803  70.136  1.00  0.00    -0.188 A  
ENDBRANCH   5  18
ENDBRANCH   3   5
ENDBRANCH   2   3
TORSDOF 7
ENDMDL
MODEL      231
REMARK 921   NORMALIZED FREE ENERGY PREDICTED BY IDOCK:    0.10 KCAL/MOL
REMARK 922        TOTAL FREE ENERGY PREDICTED BY IDOCK:   -1.11 KCAL/MOL
REMARK 923 INTER-LIGAND FREE ENERGY PREDICTED BY IDOCK:   -2.56 KCAL/MOL
REMARK 924 INTRA-LIGAND FREE ENERGY PREDICTED BY IDOCK:    1.45 KCAL/MOL
REMARK 927      BINDING AFFINITY PREDICTED BY RF-SCORE:    0.00 PKD
ROOT
HETATM    1  C   UNL     1      -6.048  15.402  71.407  1.00  0.00     0.687 C  
HETATM    2  C   UNL     1      -6.011  13.986  70.842  1.00  0.00    -0.184 C  
ENDROOT
BRANCH   2   3
HETATM    3  C   UNL     1      -6.136  13.991  69.324  1.00  0.00    -0.100 C  
HETATM    4  O   UNL     1      -5.393  13.239  68.677  1.00  0.00    -0.068 OA 
BRANCH   3   5
HETATM    5  C   UNL     1      -7.273  14.856  68.628  1.00  0.00    -0.117 C  
BRANCH   5   6
HETATM    6  C   UNL     1      -7.968  13.849  67.627  1.00  0.00    -0.181 A  
HETATM    7  C   UNL     1      -8.092  11.731  66.402  1.00  0.00     0.032 A  
HETATM    8  C   UNL     1      -9.138  14.247  66.945  1.00  0.00    -0.268 A  
HETATM    9  C   UNL     1      -7.465  12.566  67.335  1.00  0.00    -0.153 A  
HETATM   10  C   UNL     1      -9.761  13.415  66.008  1.00  0.00    -0.228 A  
HETATM   11  C   UNL     1      -9.236  12.156  65.738  1.00  0.00    -0.019 A  
ENDBRANCH   5   6
BRANCH   5  12
HETATM   12  C   UNL     1      -8.332  15.390  69.690  1.00  0.00    -0.127 C  
BRANCH  12  13
HETATM   13  C   UNL     1      -9.777  15.856  69.295  1.00  0.00    -0.263 C  
HETATM   14  C   UNL     1     -10.733  15.830  70.499  1.00  0.00    -0.253 C  
BRANCH  13  15
HETATM   15  N   UNL     1      -9.746  17.247  68.722  1.00  0.00    -0.280 NA 
HETATM   16  C   UNL     1     -10.579  17.410  67.525  1.00  0.00    -0.330 C  
HETATM   17  C   UNL     1     -10.156  18.272  69.697  1.00  0.00     0.431 C  
ENDBRANCH  13  15
ENDBRANCH  12  13
ENDBRANCH   5  12
BRANCH   5  18
HETATM   18  C   UNL     1      -6.709  16.071  67.825  1.00  0.00    -0.175 A  
HETATM   19  C   UNL     1      -7.300  16.435  66.595  1.00  0.00    -0.241 A  
HETATM   20  C   UNL     1      -5.329  18.093  67.653  1.00  0.00    -0.146 A  
HETATM   21  C   UNL     1      -5.977  18.460  66.480  1.00  0.00    -0.187 A  
HETATM   22  C   UNL     1      -6.952  17.624  65.944  1.00  0.00    -0.259 A  
HETATM   23  C   UNL     1      -5.692  16.916  68.317  1.00  0.00    -0.126 A  
ENDBRANCH   5  18
ENDBRANCH   3   5
ENDBRANCH   2   3
TORSDOF 7
ENDMDL
MODEL      232
REMARK 921   NORMALIZED FREE ENERGY PREDICTED BY IDOCK:    0.31 KCAL/MOL
REMARK 922        TOTAL FREE ENERGY PREDICTED BY IDOCK:   -0.82 KCAL/MOL
REMARK 923 INTER-LIGAND FREE ENERGY PREDICTED BY IDOCK:   -0.36 KCAL/MOL
REMARK 924 INTRA-LIGAND FREE ENERGY PREDICTED BY IDOCK:   -0.46 KCAL/MOL
REMARK 927      BINDING AFFINITY PREDICTED BY RF-SCORE:    0.00 PKD
ROOT
HETATM    1  C   UNL     1     -10.794  20.468  67.960  1.00  0.00     0.401 C  
HETATM    2  C   UNL     1      -9.768  19.340  67.923  1.00  0.00    -0.422 C  
ENDROOT
BRANCH   2   3
HETATM    3  C   UNL     1     -10.406  18.023  67.504  1.00  0.00    -0.385 C  
HETATM    4  O   UNL     1     -11.355  18.061  66.708  1.00  0.00     0.460 OA 
BRANCH   3   5
HETATM    5  C   UNL     1      -9.777  16.649  67.998  1.00  0.00    -0.241 C  
BRANCH   5   6
HETATM    6  C   UNL     1     -10.505  16.360  69.371  1.00  0.00    -0.309 A  
HETATM    7  C   UNL     1     -12.381  16.581  70.932  1.00  0.00     1.080 A  
HETATM    8  C   UNL     1      -9.829  15.635  70.375  1.00  0.00     0.370 A  
HETATM    9  C   UNL     1     -11.800  16.822  69.681  1.00  0.00     0.967 A  
HETATM   10  C   UNL     1     -10.407  15.400  71.627  1.00  0.00     1.169 A  
HETATM   11  C   UNL     1     -11.685  15.874  71.904  1.00  0.00    -0.590 A  
ENDBRANCH   5   6
BRANCH   5  12
HETATM   12  C   UNL     1     -10.066  15.471  66.967  1.00  0.00    -0.254 C  
BRANCH  12  13
HETATM   13  C   UNL     1     -11.335  14.552  67.054  1.00  0.00    -0.349 C  
HETATM   14  C   UNL     1     -12.042  14.427  65.694  1.00  0.00    -0.359 C  
BRANCH  13  15
HETATM   15  N   UNL     1     -10.960  13.178  67.540  1.00  0.00    -0.257 NA 
HETATM   16  C   UNL     1      -9.547  13.052  67.917  1.00  0.00    -0.215 C  
HETATM   17  C   UNL     1     -11.771  12.742  68.690  1.00  0.00    -0.324 C  
ENDBRANCH  13  15
ENDBRANCH  12  13
ENDBRANCH   5  12
BRANCH   5  18
HETATM   18  C   UNL     1      -8.237  16.737  68.242  1.00  0.00    -0.204 A  
HETATM   19  C   UNL     1      -7.417  15.622  67.964  1.00  0.00    -0.134 A  
HETATM   20  C   UNL     1      -6.188  18.018  68.671  1.00  0.00    -0.206 A  
HETATM   21  C   UNL     1      -5.407  16.923  68.325  1.00  0.00    -0.115 A  
HETATM   22  C   UNL     1      -6.021  15.721  67.985  1.00  0.00    -0.150 A  
HETATM   23  C   UNL     1      -7.583  17.926  68.628  1.00  0.00    -0.285 A  
ENDBRANCH   5  18
ENDBRANCH   3   5
ENDBRANCH   2   3
TORSDOF 7
ENDMDL
