MODEL        1
REMARK 921   NORMALIZED FREE ENERGY PREDICTED BY IDOCK:   -7.08 KCAL/MOL
REMARK 922        TOTAL FREE ENERGY PREDICTED BY IDOCK:   -8.42 KCAL/MOL
REMARK 923 INTER-LIGAND FREE ENERGY PREDICTED BY IDOCK:   -7.90 KCAL/MOL
REMARK 924 INTRA-LIGAND FREE ENERGY PREDICTED BY IDOCK:   -0.52 KCAL/MOL
REMARK 927      BINDING AFFINITY PREDICTED BY RF-SCORE:    0.00 PKD
ROOT
HETATM    1  C   UNL     1     -11.846  11.836  70.312  1.00  0.00    -0.295 C  
HETATM    2  N   UNL     1     -11.416  13.006  69.398  1.00  0.00    -0.275 N  
HETATM    3  O   UNL     1     -10.632  17.603  67.020  1.00  0.00    -0.328 OA 
HETATM    4  C   UNL     1     -12.503  13.325  68.339  1.00  0.00     0.412 C  
HETATM    5  C   UNL     1     -11.962  14.441  67.458  1.00  0.00    -0.389 C  
HETATM    6  C   UNL     1      -9.986  16.565  67.116  1.00  0.00    -0.266 C  
HETATM    7  C   UNL     1     -10.487  14.249  66.916  1.00  0.00    -0.272 C  
HETATM    8  C   UNL     1      -9.135  16.303  68.374  1.00  0.00    -0.203 C  
HETATM    9  H   UNL     1      -7.578  12.997  67.619  1.00  0.00     0.000 HD 
HETATM   10  C   UNL     1     -10.055  15.439  66.072  1.00  0.00    -0.324 C  
HETATM   11  O   UNL     1     -10.961  15.405  64.947  1.00  0.00    -0.417 OA 
HETATM   12  C   UNL     1     -11.085  14.039  64.719  1.00  0.00    -0.387 A  
HETATM   13  C   UNL     1     -11.716  13.375  63.710  1.00  0.00    -0.376 A  
HETATM   14  O   UNL     1     -12.443  14.040  62.779  1.00  0.00    -0.867 OA 
HETATM   15  C   UNL     1     -11.690  11.971  63.728  1.00  0.00    -0.575 A  
HETATM   16  C   UNL     1     -11.072  11.240  64.788  1.00  0.00    -0.200 A  
HETATM   17  H   UNL     1     -12.883  13.577  62.075  1.00  0.00     0.000 HD 
HETATM   18  C   UNL     1     -10.565  11.916  65.893  1.00  0.00    -0.306 A  
HETATM   19  C   UNL     1      -9.950  11.329  67.176  1.00  0.00    -0.219 C  
HETATM   20  C   UNL     1     -10.649  13.299  65.800  1.00  0.00    -0.291 A  
HETATM   21  C   UNL     1     -10.029  12.430  68.524  1.00  0.00    -0.175 C  
HETATM   22  C   UNL     1      -9.405  13.733  67.848  1.00  0.00    -0.211 C  
HETATM   23  O   UNL     1      -8.255  13.320  67.035  1.00  0.00    -0.148 OA 
HETATM   24  C   UNL     1      -8.716  14.845  68.670  1.00  0.00    -0.177 C  
ENDROOT
BRANCH   2  25
HETATM   25  C   UNL     1     -11.300  14.256  70.326  1.00  0.00    -0.086 C  
BRANCH  25  26
HETATM   26  C   UNL     1     -12.394  14.443  71.365  1.00  0.00    -0.433 C  
HETATM   27  C   UNL     1     -12.444  15.706  72.191  1.00  0.00    -0.509 C  
HETATM   28  C   UNL     1     -13.541  15.432  71.212  1.00  0.00    -0.585 C  
ENDBRANCH  25  26
ENDBRANCH   2  25
TORSDOF 2
ENDMDL
MODEL        2
REMARK 921   NORMALIZED FREE ENERGY PREDICTED BY IDOCK:   -6.75 KCAL/MOL
REMARK 922        TOTAL FREE ENERGY PREDICTED BY IDOCK:   -8.06 KCAL/MOL
REMARK 923 INTER-LIGAND FREE ENERGY PREDICTED BY IDOCK:   -7.38 KCAL/MOL
REMARK 924 INTRA-LIGAND FREE ENERGY PREDICTED BY IDOCK:   -0.68 KCAL/MOL
REMARK 927      BINDING AFFINITY PREDICTED BY RF-SCORE:    0.00 PKD
ROOT
HETATM    1  C   UNL     1     -11.536  11.495  70.110  1.00  0.00    -0.249 C  
HETATM    2  N   UNL     1     -11.362  12.315  68.812  1.00  0.00    -0.265 N  
HETATM    3  O   UNL     1     -11.864  15.445  64.646  1.00  0.00    -0.330 OA 
HETATM    4  C   UNL     1     -12.004  11.596  67.598  1.00  0.00    -0.012 C  
HETATM    5  C   UNL     1     -11.726  12.449  66.369  1.00  0.00    -0.453 C  
HETATM    6  C   UNL     1     -10.914  15.049  65.312  1.00  0.00    -0.382 C  
HETATM    7  C   UNL     1     -10.234  12.943  66.185  1.00  0.00    -0.286 C  
HETATM    8  C   UNL     1     -10.563  15.746  66.641  1.00  0.00    -0.307 C  
HETATM    9  H   UNL     1      -7.557  13.849  67.778  1.00  0.00     0.000 HD 
HETATM   10  C   UNL     1     -10.092  13.804  64.938  1.00  0.00    -0.267 C  
HETATM   11  O   UNL     1     -10.407  12.896  63.860  1.00  0.00    -0.409 OA 
HETATM   12  C   UNL     1      -9.825  11.712  64.301  1.00  0.00    -0.230 A  
HETATM   13  C   UNL     1      -9.681  10.518  63.662  1.00  0.00    -0.318 A  
HETATM   14  O   UNL     1     -10.226  10.305  62.439  1.00  0.00    -0.673 OA 
HETATM   15  C   UNL     1      -9.049   9.472  64.356  1.00  0.00    -0.234 A  
HETATM   16  C   UNL     1      -8.611   9.617  65.707  1.00  0.00    -0.149 A  
HETATM   17  H   UNL     1     -10.126   9.472  61.993  1.00  0.00     0.000 HD 
HETATM   18  C   UNL     1      -8.898  10.784  66.407  1.00  0.00    -0.174 A  
HETATM   19  C   UNL     1      -8.607  11.112  67.883  1.00  0.00    -0.135 C  
HETATM   20  C   UNL     1      -9.540  11.757  65.651  1.00  0.00    -0.240 A  
HETATM   21  C   UNL     1      -9.651  12.357  68.513  1.00  0.00    -0.121 C  
HETATM   22  C   UNL     1      -9.462  13.467  67.383  1.00  0.00    -0.225 C  
HETATM   23  O   UNL     1      -8.040  13.521  67.028  1.00  0.00    -0.123 OA 
HETATM   24  C   UNL     1      -9.688  14.971  67.653  1.00  0.00    -0.215 C  
ENDROOT
BRANCH   2  25
HETATM   25  C   UNL     1     -12.157  13.641  69.032  1.00  0.00    -0.309 C  
BRANCH  25  26
HETATM   26  C   UNL     1     -12.311  14.118  70.467  1.00  0.00    -0.434 C  
HETATM   27  C   UNL     1     -11.303  15.076  71.057  1.00  0.00    -0.316 C  
HETATM   28  C   UNL     1     -12.710  15.537  70.845  1.00  0.00    -0.525 C  
ENDBRANCH  25  26
ENDBRANCH   2  25
TORSDOF 2
ENDMDL
MODEL        3
REMARK 921   NORMALIZED FREE ENERGY PREDICTED BY IDOCK:   -6.70 KCAL/MOL
REMARK 922        TOTAL FREE ENERGY PREDICTED BY IDOCK:   -8.00 KCAL/MOL
REMARK 923 INTER-LIGAND FREE ENERGY PREDICTED BY IDOCK:   -7.42 KCAL/MOL
REMARK 924 INTRA-LIGAND FREE ENERGY PREDICTED BY IDOCK:   -0.58 KCAL/MOL
REMARK 927      BINDING AFFINITY PREDICTED BY RF-SCORE:    0.00 PKD
ROOT
HETATM    1  C   UNL     1      -8.610  15.802  66.649  1.00  0.00    -0.287 C  
HETATM    2  N   UNL     1      -9.174  14.452  67.147  1.00  0.00    -0.212 N  
HETATM    3  O   UNL     1     -10.416  10.096  69.771  1.00  0.00    -0.232 OA 
HETATM    4  C   UNL     1      -8.177  13.293  66.889  1.00  0.00     0.047 C  
HETATM    5  C   UNL     1      -8.846  12.009  67.355  1.00  0.00    -0.178 C  
HETATM    6  C   UNL     1     -10.981  10.778  68.923  1.00  0.00    -0.241 C  
HETATM    7  C   UNL     1     -10.334  11.779  66.865  1.00  0.00    -0.247 C  
HETATM    8  C   UNL     1     -11.736  12.056  69.341  1.00  0.00    -0.402 C  
HETATM    9  H   UNL     1     -13.101  13.285  66.093  1.00  0.00     0.000 HD 
HETATM   10  C   UNL     1     -10.897  10.478  67.418  1.00  0.00    -0.291 C  
HETATM   11  O   UNL     1     -10.059   9.464  66.820  1.00  0.00    -0.222 OA 
HETATM   12  C   UNL     1      -9.854   9.976  65.543  1.00  0.00    -0.303 A  
HETATM   13  C   UNL     1      -9.240   9.415  64.465  1.00  0.00    -0.092 A  
HETATM   14  O   UNL     1      -8.618   8.213  64.557  1.00  0.00    -0.380 OA 
HETATM   15  C   UNL     1      -9.168  10.169  63.282  1.00  0.00    -0.320 A  
HETATM   16  C   UNL     1      -9.668  11.504  63.204  1.00  0.00    -0.412 A  
HETATM   17  H   UNL     1      -8.189   7.821  63.805  1.00  0.00     0.000 HD 
HETATM   18  C   UNL     1     -10.154  12.129  64.347  1.00  0.00    -0.300 A  
HETATM   19  C   UNL     1     -10.649  13.578  64.510  1.00  0.00    -0.439 C  
HETATM   20  C   UNL     1     -10.173  11.318  65.474  1.00  0.00    -0.312 A  
HETATM   21  C   UNL     1     -10.567  14.135  66.158  1.00  0.00    -0.293 C  
HETATM   22  C   UNL     1     -11.320  12.934  66.889  1.00  0.00    -0.312 C  
HETATM   23  O   UNL     1     -12.485  12.563  66.078  1.00  0.00    -0.565 OA 
HETATM   24  C   UNL     1     -12.034  13.107  68.248  1.00  0.00    -0.328 C  
ENDROOT
BRANCH   2  25
HETATM   25  C   UNL     1      -9.321  14.593  68.695  1.00  0.00    -0.206 C  
BRANCH  25  26
HETATM   26  C   UNL     1      -9.806  15.936  69.218  1.00  0.00    -0.259 C  
HETATM   27  C   UNL     1     -11.208  16.405  68.910  1.00  0.00    -0.304 C  
HETATM   28  C   UNL     1     -10.841  16.085  70.324  1.00  0.00    -0.327 C  
ENDBRANCH  25  26
ENDBRANCH   2  25
TORSDOF 2
ENDMDL
MODEL        4
REMARK 921   NORMALIZED FREE ENERGY PREDICTED BY IDOCK:   -6.68 KCAL/MOL
REMARK 922        TOTAL FREE ENERGY PREDICTED BY IDOCK:   -7.98 KCAL/MOL
REMARK 923 INTER-LIGAND FREE ENERGY PREDICTED BY IDOCK:   -7.33 KCAL/MOL
REMARK 924 INTRA-LIGAND FREE ENERGY PREDICTED BY IDOCK:   -0.65 KCAL/MOL
REMARK 927      BINDING AFFINITY PREDICTED BY RF-SCORE:    0.00 PKD
ROOT
HETATM    1  C   UNL     1      -8.516   9.754  67.937  1.00  0.00    -0.125 C  
HETATM    2  N   UNL     1      -8.984  11.137  67.429  1.00  0.00    -0.139 N  
HETATM    3  O   UNL     1      -9.458  15.917  65.349  1.00  0.00    -0.355 OA 
HETATM    4  C   UNL     1      -8.605  12.264  68.425  1.00  0.00    -0.136 C  
HETATM    5  C   UNL     1      -9.159  13.566  67.867  1.00  0.00    -0.204 C  
HETATM    6  C   UNL     1     -10.233  14.989  65.553  1.00  0.00    -0.378 C  
HETATM    7  C   UNL     1     -10.666  13.532  67.382  1.00  0.00    -0.269 C  
HETATM    8  C   UNL     1     -10.301  13.812  64.561  1.00  0.00    -0.311 C  
HETATM    9  H   UNL     1     -12.951  11.651  66.055  1.00  0.00     0.000 HD 
HETATM   10  C   UNL     1     -11.091  14.882  66.823  1.00  0.00    -0.335 C  
HETATM   11  O   UNL     1     -11.000  15.766  67.963  1.00  0.00    -0.307 OA 
HETATM   12  C   UNL     1     -11.449  14.950  68.997  1.00  0.00    -0.301 A  
HETATM   13  C   UNL     1     -11.704  15.252  70.300  1.00  0.00    -0.308 A  
HETATM   14  O   UNL     1     -11.433  16.482  70.803  1.00  0.00    -0.562 OA 
HETATM   15  C   UNL     1     -12.150  14.218  71.140  1.00  0.00    -0.409 A  
HETATM   16  C   UNL     1     -12.288  12.874  70.678  1.00  0.00    -0.385 A  
HETATM   17  H   UNL     1     -11.611  16.692  71.712  1.00  0.00     0.000 HD 
HETATM   18  C   UNL     1     -11.879  12.538  69.392  1.00  0.00    -0.368 A  
HETATM   19  C   UNL     1     -11.849  11.150  68.726  1.00  0.00    -0.388 C  
HETATM   20  C   UNL     1     -11.436  13.617  68.637  1.00  0.00    -0.342 A  
HETATM   21  C   UNL     1     -10.719  11.062  67.404  1.00  0.00    -0.303 C  
HETATM   22  C   UNL     1     -11.170  12.349  66.575  1.00  0.00    -0.319 C  
HETATM   23  O   UNL     1     -12.636  12.392  66.559  1.00  0.00    -0.161 OA 
HETATM   24  C   UNL     1     -10.921  12.486  65.057  1.00  0.00    -0.329 C  
ENDROOT
BRANCH   2  25
HETATM   25  C   UNL     1      -8.186  11.403  66.113  1.00  0.00    -0.041 C  
BRANCH  25  26
HETATM   26  C   UNL     1      -7.917  10.203  65.221  1.00  0.00    -0.145 C  
HETATM   27  C   UNL     1      -9.037   9.603  64.403  1.00  0.00    -0.279 C  
HETATM   28  C   UNL     1      -7.897  10.271  63.700  1.00  0.00    -0.125 C  
ENDBRANCH  25  26
ENDBRANCH   2  25
TORSDOF 2
ENDMDL
MODEL        5
REMARK 921   NORMALIZED FREE ENERGY PREDICTED BY IDOCK:   -6.60 KCAL/MOL
REMARK 922        TOTAL FREE ENERGY PREDICTED BY IDOCK:   -7.89 KCAL/MOL
REMARK 923 INTER-LIGAND FREE ENERGY PREDICTED BY IDOCK:   -7.48 KCAL/MOL
REMARK 924 INTRA-LIGAND FREE ENERGY PREDICTED BY IDOCK:   -0.41 KCAL/MOL
REMARK 927      BINDING AFFINITY PREDICTED BY RF-SCORE:    0.00 PKD
ROOT
HETATM    1  C   UNL     1     -10.927  15.937  64.923  1.00  0.00    -0.411 C  
HETATM    2  N   UNL     1     -10.868  14.674  65.811  1.00  0.00    -0.311 N  
HETATM    3  O   UNL     1     -11.202   9.890  67.911  1.00  0.00    -0.226 OA 
HETATM    4  C   UNL     1     -12.213  14.435  66.545  1.00  0.00    -0.332 C  
HETATM    5  C   UNL     1     -12.032  13.214  67.434  1.00  0.00    -0.379 C  
HETATM    6  C   UNL     1     -10.445  10.843  68.061  1.00  0.00    -0.191 C  
HETATM    7  C   UNL     1     -10.727  13.189  68.330  1.00  0.00    -0.270 C  
HETATM    8  C   UNL     1      -9.284  11.066  67.073  1.00  0.00    -0.164 C  
HETATM    9  H   UNL     1      -7.618  14.104  68.458  1.00  0.00     0.000 HD 
HETATM   10  C   UNL     1     -10.650  11.909  69.149  1.00  0.00    -0.044 C  
HETATM   11  O   UNL     1     -11.799  11.994  70.021  1.00  0.00    -0.323 OA 
HETATM   12  C   UNL     1     -11.829  13.350  70.328  1.00  0.00    -0.245 A  
HETATM   13  C   UNL     1     -12.616  14.031  71.206  1.00  0.00    -0.367 A  
HETATM   14  O   UNL     1     -13.620  13.412  71.876  1.00  0.00    -0.413 OA 
HETATM   15  C   UNL     1     -12.434  15.420  71.314  1.00  0.00    -0.460 A  
HETATM   16  C   UNL     1     -11.497  16.126  70.500  1.00  0.00    -0.363 A  
HETATM   17  H   UNL     1     -14.169  13.887  72.489  1.00  0.00     0.000 HD 
HETATM   18  C   UNL     1     -10.806  15.454  69.498  1.00  0.00    -0.268 A  
HETATM   19  C   UNL     1      -9.831  16.029  68.454  1.00  0.00    -0.213 C  
HETATM   20  C   UNL     1     -11.059  14.088  69.450  1.00  0.00    -0.246 A  
HETATM   21  C   UNL     1      -9.689  15.022  67.040  1.00  0.00    -0.241 C  
HETATM   22  C   UNL     1      -9.397  13.616  67.734  1.00  0.00    -0.218 C  
HETATM   23  O   UNL     1      -8.449  13.836  68.831  1.00  0.00    -0.030 OA 
HETATM   24  C   UNL     1      -8.650  12.474  67.011  1.00  0.00    -0.188 C  
ENDROOT
BRANCH   2  25
HETATM   25  C   UNL     1     -10.659  13.472  64.836  1.00  0.00    -0.397 C  
BRANCH  25  26
HETATM   26  C   UNL     1     -11.759  13.217  63.818  1.00  0.00    -0.519 C  
HETATM   27  C   UNL     1     -11.818  11.897  63.085  1.00  0.00    -0.269 C  
HETATM   28  C   UNL     1     -12.909  12.247  64.047  1.00  0.00    -0.387 C  
ENDBRANCH  25  26
ENDBRANCH   2  25
TORSDOF 2
ENDMDL
MODEL        6
REMARK 921   NORMALIZED FREE ENERGY PREDICTED BY IDOCK:   -6.51 KCAL/MOL
REMARK 922        TOTAL FREE ENERGY PREDICTED BY IDOCK:   -7.79 KCAL/MOL
REMARK 923 INTER-LIGAND FREE ENERGY PREDICTED BY IDOCK:   -7.32 KCAL/MOL
REMARK 924 INTRA-LIGAND FREE ENERGY PREDICTED BY IDOCK:   -0.47 KCAL/MOL
REMARK 927      BINDING AFFINITY PREDICTED BY RF-SCORE:    0.00 PKD
ROOT
HETATM    1  C   UNL     1      -9.750   7.132  66.919  1.00  0.00    -0.186 C  
HETATM    2  N   UNL     1      -9.727   6.868  68.442  1.00  0.00    -0.136 N  
HETATM    3  O   UNL     1      -9.749   4.855  73.274  1.00  0.00    -0.136 OA 
HETATM    4  C   UNL     1     -11.159   6.681  69.005  1.00  0.00    -0.257 C  
HETATM    5  C   UNL     1     -11.032   6.490  70.509  1.00  0.00    -0.348 C  
HETATM    6  C   UNL     1      -9.288   5.874  72.770  1.00  0.00    -0.145 C  
HETATM    7  C   UNL     1     -10.107   7.526  71.269  1.00  0.00    -0.197 C  
HETATM    8  C   UNL     1      -7.941   5.821  72.024  1.00  0.00    -0.107 C  
HETATM    9  H   UNL     1      -7.454   9.371  70.984  1.00  0.00     0.000 HD 
HETATM   10  C   UNL     1     -10.042   7.213  72.756  1.00  0.00    -0.196 C  
HETATM   11  O   UNL     1     -11.402   7.405  73.204  1.00  0.00    -0.298 OA 
HETATM   12  C   UNL     1     -11.800   8.506  72.453  1.00  0.00    -0.367 A  
HETATM   13  C   UNL     1     -12.948   9.237  72.515  1.00  0.00    -0.313 A  
HETATM   14  O   UNL     1     -13.967   8.876  73.333  1.00  0.00    -1.236 OA 
HETATM   15  C   UNL     1     -13.094  10.311  71.621  1.00  0.00    -0.553 A  
HETATM   16  C   UNL     1     -12.106  10.612  70.634  1.00  0.00    -0.461 A  
HETATM   17  H   UNL     1     -14.768   9.386  73.376  1.00  0.00     0.000 HD 
HETATM   18  C   UNL     1     -11.010   9.772  70.471  1.00  0.00    -0.384 A  
HETATM   19  C   UNL     1      -9.888   9.854  69.420  1.00  0.00    -0.231 C  
HETATM   20  C   UNL     1     -10.955   8.727  71.384  1.00  0.00    -0.360 A  
HETATM   21  C   UNL     1      -9.101   8.322  69.158  1.00  0.00    -0.148 C  
HETATM   22  C   UNL     1      -8.771   7.924  70.667  1.00  0.00    -0.135 C  
HETATM   23  O   UNL     1      -8.290   9.123  71.362  1.00  0.00    -0.321 OA 
HETATM   24  C   UNL     1      -7.617   6.966  71.038  1.00  0.00    -0.087 C  
ENDROOT
BRANCH   2  25
HETATM   25  C   UNL     1      -8.979   5.510  68.631  1.00  0.00    -0.114 C  
BRANCH  25  26
HETATM   26  C   UNL     1      -9.660   4.270  68.077  1.00  0.00    -0.204 C  
HETATM   27  C   UNL     1      -8.892   3.319  67.189  1.00  0.00    -0.154 C  
HETATM   28  C   UNL     1      -9.340   2.855  68.539  1.00  0.00    -0.249 C  
ENDBRANCH  25  26
ENDBRANCH   2  25
TORSDOF 2
ENDMDL
MODEL        7
REMARK 921   NORMALIZED FREE ENERGY PREDICTED BY IDOCK:   -6.41 KCAL/MOL
REMARK 922        TOTAL FREE ENERGY PREDICTED BY IDOCK:   -7.68 KCAL/MOL
REMARK 923 INTER-LIGAND FREE ENERGY PREDICTED BY IDOCK:   -7.23 KCAL/MOL
REMARK 924 INTRA-LIGAND FREE ENERGY PREDICTED BY IDOCK:   -0.45 KCAL/MOL
REMARK 927      BINDING AFFINITY PREDICTED BY RF-SCORE:    0.00 PKD
ROOT
HETATM    1  C   UNL     1      -9.571   9.610  70.261  1.00  0.00    -0.254 C  
HETATM    2  N   UNL     1     -10.150  10.372  69.047  1.00  0.00    -0.202 N  
HETATM    3  O   UNL     1     -13.139  12.636  65.394  1.00  0.00    -0.463 OA 
HETATM    4  C   UNL     1     -10.527   9.403  67.897  1.00  0.00    -0.243 C  
HETATM    5  C   UNL     1     -11.026  10.251  66.737  1.00  0.00    -0.082 C  
HETATM    6  C   UNL     1     -12.014  12.847  65.835  1.00  0.00    -0.448 C  
HETATM    7  C   UNL     1     -10.127  11.492  66.343  1.00  0.00    -0.250 C  
HETATM    8  C   UNL     1     -11.837  13.637  67.146  1.00  0.00    -0.435 C  
HETATM    9  H   UNL     1      -8.127  13.759  67.520  1.00  0.00     0.000 HD 
HETATM   10  C   UNL     1     -10.744  12.271  65.190  1.00  0.00    -0.293 C  
HETATM   11  O   UNL     1     -10.723  11.329  64.094  1.00  0.00    -0.348 OA 
HETATM   12  C   UNL     1      -9.511  10.678  64.296  1.00  0.00    -0.274 A  
HETATM   13  C   UNL     1      -8.871   9.762  63.519  1.00  0.00    -0.241 A  
HETATM   14  O   UNL     1      -9.449   9.266  62.397  1.00  0.00    -0.583 OA 
HETATM   15  C   UNL     1      -7.640   9.256  63.973  1.00  0.00    -0.113 A  
HETATM   16  C   UNL     1      -7.085   9.637  65.232  1.00  0.00    -0.109 A  
HETATM   17  H   UNL     1      -9.002   8.626  61.854  1.00  0.00     0.000 HD 
HETATM   18  C   UNL     1      -7.813  10.452  66.092  1.00  0.00    -0.135 A  
HETATM   19  C   UNL     1      -7.452  10.905  67.519  1.00  0.00    -0.097 C  
HETATM   20  C   UNL     1      -9.024  10.891  65.571  1.00  0.00    -0.213 A  
HETATM   21  C   UNL     1      -8.850  11.360  68.453  1.00  0.00    -0.167 C  
HETATM   22  C   UNL     1      -9.541  12.373  67.433  1.00  0.00    -0.184 C  
HETATM   23  O   UNL     1      -8.493  13.209  66.838  1.00  0.00    -0.170 OA 
HETATM   24  C   UNL     1     -10.494  13.497  67.897  1.00  0.00    -0.253 C  
ENDROOT
BRANCH   2  25
HETATM   25  C   UNL     1     -11.476  11.030  69.546  1.00  0.00    -0.299 C  
BRANCH  25  26
HETATM   26  C   UNL     1     -11.987  10.593  70.909  1.00  0.00    -0.469 C  
HETATM   27  C   UNL     1     -13.031  11.419  71.624  1.00  0.00    -0.523 C  
HETATM   28  C   UNL     1     -13.387  10.046  71.148  1.00  0.00    -0.379 C  
ENDBRANCH  25  26
ENDBRANCH   2  25
TORSDOF 2
ENDMDL
MODEL        8
REMARK 921   NORMALIZED FREE ENERGY PREDICTED BY IDOCK:   -6.21 KCAL/MOL
REMARK 922        TOTAL FREE ENERGY PREDICTED BY IDOCK:   -7.46 KCAL/MOL
REMARK 923 INTER-LIGAND FREE ENERGY PREDICTED BY IDOCK:   -6.93 KCAL/MOL
REMARK 924 INTRA-LIGAND FREE ENERGY PREDICTED BY IDOCK:   -0.52 KCAL/MOL
REMARK 927      BINDING AFFINITY PREDICTED BY RF-SCORE:    0.00 PKD
ROOT
HETATM    1  C   UNL     1      -8.488  16.813  68.838  1.00  0.00    -0.217 C  
HETATM    2  N   UNL     1      -9.521  15.963  68.062  1.00  0.00    -0.205 N  
HETATM    3  O   UNL     1     -13.738  13.980  65.678  1.00  0.00    -0.315 OA 
HETATM    4  C   UNL     1     -10.431  15.160  69.026  1.00  0.00    -0.248 C  
HETATM    5  C   UNL     1     -11.364  14.317  68.170  1.00  0.00    -0.313 C  
HETATM    6  C   UNL     1     -12.528  13.847  65.532  1.00  0.00    -0.511 C  
HETATM    7  C   UNL     1     -10.686  13.499  66.996  1.00  0.00    -0.278 C  
HETATM    8  C   UNL     1     -11.730  14.895  64.731  1.00  0.00    -0.402 C  
HETATM    9  H   UNL     1      -8.261  13.526  64.842  1.00  0.00     0.000 HD 
HETATM   10  C   UNL     1     -11.724  12.721  66.201  1.00  0.00    -0.403 C  
HETATM   11  O   UNL     1     -12.255  11.781  67.163  1.00  0.00    -0.446 OA 
HETATM   12  C   UNL     1     -11.118  11.437  67.886  1.00  0.00    -0.261 A  
HETATM   13  C   UNL     1     -10.952  10.496  68.857  1.00  0.00    -0.246 A  
HETATM   14  O   UNL     1     -12.004   9.787  69.335  1.00  0.00    -0.394 OA 
HETATM   15  C   UNL     1      -9.677  10.361  69.432  1.00  0.00    -0.222 A  
HETATM   16  C   UNL     1      -8.588  11.208  69.065  1.00  0.00    -0.033 A  
HETATM   17  H   UNL     1     -11.889   9.130  70.013  1.00  0.00     0.000 HD 
HETATM   18  C   UNL     1      -8.799  12.267  68.188  1.00  0.00    -0.187 A  
HETATM   19  C   UNL     1      -7.803  13.349  67.734  1.00  0.00    -0.158 C  
HETATM   20  C   UNL     1     -10.091  12.337  67.682  1.00  0.00    -0.204 A  
HETATM   21  C   UNL     1      -8.591  14.797  67.172  1.00  0.00    -0.248 C  
HETATM   22  C   UNL     1      -9.623  14.159  66.136  1.00  0.00    -0.254 C  
HETATM   23  O   UNL     1      -8.926  13.113  65.380  1.00  0.00     0.659 OA 
HETATM   24  C   UNL     1     -10.201  14.955  64.944  1.00  0.00    -0.286 C  
ENDROOT
BRANCH   2  25
HETATM   25  C   UNL     1     -10.437  16.982  67.311  1.00  0.00    -0.301 C  
BRANCH  25  26
HETATM   26  C   UNL     1      -9.829  18.335  66.979  1.00  0.00    -0.331 C  
HETATM   27  C   UNL     1     -10.485  19.226  65.951  1.00  0.00    -0.534 C  
HETATM   28  C   UNL     1     -10.457  19.662  67.382  1.00  0.00    -0.596 C  
ENDBRANCH  25  26
ENDBRANCH   2  25
TORSDOF 2
ENDMDL
MODEL        9
REMARK 921   NORMALIZED FREE ENERGY PREDICTED BY IDOCK:   -6.11 KCAL/MOL
REMARK 922        TOTAL FREE ENERGY PREDICTED BY IDOCK:   -7.34 KCAL/MOL
REMARK 923 INTER-LIGAND FREE ENERGY PREDICTED BY IDOCK:   -6.76 KCAL/MOL
REMARK 924 INTRA-LIGAND FREE ENERGY PREDICTED BY IDOCK:   -0.58 KCAL/MOL
REMARK 927      BINDING AFFINITY PREDICTED BY RF-SCORE:    0.00 PKD
ROOT
HETATM    1  C   UNL     1      -7.843  16.133  66.358  1.00  0.00    -0.162 C  
HETATM    2  N   UNL     1      -8.908  15.392  67.198  1.00  0.00    -0.199 N  
HETATM    3  O   UNL     1     -11.917  13.323  70.948  1.00  0.00    -0.246 OA 
HETATM    4  C   UNL     1      -8.379  14.025  67.703  1.00  0.00    -0.187 C  
HETATM    5  C   UNL     1      -9.514  13.354  68.461  1.00  0.00    -0.121 C  
HETATM    6  C   UNL     1     -12.103  13.650  69.781  1.00  0.00    -0.334 C  
HETATM    7  C   UNL     1     -10.923  13.339  67.740  1.00  0.00    -0.278 C  
HETATM    8  C   UNL     1     -12.381  15.125  69.430  1.00  0.00    -0.165 C  
HETATM    9  H   UNL     1     -12.856  14.999  65.732  1.00  0.00     0.000 HD 
HETATM   10  C   UNL     1     -11.976  12.666  68.608  1.00  0.00    -0.223 C  
HETATM   11  O   UNL     1     -11.506  11.303  68.715  1.00  0.00    -0.239 OA 
HETATM   12  C   UNL     1     -10.996  11.073  67.442  1.00  0.00    -0.291 A  
HETATM   13  C   UNL     1     -10.518   9.926  66.886  1.00  0.00    -0.215 A  
HETATM   14  O   UNL     1     -10.388   8.791  67.618  1.00  0.00    -0.226 OA 
HETATM   15  C   UNL     1     -10.052   9.979  65.561  1.00  0.00    -0.325 A  
HETATM   16  C   UNL     1     -10.022  11.199  64.819  1.00  0.00    -0.339 A  
HETATM   17  H   UNL     1     -10.055   7.990  67.230  1.00  0.00     0.000 HD 
HETATM   18  C   UNL     1     -10.365  12.395  65.438  1.00  0.00    -0.303 A  
HETATM   19  C   UNL     1     -10.314  13.822  64.863  1.00  0.00    -0.420 C  
HETATM   20  C   UNL     1     -10.796  12.253  66.752  1.00  0.00    -0.291 A  
HETATM   21  C   UNL     1     -10.209  15.044  66.100  1.00  0.00    -0.311 C  
HETATM   22  C   UNL     1     -11.419  14.590  67.034  1.00  0.00    -0.370 C  
HETATM   23  O   UNL     1     -12.547  14.217  66.173  1.00  0.00    -0.465 OA 
HETATM   24  C   UNL     1     -12.160  15.573  67.968  1.00  0.00     0.231 C  
ENDROOT
BRANCH   2  25
HETATM   25  C   UNL     1      -9.156  16.281  68.458  1.00  0.00    -0.216 C  
BRANCH  25  26
HETATM   26  C   UNL     1      -9.080  17.786  68.260  1.00  0.00    -0.281 C  
HETATM   27  C   UNL     1     -10.072  18.480  67.356  1.00  0.00    -0.377 C  
HETATM   28  C   UNL     1     -10.102  18.762  68.825  1.00  0.00    -0.407 C  
ENDBRANCH  25  26
ENDBRANCH   2  25
TORSDOF 2
ENDMDL
MODEL       10
REMARK 921   NORMALIZED FREE ENERGY PREDICTED BY IDOCK:   -6.11 KCAL/MOL
REMARK 922        TOTAL FREE ENERGY PREDICTED BY IDOCK:   -7.34 KCAL/MOL
REMARK 923 INTER-LIGAND FREE ENERGY PREDICTED BY IDOCK:   -6.68 KCAL/MOL
REMARK 924 INTRA-LIGAND FREE ENERGY PREDICTED BY IDOCK:   -0.67 KCAL/MOL
REMARK 927      BINDING AFFINITY PREDICTED BY RF-SCORE:    0.00 PKD
ROOT
HETATM    1  C   UNL     1     -10.061   5.758  74.428  1.00  0.00    -0.281 C  
HETATM    2  N   UNL     1      -9.712   6.403  73.067  1.00  0.00    -0.153 N  
HETATM    3  O   UNL     1      -7.434   8.539  68.866  1.00  0.00    -0.087 OA 
HETATM    4  C   UNL     1      -9.538   7.938  73.197  1.00  0.00    -0.286 C  
HETATM    5  C   UNL     1      -9.260   8.480  71.803  1.00  0.00    -0.316 C  
HETATM    6  C   UNL     1      -8.464   7.900  69.052  1.00  0.00    -0.131 C  
HETATM    7  C   UNL     1     -10.223   7.976  70.652  1.00  0.00    -0.205 C  
HETATM    8  C   UNL     1      -8.411   6.363  69.140  1.00  0.00    -0.122 C  
HETATM    9  H   UNL     1     -11.996   5.457  69.635  1.00  0.00     0.000 HD 
HETATM   10  C   UNL     1      -9.825   8.567  69.307  1.00  0.00    -0.185 C  
HETATM   11  O   UNL     1     -10.035   9.986  69.485  1.00  0.00    -0.203 OA 
HETATM   12  C   UNL     1     -11.188  10.012  70.262  1.00  0.00    -0.313 A  
HETATM   13  C   UNL     1     -11.950  11.068  70.659  1.00  0.00    -0.365 A  
HETATM   14  O   UNL     1     -11.577  12.344  70.391  1.00  0.00    -0.530 OA 
HETATM   15  C   UNL     1     -13.076  10.805  71.457  1.00  0.00    -0.517 A  
HETATM   16  C   UNL     1     -13.401   9.485  71.894  1.00  0.00    -0.518 A  
HETATM   17  H   UNL     1     -12.109  13.082  70.668  1.00  0.00     0.000 HD 
HETATM   18  C   UNL     1     -12.537   8.431  71.618  1.00  0.00    -0.362 A  
HETATM   19  C   UNL     1     -12.642   6.962  72.068  1.00  0.00    -0.258 C  
HETATM   20  C   UNL     1     -11.441   8.784  70.840  1.00  0.00    -0.330 A  
HETATM   21  C   UNL     1     -11.103   6.146  72.059  1.00  0.00    -0.322 C  
HETATM   22  C   UNL     1     -10.611   6.509  70.586  1.00  0.00    -0.233 C  
HETATM   23  O   UNL     1     -11.754   6.374  69.676  1.00  0.00    -0.389 OA 
HETATM   24  C   UNL     1      -9.598   5.636  69.811  1.00  0.00    -0.206 C  
ENDROOT
BRANCH   2  25
HETATM   25  C   UNL     1      -8.323   5.818  72.659  1.00  0.00    -0.116 C  
BRANCH  25  26
HETATM   26  C   UNL     1      -8.044   4.376  73.051  1.00  0.00    -0.095 C  
HETATM   27  C   UNL     1      -8.692   3.247  72.285  1.00  0.00    -0.104 C  
HETATM   28  C   UNL     1      -7.208   3.421  72.210  1.00  0.00    -0.050 C  
ENDBRANCH  25  26
ENDBRANCH   2  25
TORSDOF 2
ENDMDL
MODEL       11
REMARK 921   NORMALIZED FREE ENERGY PREDICTED BY IDOCK:   -6.05 KCAL/MOL
REMARK 922        TOTAL FREE ENERGY PREDICTED BY IDOCK:   -7.28 KCAL/MOL
REMARK 923 INTER-LIGAND FREE ENERGY PREDICTED BY IDOCK:   -6.75 KCAL/MOL
REMARK 924 INTRA-LIGAND FREE ENERGY PREDICTED BY IDOCK:   -0.53 KCAL/MOL
REMARK 927      BINDING AFFINITY PREDICTED BY RF-SCORE:    0.00 PKD
ROOT
HETATM    1  C   UNL     1      -6.792  12.919  67.246  1.00  0.00    -0.057 C  
HETATM    2  N   UNL     1      -7.839  14.020  67.528  1.00  0.00    -0.174 N  
HETATM    3  O   UNL     1     -10.442  18.399  68.732  1.00  0.00    -0.270 OA 
HETATM    4  C   UNL     1      -8.138  14.141  69.045  1.00  0.00     0.043 C  
HETATM    5  C   UNL     1      -9.217  15.201  69.210  1.00  0.00    -0.205 C  
HETATM    6  C   UNL     1     -10.674  17.432  68.015  1.00  0.00    -0.359 C  
HETATM    7  C   UNL     1     -10.472  15.075  68.254  1.00  0.00    -0.237 C  
HETATM    8  C   UNL     1     -10.082  17.369  66.593  1.00  0.00    -0.317 C  
HETATM    9  H   UNL     1     -11.433  14.140  65.300  1.00  0.00     0.000 HD 
HETATM   10  C   UNL     1     -11.462  16.204  68.498  1.00  0.00    -0.324 C  
HETATM   11  O   UNL     1     -11.901  15.982  69.857  1.00  0.00    -0.315 OA 
HETATM   12  C   UNL     1     -11.968  14.594  69.915  1.00  0.00    -0.329 A  
HETATM   13  C   UNL     1     -12.435  13.783  70.904  1.00  0.00    -0.377 A  
HETATM   14  O   UNL     1     -12.840  14.288  72.095  1.00  0.00    -0.332 OA 
HETATM   15  C   UNL     1     -12.377  12.394  70.699  1.00  0.00    -0.367 A  
HETATM   16  C   UNL     1     -11.802  11.827  69.521  1.00  0.00    -0.402 A  
HETATM   17  H   UNL     1     -13.167  13.722  72.785  1.00  0.00     0.000 HD 
HETATM   18  C   UNL     1     -11.187  12.651  68.585  1.00  0.00    -0.323 A  
HETATM   19  C   UNL     1     -10.430  12.250  67.306  1.00  0.00    -0.236 C  
HETATM   20  C   UNL     1     -11.275  14.006  68.875  1.00  0.00    -0.303 A  
HETATM   21  C   UNL     1      -9.307  13.472  66.777  1.00  0.00    -0.262 C  
HETATM   22  C   UNL     1     -10.268  14.746  66.785  1.00  0.00    -0.266 C  
HETATM   23  O   UNL     1     -11.561  14.346  66.218  1.00  0.00    -0.354 OA 
HETATM   24  C   UNL     1     -10.006  15.988  65.905  1.00  0.00    -0.380 C  
ENDROOT
BRANCH   2  25
HETATM   25  C   UNL     1      -7.179  15.364  67.083  1.00  0.00    -0.144 C  
BRANCH  25  26
HETATM   26  C   UNL     1      -5.861  15.732  67.744  1.00  0.00    -0.168 C  
HETATM   27  C   UNL     1      -5.200  17.052  67.427  1.00  0.00    -0.152 C  
HETATM   28  C   UNL     1      -5.725  16.813  68.807  1.00  0.00    -0.136 C  
ENDBRANCH  25  26
ENDBRANCH   2  25
TORSDOF 2
ENDMDL
MODEL       12
REMARK 921   NORMALIZED FREE ENERGY PREDICTED BY IDOCK:   -6.04 KCAL/MOL
REMARK 922        TOTAL FREE ENERGY PREDICTED BY IDOCK:   -7.27 KCAL/MOL
REMARK 923 INTER-LIGAND FREE ENERGY PREDICTED BY IDOCK:   -6.76 KCAL/MOL
REMARK 924 INTRA-LIGAND FREE ENERGY PREDICTED BY IDOCK:   -0.50 KCAL/MOL
REMARK 927      BINDING AFFINITY PREDICTED BY RF-SCORE:    0.00 PKD
ROOT
HETATM    1  C   UNL     1     -10.516  18.743  67.221  1.00  0.00    -0.431 C  
HETATM    2  N   UNL     1      -9.724  17.421  67.349  1.00  0.00    -0.263 N  
HETATM    3  O   UNL     1      -6.150  13.597  67.401  1.00  0.00    -0.337 OA 
HETATM    4  C   UNL     1      -9.593  16.706  65.979  1.00  0.00    -0.266 C  
HETATM    5  C   UNL     1      -8.858  15.396  66.222  1.00  0.00    -0.302 C  
HETATM    6  C   UNL     1      -7.187  13.811  68.019  1.00  0.00    -0.137 C  
HETATM    7  C   UNL     1      -9.381  14.515  67.429  1.00  0.00    -0.197 C  
HETATM    8  C   UNL     1      -7.178  14.761  69.233  1.00  0.00    -0.167 C  
HETATM    9  H   UNL     1     -10.727  14.644  70.378  1.00  0.00     0.000 HD 
HETATM   10  C   UNL     1      -8.550  13.250  67.583  1.00  0.00    -0.196 C  
HETATM   11  O   UNL     1      -8.796  12.530  66.354  1.00  0.00    -0.141 OA 
HETATM   12  C   UNL     1     -10.143  12.794  66.131  1.00  0.00    -0.266 A  
HETATM   13  C   UNL     1     -10.987  12.292  65.187  1.00  0.00    -0.303 A  
HETATM   14  O   UNL     1     -10.536  11.471  64.207  1.00  0.00    -0.286 OA 
HETATM   15  C   UNL     1     -12.318  12.743  65.186  1.00  0.00    -0.555 A  
HETATM   16  C   UNL     1     -12.781  13.734  66.104  1.00  0.00    -0.335 A  
HETATM   17  H   UNL     1     -11.124  11.120  63.548  1.00  0.00     0.000 HD 
HETATM   18  C   UNL     1     -11.882  14.356  66.964  1.00  0.00    -0.437 A  
HETATM   19  C   UNL     1     -12.143  15.503  67.957  1.00  0.00     0.231 C  
HETATM   20  C   UNL     1     -10.586  13.863  66.885  1.00  0.00    -0.280 A  
HETATM   21  C   UNL     1     -10.697  16.390  68.354  1.00  0.00    -0.327 C  
HETATM   22  C   UNL     1      -9.735  15.181  68.748  1.00  0.00    -0.221 C  
HETATM   23  O   UNL     1     -10.506  14.227  69.553  1.00  0.00    -0.107 OA 
HETATM   24  C   UNL     1      -8.527  15.356  69.694  1.00  0.00    -0.124 C  
ENDROOT
BRANCH   2  25
HETATM   25  C   UNL     1      -8.283  17.825  67.794  1.00  0.00    -0.227 C  
BRANCH  25  26
HETATM   26  C   UNL     1      -8.115  19.210  68.399  1.00  0.00    -0.378 C  
HETATM   27  C   UNL     1      -6.941  19.501  69.303  1.00  0.00    -0.385 C  
HETATM   28  C   UNL     1      -7.027  20.187  67.976  1.00  0.00    -0.325 C  
ENDBRANCH  25  26
ENDBRANCH   2  25
TORSDOF 2
ENDMDL
MODEL       13
REMARK 921   NORMALIZED FREE ENERGY PREDICTED BY IDOCK:   -5.99 KCAL/MOL
REMARK 922        TOTAL FREE ENERGY PREDICTED BY IDOCK:   -7.21 KCAL/MOL
REMARK 923 INTER-LIGAND FREE ENERGY PREDICTED BY IDOCK:   -6.84 KCAL/MOL
REMARK 924 INTRA-LIGAND FREE ENERGY PREDICTED BY IDOCK:   -0.37 KCAL/MOL
REMARK 927      BINDING AFFINITY PREDICTED BY RF-SCORE:    0.00 PKD
ROOT
HETATM    1  C   UNL     1     -10.751   9.450  69.229  1.00  0.00    -0.211 C  
HETATM    2  N   UNL     1     -10.848  10.936  68.815  1.00  0.00    -0.192 N  
HETATM    3  O   UNL     1     -12.000  16.010  68.246  1.00  0.00    -0.163 OA 
HETATM    4  C   UNL     1     -12.028  11.175  67.839  1.00  0.00     0.083 C  
HETATM    5  C   UNL     1     -11.999  12.645  67.447  1.00  0.00    -0.309 C  
HETATM    6  C   UNL     1     -11.004  15.328  68.036  1.00  0.00    -0.299 C  
HETATM    7  C   UNL     1     -10.593  13.223  67.006  1.00  0.00    -0.259 C  
HETATM    8  C   UNL     1     -10.052  14.978  69.197  1.00  0.00    -0.245 C  
HETATM    9  H   UNL     1      -7.395  12.990  67.492  1.00  0.00     0.000 HD 
HETATM   10  C   UNL     1     -10.692  14.703  66.667  1.00  0.00    -0.305 C  
HETATM   11  O   UNL     1     -11.574  14.731  65.522  1.00  0.00    -0.342 OA 
HETATM   12  C   UNL     1     -11.180  13.592  64.827  1.00  0.00    -0.360 A  
HETATM   13  C   UNL     1     -11.563  13.142  63.600  1.00  0.00    -0.390 A  
HETATM   14  O   UNL     1     -12.536  13.768  62.893  1.00  0.00    -1.009 OA 
HETATM   15  C   UNL     1     -11.002  11.940  63.136  1.00  0.00    -0.281 A  
HETATM   16  C   UNL     1     -10.098  11.171  63.930  1.00  0.00    -0.404 A  
HETATM   17  H   UNL     1     -12.802  13.454  62.037  1.00  0.00     0.000 HD 
HETATM   18  C   UNL     1      -9.830  11.552  65.240  1.00  0.00    -0.286 A  
HETATM   19  C   UNL     1      -8.972  10.827  66.293  1.00  0.00    -0.184 C  
HETATM   20  C   UNL     1     -10.439  12.740  65.622  1.00  0.00    -0.297 A  
HETATM   21  C   UNL     1      -9.394  11.268  67.924  1.00  0.00    -0.161 C  
HETATM   22  C   UNL     1      -9.349  12.858  67.796  1.00  0.00    -0.203 C  
HETATM   23  O   UNL     1      -8.173  13.219  66.998  1.00  0.00    -0.148 OA 
HETATM   24  C   UNL     1      -9.094  13.780  69.009  1.00  0.00     0.267 C  
ENDROOT
BRANCH   2  25
HETATM   25  C   UNL     1     -11.169  11.725  70.124  1.00  0.00     0.212 C  
BRANCH  25  26
HETATM   26  C   UNL     1     -12.601  11.664  70.628  1.00  0.00    -0.319 C  
HETATM   27  C   UNL     1     -12.952  10.778  71.801  1.00  0.00    -0.568 C  
HETATM   28  C   UNL     1     -13.055  12.263  71.951  1.00  0.00    -0.469 C  
ENDBRANCH  25  26
ENDBRANCH   2  25
TORSDOF 2
ENDMDL
MODEL       14
REMARK 921   NORMALIZED FREE ENERGY PREDICTED BY IDOCK:   -5.84 KCAL/MOL
REMARK 922        TOTAL FREE ENERGY PREDICTED BY IDOCK:   -7.04 KCAL/MOL
REMARK 923 INTER-LIGAND FREE ENERGY PREDICTED BY IDOCK:   -6.50 KCAL/MOL
REMARK 924 INTRA-LIGAND FREE ENERGY PREDICTED BY IDOCK:   -0.54 KCAL/MOL
REMARK 927      BINDING AFFINITY PREDICTED BY RF-SCORE:    0.00 PKD
ROOT
HETATM    1  C   UNL     1     -10.785   8.284  68.058  1.00  0.00    -0.047 C  
HETATM    2  N   UNL     1     -10.312   9.754  67.970  1.00  0.00    -0.194 N  
HETATM    3  O   UNL     1      -9.064  14.771  68.786  1.00  0.00    -0.188 OA 
HETATM    4  C   UNL     1     -11.500  10.715  67.709  1.00  0.00    -0.137 C  
HETATM    5  C   UNL     1     -10.925  12.118  67.579  1.00  0.00    -0.304 C  
HETATM    6  C   UNL     1      -8.652  13.896  68.033  1.00  0.00    -0.178 C  
HETATM    7  C   UNL     1      -9.672  12.273  66.624  1.00  0.00    -0.229 C  
HETATM    8  C   UNL     1      -7.636  12.856  68.545  1.00  0.00    -0.120 C  
HETATM    9  H   UNL     1      -7.021  10.769  65.514  1.00  0.00     0.000 HD 
HETATM   10  C   UNL     1      -9.177  13.712  66.600  1.00  0.00    -0.212 C  
HETATM   11  O   UNL     1     -10.282  14.441  66.021  1.00  0.00    -0.290 OA 
HETATM   12  C   UNL     1     -10.743  13.550  65.059  1.00  0.00    -0.357 A  
HETATM   13  C   UNL     1     -11.698  13.714  64.101  1.00  0.00    -0.386 A  
HETATM   14  O   UNL     1     -12.441  14.846  64.036  1.00  0.00    -0.930 OA 
HETATM   15  C   UNL     1     -11.972  12.629  63.251  1.00  0.00    -0.526 A  
HETATM   16  C   UNL     1     -11.321  11.367  63.402  1.00  0.00    -0.190 A  
HETATM   17  H   UNL     1     -13.107  14.961  63.368  1.00  0.00     0.000 HD 
HETATM   18  C   UNL     1     -10.462  11.154  64.475  1.00  0.00    -0.415 A  
HETATM   19  C   UNL     1      -9.736   9.858  64.879  1.00  0.00    -0.332 C  
HETATM   20  C   UNL     1     -10.263  12.273  65.274  1.00  0.00    -0.305 A  
HETATM   21  C   UNL     1      -9.294   9.832  66.564  1.00  0.00    -0.207 C  
HETATM   22  C   UNL     1      -8.557  11.243  66.674  1.00  0.00    -0.167 C  
HETATM   23  O   UNL     1      -7.718  11.414  65.483  1.00  0.00     0.274 OA 
HETATM   24  C   UNL     1      -7.490  11.539  67.750  1.00  0.00    -0.101 C  
ENDROOT
BRANCH   2  25
HETATM   25  C   UNL     1      -9.739  10.105  69.379  1.00  0.00    -0.229 C  
BRANCH  25  26
HETATM   26  C   UNL     1      -9.303   8.940  70.252  1.00  0.00    -0.208 C  
HETATM   27  C   UNL     1      -8.082   9.071  71.132  1.00  0.00    -0.185 C  
HETATM   28  C   UNL     1      -9.429   8.931  71.769  1.00  0.00    -0.334 C  
ENDBRANCH  25  26
ENDBRANCH   2  25
TORSDOF 2
ENDMDL
MODEL       15
REMARK 921   NORMALIZED FREE ENERGY PREDICTED BY IDOCK:   -5.80 KCAL/MOL
REMARK 922        TOTAL FREE ENERGY PREDICTED BY IDOCK:   -7.00 KCAL/MOL
REMARK 923 INTER-LIGAND FREE ENERGY PREDICTED BY IDOCK:   -6.46 KCAL/MOL
REMARK 924 INTRA-LIGAND FREE ENERGY PREDICTED BY IDOCK:   -0.54 KCAL/MOL
REMARK 927      BINDING AFFINITY PREDICTED BY RF-SCORE:    0.00 PKD
ROOT
HETATM    1  C   UNL     1     -10.069  15.944  68.199  1.00  0.00    -0.229 C  
HETATM    2  N   UNL     1      -9.770  14.443  67.983  1.00  0.00    -0.215 N  
HETATM    3  O   UNL     1      -7.677   9.663  67.577  1.00  0.00    -0.094 OA 
HETATM    4  C   UNL     1      -9.125  14.188  66.596  1.00  0.00    -0.216 C  
HETATM    5  C   UNL     1      -8.929  12.686  66.458  1.00  0.00    -0.115 C  
HETATM    6  C   UNL     1      -8.806  10.090  67.791  1.00  0.00    -0.125 C  
HETATM    7  C   UNL     1     -10.174  11.782  66.832  1.00  0.00    -0.236 C  
HETATM    8  C   UNL     1      -9.203  10.534  69.213  1.00  0.00    -0.164 C  
HETATM    9  H   UNL     1     -12.763  11.560  68.773  1.00  0.00     0.000 HD 
HETATM   10  C   UNL     1      -9.843  10.305  66.678  1.00  0.00    -0.204 C  
HETATM   11  O   UNL     1      -9.584  10.160  65.263  1.00  0.00    -0.232 OA 
HETATM   12  C   UNL     1     -10.532  11.013  64.708  1.00  0.00    -0.316 A  
HETATM   13  C   UNL     1     -10.866  11.217  63.404  1.00  0.00    -0.230 A  
HETATM   14  O   UNL     1     -10.176  10.621  62.400  1.00  0.00    -0.743 OA 
HETATM   15  C   UNL     1     -11.873  12.156  63.121  1.00  0.00    -0.320 A  
HETATM   16  C   UNL     1     -12.503  12.922  64.149  1.00  0.00    -0.413 A  
HETATM   17  H   UNL     1     -10.409  10.764  61.490  1.00  0.00     0.000 HD 
HETATM   18  C   UNL     1     -12.054  12.823  65.461  1.00  0.00    -0.517 A  
HETATM   19  C   UNL     1     -12.519  13.616  66.696  1.00  0.00    -0.291 C  
HETATM   20  C   UNL     1     -11.045  11.886  65.647  1.00  0.00    -0.362 A  
HETATM   21  C   UNL     1     -11.320  13.658  67.959  1.00  0.00    -0.316 C  
HETATM   22  C   UNL     1     -10.990  12.102  68.072  1.00  0.00    -0.229 C  
HETATM   23  O   UNL     1     -12.253  11.359  67.997  1.00  0.00    -0.607 OA 
HETATM   24  C   UNL     1     -10.427  11.465  69.362  1.00  0.00    -0.040 C  
ENDROOT
BRANCH   2  25
HETATM   25  C   UNL     1      -8.708  14.057  69.060  1.00  0.00     0.169 C  
BRANCH  25  26
HETATM   26  C   UNL     1      -7.461  14.924  69.134  1.00  0.00    -0.158 C  
HETATM   27  C   UNL     1      -6.370  14.594  70.125  1.00  0.00    -0.173 C  
HETATM   28  C   UNL     1      -6.088  14.466  68.662  1.00  0.00    -0.084 C  
ENDBRANCH  25  26
ENDBRANCH   2  25
TORSDOF 2
ENDMDL
MODEL       16
REMARK 921   NORMALIZED FREE ENERGY PREDICTED BY IDOCK:   -5.75 KCAL/MOL
REMARK 922        TOTAL FREE ENERGY PREDICTED BY IDOCK:   -6.94 KCAL/MOL
REMARK 923 INTER-LIGAND FREE ENERGY PREDICTED BY IDOCK:   -6.35 KCAL/MOL
REMARK 924 INTRA-LIGAND FREE ENERGY PREDICTED BY IDOCK:   -0.59 KCAL/MOL
REMARK 927      BINDING AFFINITY PREDICTED BY RF-SCORE:    0.00 PKD
ROOT
HETATM    1  C   UNL     1     -11.207  13.754  64.109  1.00  0.00    -0.219 C  
HETATM    2  N   UNL     1     -10.967  12.833  65.327  1.00  0.00    -0.279 N  
HETATM    3  O   UNL     1     -10.626   8.894  68.758  1.00  0.00    -0.214 OA 
HETATM    4  C   UNL     1     -12.259  12.657  66.166  1.00  0.00    -0.209 C  
HETATM    5  C   UNL     1     -11.904  11.790  67.365  1.00  0.00    -0.210 C  
HETATM    6  C   UNL     1     -10.003   9.935  68.582  1.00  0.00    -0.164 C  
HETATM    7  C   UNL     1     -10.598  12.199  68.161  1.00  0.00    -0.236 C  
HETATM    8  C   UNL     1      -8.894   9.997  67.513  1.00  0.00    -0.130 C  
HETATM    9  H   UNL     1      -7.640  13.495  67.854  1.00  0.00     0.000 HD 
HETATM   10  C   UNL     1     -10.339  11.243  69.316  1.00  0.00    -0.070 C  
HETATM   11  O   UNL     1     -11.479  11.440  70.182  1.00  0.00    -0.288 OA 
HETATM   12  C   UNL     1     -11.689  12.810  70.075  1.00  0.00    -0.209 A  
HETATM   13  C   UNL     1     -12.551  13.618  70.753  1.00  0.00    -0.325 A  
HETATM   14  O   UNL     1     -13.454  13.106  71.626  1.00  0.00    -0.346 OA 
HETATM   15  C   UNL     1     -12.559  14.987  70.437  1.00  0.00    -0.399 A  
HETATM   16  C   UNL     1     -11.735  15.529  69.404  1.00  0.00    -0.382 A  
HETATM   17  H   UNL     1     -14.056  13.669  72.099  1.00  0.00     0.000 HD 
HETATM   18  C   UNL     1     -10.971  14.681  68.611  1.00  0.00    -0.266 A  
HETATM   19  C   UNL     1     -10.094  15.035  67.396  1.00  0.00    -0.228 C  
HETATM   20  C   UNL     1     -11.036  13.343  68.981  1.00  0.00    -0.293 A  
HETATM   21  C   UNL     1      -9.833  13.678  66.336  1.00  0.00    -0.302 C  
HETATM   22  C   UNL     1      -9.345  12.593  67.398  1.00  0.00    -0.189 C  
HETATM   23  O   UNL     1      -8.423  13.249  68.332  1.00  0.00    -0.165 OA 
HETATM   24  C   UNL     1      -8.457  11.390  67.007  1.00  0.00    -0.159 C  
ENDROOT
BRANCH   2  25
HETATM   25  C   UNL     1     -10.608  11.430  64.740  1.00  0.00    -0.316 C  
BRANCH  25  26
HETATM   26  C   UNL     1      -9.681  11.408  63.536  1.00  0.00    -0.362 C  
HETATM   27  C   UNL     1      -8.500  10.467  63.509  1.00  0.00    -0.171 C  
HETATM   28  C   UNL     1      -9.621  10.258  62.540  1.00  0.00    -0.217 C  
ENDBRANCH  25  26
ENDBRANCH   2  25
TORSDOF 2
ENDMDL
MODEL       17
REMARK 921   NORMALIZED FREE ENERGY PREDICTED BY IDOCK:   -5.74 KCAL/MOL
REMARK 922        TOTAL FREE ENERGY PREDICTED BY IDOCK:   -6.93 KCAL/MOL
REMARK 923 INTER-LIGAND FREE ENERGY PREDICTED BY IDOCK:   -6.85 KCAL/MOL
REMARK 924 INTRA-LIGAND FREE ENERGY PREDICTED BY IDOCK:   -0.08 KCAL/MOL
REMARK 927      BINDING AFFINITY PREDICTED BY RF-SCORE:    0.00 PKD
ROOT
HETATM    1  C   UNL     1     -10.694   6.024  73.227  1.00  0.00    -0.262 C  
HETATM    2  N   UNL     1     -10.660   6.839  71.914  1.00  0.00    -0.208 N  
HETATM    3  O   UNL     1     -11.502  10.106  67.912  1.00  0.00    -0.283 OA 
HETATM    4  C   UNL     1     -11.639   6.256  70.862  1.00  0.00    -0.272 C  
HETATM    5  C   UNL     1     -11.486   7.085  69.595  1.00  0.00    -0.124 C  
HETATM    6  C   UNL     1     -10.511   9.553  68.374  1.00  0.00    -0.224 C  
HETATM    7  C   UNL     1     -10.003   7.348  69.107  1.00  0.00    -0.173 C  
HETATM    8  C   UNL     1      -9.794  10.156  69.598  1.00  0.00    -0.254 C  
HETATM    9  H   UNL     1      -6.953   7.794  70.116  1.00  0.00     0.000 HD 
HETATM   10  C   UNL     1      -9.985   8.207  67.851  1.00  0.00    -0.182 C  
HETATM   11  O   UNL     1     -10.648   7.383  66.867  1.00  0.00    -0.326 OA 
HETATM   12  C   UNL     1     -10.180   6.114  67.190  1.00  0.00    -0.199 A  
HETATM   13  C   UNL     1     -10.355   4.927  66.545  1.00  0.00    -0.270 A  
HETATM   14  O   UNL     1     -11.162   4.830  65.460  1.00  0.00    -0.906 OA 
HETATM   15  C   UNL     1      -9.766   3.780  67.104  1.00  0.00    -0.145 A  
HETATM   16  C   UNL     1      -9.047   3.824  68.337  1.00  0.00    -0.194 A  
HETATM   17  H   UNL     1     -11.284   4.001  65.010  1.00  0.00     0.000 HD 
HETATM   18  C   UNL     1      -9.001   5.004  69.071  1.00  0.00    -0.125 A  
HETATM   19  C   UNL     1      -8.372   5.249  70.455  1.00  0.00    -0.111 C  
HETATM   20  C   UNL     1      -9.624   6.082  68.454  1.00  0.00    -0.130 A  
HETATM   21  C   UNL     1      -9.060   6.624  71.273  1.00  0.00    -0.151 C  
HETATM   22  C   UNL     1      -8.934   7.719  70.119  1.00  0.00    -0.146 C  
HETATM   23  O   UNL     1      -7.621   7.562  69.482  1.00  0.00    -0.091 OA 
HETATM   24  C   UNL     1      -8.864   9.233  70.417  1.00  0.00    -0.271 C  
ENDROOT
BRANCH   2  25
HETATM   25  C   UNL     1     -11.179   8.266  72.281  1.00  0.00    -0.374 C  
BRANCH  25  26
HETATM   26  C   UNL     1     -12.490   8.702  71.647  1.00  0.00    -0.382 C  
HETATM   27  C   UNL     1     -13.616   9.210  72.517  1.00  0.00    -0.497 C  
HETATM   28  C   UNL     1     -12.945  10.153  71.568  1.00  0.00    -0.547 C  
ENDBRANCH  25  26
ENDBRANCH   2  25
TORSDOF 2
ENDMDL
MODEL       18
REMARK 921   NORMALIZED FREE ENERGY PREDICTED BY IDOCK:   -5.72 KCAL/MOL
REMARK 922        TOTAL FREE ENERGY PREDICTED BY IDOCK:   -6.90 KCAL/MOL
REMARK 923 INTER-LIGAND FREE ENERGY PREDICTED BY IDOCK:   -6.23 KCAL/MOL
REMARK 924 INTRA-LIGAND FREE ENERGY PREDICTED BY IDOCK:   -0.67 KCAL/MOL
REMARK 927      BINDING AFFINITY PREDICTED BY RF-SCORE:    0.00 PKD
ROOT
HETATM    1  C   UNL     1      -7.951  12.914  68.646  1.00  0.00    -0.024 C  
HETATM    2  N   UNL     1      -8.947  13.550  67.649  1.00  0.00    -0.189 N  
HETATM    3  O   UNL     1     -11.860  14.930  63.524  1.00  0.00     0.049 OA 
HETATM    4  C   UNL     1      -8.252  14.608  66.753  1.00  0.00     0.038 C  
HETATM    5  C   UNL     1      -9.322  15.213  65.856  1.00  0.00    -0.279 C  
HETATM    6  C   UNL     1     -12.011  14.986  64.739  1.00  0.00    -0.311 C  
HETATM    7  C   UNL     1     -10.658  15.667  66.573  1.00  0.00    -0.307 C  
HETATM    8  C   UNL     1     -12.486  13.741  65.514  1.00  0.00    -0.548 C  
HETATM    9  H   UNL     1     -12.677  14.997  69.022  1.00  0.00     0.000 HD 
HETATM   10  C   UNL     1     -11.654  16.229  65.569  1.00  0.00     0.621 C  
HETATM   11  O   UNL     1     -10.991  17.407  65.056  1.00  0.00    -0.703 OA 
HETATM   12  C   UNL     1     -10.364  17.903  66.194  1.00  0.00    -0.352 A  
HETATM   13  C   UNL     1      -9.679  19.066  66.377  1.00  0.00    -0.367 A  
HETATM   14  O   UNL     1      -9.430  19.905  65.342  1.00  0.00    -0.245 OA 
HETATM   15  C   UNL     1      -9.136  19.317  67.649  1.00  0.00    -0.354 A  
HETATM   16  C   UNL     1      -9.240  18.373  68.715  1.00  0.00    -0.277 A  
HETATM   17  H   UNL     1      -8.952  20.717  65.469  1.00  0.00     0.000 HD 
HETATM   18  C   UNL     1      -9.804  17.124  68.482  1.00  0.00    -0.297 A  
HETATM   19  C   UNL     1      -9.931  15.933  69.451  1.00  0.00    -0.274 C  
HETATM   20  C   UNL     1     -10.298  16.954  67.195  1.00  0.00    -0.304 A  
HETATM   21  C   UNL     1     -10.099  14.409  68.625  1.00  0.00    -0.242 C  
HETATM   22  C   UNL     1     -11.289  14.772  67.625  1.00  0.00    -0.339 C  
HETATM   23  O   UNL     1     -12.283  15.557  68.364  1.00  0.00    -0.095 OA 
HETATM   24  C   UNL     1     -12.234  13.700  67.038  1.00  0.00    -0.373 C  
ENDROOT
BRANCH   2  25
HETATM   25  C   UNL     1      -9.414  12.392  66.711  1.00  0.00    -0.228 C  
BRANCH  25  26
HETATM   26  C   UNL     1      -9.467  10.999  67.317  1.00  0.00    -0.179 C  
HETATM   27  C   UNL     1     -10.790  10.413  67.749  1.00  0.00    -0.351 C  
HETATM   28  C   UNL     1     -10.057   9.792  66.602  1.00  0.00    -0.303 C  
ENDBRANCH  25  26
ENDBRANCH   2  25
TORSDOF 2
ENDMDL
MODEL       19
REMARK 921   NORMALIZED FREE ENERGY PREDICTED BY IDOCK:   -5.71 KCAL/MOL
REMARK 922        TOTAL FREE ENERGY PREDICTED BY IDOCK:   -6.89 KCAL/MOL
REMARK 923 INTER-LIGAND FREE ENERGY PREDICTED BY IDOCK:   -6.41 KCAL/MOL
REMARK 924 INTRA-LIGAND FREE ENERGY PREDICTED BY IDOCK:   -0.49 KCAL/MOL
REMARK 927      BINDING AFFINITY PREDICTED BY RF-SCORE:    0.00 PKD
ROOT
HETATM    1  C   UNL     1      -7.678   6.386  67.193  1.00  0.00    -0.100 C  
HETATM    2  N   UNL     1      -8.589   7.619  67.394  1.00  0.00    -0.124 N  
HETATM    3  O   UNL     1     -12.359  11.028  68.643  1.00  0.00    -0.539 OA 
HETATM    4  C   UNL     1      -9.737   7.649  66.352  1.00  0.00    -0.127 C  
HETATM    5  C   UNL     1     -10.533   8.922  66.595  1.00  0.00    -0.231 C  
HETATM    6  C   UNL     1     -11.159  11.123  68.412  1.00  0.00    -0.247 C  
HETATM    7  C   UNL     1      -9.692  10.254  66.754  1.00  0.00    -0.231 C  
HETATM    8  C   UNL     1     -10.135  10.812  69.522  1.00  0.00    -0.117 C  
HETATM    9  H   UNL     1      -6.878  11.463  67.824  1.00  0.00     0.000 HD 
HETATM   10  C   UNL     1     -10.599  11.446  67.018  1.00  0.00    -0.248 C  
HETATM   11  O   UNL     1     -11.386  11.548  65.811  1.00  0.00    -0.229 OA 
HETATM   12  C   UNL     1     -10.453  11.227  64.831  1.00  0.00    -0.314 A  
HETATM   13  C   UNL     1     -10.563  11.266  63.474  1.00  0.00    -0.369 A  
HETATM   14  O   UNL     1     -11.742  11.562  62.872  1.00  0.00    -0.834 OA 
HETATM   15  C   UNL     1      -9.449  10.877  62.711  1.00  0.00    -0.359 A  
HETATM   16  C   UNL     1      -8.247  10.402  63.317  1.00  0.00    -0.148 A  
HETATM   17  H   UNL     1     -11.819  11.589  61.925  1.00  0.00     0.000 HD 
HETATM   18  C   UNL     1      -8.191  10.217  64.694  1.00  0.00    -0.165 A  
HETATM   19  C   UNL     1      -7.043   9.633  65.538  1.00  0.00    -0.098 C  
HETATM   20  C   UNL     1      -9.341  10.609  65.367  1.00  0.00    -0.250 A  
HETATM   21  C   UNL     1      -7.586   8.999  67.066  1.00  0.00    -0.091 C  
HETATM   22  C   UNL     1      -8.427  10.247  67.595  1.00  0.00    -0.118 C  
HETATM   23  O   UNL     1      -7.669  11.468  67.298  1.00  0.00    -0.133 OA 
HETATM   24  C   UNL     1      -8.683  10.498  69.098  1.00  0.00    -0.155 C  
ENDROOT
BRANCH   2  25
HETATM   25  C   UNL     1      -9.250   7.439  68.798  1.00  0.00    -0.144 C  
BRANCH  25  26
HETATM   26  C   UNL     1     -10.260   6.312  68.941  1.00  0.00    -0.219 C  
HETATM   27  C   UNL     1     -10.394   5.580  70.255  1.00  0.00    -0.349 C  
HETATM   28  C   UNL     1     -11.531   6.422  69.770  1.00  0.00    -0.468 C  
ENDBRANCH  25  26
ENDBRANCH   2  25
TORSDOF 2
ENDMDL
MODEL       20
REMARK 921   NORMALIZED FREE ENERGY PREDICTED BY IDOCK:   -5.70 KCAL/MOL
REMARK 922        TOTAL FREE ENERGY PREDICTED BY IDOCK:   -6.88 KCAL/MOL
REMARK 923 INTER-LIGAND FREE ENERGY PREDICTED BY IDOCK:   -6.37 KCAL/MOL
REMARK 924 INTRA-LIGAND FREE ENERGY PREDICTED BY IDOCK:   -0.51 KCAL/MOL
REMARK 927      BINDING AFFINITY PREDICTED BY RF-SCORE:    0.00 PKD
ROOT
HETATM    1  C   UNL     1      -7.989   6.734  66.308  1.00  0.00    -0.108 C  
HETATM    2  N   UNL     1      -8.799   7.794  67.089  1.00  0.00    -0.123 N  
HETATM    3  O   UNL     1     -12.028  10.449  70.240  1.00  0.00    -0.272 OA 
HETATM    4  C   UNL     1     -10.204   8.004  66.467  1.00  0.00    -0.158 C  
HETATM    5  C   UNL     1     -10.891   9.102  67.264  1.00  0.00    -0.121 C  
HETATM    6  C   UNL     1     -10.949  10.695  69.712  1.00  0.00    -0.280 C  
HETATM    7  C   UNL     1     -10.039  10.409  67.534  1.00  0.00    -0.231 C  
HETATM    8  C   UNL     1      -9.643  10.188  70.356  1.00  0.00     0.187 C  
HETATM    9  H   UNL     1      -7.033  11.517  68.045  1.00  0.00     0.000 HD 
HETATM   10  C   UNL     1     -10.826  11.415  68.360  1.00  0.00    -0.207 C  
HETATM   11  O   UNL     1     -11.935  11.765  67.502  1.00  0.00    -0.607 OA 
HETATM   12  C   UNL     1     -11.334  11.787  66.248  1.00  0.00    -0.287 A  
HETATM   13  C   UNL     1     -11.840  12.169  65.043  1.00  0.00    -0.298 A  
HETATM   14  O   UNL     1     -13.144  12.517  64.907  1.00  0.00    -0.833 OA 
HETATM   15  C   UNL     1     -11.001  12.083  63.919  1.00  0.00    -0.465 A  
HETATM   16  C   UNL     1      -9.674  11.563  64.004  1.00  0.00    -0.248 A  
HETATM   17  H   UNL     1     -13.497  12.784  64.066  1.00  0.00     0.000 HD 
HETATM   18  C   UNL     1      -9.214  11.030  65.203  1.00  0.00    -0.227 A  
HETATM   19  C   UNL     1      -7.869  10.340  65.492  1.00  0.00    -0.152 C  
HETATM   20  C   UNL     1     -10.113  11.141  66.256  1.00  0.00    -0.277 A  
HETATM   21  C   UNL     1      -7.937   9.288  66.879  1.00  0.00    -0.105 C  
HETATM   22  C   UNL     1      -8.582  10.284  67.945  1.00  0.00    -0.118 C  
HETATM   23  O   UNL     1      -7.944  11.596  67.788  1.00  0.00    -0.119 OA 
HETATM   24  C   UNL     1      -8.382  10.112  69.467  1.00  0.00    -0.178 C  
ENDROOT
BRANCH   2  25
HETATM   25  C   UNL     1      -9.015   7.203  68.518  1.00  0.00    -0.127 C  
BRANCH  25  26
HETATM   26  C   UNL     1     -10.031   6.079  68.648  1.00  0.00    -0.183 C  
HETATM   27  C   UNL     1     -10.040   5.209  69.883  1.00  0.00    -0.342 C  
HETATM   28  C   UNL     1     -11.203   6.112  69.619  1.00  0.00    -0.488 C  
ENDBRANCH  25  26
ENDBRANCH   2  25
TORSDOF 2
ENDMDL
MODEL       21
REMARK 921   NORMALIZED FREE ENERGY PREDICTED BY IDOCK:   -5.57 KCAL/MOL
REMARK 922        TOTAL FREE ENERGY PREDICTED BY IDOCK:   -6.74 KCAL/MOL
REMARK 923 INTER-LIGAND FREE ENERGY PREDICTED BY IDOCK:   -6.05 KCAL/MOL
REMARK 924 INTRA-LIGAND FREE ENERGY PREDICTED BY IDOCK:   -0.68 KCAL/MOL
REMARK 927      BINDING AFFINITY PREDICTED BY RF-SCORE:    0.00 PKD
ROOT
HETATM    1  C   UNL     1      -6.102   9.142  68.412  1.00  0.00    -0.045 C  
HETATM    2  N   UNL     1      -7.405   9.824  67.937  1.00  0.00    -0.085 N  
HETATM    3  O   UNL     1     -11.093  13.001  66.011  1.00  0.00    -0.274 OA 
HETATM    4  C   UNL     1      -7.925  10.842  68.985  1.00  0.00    -0.137 C  
HETATM    5  C   UNL     1      -9.233  11.409  68.453  1.00  0.00    -0.183 C  
HETATM    6  C   UNL     1     -10.995  11.787  66.155  1.00  0.00    -0.307 C  
HETATM    7  C   UNL     1     -10.284  10.354  67.915  1.00  0.00    -0.211 C  
HETATM    8  C   UNL     1     -10.218  10.950  65.120  1.00  0.00    -0.360 C  
HETATM    9  H   UNL     1     -10.593   7.481  66.441  1.00  0.00     0.000 HD 
HETATM   10  C   UNL     1     -11.533  11.046  67.390  1.00  0.00    -0.135 C  
HETATM   11  O   UNL     1     -12.088  11.682  68.563  1.00  0.00    -0.491 OA 
HETATM   12  C   UNL     1     -11.836  10.735  69.550  1.00  0.00    -0.308 A  
HETATM   13  C   UNL     1     -12.231  10.706  70.853  1.00  0.00    -0.395 A  
HETATM   14  O   UNL     1     -12.899  11.747  71.408  1.00  0.00    -0.404 OA 
HETATM   15  C   UNL     1     -11.824   9.615  71.640  1.00  0.00    -0.457 A  
HETATM   16  C   UNL     1     -10.980   8.585  71.125  1.00  0.00    -0.306 A  
HETATM   17  H   UNL     1     -13.175  11.726  72.318  1.00  0.00     0.000 HD 
HETATM   18  C   UNL     1     -10.453   8.696  69.844  1.00  0.00    -0.221 A  
HETATM   19  C   UNL     1      -9.458   7.762  69.131  1.00  0.00    -0.151 C  
HETATM   20  C   UNL     1     -10.892   9.813  69.144  1.00  0.00    -0.231 A  
HETATM   21  C   UNL     1      -8.590   8.557  67.847  1.00  0.00    -0.134 C  
HETATM   22  C   UNL     1      -9.813   9.199  67.049  1.00  0.00    -0.207 C  
HETATM   23  O   UNL     1     -10.889   8.204  66.983  1.00  0.00    -0.265 OA 
HETATM   24  C   UNL     1      -9.731   9.547  65.546  1.00  0.00    -0.344 C  
ENDROOT
BRANCH   2  25
HETATM   25  C   UNL     1      -7.022  10.638  66.660  1.00  0.00    -0.119 C  
BRANCH  25  26
HETATM   26  C   UNL     1      -5.944  10.046  65.767  1.00  0.00    -0.077 C  
HETATM   27  C   UNL     1      -6.297   8.968  64.769  1.00  0.00    -0.066 C  
HETATM   28  C   UNL     1      -5.852  10.306  64.270  1.00  0.00    -0.142 C  
ENDBRANCH  25  26
ENDBRANCH   2  25
TORSDOF 2
ENDMDL
MODEL       22
REMARK 921   NORMALIZED FREE ENERGY PREDICTED BY IDOCK:   -5.51 KCAL/MOL
REMARK 922        TOTAL FREE ENERGY PREDICTED BY IDOCK:   -6.68 KCAL/MOL
REMARK 923 INTER-LIGAND FREE ENERGY PREDICTED BY IDOCK:   -6.79 KCAL/MOL
REMARK 924 INTRA-LIGAND FREE ENERGY PREDICTED BY IDOCK:    0.11 KCAL/MOL
REMARK 927      BINDING AFFINITY PREDICTED BY RF-SCORE:    0.00 PKD
ROOT
HETATM    1  C   UNL     1      -8.712  16.223  66.383  1.00  0.00    -0.319 C  
HETATM    2  N   UNL     1      -9.246  14.902  66.983  1.00  0.00    -0.221 N  
HETATM    3  O   UNL     1     -10.324  10.686  69.892  1.00  0.00    -0.181 OA 
HETATM    4  C   UNL     1      -8.272  13.726  66.715  1.00  0.00     0.210 C  
HETATM    5  C   UNL     1      -8.913  12.470  67.287  1.00  0.00    -0.192 C  
HETATM    6  C   UNL     1     -10.942  11.330  69.051  1.00  0.00    -0.236 C  
HETATM    7  C   UNL     1     -10.430  12.226  66.909  1.00  0.00    -0.240 C  
HETATM    8  C   UNL     1     -11.663  12.631  69.456  1.00  0.00    -0.374 C  
HETATM    9  H   UNL     1     -13.239  13.711  66.251  1.00  0.00     0.000 HD 
HETATM   10  C   UNL     1     -10.960  10.957  67.560  1.00  0.00    -0.293 C  
HETATM   11  O   UNL     1     -10.167   9.910  66.957  1.00  0.00    -0.208 OA 
HETATM   12  C   UNL     1     -10.046  10.358  65.647  1.00  0.00    -0.269 A  
HETATM   13  C   UNL     1      -9.507   9.742  64.558  1.00  0.00    -0.202 A  
HETATM   14  O   UNL     1      -8.885   8.542  64.667  1.00  0.00    -0.405 OA 
HETATM   15  C   UNL     1      -9.512  10.438  63.337  1.00  0.00    -0.356 A  
HETATM   16  C   UNL     1     -10.013  11.771  63.229  1.00  0.00    -0.435 A  
HETATM   17  H   UNL     1      -8.509   8.112  63.908  1.00  0.00     0.000 HD 
HETATM   18  C   UNL     1     -10.419  12.453  64.370  1.00  0.00    -0.371 A  
HETATM   19  C   UNL     1     -10.898  13.911  64.496  1.00  0.00    -0.381 C  
HETATM   20  C   UNL     1     -10.365  11.697  65.534  1.00  0.00    -0.309 A  
HETATM   21  C   UNL     1     -10.703  14.546  66.106  1.00  0.00    -0.310 C  
HETATM   22  C   UNL     1     -11.409  13.387  66.943  1.00  0.00    -0.323 C  
HETATM   23  O   UNL     1     -12.627  12.985  66.230  1.00  0.00    -0.383 OA 
HETATM   24  C   UNL     1     -12.030  13.630  68.336  1.00  0.00    -0.391 C  
ENDROOT
BRANCH   2  25
HETATM   25  C   UNL     1      -9.289  15.118  68.529  1.00  0.00    -0.192 C  
BRANCH  25  26
HETATM   26  C   UNL     1      -8.110  15.848  69.152  1.00  0.00    -0.239 C  
HETATM   27  C   UNL     1      -7.105  15.087  69.984  1.00  0.00    -0.055 C  
HETATM   28  C   UNL     1      -6.672  15.680  68.681  1.00  0.00    -0.115 C  
ENDBRANCH  25  26
ENDBRANCH   2  25
TORSDOF 2
ENDMDL
MODEL       23
REMARK 921   NORMALIZED FREE ENERGY PREDICTED BY IDOCK:   -5.51 KCAL/MOL
REMARK 922        TOTAL FREE ENERGY PREDICTED BY IDOCK:   -6.67 KCAL/MOL
REMARK 923 INTER-LIGAND FREE ENERGY PREDICTED BY IDOCK:   -6.10 KCAL/MOL
REMARK 924 INTRA-LIGAND FREE ENERGY PREDICTED BY IDOCK:   -0.57 KCAL/MOL
REMARK 927      BINDING AFFINITY PREDICTED BY RF-SCORE:    0.00 PKD
ROOT
HETATM    1  C   UNL     1     -11.141  16.144  67.381  1.00  0.00    -0.134 C  
HETATM    2  N   UNL     1     -10.609  14.725  67.687  1.00  0.00    -0.259 N  
HETATM    3  O   UNL     1      -8.089  10.490  69.451  1.00  0.00    -0.155 OA 
HETATM    4  C   UNL     1      -9.319  14.419  66.884  1.00  0.00    -0.256 C  
HETATM    5  C   UNL     1      -8.914  12.989  67.207  1.00  0.00    -0.212 C  
HETATM    6  C   UNL     1      -9.207  10.694  68.990  1.00  0.00    -0.167 C  
HETATM    7  C   UNL     1     -10.063  11.903  67.131  1.00  0.00    -0.222 C  
HETATM    8  C   UNL     1     -10.325  11.240  69.899  1.00  0.00     0.512 C  
HETATM    9  H   UNL     1     -13.239  11.414  67.575  1.00  0.00     0.000 HD 
HETATM   10  C   UNL     1      -9.539  10.524  67.499  1.00  0.00    -0.160 C  
HETATM   11  O   UNL     1      -8.575  10.239  66.462  1.00  0.00    -0.129 OA 
HETATM   12  C   UNL     1      -9.190  10.783  65.339  1.00  0.00    -0.205 A  
HETATM   13  C   UNL     1      -8.825  10.725  64.029  1.00  0.00    -0.112 A  
HETATM   14  O   UNL     1      -7.655  10.153  63.649  1.00  0.00    -0.149 OA 
HETATM   15  C   UNL     1      -9.639  11.379  63.088  1.00  0.00    -0.398 A  
HETATM   16  C   UNL     1     -10.789  12.131  63.478  1.00  0.00    -0.518 A  
HETATM   17  H   UNL     1      -7.400  10.112  62.735  1.00  0.00     0.000 HD 
HETATM   18  C   UNL     1     -11.071  12.317  64.826  1.00  0.00    -0.356 A  
HETATM   19  C   UNL     1     -12.191  13.160  65.464  1.00  0.00    -0.513 C  
HETATM   20  C   UNL     1     -10.206  11.651  65.685  1.00  0.00    -0.284 A  
HETATM   21  C   UNL     1     -11.827  13.634  67.100  1.00  0.00    -0.435 C  
HETATM   22  C   UNL     1     -11.431  12.215  67.713  1.00  0.00    -0.332 C  
HETATM   23  O   UNL     1     -12.384  11.218  67.211  1.00  0.00     0.235 OA 
HETATM   24  C   UNL     1     -11.546  11.902  69.221  1.00  0.00    -0.376 C  
ENDROOT
BRANCH   2  25
HETATM   25  C   UNL     1     -10.218  14.731  69.199  1.00  0.00    -0.220 C  
BRANCH  25  26
HETATM   26  C   UNL     1     -10.975  15.693  70.100  1.00  0.00    -0.350 C  
HETATM   27  C   UNL     1     -12.424  15.430  70.435  1.00  0.00    -0.447 C  
HETATM   28  C   UNL     1     -11.399  15.357  71.523  1.00  0.00    -0.461 C  
ENDBRANCH  25  26
ENDBRANCH   2  25
TORSDOF 2
ENDMDL
MODEL       24
REMARK 921   NORMALIZED FREE ENERGY PREDICTED BY IDOCK:   -5.44 KCAL/MOL
REMARK 922        TOTAL FREE ENERGY PREDICTED BY IDOCK:   -6.59 KCAL/MOL
REMARK 923 INTER-LIGAND FREE ENERGY PREDICTED BY IDOCK:   -5.97 KCAL/MOL
REMARK 924 INTRA-LIGAND FREE ENERGY PREDICTED BY IDOCK:   -0.63 KCAL/MOL
REMARK 927      BINDING AFFINITY PREDICTED BY RF-SCORE:    0.00 PKD
ROOT
HETATM    1  C   UNL     1      -8.605   4.780  68.828  1.00  0.00    -0.088 C  
HETATM    2  N   UNL     1      -9.443   5.808  69.622  1.00  0.00    -0.137 N  
HETATM    3  O   UNL     1     -13.036   8.396  72.415  1.00  0.00    -0.322 OA 
HETATM    4  C   UNL     1     -10.545   6.444  68.736  1.00  0.00    -0.251 C  
HETATM    5  C   UNL     1     -11.268   7.477  69.588  1.00  0.00    -0.023 C  
HETATM    6  C   UNL     1     -11.823   8.503  72.266  1.00  0.00    -0.383 C  
HETATM    7  C   UNL     1     -10.351   8.480  70.398  1.00  0.00    -0.222 C  
HETATM    8  C   UNL     1     -10.866   7.601  73.069  1.00  0.00    -0.457 C  
HETATM    9  H   UNL     1      -7.510   8.774  71.937  1.00  0.00     0.000 HD 
HETATM   10  C   UNL     1     -11.190   9.442  71.227  1.00  0.00    -0.367 C  
HETATM   11  O   UNL     1     -11.922  10.196  70.234  1.00  0.00    -0.265 OA 
HETATM   12  C   UNL     1     -10.973  10.344  69.228  1.00  0.00    -0.242 A  
HETATM   13  C   UNL     1     -11.027  11.068  68.076  1.00  0.00    -0.258 A  
HETATM   14  O   UNL     1     -12.161  11.713  67.704  1.00  0.00    -0.615 OA 
HETATM   15  C   UNL     1      -9.911  11.034  67.223  1.00  0.00    -0.210 A  
HETATM   16  C   UNL     1      -8.766  10.230  67.509  1.00  0.00    -0.125 A  
HETATM   17  H   UNL     1     -12.199  12.219  66.900  1.00  0.00     0.000 HD 
HETATM   18  C   UNL     1      -8.776   9.374  68.604  1.00  0.00    -0.131 A  
HETATM   19  C   UNL     1      -7.701   8.361  69.039  1.00  0.00    -0.097 C  
HETATM   20  C   UNL     1      -9.924   9.459  69.381  1.00  0.00    -0.189 A  
HETATM   21  C   UNL     1      -8.343   7.087  70.038  1.00  0.00    -0.138 C  
HETATM   22  C   UNL     1      -9.123   7.958  71.123  1.00  0.00    -0.143 C  
HETATM   23  O   UNL     1      -8.278   9.102  71.484  1.00  0.00    -0.334 OA 
HETATM   24  C   UNL     1      -9.421   7.436  72.546  1.00  0.00    -0.192 C  
ENDROOT
BRANCH   2  25
HETATM   25  C   UNL     1     -10.168   4.996  70.742  1.00  0.00    -0.229 C  
BRANCH  25  26
HETATM   26  C   UNL     1      -9.398   3.839  71.358  1.00  0.00    -0.208 C  
HETATM   27  C   UNL     1      -9.282   3.724  72.860  1.00  0.00    -0.126 C  
HETATM   28  C   UNL     1     -10.059   2.691  72.107  1.00  0.00    -0.213 C  
ENDBRANCH  25  26
ENDBRANCH   2  25
TORSDOF 2
ENDMDL
MODEL       25
REMARK 921   NORMALIZED FREE ENERGY PREDICTED BY IDOCK:   -5.40 KCAL/MOL
REMARK 922        TOTAL FREE ENERGY PREDICTED BY IDOCK:   -6.55 KCAL/MOL
REMARK 923 INTER-LIGAND FREE ENERGY PREDICTED BY IDOCK:   -6.12 KCAL/MOL
REMARK 924 INTRA-LIGAND FREE ENERGY PREDICTED BY IDOCK:   -0.43 KCAL/MOL
REMARK 927      BINDING AFFINITY PREDICTED BY RF-SCORE:    0.00 PKD
ROOT
HETATM    1  C   UNL     1     -10.620  16.193  66.173  1.00  0.00    -0.283 C  
HETATM    2  N   UNL     1      -9.476  15.970  67.188  1.00  0.00    -0.214 N  
HETATM    3  O   UNL     1      -6.408  14.588  71.199  1.00  0.00    -0.053 OA 
HETATM    4  C   UNL     1      -9.591  16.942  68.392  1.00  0.00    -0.255 C  
HETATM    5  C   UNL     1      -8.393  16.685  69.295  1.00  0.00    -0.019 C  
HETATM    6  C   UNL     1      -6.206  14.894  70.028  1.00  0.00    -0.156 C  
HETATM    7  C   UNL     1      -6.982  16.613  68.581  1.00  0.00    -0.172 C  
HETATM    8  C   UNL     1      -6.380  13.840  68.917  1.00  0.00    -0.096 C  
HETATM    9  H   UNL     1      -5.471  15.749  65.844  1.00  0.00     0.000 HD 
HETATM   10  C   UNL     1      -5.875  16.327  69.584  1.00  0.00    -0.171 C  
HETATM   11  O   UNL     1      -5.890  17.487  70.446  1.00  0.00    -0.210 OA 
HETATM   12  C   UNL     1      -6.151  18.513  69.544  1.00  0.00    -0.267 A  
HETATM   13  C   UNL     1      -6.168  19.861  69.735  1.00  0.00    -0.352 A  
HETATM   14  O   UNL     1      -6.007  20.398  70.970  1.00  0.00    -0.514 OA 
HETATM   15  C   UNL     1      -6.472  20.679  68.634  1.00  0.00    -0.254 A  
HETATM   16  C   UNL     1      -6.808  20.134  67.358  1.00  0.00    -0.271 A  
HETATM   17  H   UNL     1      -6.019  21.339  71.104  1.00  0.00     0.000 HD 
HETATM   18  C   UNL     1      -6.941  18.759  67.205  1.00  0.00    -0.206 A  
HETATM   19  C   UNL     1      -7.383  17.971  65.958  1.00  0.00    -0.298 C  
HETATM   20  C   UNL     1      -6.640  18.028  68.348  1.00  0.00    -0.210 A  
HETATM   21  C   UNL     1      -8.016  16.396  66.347  1.00  0.00    -0.329 C  
HETATM   22  C   UNL     1      -6.839  15.851  67.275  1.00  0.00    -0.197 C  
HETATM   23  O   UNL     1      -5.561  16.226  66.660  1.00  0.00    -0.292 OA 
HETATM   24  C   UNL     1      -6.565  14.343  67.468  1.00  0.00    -0.101 C  
ENDROOT
BRANCH   2  25
HETATM   25  C   UNL     1      -9.673  14.525  67.746  1.00  0.00    -0.216 C  
BRANCH  25  26
HETATM   26  C   UNL     1     -11.031  13.882  67.520  1.00  0.00    -0.288 C  
HETATM   27  C   UNL     1     -11.120  12.443  67.068  1.00  0.00    -0.327 C  
HETATM   28  C   UNL     1     -11.618  12.812  68.429  1.00  0.00    -0.365 C  
ENDBRANCH  25  26
ENDBRANCH   2  25
TORSDOF 2
ENDMDL
MODEL       26
REMARK 921   NORMALIZED FREE ENERGY PREDICTED BY IDOCK:   -5.39 KCAL/MOL
REMARK 922        TOTAL FREE ENERGY PREDICTED BY IDOCK:   -6.54 KCAL/MOL
REMARK 923 INTER-LIGAND FREE ENERGY PREDICTED BY IDOCK:   -5.96 KCAL/MOL
REMARK 924 INTRA-LIGAND FREE ENERGY PREDICTED BY IDOCK:   -0.58 KCAL/MOL
REMARK 927      BINDING AFFINITY PREDICTED BY RF-SCORE:    0.00 PKD
ROOT
HETATM    1  C   UNL     1     -12.726   9.142  71.993  1.00  0.00    -0.398 C  
HETATM    2  N   UNL     1     -11.619   8.296  71.322  1.00  0.00    -0.275 N  
HETATM    3  O   UNL     1      -8.396   5.771  68.062  1.00  0.00    -0.104 OA 
HETATM    4  C   UNL     1     -12.138   6.885  70.942  1.00  0.00    -0.373 C  
HETATM    5  C   UNL     1     -10.965   6.118  70.351  1.00  0.00    -0.404 C  
HETATM    6  C   UNL     1      -8.286   6.230  69.193  1.00  0.00    -0.114 C  
HETATM    7  C   UNL     1      -9.610   6.173  71.167  1.00  0.00    -0.193 C  
HETATM    8  C   UNL     1      -8.005   7.733  69.390  1.00  0.00    -0.124 C  
HETATM    9  H   UNL     1      -7.791   8.035  73.102  1.00  0.00     0.000 HD 
HETATM   10  C   UNL     1      -8.513   5.391  70.461  1.00  0.00    -0.122 C  
HETATM   11  O   UNL     1      -9.000   4.030  70.479  1.00  0.00    -0.085 OA 
HETATM   12  C   UNL     1      -9.602   3.957  71.731  1.00  0.00    -0.158 A  
HETATM   13  C   UNL     1     -10.139   2.887  72.380  1.00  0.00    -0.161 A  
HETATM   14  O   UNL     1     -10.239   1.676  71.777  1.00  0.00    -0.153 OA 
HETATM   15  C   UNL     1     -10.695   3.100  73.653  1.00  0.00    -0.297 A  
HETATM   16  C   UNL     1     -10.753   4.398  74.245  1.00  0.00    -0.279 A  
HETATM   17  H   UNL     1     -10.613   0.929  72.230  1.00  0.00     0.000 HD 
HETATM   18  C   UNL     1     -10.345   5.510  73.517  1.00  0.00    -0.252 A  
HETATM   19  C   UNL     1     -10.409   6.995  73.918  1.00  0.00    -0.386 C  
HETATM   20  C   UNL     1      -9.827   5.210  72.263  1.00  0.00    -0.216 A  
HETATM   21  C   UNL     1     -10.405   8.065  72.543  1.00  0.00    -0.374 C  
HETATM   22  C   UNL     1      -9.141   7.492  71.757  1.00  0.00    -0.125 C  
HETATM   23  O   UNL     1      -8.084   7.210  72.734  1.00  0.00    -0.104 OA 
HETATM   24  C   UNL     1      -8.319   8.351  70.771  1.00  0.00    -0.139 C  
ENDROOT
BRANCH   2  25
HETATM   25  C   UNL     1     -11.268   9.029  69.989  1.00  0.00    -0.128 C  
BRANCH  25  26
HETATM   26  C   UNL     1     -11.227  10.548  70.032  1.00  0.00    -0.386 C  
HETATM   27  C   UNL     1     -10.433  11.311  68.997  1.00  0.00    -0.221 C  
HETATM   28  C   UNL     1     -11.924  11.438  69.013  1.00  0.00    -0.387 C  
ENDBRANCH  25  26
ENDBRANCH   2  25
TORSDOF 2
ENDMDL
MODEL       27
REMARK 921   NORMALIZED FREE ENERGY PREDICTED BY IDOCK:   -5.39 KCAL/MOL
REMARK 922        TOTAL FREE ENERGY PREDICTED BY IDOCK:   -6.53 KCAL/MOL
REMARK 923 INTER-LIGAND FREE ENERGY PREDICTED BY IDOCK:   -5.94 KCAL/MOL
REMARK 924 INTRA-LIGAND FREE ENERGY PREDICTED BY IDOCK:   -0.60 KCAL/MOL
REMARK 927      BINDING AFFINITY PREDICTED BY RF-SCORE:    0.00 PKD
ROOT
HETATM    1  C   UNL     1      -9.576   5.117  69.202  1.00  0.00    -0.146 C  
HETATM    2  N   UNL     1      -9.906   6.570  68.790  1.00  0.00    -0.138 N  
HETATM    3  O   UNL     1     -12.099  11.208  67.755  1.00  0.00    -0.606 OA 
HETATM    4  C   UNL     1     -10.552   6.625  67.381  1.00  0.00    -0.301 C  
HETATM    5  C   UNL     1     -10.779   8.091  67.046  1.00  0.00    -0.263 C  
HETATM    6  C   UNL     1     -10.962  10.838  68.025  1.00  0.00    -0.283 C  
HETATM    7  C   UNL     1      -9.555   9.063  67.297  1.00  0.00    -0.206 C  
HETATM    8  C   UNL     1     -10.560  10.594  69.492  1.00  0.00    -0.265 C  
HETATM    9  H   UNL     1      -6.977   9.596  69.193  1.00  0.00     0.000 HD 
HETATM   10  C   UNL     1      -9.917  10.500  66.949  1.00  0.00    -0.200 C  
HETATM   11  O   UNL     1     -10.175  10.451  65.528  1.00  0.00    -0.278 OA 
HETATM   12  C   UNL     1      -9.207   9.553  65.091  1.00  0.00    -0.244 A  
HETATM   13  C   UNL     1      -8.865   9.185  63.825  1.00  0.00    -0.063 A  
HETATM   14  O   UNL     1      -9.564   9.628  62.751  1.00  0.00    -0.558 OA 
HETATM   15  C   UNL     1      -7.837   8.239  63.669  1.00  0.00    -0.152 A  
HETATM   16  C   UNL     1      -7.194   7.629  64.789  1.00  0.00    -0.067 A  
HETATM   17  H   UNL     1      -9.325   9.372  61.868  1.00  0.00     0.000 HD 
HETATM   18  C   UNL     1      -7.650   7.891  66.076  1.00  0.00    -0.086 A  
HETATM   19  C   UNL     1      -7.171   7.278  67.405  1.00  0.00    -0.090 C  
HETATM   20  C   UNL     1      -8.678   8.822  66.137  1.00  0.00    -0.184 A  
HETATM   21  C   UNL     1      -8.373   7.378  68.662  1.00  0.00    -0.129 C  
HETATM   22  C   UNL     1      -8.736   8.928  68.569  1.00  0.00    -0.134 C  
HETATM   23  O   UNL     1      -7.489   9.681  68.397  1.00  0.00    -0.079 OA 
HETATM   24  C   UNL     1      -9.317   9.717  69.764  1.00  0.00    -0.238 C  
ENDROOT
BRANCH   2  25
HETATM   25  C   UNL     1     -10.980   7.071  69.807  1.00  0.00    -0.250 C  
BRANCH  25  26
HETATM   26  C   UNL     1     -10.809   6.638  71.253  1.00  0.00    -0.279 C  
HETATM   27  C   UNL     1     -11.287   7.534  72.371  1.00  0.00    -0.360 C  
HETATM   28  C   UNL     1     -11.966   6.220  72.149  1.00  0.00    -0.338 C  
ENDBRANCH  25  26
ENDBRANCH   2  25
TORSDOF 2
ENDMDL
MODEL       28
REMARK 921   NORMALIZED FREE ENERGY PREDICTED BY IDOCK:   -5.26 KCAL/MOL
REMARK 922        TOTAL FREE ENERGY PREDICTED BY IDOCK:   -6.40 KCAL/MOL
REMARK 923 INTER-LIGAND FREE ENERGY PREDICTED BY IDOCK:   -5.87 KCAL/MOL
REMARK 924 INTRA-LIGAND FREE ENERGY PREDICTED BY IDOCK:   -0.53 KCAL/MOL
REMARK 927      BINDING AFFINITY PREDICTED BY RF-SCORE:    0.00 PKD
ROOT
HETATM    1  C   UNL     1     -12.454  13.863  65.987  1.00  0.00    -0.461 C  
HETATM    2  N   UNL     1     -11.281  14.351  66.868  1.00  0.00    -0.324 N  
HETATM    3  O   UNL     1      -7.659  15.144  70.562  1.00  0.00     0.412 OA 
HETATM    4  C   UNL     1     -11.776  15.289  67.999  1.00  0.00    -0.251 C  
HETATM    5  C   UNL     1     -10.548  15.760  68.764  1.00  0.00    -0.239 C  
HETATM    6  C   UNL     1      -7.716  15.357  69.356  1.00  0.00    -0.227 C  
HETATM    7  C   UNL     1      -9.339  16.289  67.889  1.00  0.00    -0.209 C  
HETATM    8  C   UNL     1      -7.424  14.219  68.358  1.00  0.00    -0.122 C  
HETATM    9  H   UNL     1      -7.795  15.923  65.060  1.00  0.00     0.000 HD 
HETATM   10  C   UNL     1      -8.168  16.703  68.767  1.00  0.00    -0.249 C  
HETATM   11  O   UNL     1      -8.693  17.810  69.534  1.00  0.00     0.364 OA 
HETATM   12  C   UNL     1      -9.489  18.459  68.595  1.00  0.00    -0.335 A  
HETATM   13  C   UNL     1     -10.155  19.643  68.684  1.00  0.00    -0.447 A  
HETATM   14  O   UNL     1     -10.194  20.342  69.846  1.00  0.00    -0.434 OA 
HETATM   15  C   UNL     1     -10.900  20.065  67.570  1.00  0.00    -0.236 A  
HETATM   16  C   UNL     1     -11.012  19.269  66.390  1.00  0.00    -0.231 A  
HETATM   17  H   UNL     1     -10.659  21.168  69.908  1.00  0.00     0.000 HD 
HETATM   18  C   UNL     1     -10.459  17.993  66.359  1.00  0.00    -0.345 A  
HETATM   19  C   UNL     1     -10.541  16.939  65.240  1.00  0.00    -0.137 C  
HETATM   20  C   UNL     1      -9.757  17.650  67.508  1.00  0.00    -0.280 A  
HETATM   21  C   UNL     1     -10.285  15.318  65.823  1.00  0.00    -0.372 C  
HETATM   22  C   UNL     1      -8.930  15.532  66.637  1.00  0.00    -0.287 C  
HETATM   23  O   UNL     1      -8.051  16.397  65.843  1.00  0.00    -0.201 OA 
HETATM   24  C   UNL     1      -7.935  14.382  66.909  1.00  0.00     0.099 C  
ENDROOT
BRANCH   2  25
HETATM   25  C   UNL     1     -10.699  13.074  67.554  1.00  0.00    -0.238 C  
BRANCH  25  26
HETATM   26  C   UNL     1     -11.689  12.169  68.269  1.00  0.00    -0.401 C  
HETATM   27  C   UNL     1     -11.191  10.983  69.060  1.00  0.00    -0.320 C  
HETATM   28  C   UNL     1     -11.844  12.119  69.782  1.00  0.00    -0.397 C  
ENDBRANCH  25  26
ENDBRANCH   2  25
TORSDOF 2
ENDMDL
MODEL       29
REMARK 921   NORMALIZED FREE ENERGY PREDICTED BY IDOCK:   -5.26 KCAL/MOL
REMARK 922        TOTAL FREE ENERGY PREDICTED BY IDOCK:   -6.39 KCAL/MOL
REMARK 923 INTER-LIGAND FREE ENERGY PREDICTED BY IDOCK:   -5.85 KCAL/MOL
REMARK 924 INTRA-LIGAND FREE ENERGY PREDICTED BY IDOCK:   -0.54 KCAL/MOL
REMARK 927      BINDING AFFINITY PREDICTED BY RF-SCORE:    0.00 PKD
ROOT
HETATM    1  C   UNL     1      -8.383   8.267  67.229  1.00  0.00    -0.124 C  
HETATM    2  N   UNL     1      -8.815   7.343  68.391  1.00  0.00    -0.123 N  
HETATM    3  O   UNL     1     -10.250   3.384  71.500  1.00  0.00    -0.071 OA 
HETATM    4  C   UNL     1     -10.346   7.097  68.378  1.00  0.00    -0.194 C  
HETATM    5  C   UNL     1     -10.675   6.233  69.587  1.00  0.00    -0.367 C  
HETATM    6  C   UNL     1      -9.683   4.455  71.681  1.00  0.00    -0.171 C  
HETATM    7  C   UNL     1     -10.048   6.694  70.965  1.00  0.00    -0.207 C  
HETATM    8  C   UNL     1      -8.172   4.582  71.404  1.00  0.00    -0.100 C  
HETATM    9  H   UNL     1      -7.477   8.130  72.326  1.00  0.00     0.000 HD 
HETATM   10  C   UNL     1     -10.428   5.737  72.086  1.00  0.00    -0.212 C  
HETATM   11  O   UNL     1     -11.864   5.870  72.173  1.00  0.00    -0.285 OA 
HETATM   12  C   UNL     1     -12.042   7.230  71.947  1.00  0.00    -0.314 A  
HETATM   13  C   UNL     1     -13.172   7.988  72.021  1.00  0.00    -0.253 A  
HETATM   14  O   UNL     1     -14.382   7.424  72.256  1.00  0.00    -0.596 OA 
HETATM   15  C   UNL     1     -13.065   9.359  71.732  1.00  0.00    -0.488 A  
HETATM   16  C   UNL     1     -11.833   9.951  71.319  1.00  0.00    -0.479 A  
HETATM   17  H   UNL     1     -15.170   7.952  72.309  1.00  0.00     0.000 HD 
HETATM   18  C   UNL     1     -10.720   9.149  71.094  1.00  0.00    -0.380 A  
HETATM   19  C   UNL     1      -9.335   9.559  70.562  1.00  0.00    -0.296 C  
HETATM   20  C   UNL     1     -10.919   7.806  71.388  1.00  0.00    -0.264 A  
HETATM   21  C   UNL     1      -8.469   8.229  69.845  1.00  0.00    -0.127 C  
HETATM   22  C   UNL     1      -8.602   7.155  71.017  1.00  0.00    -0.133 C  
HETATM   23  O   UNL     1      -8.382   7.842  72.294  1.00  0.00    -0.105 OA 
HETATM   24  C   UNL     1      -7.592   6.000  71.202  1.00  0.00    -0.100 C  
ENDROOT
BRANCH   2  25
HETATM   25  C   UNL     1      -8.128   5.966  68.123  1.00  0.00    -0.109 C  
BRANCH  25  26
HETATM   26  C   UNL     1      -8.430   5.297  66.792  1.00  0.00    -0.107 C  
HETATM   27  C   UNL     1      -7.616   4.106  66.344  1.00  0.00    -0.089 C  
HETATM   28  C   UNL     1      -9.065   3.919  66.668  1.00  0.00    -0.160 C  
ENDBRANCH  25  26
ENDBRANCH   2  25
TORSDOF 2
ENDMDL
MODEL       30
REMARK 921   NORMALIZED FREE ENERGY PREDICTED BY IDOCK:   -5.26 KCAL/MOL
REMARK 922        TOTAL FREE ENERGY PREDICTED BY IDOCK:   -6.39 KCAL/MOL
REMARK 923 INTER-LIGAND FREE ENERGY PREDICTED BY IDOCK:   -5.95 KCAL/MOL
REMARK 924 INTRA-LIGAND FREE ENERGY PREDICTED BY IDOCK:   -0.44 KCAL/MOL
REMARK 927      BINDING AFFINITY PREDICTED BY RF-SCORE:    0.00 PKD
ROOT
HETATM    1  C   UNL     1     -12.515  15.323  69.644  1.00  0.00    -0.139 C  
HETATM    2  N   UNL     1     -11.084  15.058  69.124  1.00  0.00    -0.256 N  
HETATM    3  O   UNL     1      -6.265  13.273  68.129  1.00  0.00    -0.085 OA 
HETATM    4  C   UNL     1     -10.016  15.655  70.076  1.00  0.00    -0.155 C  
HETATM    5  C   UNL     1      -8.655  15.395  69.448  1.00  0.00    -0.249 C  
HETATM    6  C   UNL     1      -7.100  13.896  67.482  1.00  0.00    -0.158 C  
HETATM    7  C   UNL     1      -8.512  15.760  67.915  1.00  0.00    -0.161 C  
HETATM    8  C   UNL     1      -8.254  13.145  66.790  1.00  0.00     0.128 C  
HETATM    9  H   UNL     1     -10.109  15.902  65.095  1.00  0.00     0.000 HD 
HETATM   10  C   UNL     1      -7.118  15.431  67.402  1.00  0.00    -0.196 C  
HETATM   11  O   UNL     1      -6.260  16.312  68.160  1.00  0.00    -0.114 OA 
HETATM   12  C   UNL     1      -7.027  17.470  68.232  1.00  0.00    -0.210 A  
HETATM   13  C   UNL     1      -6.709  18.700  68.721  1.00  0.00    -0.270 A  
HETATM   14  O   UNL     1      -5.522  18.925  69.338  1.00  0.00    -0.196 OA 
HETATM   15  C   UNL     1      -7.692  19.703  68.673  1.00  0.00    -0.363 A  
HETATM   16  C   UNL     1      -9.007  19.449  68.180  1.00  0.00    -0.375 A  
HETATM   17  H   UNL     1      -5.299  19.784  69.679  1.00  0.00     0.000 HD 
HETATM   18  C   UNL     1      -9.377  18.156  67.825  1.00  0.00    -0.268 A  
HETATM   19  C   UNL     1     -10.754  17.645  67.365  1.00  0.00    -0.262 C  
HETATM   20  C   UNL     1      -8.350  17.225  67.920  1.00  0.00    -0.220 A  
HETATM   21  C   UNL     1     -10.960  15.936  67.629  1.00  0.00    -0.298 C  
HETATM   22  C   UNL     1      -9.624  15.392  66.948  1.00  0.00    -0.226 C  
HETATM   23  O   UNL     1      -9.414  16.133  65.699  1.00  0.00    -0.427 OA 
HETATM   24  C   UNL     1      -9.504  13.958  66.386  1.00  0.00    -0.268 C  
ENDROOT
BRANCH   2  25
HETATM   25  C   UNL     1     -10.900  13.507  69.145  1.00  0.00    -0.134 C  
BRANCH  25  26
HETATM   26  C   UNL     1     -12.130  12.676  69.475  1.00  0.00    -0.253 C  
HETATM   27  C   UNL     1     -12.051  11.167  69.445  1.00  0.00    -0.396 C  
HETATM   28  C   UNL     1     -12.277  11.861  70.752  1.00  0.00    -0.401 C  
ENDBRANCH  25  26
ENDBRANCH   2  25
TORSDOF 2
ENDMDL
MODEL       31
REMARK 921   NORMALIZED FREE ENERGY PREDICTED BY IDOCK:   -5.21 KCAL/MOL
REMARK 922        TOTAL FREE ENERGY PREDICTED BY IDOCK:   -6.34 KCAL/MOL
REMARK 923 INTER-LIGAND FREE ENERGY PREDICTED BY IDOCK:   -5.83 KCAL/MOL
REMARK 924 INTRA-LIGAND FREE ENERGY PREDICTED BY IDOCK:   -0.50 KCAL/MOL
REMARK 927      BINDING AFFINITY PREDICTED BY RF-SCORE:    0.00 PKD
ROOT
HETATM    1  C   UNL     1      -6.588  14.748  67.933  1.00  0.00    -0.161 C  
HETATM    2  N   UNL     1      -8.006  14.322  67.486  1.00  0.00    -0.176 N  
HETATM    3  O   UNL     1     -13.029  14.024  66.046  1.00  0.00    -0.381 OA 
HETATM    4  C   UNL     1      -8.969  14.205  68.696  1.00  0.00    -0.132 C  
HETATM    5  C   UNL     1     -10.309  13.724  68.161  1.00  0.00    -0.252 C  
HETATM    6  C   UNL     1     -12.034  13.341  65.834  1.00  0.00    -0.419 C  
HETATM    7  C   UNL     1     -10.265  12.486  67.175  1.00  0.00    -0.225 C  
HETATM    8  C   UNL     1     -11.039  13.751  64.731  1.00  0.00    -0.380 C  
HETATM    9  H   UNL     1      -8.496  11.025  64.881  1.00  0.00     0.000 HD 
HETATM   10  C   UNL     1     -11.661  12.121  66.692  1.00  0.00    -0.350 C  
HETATM   11  O   UNL     1     -12.343  11.716  67.900  1.00  0.00    -0.404 OA 
HETATM   12  C   UNL     1     -11.338  11.042  68.586  1.00  0.00    -0.281 A  
HETATM   13  C   UNL     1     -11.399  10.325  69.742  1.00  0.00    -0.273 A  
HETATM   14  O   UNL     1     -12.540  10.264  70.472  1.00  0.00    -0.395 OA 
HETATM   15  C   UNL     1     -10.212   9.745  70.221  1.00  0.00    -0.346 A  
HETATM   16  C   UNL     1      -8.959   9.931  69.561  1.00  0.00    -0.224 A  
HETATM   17  H   UNL     1     -12.583   9.764  71.279  1.00  0.00     0.000 HD 
HETATM   18  C   UNL     1      -8.872  10.789  68.469  1.00  0.00    -0.149 A  
HETATM   19  C   UNL     1      -7.621  11.205  67.675  1.00  0.00    -0.105 C  
HETATM   20  C   UNL     1     -10.088  11.332  68.075  1.00  0.00    -0.192 A  
HETATM   21  C   UNL     1      -7.828  12.719  66.839  1.00  0.00     0.073 C  
HETATM   22  C   UNL     1      -9.205  12.429  66.088  1.00  0.00    -0.101 C  
HETATM   23  O   UNL     1      -9.159  11.061  65.561  1.00  0.00    -0.202 OA 
HETATM   24  C   UNL     1      -9.612  13.160  64.790  1.00  0.00     0.296 C  
ENDROOT
BRANCH   2  25
HETATM   25  C   UNL     1      -8.539  15.481  66.587  1.00  0.00    -0.290 C  
BRANCH  25  26
HETATM   26  C   UNL     1      -8.640  16.856  67.229  1.00  0.00    -0.212 C  
HETATM   27  C   UNL     1      -8.420  18.096  66.395  1.00  0.00    -0.263 C  
HETATM   28  C   UNL     1      -9.779  17.829  66.960  1.00  0.00    -0.290 C  
ENDBRANCH  25  26
ENDBRANCH   2  25
TORSDOF 2
ENDMDL
MODEL       32
REMARK 921   NORMALIZED FREE ENERGY PREDICTED BY IDOCK:   -5.20 KCAL/MOL
REMARK 922        TOTAL FREE ENERGY PREDICTED BY IDOCK:   -6.33 KCAL/MOL
REMARK 923 INTER-LIGAND FREE ENERGY PREDICTED BY IDOCK:   -5.65 KCAL/MOL
REMARK 924 INTRA-LIGAND FREE ENERGY PREDICTED BY IDOCK:   -0.68 KCAL/MOL
REMARK 927      BINDING AFFINITY PREDICTED BY RF-SCORE:    0.00 PKD
ROOT
HETATM    1  C   UNL     1      -6.348   9.687  68.231  1.00  0.00    -0.056 C  
HETATM    2  N   UNL     1      -7.462  10.398  67.429  1.00  0.00    -0.093 N  
HETATM    3  O   UNL     1     -10.336  13.398  64.244  1.00  0.00    -0.420 OA 
HETATM    4  C   UNL     1      -7.839  11.760  68.068  1.00  0.00    -0.134 C  
HETATM    5  C   UNL     1      -8.976  12.346  67.245  1.00  0.00    -0.190 C  
HETATM    6  C   UNL     1     -10.485  12.288  64.744  1.00  0.00    -0.296 C  
HETATM    7  C   UNL     1     -10.176  11.367  66.915  1.00  0.00    -0.254 C  
HETATM    8  C   UNL     1      -9.822  11.057  64.095  1.00  0.00    -0.360 C  
HETATM    9  H   UNL     1     -10.945   8.274  66.312  1.00  0.00     0.000 HD 
HETATM   10  C   UNL     1     -11.232  12.062  66.068  1.00  0.00    -0.335 C  
HETATM   11  O   UNL     1     -11.724  13.110  66.933  1.00  0.00    -0.347 OA 
HETATM   12  C   UNL     1     -11.724  12.484  68.174  1.00  0.00    -0.348 A  
HETATM   13  C   UNL     1     -12.196  12.922  69.374  1.00  0.00    -0.091 A  
HETATM   14  O   UNL     1     -12.683  14.179  69.521  1.00  0.00    -0.458 OA 
HETATM   15  C   UNL     1     -12.059  12.073  70.486  1.00  0.00    -0.402 A  
HETATM   16  C   UNL     1     -11.400  10.809  70.395  1.00  0.00    -0.342 A  
HETATM   17  H   UNL     1     -13.014  14.484  70.358  1.00  0.00     0.000 HD 
HETATM   18  C   UNL     1     -10.783  10.433  69.208  1.00  0.00    -0.270 A  
HETATM   19  C   UNL     1      -9.946   9.173  68.919  1.00  0.00    -0.189 C  
HETATM   20  C   UNL     1     -10.953  11.338  68.167  1.00  0.00    -0.284 A  
HETATM   21  C   UNL     1      -8.862   9.380  67.572  1.00  0.00    -0.123 C  
HETATM   22  C   UNL     1      -9.885   9.940  66.483  1.00  0.00    -0.215 C  
HETATM   23  O   UNL     1     -11.128   9.166  66.582  1.00  0.00     0.209 OA 
HETATM   24  C   UNL     1      -9.644   9.792  64.965  1.00  0.00    -0.333 C  
ENDROOT
BRANCH   2  25
HETATM   25  C   UNL     1      -6.849  10.705  66.025  1.00  0.00    -0.129 C  
BRANCH  25  26
HETATM   26  C   UNL     1      -5.770   9.759  65.526  1.00  0.00    -0.058 C  
HETATM   27  C   UNL     1      -6.139   8.591  64.642  1.00  0.00    -0.065 C  
HETATM   28  C   UNL     1      -5.306   9.699  64.078  1.00  0.00    -0.065 C  
ENDBRANCH  25  26
ENDBRANCH   2  25
TORSDOF 2
ENDMDL
MODEL       33
REMARK 921   NORMALIZED FREE ENERGY PREDICTED BY IDOCK:   -5.19 KCAL/MOL
REMARK 922        TOTAL FREE ENERGY PREDICTED BY IDOCK:   -6.31 KCAL/MOL
REMARK 923 INTER-LIGAND FREE ENERGY PREDICTED BY IDOCK:   -5.92 KCAL/MOL
REMARK 924 INTRA-LIGAND FREE ENERGY PREDICTED BY IDOCK:   -0.39 KCAL/MOL
REMARK 927      BINDING AFFINITY PREDICTED BY RF-SCORE:    0.00 PKD
ROOT
HETATM    1  C   UNL     1     -12.493  15.732  70.841  1.00  0.00    -0.402 C  
HETATM    2  N   UNL     1     -11.710  14.933  69.774  1.00  0.00    -0.287 N  
HETATM    3  O   UNL     1      -9.275  11.321  66.872  1.00  0.00    -0.169 OA 
HETATM    4  C   UNL     1     -10.233  14.723  70.196  1.00  0.00     0.251 C  
HETATM    5  C   UNL     1      -9.539  13.986  69.060  1.00  0.00     0.081 C  
HETATM    6  C   UNL     1      -9.822  12.391  66.629  1.00  0.00    -0.223 C  
HETATM    7  C   UNL     1      -9.781  14.560  67.605  1.00  0.00    -0.215 C  
HETATM    8  C   UNL     1     -11.354  12.455  66.480  1.00  0.00    -0.392 C  
HETATM    9  H   UNL     1     -11.940  16.057  65.703  1.00  0.00     0.000 HD 
HETATM   10  C   UNL     1      -9.058  13.723  66.560  1.00  0.00    -0.129 C  
HETATM   11  O   UNL     1      -7.662  13.897  66.891  1.00  0.00     0.076 OA 
HETATM   12  C   UNL     1      -7.621  15.234  67.273  1.00  0.00    -0.210 A  
HETATM   13  C   UNL     1      -6.554  16.022  67.583  1.00  0.00    -0.162 A  
HETATM   14  O   UNL     1      -5.300  15.511  67.650  1.00  0.00    -0.225 OA 
HETATM   15  C   UNL     1      -6.804  17.356  67.945  1.00  0.00    -0.184 A  
HETATM   16  C   UNL     1      -8.130  17.878  68.043  1.00  0.00    -0.252 A  
HETATM   17  H   UNL     1      -4.555  16.061  67.866  1.00  0.00     0.000 HD 
HETATM   18  C   UNL     1      -9.221  17.032  67.877  1.00  0.00    -0.239 A  
HETATM   19  C   UNL     1     -10.718  17.356  68.031  1.00  0.00    -0.359 C  
HETATM   20  C   UNL     1      -8.883  15.727  67.539  1.00  0.00    -0.196 A  
HETATM   21  C   UNL     1     -11.682  15.944  68.362  1.00  0.00    -0.246 C  
HETATM   22  C   UNL     1     -11.176  14.989  67.188  1.00  0.00    -0.336 C  
HETATM   23  O   UNL     1     -11.067  15.789  65.963  1.00  0.00    -0.229 OA 
HETATM   24  C   UNL     1     -12.037  13.834  66.630  1.00  0.00    -0.471 C  
ENDROOT
BRANCH   2  25
HETATM   25  C   UNL     1     -12.376  13.521  69.721  1.00  0.00    -0.190 C  
BRANCH  25  26
HETATM   26  C   UNL     1     -12.163  12.617  70.924  1.00  0.00    -0.280 C  
HETATM   27  C   UNL     1     -13.278  12.413  71.923  1.00  0.00    -0.486 C  
HETATM   28  C   UNL     1     -12.828  11.258  71.085  1.00  0.00    -0.452 C  
ENDBRANCH  25  26
ENDBRANCH   2  25
TORSDOF 2
ENDMDL
MODEL       34
REMARK 921   NORMALIZED FREE ENERGY PREDICTED BY IDOCK:   -5.18 KCAL/MOL
REMARK 922        TOTAL FREE ENERGY PREDICTED BY IDOCK:   -6.31 KCAL/MOL
REMARK 923 INTER-LIGAND FREE ENERGY PREDICTED BY IDOCK:   -5.77 KCAL/MOL
REMARK 924 INTRA-LIGAND FREE ENERGY PREDICTED BY IDOCK:   -0.54 KCAL/MOL
REMARK 927      BINDING AFFINITY PREDICTED BY RF-SCORE:    0.00 PKD
ROOT
HETATM    1  C   UNL     1     -11.079  12.842  68.963  1.00  0.00    -0.233 C  
HETATM    2  N   UNL     1     -10.252  11.947  68.011  1.00  0.00    -0.187 N  
HETATM    3  O   UNL     1      -7.772   9.705  63.983  1.00  0.00    -0.117 OA 
HETATM    4  C   UNL     1     -11.161  10.976  67.215  1.00  0.00    -0.294 C  
HETATM    5  C   UNL     1     -10.252  10.105  66.360  1.00  0.00    -0.288 C  
HETATM    6  C   UNL     1      -7.601   9.718  65.197  1.00  0.00    -0.125 C  
HETATM    7  C   UNL     1      -9.009   9.460  67.096  1.00  0.00    -0.144 C  
HETATM    8  C   UNL     1      -6.875  10.905  65.859  1.00  0.00    -0.032 C  
HETATM    9  H   UNL     1      -6.832   9.920  69.458  1.00  0.00     0.000 HD 
HETATM   10  C   UNL     1      -8.168   8.637  66.132  1.00  0.00    -0.121 C  
HETATM   11  O   UNL     1      -9.058   7.574  65.727  1.00  0.00    -0.099 OA 
HETATM   12  C   UNL     1      -9.737   7.301  66.909  1.00  0.00    -0.194 A  
HETATM   13  C   UNL     1     -10.628   6.311  67.197  1.00  0.00    -0.311 A  
HETATM   14  O   UNL     1     -11.062   5.456  66.238  1.00  0.00    -0.707 OA 
HETATM   15  C   UNL     1     -11.174   6.272  68.491  1.00  0.00    -0.305 A  
HETATM   16  C   UNL     1     -10.861   7.260  69.474  1.00  0.00    -0.224 A  
HETATM   17  H   UNL     1     -11.683   4.765  66.439  1.00  0.00     0.000 HD 
HETATM   18  C   UNL     1     -10.074   8.354  69.131  1.00  0.00    -0.206 A  
HETATM   19  C   UNL     1      -9.695   9.570  69.995  1.00  0.00    -0.271 C  
HETATM   20  C   UNL     1      -9.592   8.321  67.828  1.00  0.00    -0.178 A  
HETATM   21  C   UNL     1      -9.259  10.962  69.042  1.00  0.00    -0.128 C  
HETATM   22  C   UNL     1      -8.189  10.298  68.063  1.00  0.00    -0.113 C  
HETATM   23  O   UNL     1      -7.344   9.396  68.853  1.00  0.00    -0.071 OA 
HETATM   24  C   UNL     1      -7.073  11.115  67.378  1.00  0.00    -0.102 C  
ENDROOT
BRANCH   2  25
HETATM   25  C   UNL     1      -9.596  12.914  66.975  1.00  0.00    -0.231 C  
BRANCH  25  26
HETATM   26  C   UNL     1     -10.540  13.737  66.112  1.00  0.00    -0.291 C  
HETATM   27  C   UNL     1     -10.014  14.921  65.335  1.00  0.00    -0.367 C  
HETATM   28  C   UNL     1     -10.517  13.724  64.591  1.00  0.00    -0.433 C  
ENDBRANCH  25  26
ENDBRANCH   2  25
TORSDOF 2
ENDMDL
MODEL       35
REMARK 921   NORMALIZED FREE ENERGY PREDICTED BY IDOCK:   -5.18 KCAL/MOL
REMARK 922        TOTAL FREE ENERGY PREDICTED BY IDOCK:   -6.30 KCAL/MOL
REMARK 923 INTER-LIGAND FREE ENERGY PREDICTED BY IDOCK:   -5.82 KCAL/MOL
REMARK 924 INTRA-LIGAND FREE ENERGY PREDICTED BY IDOCK:   -0.48 KCAL/MOL
REMARK 927      BINDING AFFINITY PREDICTED BY RF-SCORE:    0.00 PKD
ROOT
HETATM    1  C   UNL     1      -8.578  11.762  67.901  1.00  0.00    -0.156 C  
HETATM    2  N   UNL     1      -9.049  10.294  67.778  1.00  0.00    -0.134 N  
HETATM    3  O   UNL     1     -11.115   5.699  66.356  1.00  0.00    -0.160 OA 
HETATM    4  C   UNL     1     -10.522  10.133  68.236  1.00  0.00    -0.211 C  
HETATM    5  C   UNL     1     -10.867   8.655  68.135  1.00  0.00    -0.018 C  
HETATM    6  C   UNL     1     -10.164   6.034  67.054  1.00  0.00    -0.205 C  
HETATM    7  C   UNL     1      -9.820   7.649  68.766  1.00  0.00    -0.165 C  
HETATM    8  C   UNL     1      -8.819   6.401  66.397  1.00  0.00    -0.146 C  
HETATM    9  H   UNL     1      -6.664   7.172  69.345  1.00  0.00     0.000 HD 
HETATM   10  C   UNL     1     -10.266   6.206  68.578  1.00  0.00    -0.185 C  
HETATM   11  O   UNL     1     -11.490   6.127  69.342  1.00  0.00    -0.423 OA 
HETATM   12  C   UNL     1     -11.195   6.923  70.443  1.00  0.00    -0.312 A  
HETATM   13  C   UNL     1     -11.913   7.144  71.579  1.00  0.00    -0.326 A  
HETATM   14  O   UNL     1     -13.159   6.634  71.733  1.00  0.00    -0.366 OA 
HETATM   15  C   UNL     1     -11.372   8.014  72.542  1.00  0.00    -0.469 A  
HETATM   16  C   UNL     1     -10.135   8.697  72.334  1.00  0.00    -0.321 A  
HETATM   17  H   UNL     1     -13.660   6.788  72.526  1.00  0.00     0.000 HD 
HETATM   18  C   UNL     1      -9.482   8.590  71.111  1.00  0.00    -0.249 A  
HETATM   19  C   UNL     1      -8.202   9.306  70.642  1.00  0.00    -0.224 C  
HETATM   20  C   UNL     1     -10.095   7.725  70.213  1.00  0.00    -0.195 A  
HETATM   21  C   UNL     1      -8.080   9.397  68.907  1.00  0.00    -0.103 C  
HETATM   22  C   UNL     1      -8.335   7.867  68.535  1.00  0.00    -0.128 C  
HETATM   23  O   UNL     1      -7.593   7.035  69.489  1.00  0.00    -0.093 OA 
HETATM   24  C   UNL     1      -7.814   7.233  67.226  1.00  0.00    -0.111 C  
ENDROOT
BRANCH   2  25
HETATM   25  C   UNL     1      -9.003   9.955  66.254  1.00  0.00    -0.145 C  
BRANCH  25  26
HETATM   26  C   UNL     1      -9.366  11.074  65.292  1.00  0.00    -0.245 C  
HETATM   27  C   UNL     1      -9.942  10.746  63.935  1.00  0.00    -0.404 C  
HETATM   28  C   UNL     1     -10.798  11.450  64.939  1.00  0.00    -0.323 C  
ENDBRANCH  25  26
ENDBRANCH   2  25
TORSDOF 2
ENDMDL
MODEL       36
REMARK 921   NORMALIZED FREE ENERGY PREDICTED BY IDOCK:   -5.17 KCAL/MOL
REMARK 922        TOTAL FREE ENERGY PREDICTED BY IDOCK:   -6.29 KCAL/MOL
REMARK 923 INTER-LIGAND FREE ENERGY PREDICTED BY IDOCK:   -5.98 KCAL/MOL
REMARK 924 INTRA-LIGAND FREE ENERGY PREDICTED BY IDOCK:   -0.31 KCAL/MOL
REMARK 927      BINDING AFFINITY PREDICTED BY RF-SCORE:    0.00 PKD
ROOT
HETATM    1  C   UNL     1      -8.926   9.102  70.892  1.00  0.00    -0.237 C  
HETATM    2  N   UNL     1      -9.465   9.850  69.651  1.00  0.00    -0.220 N  
HETATM    3  O   UNL     1     -12.334  12.134  65.915  1.00  0.00    -0.561 OA 
HETATM    4  C   UNL     1      -9.889   8.862  68.534  1.00  0.00    -0.167 C  
HETATM    5  C   UNL     1     -10.343   9.693  67.344  1.00  0.00    -0.306 C  
HETATM    6  C   UNL     1     -11.200  12.303  66.352  1.00  0.00    -0.324 C  
HETATM    7  C   UNL     1      -9.383  10.875  66.911  1.00  0.00    -0.186 C  
HETATM    8  C   UNL     1     -10.986  13.128  67.636  1.00  0.00    -0.282 C  
HETATM    9  H   UNL     1      -7.274  13.079  68.016  1.00  0.00     0.000 HD 
HETATM   10  C   UNL     1      -9.959  11.643  65.730  1.00  0.00    -0.237 C  
HETATM   11  O   UNL     1      -9.983  10.665  64.668  1.00  0.00    -0.287 OA 
HETATM   12  C   UNL     1      -8.805   9.963  64.895  1.00  0.00    -0.193 A  
HETATM   13  C   UNL     1      -8.210   8.989  64.151  1.00  0.00    -0.166 A  
HETATM   14  O   UNL     1      -8.811   8.484  63.045  1.00  0.00    -0.428 OA 
HETATM   15  C   UNL     1      -7.007   8.439  64.626  1.00  0.00    -0.073 A  
HETATM   16  C   UNL     1      -6.436   8.835  65.873  1.00  0.00    -0.057 A  
HETATM   17  H   UNL     1      -8.396   7.805  62.525  1.00  0.00     0.000 HD 
HETATM   18  C   UNL     1      -7.123   9.714  66.703  1.00  0.00    -0.086 A  
HETATM   19  C   UNL     1      -6.742  10.196  68.114  1.00  0.00    -0.062 C  
HETATM   20  C   UNL     1      -8.310  10.194  66.163  1.00  0.00    -0.131 A  
HETATM   21  C   UNL     1      -8.116  10.752  69.029  1.00  0.00    -0.140 C  
HETATM   22  C   UNL     1      -8.756  11.762  67.972  1.00  0.00    -0.167 C  
HETATM   23  O   UNL     1      -7.666  12.524  67.352  1.00  0.00    -0.152 OA 
HETATM   24  C   UNL     1      -9.652  12.947  68.395  1.00  0.00    -0.176 C  
ENDROOT
BRANCH   2  25
HETATM   25  C   UNL     1     -10.757  10.589  70.123  1.00  0.00    -0.171 C  
BRANCH  25  26
HETATM   26  C   UNL     1     -11.954   9.720  70.476  1.00  0.00    -0.282 C  
HETATM   27  C   UNL     1     -12.188   9.304  71.909  1.00  0.00    -0.448 C  
HETATM   28  C   UNL     1     -13.163  10.226  71.249  1.00  0.00    -0.447 C  
ENDBRANCH  25  26
ENDBRANCH   2  25
TORSDOF 2
ENDMDL
MODEL       37
REMARK 921   NORMALIZED FREE ENERGY PREDICTED BY IDOCK:   -5.17 KCAL/MOL
REMARK 922        TOTAL FREE ENERGY PREDICTED BY IDOCK:   -6.29 KCAL/MOL
REMARK 923 INTER-LIGAND FREE ENERGY PREDICTED BY IDOCK:   -5.65 KCAL/MOL
REMARK 924 INTRA-LIGAND FREE ENERGY PREDICTED BY IDOCK:   -0.64 KCAL/MOL
REMARK 927      BINDING AFFINITY PREDICTED BY RF-SCORE:    0.00 PKD
ROOT
HETATM    1  C   UNL     1      -7.605  10.911  69.542  1.00  0.00    -0.050 C  
HETATM    2  N   UNL     1      -8.217  11.232  68.159  1.00  0.00    -0.133 N  
HETATM    3  O   UNL     1      -9.264  11.918  63.077  1.00  0.00    -0.261 OA 
HETATM    4  C   UNL     1      -7.725  12.602  67.627  1.00  0.00    -0.155 C  
HETATM    5  C   UNL     1      -8.427  12.850  66.300  1.00  0.00     0.489 C  
HETATM    6  C   UNL     1      -9.949  11.724  64.075  1.00  0.00    -0.293 C  
HETATM    7  C   UNL     1      -9.992  12.609  66.282  1.00  0.00    -0.266 C  
HETATM    8  C   UNL     1     -10.133  10.292  64.615  1.00  0.00    -0.317 C  
HETATM    9  H   UNL     1     -12.382  10.817  67.545  1.00  0.00     0.000 HD 
HETATM   10  C   UNL     1     -10.569  12.865  64.898  1.00  0.00    -0.323 C  
HETATM   11  O   UNL     1     -10.323  14.272  64.682  1.00  0.00    -0.417 OA 
HETATM   12  C   UNL     1     -10.548  14.802  65.948  1.00  0.00    -0.314 A  
HETATM   13  C   UNL     1     -10.589  16.100  66.357  1.00  0.00    -0.269 A  
HETATM   14  O   UNL     1     -10.291  17.114  65.508  1.00  0.00    -0.599 OA 
HETATM   15  C   UNL     1     -10.835  16.354  67.717  1.00  0.00    -0.306 A  
HETATM   16  C   UNL     1     -10.988  15.300  68.668  1.00  0.00    -0.257 A  
HETATM   17  H   UNL     1     -10.320  18.020  65.793  1.00  0.00     0.000 HD 
HETATM   18  C   UNL     1     -10.792  13.980  68.276  1.00  0.00    -0.268 A  
HETATM   19  C   UNL     1     -10.813  12.709  69.145  1.00  0.00    -0.127 C  
HETATM   20  C   UNL     1     -10.536  13.822  66.920  1.00  0.00    -0.272 A  
HETATM   21  C   UNL     1      -9.926  11.392  68.431  1.00  0.00    -0.206 C  
HETATM   22  C   UNL     1     -10.572  11.387  66.973  1.00  0.00    -0.248 C  
HETATM   23  O   UNL     1     -12.020  11.581  67.113  1.00  0.00    -0.581 OA 
HETATM   24  C   UNL     1     -10.596  10.127  66.080  1.00  0.00    -0.071 C  
ENDROOT
BRANCH   2  25
HETATM   25  C   UNL     1      -7.672  10.139  67.185  1.00  0.00    -0.092 C  
BRANCH  25  26
HETATM   26  C   UNL     1      -7.515   8.736  67.748  1.00  0.00    -0.093 C  
HETATM   27  C   UNL     1      -8.665   7.760  67.676  1.00  0.00    -0.126 C  
HETATM   28  C   UNL     1      -7.427   7.487  66.883  1.00  0.00    -0.098 C  
ENDBRANCH  25  26
ENDBRANCH   2  25
TORSDOF 2
ENDMDL
MODEL       38
REMARK 921   NORMALIZED FREE ENERGY PREDICTED BY IDOCK:   -5.15 KCAL/MOL
REMARK 922        TOTAL FREE ENERGY PREDICTED BY IDOCK:   -6.27 KCAL/MOL
REMARK 923 INTER-LIGAND FREE ENERGY PREDICTED BY IDOCK:   -5.78 KCAL/MOL
REMARK 924 INTRA-LIGAND FREE ENERGY PREDICTED BY IDOCK:   -0.48 KCAL/MOL
REMARK 927      BINDING AFFINITY PREDICTED BY RF-SCORE:    0.00 PKD
ROOT
HETATM    1  C   UNL     1      -6.799  14.555  69.607  1.00  0.00    -0.142 C  
HETATM    2  N   UNL     1      -8.057  14.032  68.875  1.00  0.00    -0.061 N  
HETATM    3  O   UNL     1     -11.631  11.340  66.159  1.00  0.00    -0.213 OA 
HETATM    4  C   UNL     1      -7.975  14.299  67.350  1.00  0.00    -0.192 C  
HETATM    5  C   UNL     1      -9.276  13.806  66.735  1.00  0.00    -0.255 C  
HETATM    6  C   UNL     1     -11.684  12.183  67.048  1.00  0.00    -0.303 C  
HETATM    7  C   UNL     1     -10.608  14.263  67.458  1.00  0.00    -0.261 C  
HETATM    8  C   UNL     1     -11.498  11.763  68.519  1.00  0.00    -0.353 C  
HETATM    9  H   UNL     1     -11.907  14.994  70.339  1.00  0.00     0.000 HD 
HETATM   10  C   UNL     1     -11.833  13.686  66.765  1.00  0.00    -0.413 C  
HETATM   11  O   UNL     1     -11.797  14.291  65.453  1.00  0.00    -0.343 OA 
HETATM   12  C   UNL     1     -11.352  15.577  65.740  1.00  0.00    -0.039 A  
HETATM   13  C   UNL     1     -11.229  16.662  64.926  1.00  0.00    -0.061 A  
HETATM   14  O   UNL     1     -11.463  16.570  63.594  1.00  0.00    -1.421 OA 
HETATM   15  C   UNL     1     -10.740  17.854  65.486  1.00  0.00     0.020 A  
HETATM   16  C   UNL     1     -10.328  17.935  66.851  1.00  0.00    -0.358 A  
HETATM   17  H   UNL     1     -11.377  17.327  63.025  1.00  0.00     0.000 HD 
HETATM   18  C   UNL     1     -10.308  16.789  67.638  1.00  0.00    -0.309 A  
HETATM   19  C   UNL     1      -9.818  16.630  69.089  1.00  0.00    -0.244 C  
HETATM   20  C   UNL     1     -10.791  15.653  67.000  1.00  0.00    -0.294 A  
HETATM   21  C   UNL     1      -9.377  14.989  69.474  1.00  0.00    -0.070 C  
HETATM   22  C   UNL     1     -10.689  14.231  68.974  1.00  0.00    -0.245 C  
HETATM   23  O   UNL     1     -11.857  15.015  69.391  1.00  0.00    -0.303 OA 
HETATM   24  C   UNL     1     -11.120  12.860  69.540  1.00  0.00    -0.049 C  
ENDROOT
BRANCH   2  25
HETATM   25  C   UNL     1      -8.053  12.482  69.070  1.00  0.00     0.335 C  
BRANCH  25  26
HETATM   26  C   UNL     1      -6.759  11.754  68.745  1.00  0.00    -0.083 C  
HETATM   27  C   UNL     1      -6.402  10.484  69.483  1.00  0.00    -0.064 C  
HETATM   28  C   UNL     1      -6.705  10.417  68.019  1.00  0.00    -0.065 C  
ENDBRANCH  25  26
ENDBRANCH   2  25
TORSDOF 2
ENDMDL
MODEL       39
REMARK 921   NORMALIZED FREE ENERGY PREDICTED BY IDOCK:   -5.12 KCAL/MOL
REMARK 922        TOTAL FREE ENERGY PREDICTED BY IDOCK:   -6.24 KCAL/MOL
REMARK 923 INTER-LIGAND FREE ENERGY PREDICTED BY IDOCK:   -5.79 KCAL/MOL
REMARK 924 INTRA-LIGAND FREE ENERGY PREDICTED BY IDOCK:   -0.45 KCAL/MOL
REMARK 927      BINDING AFFINITY PREDICTED BY RF-SCORE:    0.00 PKD
ROOT
HETATM    1  C   UNL     1      -7.363  12.848  69.009  1.00  0.00     0.057 C  
HETATM    2  N   UNL     1      -8.429  13.153  67.932  1.00  0.00    -0.168 N  
HETATM    3  O   UNL     1     -11.342  13.540  63.600  1.00  0.00    -0.196 OA 
HETATM    4  C   UNL     1      -7.989  14.326  67.018  1.00  0.00     0.017 C  
HETATM    5  C   UNL     1      -9.124  14.586  66.039  1.00  0.00     0.026 C  
HETATM    6  C   UNL     1     -11.579  13.597  64.802  1.00  0.00    -0.355 C  
HETATM    7  C   UNL     1     -10.575  14.686  66.663  1.00  0.00    -0.289 C  
HETATM    8  C   UNL     1     -11.749  12.299  65.616  1.00  0.00    -0.440 C  
HETATM    9  H   UNL     1     -12.488  13.584  69.040  1.00  0.00     0.000 HD 
HETATM   10  C   UNL     1     -11.621  14.921  65.582  1.00  0.00    -0.245 C  
HETATM   11  O   UNL     1     -11.268  16.214  65.043  1.00  0.00    -0.313 OA 
HETATM   12  C   UNL     1     -10.869  16.903  66.183  1.00  0.00     0.009 A  
HETATM   13  C   UNL     1     -10.534  18.213  66.340  1.00  0.00    -0.350 A  
HETATM   14  O   UNL     1     -10.455  19.051  65.276  1.00  0.00    -0.353 OA 
HETATM   15  C   UNL     1     -10.159  18.649  67.622  1.00  0.00    -0.404 A  
HETATM   16  C   UNL     1     -10.072  17.752  68.730  1.00  0.00    -0.381 A  
HETATM   17  H   UNL     1     -10.222  19.965  65.385  1.00  0.00     0.000 HD 
HETATM   18  C   UNL     1     -10.264  16.389  68.534  1.00  0.00    -0.257 A  
HETATM   19  C   UNL     1     -10.127  15.245  69.556  1.00  0.00    -0.261 C  
HETATM   20  C   UNL     1     -10.613  16.045  67.234  1.00  0.00    -0.313 A  
HETATM   21  C   UNL     1      -9.828  13.703  68.803  1.00  0.00    -0.069 C  
HETATM   22  C   UNL     1     -11.006  13.693  67.728  1.00  0.00    -0.259 C  
HETATM   23  O   UNL     1     -12.219  14.206  68.374  1.00  0.00    -0.314 OA 
HETATM   24  C   UNL     1     -11.591  12.384  67.151  1.00  0.00    -0.435 C  
ENDROOT
BRANCH   2  25
HETATM   25  C   UNL     1      -8.509  11.878  67.034  1.00  0.00    -0.177 C  
BRANCH  25  26
HETATM   26  C   UNL     1      -7.190  11.288  66.563  1.00  0.00    -0.096 C  
HETATM   27  C   UNL     1      -6.876   9.834  66.826  1.00  0.00    -0.084 C  
HETATM   28  C   UNL     1      -7.074  10.293  65.416  1.00  0.00    -0.139 C  
ENDBRANCH  25  26
ENDBRANCH   2  25
TORSDOF 2
ENDMDL
MODEL       40
REMARK 921   NORMALIZED FREE ENERGY PREDICTED BY IDOCK:   -5.12 KCAL/MOL
REMARK 922        TOTAL FREE ENERGY PREDICTED BY IDOCK:   -6.24 KCAL/MOL
REMARK 923 INTER-LIGAND FREE ENERGY PREDICTED BY IDOCK:   -5.90 KCAL/MOL
REMARK 924 INTRA-LIGAND FREE ENERGY PREDICTED BY IDOCK:   -0.34 KCAL/MOL
REMARK 927      BINDING AFFINITY PREDICTED BY RF-SCORE:    0.00 PKD
ROOT
HETATM    1  C   UNL     1      -5.503  15.495  67.759  1.00  0.00    -0.112 C  
HETATM    2  N   UNL     1      -6.756  16.390  67.890  1.00  0.00    -0.128 N  
HETATM    3  O   UNL     1     -10.326  20.030  69.075  1.00  0.00    -0.382 OA 
HETATM    4  C   UNL     1      -7.577  16.033  69.156  1.00  0.00    -0.225 C  
HETATM    5  C   UNL     1      -8.811  16.923  69.159  1.00  0.00    -0.080 C  
HETATM    6  C   UNL     1     -10.126  19.308  68.104  1.00  0.00    -0.412 C  
HETATM    7  C   UNL     1      -9.616  17.005  67.799  1.00  0.00    -0.244 C  
HETATM    8  C   UNL     1      -9.077  19.710  67.049  1.00  0.00    -0.402 C  
HETATM    9  H   UNL     1      -9.319  16.933  64.569  1.00  0.00     0.000 HD 
HETATM   10  C   UNL     1     -10.808  17.942  67.925  1.00  0.00    -0.210 C  
HETATM   11  O   UNL     1     -11.645  17.297  68.910  1.00  0.00     0.511 OA 
HETATM   12  C   UNL     1     -11.488  15.954  68.586  1.00  0.00    -0.391 A  
HETATM   13  C   UNL     1     -12.121  14.855  69.083  1.00  0.00    -0.231 A  
HETATM   14  O   UNL     1     -12.994  14.955  70.116  1.00  0.00    -0.588 OA 
HETATM   15  C   UNL     1     -11.758  13.598  68.572  1.00  0.00    -0.392 A  
HETATM   16  C   UNL     1     -10.723  13.447  67.600  1.00  0.00    -0.257 A  
HETATM   17  H   UNL     1     -13.437  14.188  70.463  1.00  0.00     0.000 HD 
HETATM   18  C   UNL     1      -9.973  14.551  67.209  1.00  0.00    -0.236 A  
HETATM   19  C   UNL     1      -8.763  14.601  66.259  1.00  0.00     0.122 C  
HETATM   20  C   UNL     1     -10.388  15.749  67.777  1.00  0.00    -0.275 A  
HETATM   21  C   UNL     1      -7.755  15.996  66.525  1.00  0.00    -0.167 C  
HETATM   22  C   UNL     1      -8.863  17.143  66.487  1.00  0.00    -0.262 C  
HETATM   23  O   UNL     1      -9.791  16.847  65.390  1.00  0.00    -0.537 OA 
HETATM   24  C   UNL     1      -8.531  18.605  66.117  1.00  0.00    -0.161 C  
ENDROOT
BRANCH   2  25
HETATM   25  C   UNL     1      -6.224  17.846  68.084  1.00  0.00    -0.175 C  
BRANCH  25  26
HETATM   26  C   UNL     1      -6.150  18.364  69.512  1.00  0.00    -0.260 C  
HETATM   27  C   UNL     1      -5.268  19.544  69.842  1.00  0.00    -0.218 C  
HETATM   28  C   UNL     1      -6.752  19.688  69.959  1.00  0.00    -0.185 C  
ENDBRANCH  25  26
ENDBRANCH   2  25
TORSDOF 2
ENDMDL
MODEL       41
REMARK 921   NORMALIZED FREE ENERGY PREDICTED BY IDOCK:   -5.06 KCAL/MOL
REMARK 922        TOTAL FREE ENERGY PREDICTED BY IDOCK:   -6.17 KCAL/MOL
REMARK 923 INTER-LIGAND FREE ENERGY PREDICTED BY IDOCK:   -5.62 KCAL/MOL
REMARK 924 INTRA-LIGAND FREE ENERGY PREDICTED BY IDOCK:   -0.55 KCAL/MOL
REMARK 927      BINDING AFFINITY PREDICTED BY RF-SCORE:    0.00 PKD
ROOT
HETATM    1  C   UNL     1     -12.155  12.715  65.646  1.00  0.00    -0.443 C  
HETATM    2  N   UNL     1     -10.692  12.280  65.897  1.00  0.00    -0.251 N  
HETATM    3  O   UNL     1      -5.512  11.530  65.854  1.00  0.00    -0.254 OA 
HETATM    4  C   UNL     1     -10.258  11.163  64.914  1.00  0.00    -0.303 C  
HETATM    5  C   UNL     1      -8.836  10.766  65.281  1.00  0.00    -0.200 C  
HETATM    6  C   UNL     1      -6.384  11.451  66.713  1.00  0.00    -0.142 C  
HETATM    7  C   UNL     1      -8.560  10.498  66.817  1.00  0.00    -0.126 C  
HETATM    8  C   UNL     1      -6.875  12.724  67.429  1.00  0.00    -0.137 C  
HETATM    9  H   UNL     1      -9.401  11.380  69.823  1.00  0.00     0.000 HD 
HETATM   10  C   UNL     1      -7.102  10.136  67.056  1.00  0.00    -0.090 C  
HETATM   11  O   UNL     1      -6.939   8.891  66.341  1.00  0.00    -0.077 OA 
HETATM   12  C   UNL     1      -8.155   8.260  66.582  1.00  0.00    -0.102 A  
HETATM   13  C   UNL     1      -8.562   6.999  66.268  1.00  0.00    -0.139 A  
HETATM   14  O   UNL     1      -7.780   6.171  65.531  1.00  0.00    -0.085 OA 
HETATM   15  C   UNL     1      -9.865   6.618  66.630  1.00  0.00    -0.208 A  
HETATM   16  C   UNL     1     -10.770   7.524  67.261  1.00  0.00    -0.365 A  
HETATM   17  H   UNL     1      -8.064   5.291  65.312  1.00  0.00     0.000 HD 
HETATM   18  C   UNL     1     -10.407   8.854  67.440  1.00  0.00    -0.337 A  
HETATM   19  C   UNL     1     -11.251  10.012  68.003  1.00  0.00    -0.190 C  
HETATM   20  C   UNL     1      -9.109   9.148  67.037  1.00  0.00    -0.147 A  
HETATM   21  C   UNL     1     -10.682  11.574  67.484  1.00  0.00    -0.267 C  
HETATM   22  C   UNL     1      -9.137  11.440  67.859  1.00  0.00    -0.164 C  
HETATM   23  O   UNL     1      -9.040  10.791  69.172  1.00  0.00    -0.167 OA 
HETATM   24  C   UNL     1      -8.243  12.667  68.145  1.00  0.00    -0.170 C  
ENDROOT
BRANCH   2  25
HETATM   25  C   UNL     1      -9.813  13.532  65.584  1.00  0.00    -0.167 C  
BRANCH  25  26
HETATM   26  C   UNL     1     -10.331  14.874  66.075  1.00  0.00    -0.313 C  
HETATM   27  C   UNL     1      -9.422  16.081  66.076  1.00  0.00    -0.384 C  
HETATM   28  C   UNL     1     -10.603  16.058  65.158  1.00  0.00    -0.394 C  
ENDBRANCH  25  26
ENDBRANCH   2  25
TORSDOF 2
ENDMDL
MODEL       42
REMARK 921   NORMALIZED FREE ENERGY PREDICTED BY IDOCK:   -5.04 KCAL/MOL
REMARK 922        TOTAL FREE ENERGY PREDICTED BY IDOCK:   -6.15 KCAL/MOL
REMARK 923 INTER-LIGAND FREE ENERGY PREDICTED BY IDOCK:   -5.60 KCAL/MOL
REMARK 924 INTRA-LIGAND FREE ENERGY PREDICTED BY IDOCK:   -0.55 KCAL/MOL
REMARK 927      BINDING AFFINITY PREDICTED BY RF-SCORE:    0.00 PKD
ROOT
HETATM    1  C   UNL     1      -9.875   4.560  67.632  1.00  0.00    -0.127 C  
HETATM    2  N   UNL     1      -9.897   5.336  68.969  1.00  0.00    -0.153 N  
HETATM    3  O   UNL     1     -10.503   7.001  73.894  1.00  0.00    -0.375 OA 
HETATM    4  C   UNL     1     -11.271   6.014  69.206  1.00  0.00    -0.297 C  
HETATM    5  C   UNL     1     -11.170   6.796  70.507  1.00  0.00    -0.370 C  
HETATM    6  C   UNL     1      -9.708   7.253  72.994  1.00  0.00    -0.186 C  
HETATM    7  C   UNL     1      -9.894   7.719  70.670  1.00  0.00    -0.182 C  
HETATM    8  C   UNL     1      -8.511   6.316  72.741  1.00  0.00    -0.122 C  
HETATM    9  H   UNL     1      -6.751   8.001  69.915  1.00  0.00     0.000 HD 
HETATM   10  C   UNL     1      -9.897   8.424  72.017  1.00  0.00    -0.284 C  
HETATM   11  O   UNL     1     -11.065   9.272  71.954  1.00  0.00    -0.367 OA 
HETATM   12  C   UNL     1     -11.043   9.695  70.629  1.00  0.00    -0.319 A  
HETATM   13  C   UNL     1     -11.824  10.610  69.991  1.00  0.00    -0.322 A  
HETATM   14  O   UNL     1     -12.873  11.198  70.618  1.00  0.00    -0.274 OA 
HETATM   15  C   UNL     1     -11.584  10.843  68.626  1.00  0.00    -0.373 A  
HETATM   16  C   UNL     1     -10.594  10.117  67.898  1.00  0.00    -0.294 A  
HETATM   17  H   UNL     1     -13.418  11.837  70.173  1.00  0.00     0.000 HD 
HETATM   18  C   UNL     1      -9.905   9.077  68.512  1.00  0.00    -0.184 A  
HETATM   19  C   UNL     1      -8.876   8.112  67.896  1.00  0.00    -0.131 C  
HETATM   20  C   UNL     1     -10.217   8.904  69.855  1.00  0.00    -0.209 A  
HETATM   21  C   UNL     1      -8.739   6.619  68.782  1.00  0.00    -0.128 C  
HETATM   22  C   UNL     1      -8.530   7.194  70.255  1.00  0.00    -0.138 C  
HETATM   23  O   UNL     1      -7.604   8.330  70.175  1.00  0.00    -0.072 OA 
HETATM   24  C   UNL     1      -7.813   6.393  71.365  1.00  0.00    -0.104 C  
ENDROOT
BRANCH   2  25
HETATM   25  C   UNL     1      -9.714   4.265  70.090  1.00  0.00    -0.212 C  
BRANCH  25  26
HETATM   26  C   UNL     1      -8.946   3.008  69.719  1.00  0.00    -0.172 C  
HETATM   27  C   UNL     1      -8.252   2.202  70.792  1.00  0.00    -0.067 C  
HETATM   28  C   UNL     1      -9.413   1.601  70.065  1.00  0.00    -0.139 C  
ENDBRANCH  25  26
ENDBRANCH   2  25
TORSDOF 2
ENDMDL
MODEL       43
REMARK 921   NORMALIZED FREE ENERGY PREDICTED BY IDOCK:   -5.04 KCAL/MOL
REMARK 922        TOTAL FREE ENERGY PREDICTED BY IDOCK:   -6.15 KCAL/MOL
REMARK 923 INTER-LIGAND FREE ENERGY PREDICTED BY IDOCK:   -5.75 KCAL/MOL
REMARK 924 INTRA-LIGAND FREE ENERGY PREDICTED BY IDOCK:   -0.40 KCAL/MOL
REMARK 927      BINDING AFFINITY PREDICTED BY RF-SCORE:    0.00 PKD
ROOT
HETATM    1  C   UNL     1     -11.486   7.668  72.683  1.00  0.00    -0.349 C  
HETATM    2  N   UNL     1     -10.831   7.518  71.290  1.00  0.00    -0.233 N  
HETATM    3  O   UNL     1      -9.498   7.696  66.232  1.00  0.00    -0.176 OA 
HETATM    4  C   UNL     1     -11.543   6.430  70.446  1.00  0.00    -0.373 C  
HETATM    5  C   UNL     1     -10.790   6.317  69.128  1.00  0.00    -0.403 C  
HETATM    6  C   UNL     1      -8.880   7.524  67.277  1.00  0.00    -0.124 C  
HETATM    7  C   UNL     1      -9.214   6.210  69.230  1.00  0.00    -0.134 C  
HETATM    8  C   UNL     1      -8.457   8.736  68.129  1.00  0.00    -0.130 C  
HETATM    9  H   UNL     1      -6.631   7.134  70.961  1.00  0.00     0.000 HD 
HETATM   10  C   UNL     1      -8.580   6.130  67.850  1.00  0.00    -0.114 C  
HETATM   11  O   UNL     1      -9.087   4.886  67.315  1.00  0.00    -0.113 OA 
HETATM   12  C   UNL     1      -9.087   4.068  68.439  1.00  0.00    -0.137 A  
HETATM   13  C   UNL     1      -9.348   2.736  68.551  1.00  0.00    -0.186 A  
HETATM   14  O   UNL     1      -9.769   2.011  67.485  1.00  0.00    -0.412 OA 
HETATM   15  C   UNL     1      -9.281   2.156  69.829  1.00  0.00    -0.181 A  
HETATM   16  C   UNL     1      -9.002   2.929  70.996  1.00  0.00    -0.162 A  
HETATM   17  H   UNL     1      -9.951   1.081  67.562  1.00  0.00     0.000 HD 
HETATM   18  C   UNL     1      -8.890   4.312  70.901  1.00  0.00    -0.142 A  
HETATM   19  C   UNL     1      -8.688   5.338  72.031  1.00  0.00    -0.133 C  
HETATM   20  C   UNL     1      -8.987   4.802  69.605  1.00  0.00    -0.135 A  
HETATM   21  C   UNL     1      -9.222   6.936  71.592  1.00  0.00    -0.146 C  
HETATM   22  C   UNL     1      -8.461   7.104  70.200  1.00  0.00    -0.139 C  
HETATM   23  O   UNL     1      -7.102   6.575  70.355  1.00  0.00    -0.068 OA 
HETATM   24  C   UNL     1      -8.102   8.487  69.612  1.00  0.00    -0.113 C  
ENDROOT
BRANCH   2  25
HETATM   25  C   UNL     1     -11.054   8.881  70.562  1.00  0.00    -0.251 C  
BRANCH  25  26
HETATM   26  C   UNL     1     -11.793   9.960  71.337  1.00  0.00    -0.476 C  
HETATM   27  C   UNL     1     -12.168  11.256  70.657  1.00  0.00    -0.489 C  
HETATM   28  C   UNL     1     -13.252  10.321  71.094  1.00  0.00    -0.429 C  
ENDBRANCH  25  26
ENDBRANCH   2  25
TORSDOF 2
ENDMDL
MODEL       44
REMARK 921   NORMALIZED FREE ENERGY PREDICTED BY IDOCK:   -5.03 KCAL/MOL
REMARK 922        TOTAL FREE ENERGY PREDICTED BY IDOCK:   -6.14 KCAL/MOL
REMARK 923 INTER-LIGAND FREE ENERGY PREDICTED BY IDOCK:   -5.49 KCAL/MOL
REMARK 924 INTRA-LIGAND FREE ENERGY PREDICTED BY IDOCK:   -0.65 KCAL/MOL
REMARK 927      BINDING AFFINITY PREDICTED BY RF-SCORE:    0.00 PKD
ROOT
HETATM    1  C   UNL     1     -12.821   6.738  71.228  1.00  0.00    -0.198 C  
HETATM    2  N   UNL     1     -11.357   7.226  71.326  1.00  0.00    -0.256 N  
HETATM    3  O   UNL     1      -6.632   8.926  72.804  1.00  0.00    -0.288 OA 
HETATM    4  C   UNL     1     -11.281   8.771  71.422  1.00  0.00    -0.292 C  
HETATM    5  C   UNL     1      -9.808   9.150  71.452  1.00  0.00    -0.354 C  
HETATM    6  C   UNL     1      -7.051   8.272  71.855  1.00  0.00    -0.087 C  
HETATM    7  C   UNL     1      -8.889   8.467  70.359  1.00  0.00    -0.149 C  
HETATM    8  C   UNL     1      -7.305   6.760  72.016  1.00  0.00    -0.088 C  
HETATM    9  H   UNL     1      -8.460   5.768  68.610  1.00  0.00     0.000 HD 
HETATM   10  C   UNL     1      -7.440   8.905  70.510  1.00  0.00    -0.089 C  
HETATM   11  O   UNL     1      -7.485  10.325  70.243  1.00  0.00    -0.208 OA 
HETATM   12  C   UNL     1      -8.426  10.396  69.222  1.00  0.00    -0.154 A  
HETATM   13  C   UNL     1      -8.815  11.460  68.465  1.00  0.00    -0.151 A  
HETATM   14  O   UNL     1      -8.347  12.708  68.714  1.00  0.00    -0.343 OA 
HETATM   15  C   UNL     1      -9.806  11.248  67.492  1.00  0.00    -0.195 A  
HETATM   16  C   UNL     1     -10.437   9.979  67.319  1.00  0.00    -0.313 A  
HETATM   17  H   UNL     1      -8.618  13.450  68.186  1.00  0.00     0.000 HD 
HETATM   18  C   UNL     1     -10.150   8.937  68.194  1.00  0.00    -0.227 A  
HETATM   19  C   UNL     1     -10.776   7.532  68.250  1.00  0.00    -0.128 C  
HETATM   20  C   UNL     1      -9.174   9.239  69.135  1.00  0.00    -0.149 A  
HETATM   21  C   UNL     1     -10.618   6.787  69.816  1.00  0.00    -0.263 C  
HETATM   22  C   UNL     1      -9.053   6.987  70.056  1.00  0.00    -0.145 C  
HETATM   23  O   UNL     1      -8.357   6.693  68.799  1.00  0.00    -0.118 OA 
HETATM   24  C   UNL     1      -8.234   6.071  70.991  1.00  0.00    -0.123 C  
ENDROOT
BRANCH   2  25
HETATM   25  C   UNL     1     -10.804   6.656  72.671  1.00  0.00    -0.248 C  
BRANCH  25  26
HETATM   26  C   UNL     1     -11.303   5.282  73.090  1.00  0.00    -0.358 C  
HETATM   27  C   UNL     1     -10.519   4.047  72.714  1.00  0.00    -0.234 C  
HETATM   28  C   UNL     1     -10.629   4.431  74.156  1.00  0.00    -0.329 C  
ENDBRANCH  25  26
ENDBRANCH   2  25
TORSDOF 2
ENDMDL
MODEL       45
REMARK 921   NORMALIZED FREE ENERGY PREDICTED BY IDOCK:   -4.98 KCAL/MOL
REMARK 922        TOTAL FREE ENERGY PREDICTED BY IDOCK:   -6.08 KCAL/MOL
REMARK 923 INTER-LIGAND FREE ENERGY PREDICTED BY IDOCK:   -5.40 KCAL/MOL
REMARK 924 INTRA-LIGAND FREE ENERGY PREDICTED BY IDOCK:   -0.68 KCAL/MOL
REMARK 927      BINDING AFFINITY PREDICTED BY RF-SCORE:    0.00 PKD
ROOT
HETATM    1  C   UNL     1      -6.742  16.184  66.788  1.00  0.00     0.057 C  
HETATM    2  N   UNL     1      -7.934  15.830  67.706  1.00  0.00    -0.137 N  
HETATM    3  O   UNL     1     -11.201  14.829  71.672  1.00  0.00    -0.168 OA 
HETATM    4  C   UNL     1      -7.864  14.356  68.182  1.00  0.00    -0.138 C  
HETATM    5  C   UNL     1      -9.105  14.093  69.022  1.00  0.00     0.105 C  
HETATM    6  C   UNL     1     -11.345  15.220  70.519  1.00  0.00    -0.309 C  
HETATM    7  C   UNL     1     -10.482  14.567  68.402  1.00  0.00    -0.246 C  
HETATM    8  C   UNL     1     -11.133  16.709  70.179  1.00  0.00    -0.077 C  
HETATM    9  H   UNL     1     -11.875  16.815  66.524  1.00  0.00     0.000 HD 
HETATM   10  C   UNL     1     -11.638  14.271  69.346  1.00  0.00    -0.306 C  
HETATM   11  O   UNL     1     -11.649  12.829  69.429  1.00  0.00    -0.282 OA 
HETATM   12  C   UNL     1     -11.334  12.463  68.124  1.00  0.00    -0.291 A  
HETATM   13  C   UNL     1     -11.310  11.231  67.544  1.00  0.00    -0.288 A  
HETATM   14  O   UNL     1     -11.521  10.107  68.272  1.00  0.00    -0.521 OA 
HETATM   15  C   UNL     1     -10.946  11.148  66.189  1.00  0.00    -0.203 A  
HETATM   16  C   UNL     1     -10.557  12.300  65.439  1.00  0.00    -0.309 A  
HETATM   17  H   UNL     1     -11.505   9.247  67.867  1.00  0.00     0.000 HD 
HETATM   18  C   UNL     1     -10.433  13.531  66.073  1.00  0.00    -0.299 A  
HETATM   19  C   UNL     1      -9.944  14.867  65.486  1.00  0.00    -0.392 C  
HETATM   20  C   UNL     1     -10.796  13.518  67.414  1.00  0.00    -0.279 A  
HETATM   21  C   UNL     1      -9.348  15.959  66.705  1.00  0.00    -0.274 C  
HETATM   22  C   UNL     1     -10.574  15.923  67.725  1.00  0.00    -0.302 C  
HETATM   23  O   UNL     1     -11.817  15.967  66.948  1.00  0.00     0.395 OA 
HETATM   24  C   UNL     1     -10.874  17.081  68.702  1.00  0.00    -0.284 C  
ENDROOT
BRANCH   2  25
HETATM   25  C   UNL     1      -7.781  16.728  68.975  1.00  0.00    -0.213 C  
BRANCH  25  26
HETATM   26  C   UNL     1      -7.094  18.071  68.785  1.00  0.00    -0.279 C  
HETATM   27  C   UNL     1      -7.918  19.315  68.554  1.00  0.00    -0.396 C  
HETATM   28  C   UNL     1      -7.129  19.188  69.818  1.00  0.00     0.037 C  
ENDBRANCH  25  26
ENDBRANCH   2  25
TORSDOF 2
ENDMDL
MODEL       46
REMARK 921   NORMALIZED FREE ENERGY PREDICTED BY IDOCK:   -4.96 KCAL/MOL
REMARK 922        TOTAL FREE ENERGY PREDICTED BY IDOCK:   -6.06 KCAL/MOL
REMARK 923 INTER-LIGAND FREE ENERGY PREDICTED BY IDOCK:   -5.58 KCAL/MOL
REMARK 924 INTRA-LIGAND FREE ENERGY PREDICTED BY IDOCK:   -0.48 KCAL/MOL
REMARK 927      BINDING AFFINITY PREDICTED BY RF-SCORE:    0.00 PKD
ROOT
HETATM    1  C   UNL     1      -9.339   5.266  65.878  1.00  0.00    -0.155 C  
HETATM    2  N   UNL     1      -9.195   6.403  66.915  1.00  0.00    -0.131 N  
HETATM    3  O   UNL     1      -9.142   9.456  71.167  1.00  0.00    -0.250 OA 
HETATM    4  C   UNL     1     -10.543   7.135  67.143  1.00  0.00    -0.347 C  
HETATM    5  C   UNL     1     -10.282   8.266  68.126  1.00  0.00    -0.255 C  
HETATM    6  C   UNL     1      -8.494   9.422  70.127  1.00  0.00    -0.205 C  
HETATM    7  C   UNL     1      -9.027   9.182  67.821  1.00  0.00    -0.132 C  
HETATM    8  C   UNL     1      -7.315   8.440  69.987  1.00  0.00    -0.059 C  
HETATM    9  H   UNL     1      -6.037   9.196  66.564  1.00  0.00     0.000 HD 
HETATM   10  C   UNL     1      -8.860  10.255  68.887  1.00  0.00    -0.157 C  
HETATM   11  O   UNL     1     -10.053  11.058  68.750  1.00  0.00    -0.190 OA 
HETATM   12  C   UNL     1     -10.236  11.070  67.372  1.00  0.00    -0.195 A  
HETATM   13  C   UNL     1     -11.130  11.764  66.615  1.00  0.00    -0.310 A  
HETATM   14  O   UNL     1     -12.097  12.522  67.188  1.00  0.00    -0.504 OA 
HETATM   15  C   UNL     1     -11.097  11.581  65.222  1.00  0.00    -0.257 A  
HETATM   16  C   UNL     1     -10.198  10.661  64.602  1.00  0.00    -0.404 A  
HETATM   17  H   UNL     1     -12.722  13.007  66.660  1.00  0.00     0.000 HD 
HETATM   18  C   UNL     1      -9.394   9.842  65.387  1.00  0.00    -0.311 A  
HETATM   19  C   UNL     1      -8.432   8.727  64.937  1.00  0.00    -0.189 C  
HETATM   20  C   UNL     1      -9.504  10.077  66.751  1.00  0.00    -0.209 A  
HETATM   21  C   UNL     1      -8.120   7.561  66.192  1.00  0.00    -0.116 C  
HETATM   22  C   UNL     1      -7.720   8.544  67.383  1.00  0.00    -0.098 C  
HETATM   23  O   UNL     1      -6.854   9.595  66.838  1.00  0.00    -0.078 OA 
HETATM   24  C   UNL     1      -6.825   8.099  68.561  1.00  0.00    -0.068 C  
ENDROOT
BRANCH   2  25
HETATM   25  C   UNL     1      -8.817   5.710  68.263  1.00  0.00    -0.108 C  
BRANCH  25  26
HETATM   26  C   UNL     1      -9.957   5.104  69.065  1.00  0.00    -0.265 C  
HETATM   27  C   UNL     1      -9.660   4.143  70.192  1.00  0.00    -0.272 C  
HETATM   28  C   UNL     1     -10.262   5.476  70.509  1.00  0.00    -0.311 C  
ENDBRANCH  25  26
ENDBRANCH   2  25
TORSDOF 2
ENDMDL
MODEL       47
REMARK 921   NORMALIZED FREE ENERGY PREDICTED BY IDOCK:   -4.95 KCAL/MOL
REMARK 922        TOTAL FREE ENERGY PREDICTED BY IDOCK:   -6.05 KCAL/MOL
REMARK 923 INTER-LIGAND FREE ENERGY PREDICTED BY IDOCK:   -5.40 KCAL/MOL
REMARK 924 INTRA-LIGAND FREE ENERGY PREDICTED BY IDOCK:   -0.65 KCAL/MOL
REMARK 927      BINDING AFFINITY PREDICTED BY RF-SCORE:    0.00 PKD
ROOT
HETATM    1  C   UNL     1      -9.550   9.039  66.228  1.00  0.00    -0.260 C  
HETATM    2  N   UNL     1      -9.463   8.752  67.745  1.00  0.00    -0.140 N  
HETATM    3  O   UNL     1      -8.544   8.771  72.898  1.00  0.00    -0.398 OA 
HETATM    4  C   UNL     1      -8.119   8.073  68.115  1.00  0.00    -0.129 C  
HETATM    5  C   UNL     1      -8.158   7.779  69.607  1.00  0.00    -0.122 C  
HETATM    6  C   UNL     1      -9.427   8.306  72.185  1.00  0.00    -0.258 C  
HETATM    7  C   UNL     1      -9.472   7.080  70.148  1.00  0.00    -0.162 C  
HETATM    8  C   UNL     1     -10.580   9.208  71.702  1.00  0.00    -0.427 C  
HETATM    9  H   UNL     1     -12.679   6.843  69.722  1.00  0.00     0.000 HD 
HETATM   10  C   UNL     1      -9.398   6.865  71.652  1.00  0.00    -0.154 C  
HETATM   11  O   UNL     1      -8.296   5.944  71.810  1.00  0.00    -0.118 OA 
HETATM   12  C   UNL     1      -8.458   5.109  70.710  1.00  0.00    -0.117 A  
HETATM   13  C   UNL     1      -7.795   3.968  70.373  1.00  0.00    -0.051 A  
HETATM   14  O   UNL     1      -6.735   3.532  71.099  1.00  0.00    -0.030 OA 
HETATM   15  C   UNL     1      -8.165   3.317  69.184  1.00  0.00    -0.076 A  
HETATM   16  C   UNL     1      -9.166   3.845  68.313  1.00  0.00    -0.209 A  
HETATM   17  H   UNL     1      -6.272   2.735  70.864  1.00  0.00     0.000 HD 
HETATM   18  C   UNL     1      -9.732   5.087  68.580  1.00  0.00    -0.221 A  
HETATM   19  C   UNL     1     -10.746   5.880  67.736  1.00  0.00    -0.346 C  
HETATM   20  C   UNL     1      -9.296   5.668  69.765  1.00  0.00    -0.176 A  
HETATM   21  C   UNL     1     -10.712   7.588  68.072  1.00  0.00    -0.170 C  
HETATM   22  C   UNL     1     -10.830   7.556  69.662  1.00  0.00    -0.202 C  
HETATM   23  O   UNL     1     -11.830   6.545  70.026  1.00  0.00    -0.404 OA 
HETATM   24  C   UNL     1     -11.397   8.740  70.476  1.00  0.00    -0.255 C  
ENDROOT
BRANCH   2  25
HETATM   25  C   UNL     1      -9.481  10.146  68.447  1.00  0.00    -0.143 C  
BRANCH  25  26
HETATM   26  C   UNL     1     -10.332  11.228  67.802  1.00  0.00    -0.208 C  
HETATM   27  C   UNL     1     -11.759  11.434  68.253  1.00  0.00    -0.359 C  
HETATM   28  C   UNL     1     -10.750  12.507  68.514  1.00  0.00    -0.263 C  
ENDBRANCH  25  26
ENDBRANCH   2  25
TORSDOF 2
ENDMDL
MODEL       48
REMARK 921   NORMALIZED FREE ENERGY PREDICTED BY IDOCK:   -4.95 KCAL/MOL
REMARK 922        TOTAL FREE ENERGY PREDICTED BY IDOCK:   -6.05 KCAL/MOL
REMARK 923 INTER-LIGAND FREE ENERGY PREDICTED BY IDOCK:   -5.44 KCAL/MOL
REMARK 924 INTRA-LIGAND FREE ENERGY PREDICTED BY IDOCK:   -0.61 KCAL/MOL
REMARK 927      BINDING AFFINITY PREDICTED BY RF-SCORE:    0.00 PKD
ROOT
HETATM    1  C   UNL     1     -11.734  16.131  64.636  1.00  0.00    -0.010 C  
HETATM    2  N   UNL     1     -10.709  15.822  65.751  1.00  0.00    -0.333 N  
HETATM    3  O   UNL     1      -6.566  15.534  68.938  1.00  0.00    -0.106 OA 
HETATM    4  C   UNL     1      -9.671  14.767  65.289  1.00  0.00    -0.082 C  
HETATM    5  C   UNL     1      -8.752  14.490  66.470  1.00  0.00    -0.079 C  
HETATM    6  C   UNL     1      -7.772  15.362  69.080  1.00  0.00    -0.186 C  
HETATM    7  C   UNL     1      -9.462  14.218  67.858  1.00  0.00    -0.212 C  
HETATM    8  C   UNL     1      -8.702  16.572  69.291  1.00  0.00    -0.060 C  
HETATM    9  H   UNL     1     -12.047  14.963  69.671  1.00  0.00     0.000 HD 
HETATM   10  C   UNL     1      -8.438  13.982  68.959  1.00  0.00     0.148 C  
HETATM   11  O   UNL     1      -7.768  12.770  68.546  1.00  0.00    -0.132 OA 
HETATM   12  C   UNL     1      -8.817  12.029  68.011  1.00  0.00    -0.179 A  
HETATM   13  C   UNL     1      -8.839  10.743  67.563  1.00  0.00    -0.128 A  
HETATM   14  O   UNL     1      -7.705  10.003  67.497  1.00  0.00    -0.091 OA 
HETATM   15  C   UNL     1     -10.051  10.242  67.060  1.00  0.00    -0.268 A  
HETATM   16  C   UNL     1     -11.223  11.052  66.963  1.00  0.00    -0.255 A  
HETATM   17  H   UNL     1      -7.720   9.105  67.185  1.00  0.00     0.000 HD 
HETATM   18  C   UNL     1     -11.157  12.406  67.275  1.00  0.00    -0.329 A  
HETATM   19  C   UNL     1     -12.260  13.473  67.154  1.00  0.00    -0.328 C  
HETATM   20  C   UNL     1      -9.917  12.820  67.746  1.00  0.00    -0.219 A  
HETATM   21  C   UNL     1     -11.622  15.089  67.034  1.00  0.00    -0.248 C  
HETATM   22  C   UNL     1     -10.633  15.084  68.286  1.00  0.00    -0.247 C  
HETATM   23  O   UNL     1     -11.314  14.421  69.404  1.00  0.00    -0.257 OA 
HETATM   24  C   UNL     1     -10.210  16.380  69.013  1.00  0.00    -0.269 C  
ENDROOT
BRANCH   2  25
HETATM   25  C   UNL     1      -9.929  17.153  65.998  1.00  0.00    -0.253 C  
BRANCH  25  26
HETATM   26  C   UNL     1     -10.734  18.441  65.932  1.00  0.00    -0.209 C  
HETATM   27  C   UNL     1     -10.771  19.370  67.123  1.00  0.00    -0.593 C  
HETATM   28  C   UNL     1     -10.104  19.825  65.863  1.00  0.00    -0.513 C  
ENDBRANCH  25  26
ENDBRANCH   2  25
TORSDOF 2
ENDMDL
MODEL       49
REMARK 921   NORMALIZED FREE ENERGY PREDICTED BY IDOCK:   -4.93 KCAL/MOL
REMARK 922        TOTAL FREE ENERGY PREDICTED BY IDOCK:   -6.03 KCAL/MOL
REMARK 923 INTER-LIGAND FREE ENERGY PREDICTED BY IDOCK:   -5.48 KCAL/MOL
REMARK 924 INTRA-LIGAND FREE ENERGY PREDICTED BY IDOCK:   -0.55 KCAL/MOL
REMARK 927      BINDING AFFINITY PREDICTED BY RF-SCORE:    0.00 PKD
ROOT
HETATM    1  C   UNL     1     -12.623  10.917  69.093  1.00  0.00     0.438 C  
HETATM    2  N   UNL     1     -11.220  11.515  68.840  1.00  0.00    -0.224 N  
HETATM    3  O   UNL     1      -6.391  13.512  69.151  1.00  0.00    -0.090 OA 
HETATM    4  C   UNL     1     -11.220  13.055  69.021  1.00  0.00    -0.264 C  
HETATM    5  C   UNL     1      -9.819  13.548  68.692  1.00  0.00    -0.128 C  
HETATM    6  C   UNL     1      -7.004  12.875  68.301  1.00  0.00    -0.099 C  
HETATM    7  C   UNL     1      -9.181  12.998  67.352  1.00  0.00    -0.208 C  
HETATM    8  C   UNL     1      -7.109  11.341  68.415  1.00  0.00    -0.081 C  
HETATM    9  H   UNL     1      -9.060  10.435  65.367  1.00  0.00     0.000 HD 
HETATM   10  C   UNL     1      -7.775  13.543  67.151  1.00  0.00     0.028 C  
HETATM   11  O   UNL     1      -7.980  14.966  67.006  1.00  0.00    -0.207 OA 
HETATM   12  C   UNL     1      -9.161  15.014  66.273  1.00  0.00    -0.289 A  
HETATM   13  C   UNL     1      -9.804  16.080  65.721  1.00  0.00    -0.323 A  
HETATM   14  O   UNL     1      -9.368  17.347  65.926  1.00  0.00    -0.508 OA 
HETATM   15  C   UNL     1     -11.002  15.839  65.027  1.00  0.00    -0.431 A  
HETATM   16  C   UNL     1     -11.574  14.534  64.936  1.00  0.00    -0.401 A  
HETATM   17  H   UNL     1      -9.816  18.091  65.540  1.00  0.00     0.000 HD 
HETATM   18  C   UNL     1     -10.999  13.475  65.630  1.00  0.00    -0.296 A  
HETATM   19  C   UNL     1     -11.496  12.023  65.748  1.00  0.00    -0.377 C  
HETATM   20  C   UNL     1      -9.829  13.806  66.303  1.00  0.00    -0.314 A  
HETATM   21  C   UNL     1     -10.881  11.215  67.163  1.00  0.00    -0.326 C  
HETATM   22  C   UNL     1      -9.325  11.527  67.000  1.00  0.00    -0.178 C  
HETATM   23  O   UNL     1      -8.970  11.355  65.587  1.00  0.00    -0.198 OA 
HETATM   24  C   UNL     1      -8.230  10.633  67.622  1.00  0.00    -0.107 C  
ENDROOT
BRANCH   2  25
HETATM   25  C   UNL     1     -10.295  10.923  69.950  1.00  0.00     0.185 C  
BRANCH  25  26
HETATM   26  C   UNL     1     -10.534   9.474  70.341  1.00  0.00    -0.336 C  
HETATM   27  C   UNL     1      -9.522   8.745  71.195  1.00  0.00    -0.306 C  
HETATM   28  C   UNL     1     -10.881   9.028  71.754  1.00  0.00    -0.437 C  
ENDBRANCH  25  26
ENDBRANCH   2  25
TORSDOF 2
ENDMDL
MODEL       50
REMARK 921   NORMALIZED FREE ENERGY PREDICTED BY IDOCK:   -4.92 KCAL/MOL
REMARK 922        TOTAL FREE ENERGY PREDICTED BY IDOCK:   -6.01 KCAL/MOL
REMARK 923 INTER-LIGAND FREE ENERGY PREDICTED BY IDOCK:   -5.34 KCAL/MOL
REMARK 924 INTRA-LIGAND FREE ENERGY PREDICTED BY IDOCK:   -0.67 KCAL/MOL
REMARK 927      BINDING AFFINITY PREDICTED BY RF-SCORE:    0.00 PKD
ROOT
HETATM    1  C   UNL     1     -12.398   7.795  71.222  1.00  0.00    -0.293 C  
HETATM    2  N   UNL     1     -10.903   8.144  71.040  1.00  0.00    -0.231 N  
HETATM    3  O   UNL     1      -5.974   9.857  71.460  1.00  0.00    -0.251 OA 
HETATM    4  C   UNL     1     -10.720   9.583  70.492  1.00  0.00    -0.298 C  
HETATM    5  C   UNL     1      -9.229   9.805  70.292  1.00  0.00    -0.225 C  
HETATM    6  C   UNL     1      -6.510   8.916  70.885  1.00  0.00    -0.058 C  
HETATM    7  C   UNL     1      -8.448   8.657  69.531  1.00  0.00    -0.129 C  
HETATM    8  C   UNL     1      -6.845   7.629  71.662  1.00  0.00    -0.053 C  
HETATM    9  H   UNL     1      -8.336   5.456  69.021  1.00  0.00     0.000 HD 
HETATM   10  C   UNL     1      -6.966   8.985  69.419  1.00  0.00    -0.052 C  
HETATM   11  O   UNL     1      -6.942  10.174  68.597  1.00  0.00    -0.060 OA 
HETATM   12  C   UNL     1      -7.958   9.913  67.683  1.00  0.00    -0.109 A  
HETATM   13  C   UNL     1      -8.339  10.611  66.577  1.00  0.00    -0.143 A  
HETATM   14  O   UNL     1      -7.773  11.804  66.270  1.00  0.00    -0.379 OA 
HETATM   15  C   UNL     1      -9.417  10.115  65.825  1.00  0.00    -0.262 A  
HETATM   16  C   UNL     1     -10.140   8.948  66.218  1.00  0.00    -0.284 A  
HETATM   17  H   UNL     1      -8.039  12.291  65.499  1.00  0.00     0.000 HD 
HETATM   18  C   UNL     1      -9.849   8.327  67.427  1.00  0.00    -0.246 A  
HETATM   19  C   UNL     1     -10.557   7.127  68.084  1.00  0.00    -0.241 C  
HETATM   20  C   UNL     1      -8.782   8.892  68.114  1.00  0.00    -0.134 A  
HETATM   21  C   UNL     1     -10.318   7.068  69.808  1.00  0.00    -0.225 C  
HETATM   22  C   UNL     1      -8.730   7.204  69.868  1.00  0.00    -0.142 C  
HETATM   23  O   UNL     1      -8.159   6.365  68.809  1.00  0.00    -0.111 OA 
HETATM   24  C   UNL     1      -7.897   6.673  71.055  1.00  0.00    -0.102 C  
ENDROOT
BRANCH   2  25
HETATM   25  C   UNL     1     -10.279   8.118  72.472  1.00  0.00    -0.313 C  
BRANCH  25  26
HETATM   26  C   UNL     1     -10.851   7.105  73.450  1.00  0.00    -0.360 C  
HETATM   27  C   UNL     1     -10.477   5.646  73.331  1.00  0.00    -0.267 C  
HETATM   28  C   UNL     1     -10.026   6.419  74.530  1.00  0.00    -0.370 C  
ENDBRANCH  25  26
ENDBRANCH   2  25
TORSDOF 2
ENDMDL
MODEL       51
REMARK 921   NORMALIZED FREE ENERGY PREDICTED BY IDOCK:   -4.88 KCAL/MOL
REMARK 922        TOTAL FREE ENERGY PREDICTED BY IDOCK:   -5.97 KCAL/MOL
REMARK 923 INTER-LIGAND FREE ENERGY PREDICTED BY IDOCK:   -5.31 KCAL/MOL
REMARK 924 INTRA-LIGAND FREE ENERGY PREDICTED BY IDOCK:   -0.66 KCAL/MOL
REMARK 927      BINDING AFFINITY PREDICTED BY RF-SCORE:    0.00 PKD
ROOT
HETATM    1  C   UNL     1      -6.444   7.067  70.238  1.00  0.00    -0.043 C  
HETATM    2  N   UNL     1      -7.487   7.944  69.508  1.00  0.00    -0.091 N  
HETATM    3  O   UNL     1     -10.089  11.587  66.795  1.00  0.00    -0.207 OA 
HETATM    4  C   UNL     1      -7.940   9.136  70.389  1.00  0.00    -0.145 C  
HETATM    5  C   UNL     1      -9.003   9.896  69.610  1.00  0.00    -0.232 C  
HETATM    6  C   UNL     1     -10.269  10.396  67.025  1.00  0.00    -0.225 C  
HETATM    7  C   UNL     1     -10.153   9.022  68.963  1.00  0.00    -0.204 C  
HETATM    8  C   UNL     1      -9.532   9.331  66.190  1.00  0.00    -0.298 C  
HETATM    9  H   UNL     1     -10.821   6.140  67.631  1.00  0.00     0.000 HD 
HETATM   10  C   UNL     1     -11.134   9.893  68.191  1.00  0.00    -0.156 C  
HETATM   11  O   UNL     1     -11.720  10.731  69.212  1.00  0.00    -0.286 OA 
HETATM   12  C   UNL     1     -11.827   9.849  70.282  1.00  0.00    -0.184 A  
HETATM   13  C   UNL     1     -12.417  10.019  71.498  1.00  0.00    -0.419 A  
HETATM   14  O   UNL     1     -12.932  11.217  71.869  1.00  0.00    -0.458 OA 
HETATM   15  C   UNL     1     -12.373   8.947  72.406  1.00  0.00    -0.385 A  
HETATM   16  C   UNL     1     -11.692   7.728  72.106  1.00  0.00    -0.368 A  
HETATM   17  H   UNL     1     -13.344  11.335  72.717  1.00  0.00     0.000 HD 
HETATM   18  C   UNL     1     -10.961   7.615  70.929  1.00  0.00    -0.261 A  
HETATM   19  C   UNL     1     -10.084   6.443  70.454  1.00  0.00    -0.221 C  
HETATM   20  C   UNL     1     -11.044   8.727  70.099  1.00  0.00    -0.214 A  
HETATM   21  C   UNL     1      -8.881   6.930  69.292  1.00  0.00    -0.138 C  
HETATM   22  C   UNL     1      -9.804   7.721  68.260  1.00  0.00    -0.167 C  
HETATM   23  O   UNL     1     -11.040   6.954  68.070  1.00  0.00    -0.183 OA 
HETATM   24  C   UNL     1      -9.419   7.906  66.776  1.00  0.00    -0.257 C  
ENDROOT
BRANCH   2  25
HETATM   25  C   UNL     1      -6.749   8.545  68.269  1.00  0.00    -0.065 C  
BRANCH  25  26
HETATM   26  C   UNL     1      -5.739   7.649  67.572  1.00  0.00    -0.036 C  
HETATM   27  C   UNL     1      -6.213   6.554  66.646  1.00  0.00    -0.040 C  
HETATM   28  C   UNL     1      -5.450   7.709  66.079  1.00  0.00    -0.029 C  
ENDBRANCH  25  26
ENDBRANCH   2  25
TORSDOF 2
ENDMDL
MODEL       52
REMARK 921   NORMALIZED FREE ENERGY PREDICTED BY IDOCK:   -4.85 KCAL/MOL
REMARK 922        TOTAL FREE ENERGY PREDICTED BY IDOCK:   -5.93 KCAL/MOL
REMARK 923 INTER-LIGAND FREE ENERGY PREDICTED BY IDOCK:   -5.26 KCAL/MOL
REMARK 924 INTRA-LIGAND FREE ENERGY PREDICTED BY IDOCK:   -0.67 KCAL/MOL
REMARK 927      BINDING AFFINITY PREDICTED BY RF-SCORE:    0.00 PKD
ROOT
HETATM    1  C   UNL     1      -7.778  13.520  69.395  1.00  0.00     0.480 C  
HETATM    2  N   UNL     1      -8.228  12.465  68.358  1.00  0.00    -0.163 N  
HETATM    3  O   UNL     1      -8.604   8.792  64.647  1.00  0.00    -0.169 OA 
HETATM    4  C   UNL     1      -8.279  13.062  66.929  1.00  0.00     0.021 C  
HETATM    5  C   UNL     1      -8.789  11.969  66.001  1.00  0.00     0.045 C  
HETATM    6  C   UNL     1      -9.298   9.121  65.603  1.00  0.00    -0.235 C  
HETATM    7  C   UNL     1     -10.078  11.188  66.483  1.00  0.00    -0.265 C  
HETATM    8  C   UNL     1      -8.948   8.618  67.017  1.00  0.00    -0.152 C  
HETATM    9  H   UNL     1     -11.661  10.107  69.100  1.00  0.00     0.000 HD 
HETATM   10  C   UNL     1     -10.469  10.109  65.484  1.00  0.00    -0.006 C  
HETATM   11  O   UNL     1     -10.809  10.854  64.294  1.00  0.00    -0.309 OA 
HETATM   12  C   UNL     1     -11.444  11.972  64.825  1.00  0.00    -0.298 A  
HETATM   13  C   UNL     1     -12.096  12.988  64.195  1.00  0.00    -0.427 A  
HETATM   14  O   UNL     1     -12.118  13.076  62.842  1.00  0.00    -0.740 OA 
HETATM   15  C   UNL     1     -12.650  14.007  64.988  1.00  0.00    -0.416 A  
HETATM   16  C   UNL     1     -12.499  14.026  66.408  1.00  0.00    -0.395 A  
HETATM   17  H   UNL     1     -12.574  13.785  62.402  1.00  0.00     0.000 HD 
HETATM   18  C   UNL     1     -11.703  13.074  67.033  1.00  0.00    -0.441 A  
HETATM   19  C   UNL     1     -11.330  12.964  68.523  1.00  0.00    -0.324 C  
HETATM   20  C   UNL     1     -11.181  12.115  66.173  1.00  0.00    -0.386 A  
HETATM   21  C   UNL     1      -9.863  12.061  68.784  1.00  0.00    -0.057 C  
HETATM   22  C   UNL     1     -10.194  10.753  67.933  1.00  0.00    -0.176 C  
HETATM   23  O   UNL     1     -11.589  10.379  68.192  1.00  0.00    -0.355 OA 
HETATM   24  C   UNL     1      -9.534   9.386  68.223  1.00  0.00    -0.147 C  
ENDROOT
BRANCH   2  25
HETATM   25  C   UNL     1      -7.119  11.365  68.356  1.00  0.00    -0.079 C  
BRANCH  25  26
HETATM   26  C   UNL     1      -6.396  11.118  69.670  1.00  0.00    -0.119 C  
HETATM   27  C   UNL     1      -6.822   9.977  70.563  1.00  0.00    -0.110 C  
HETATM   28  C   UNL     1      -5.475   9.931  69.913  1.00  0.00    -0.037 C  
ENDBRANCH  25  26
ENDBRANCH   2  25
TORSDOF 2
ENDMDL
MODEL       53
REMARK 921   NORMALIZED FREE ENERGY PREDICTED BY IDOCK:   -4.83 KCAL/MOL
REMARK 922        TOTAL FREE ENERGY PREDICTED BY IDOCK:   -5.92 KCAL/MOL
REMARK 923 INTER-LIGAND FREE ENERGY PREDICTED BY IDOCK:   -5.26 KCAL/MOL
REMARK 924 INTRA-LIGAND FREE ENERGY PREDICTED BY IDOCK:   -0.66 KCAL/MOL
REMARK 927      BINDING AFFINITY PREDICTED BY RF-SCORE:    0.00 PKD
ROOT
HETATM    1  C   UNL     1      -7.370  10.274  69.929  1.00  0.00    -0.160 C  
HETATM    2  N   UNL     1      -7.714  10.193  68.424  1.00  0.00    -0.087 N  
HETATM    3  O   UNL     1      -7.714   9.932  63.196  1.00  0.00    -0.130 OA 
HETATM    4  C   UNL     1      -7.658  11.591  67.755  1.00  0.00    -0.111 C  
HETATM    5  C   UNL     1      -8.069  11.412  66.301  1.00  0.00    -0.064 C  
HETATM    6  C   UNL     1      -8.490   9.570  64.073  1.00  0.00    -0.185 C  
HETATM    7  C   UNL     1      -9.379  10.561  66.044  1.00  0.00    -0.215 C  
HETATM    8  C   UNL     1      -8.248   8.241  64.815  1.00  0.00    -0.147 C  
HETATM    9  H   UNL     1     -11.152   8.082  67.153  1.00  0.00     0.000 HD 
HETATM   10  C   UNL     1      -9.666  10.435  64.555  1.00  0.00    -0.330 C  
HETATM   11  O   UNL     1      -9.920  11.796  64.142  1.00  0.00    -0.266 OA 
HETATM   12  C   UNL     1     -10.618  12.303  65.232  1.00  0.00    -0.287 A  
HETATM   13  C   UNL     1     -11.235  13.507  65.391  1.00  0.00    -0.289 A  
HETATM   14  O   UNL     1     -11.147  14.473  64.444  1.00  0.00    -0.592 OA 
HETATM   15  C   UNL     1     -11.871  13.764  66.618  1.00  0.00    -0.445 A  
HETATM   16  C   UNL     1     -11.838  12.829  67.697  1.00  0.00    -0.396 A  
HETATM   17  H   UNL     1     -11.578  15.313  64.554  1.00  0.00     0.000 HD 
HETATM   18  C   UNL     1     -11.078  11.670  67.587  1.00  0.00    -0.314 A  
HETATM   19  C   UNL     1     -10.827  10.584  68.649  1.00  0.00    -0.276 C  
HETATM   20  C   UNL     1     -10.470  11.505  66.349  1.00  0.00    -0.292 A  
HETATM   21  C   UNL     1      -9.371   9.676  68.351  1.00  0.00    -0.136 C  
HETATM   22  C   UNL     1      -9.606   9.278  66.824  1.00  0.00    -0.183 C  
HETATM   23  O   UNL     1     -11.010   8.884  66.665  1.00  0.00     0.062 OA 
HETATM   24  C   UNL     1      -8.947   8.039  66.179  1.00  0.00    -0.215 C  
ENDROOT
BRANCH   2  25
HETATM   25  C   UNL     1      -6.588   9.329  67.773  1.00  0.00    -0.063 C  
BRANCH  25  26
HETATM   26  C   UNL     1      -6.015   8.202  68.616  1.00  0.00    -0.044 C  
HETATM   27  C   UNL     1      -6.825   6.949  68.852  1.00  0.00    -0.072 C  
HETATM   28  C   UNL     1      -5.569   6.864  68.043  1.00  0.00    -0.020 C  
ENDBRANCH  25  26
ENDBRANCH   2  25
TORSDOF 2
ENDMDL
MODEL       54
REMARK 921   NORMALIZED FREE ENERGY PREDICTED BY IDOCK:   -4.83 KCAL/MOL
REMARK 922        TOTAL FREE ENERGY PREDICTED BY IDOCK:   -5.91 KCAL/MOL
REMARK 923 INTER-LIGAND FREE ENERGY PREDICTED BY IDOCK:   -6.35 KCAL/MOL
REMARK 924 INTRA-LIGAND FREE ENERGY PREDICTED BY IDOCK:    0.44 KCAL/MOL
REMARK 927      BINDING AFFINITY PREDICTED BY RF-SCORE:    0.00 PKD
ROOT
HETATM    1  C   UNL     1     -11.573  15.811  71.024  1.00  0.00    -0.411 C  
HETATM    2  N   UNL     1     -10.802  16.054  69.706  1.00  0.00    -0.310 N  
HETATM    3  O   UNL     1      -8.339  18.005  65.520  1.00  0.00    -0.202 OA 
HETATM    4  C   UNL     1     -11.769  16.367  68.535  1.00  0.00     0.020 C  
HETATM    5  C   UNL     1     -10.923  16.528  67.281  1.00  0.00    -0.084 C  
HETATM    6  C   UNL     1      -8.265  16.954  66.147  1.00  0.00    -0.260 C  
HETATM    7  C   UNL     1      -9.842  15.402  67.019  1.00  0.00    -0.236 C  
HETATM    8  C   UNL     1      -7.439  16.890  67.446  1.00  0.00    -0.187 C  
HETATM    9  H   UNL     1      -7.819  13.322  68.469  1.00  0.00     0.000 HD 
HETATM   10  C   UNL     1      -9.047  15.691  65.754  1.00  0.00    -0.122 C  
HETATM   11  O   UNL     1     -10.040  15.621  64.706  1.00  0.00    -0.326 OA 
HETATM   12  C   UNL     1     -10.842  14.571  65.138  1.00  0.00    -0.395 A  
HETATM   13  C   UNL     1     -11.880  13.949  64.512  1.00  0.00    -0.426 A  
HETATM   14  O   UNL     1     -12.349  14.393  63.320  1.00  0.00    -1.079 OA 
HETATM   15  C   UNL     1     -12.528  12.904  65.191  1.00  0.00    -0.561 A  
HETATM   16  C   UNL     1     -12.162  12.523  66.518  1.00  0.00    -0.053 A  
HETATM   17  H   UNL     1     -13.073  13.959  62.882  1.00  0.00     0.000 HD 
HETATM   18  C   UNL     1     -11.208  13.259  67.212  1.00  0.00    -0.320 A  
HETATM   19  C   UNL     1     -10.736  13.086  68.667  1.00  0.00    -0.273 C  
HETATM   20  C   UNL     1     -10.633  14.284  66.472  1.00  0.00    -0.286 A  
HETATM   21  C   UNL     1     -10.040  14.540  69.326  1.00  0.00    -0.083 C  
HETATM   22  C   UNL     1      -8.996  14.889  68.171  1.00  0.00    -0.176 C  
HETATM   23  O   UNL     1      -8.348  13.642  67.748  1.00  0.00    -0.153 OA 
HETATM   24  C   UNL     1      -7.726  15.731  68.427  1.00  0.00    -0.128 C  
ENDROOT
BRANCH   2  25
HETATM   25  C   UNL     1      -9.940  17.334  69.943  1.00  0.00     0.566 C  
BRANCH  25  26
HETATM   26  C   UNL     1     -10.094  18.461  68.935  1.00  0.00    -0.352 C  
HETATM   27  C   UNL     1     -10.270  19.883  69.413  1.00  0.00    -0.128 C  
HETATM   28  C   UNL     1      -9.023  19.511  68.674  1.00  0.00    -0.386 C  
ENDBRANCH  25  26
ENDBRANCH   2  25
TORSDOF 2
ENDMDL
MODEL       55
REMARK 921   NORMALIZED FREE ENERGY PREDICTED BY IDOCK:   -4.81 KCAL/MOL
REMARK 922        TOTAL FREE ENERGY PREDICTED BY IDOCK:   -5.89 KCAL/MOL
REMARK 923 INTER-LIGAND FREE ENERGY PREDICTED BY IDOCK:   -5.25 KCAL/MOL
REMARK 924 INTRA-LIGAND FREE ENERGY PREDICTED BY IDOCK:   -0.64 KCAL/MOL
REMARK 927      BINDING AFFINITY PREDICTED BY RF-SCORE:    0.00 PKD
ROOT
HETATM    1  C   UNL     1     -10.257   8.937  71.475  1.00  0.00    -0.328 C  
HETATM    2  N   UNL     1      -9.674   9.116  70.054  1.00  0.00    -0.183 N  
HETATM    3  O   UNL     1      -6.919   8.929  65.607  1.00  0.00    -0.078 OA 
HETATM    4  C   UNL     1      -8.466  10.088  70.058  1.00  0.00    -0.097 C  
HETATM    5  C   UNL     1      -8.007  10.243  68.615  1.00  0.00    -0.111 C  
HETATM    6  C   UNL     1      -8.080   9.204  65.886  1.00  0.00    -0.111 C  
HETATM    7  C   UNL     1      -9.140  10.534  67.549  1.00  0.00    -0.144 C  
HETATM    8  C   UNL     1      -9.111   8.076  66.090  1.00  0.00    -0.224 C  
HETATM    9  H   UNL     1     -12.246   9.968  66.806  1.00  0.00     0.000 HD 
HETATM   10  C   UNL     1      -8.558  10.642  66.148  1.00  0.00    -0.159 C  
HETATM   11  O   UNL     1      -7.699  11.801  66.225  1.00  0.00     0.040 OA 
HETATM   12  C   UNL     1      -8.432  12.649  67.046  1.00  0.00    -0.150 A  
HETATM   13  C   UNL     1      -8.200  13.946  67.394  1.00  0.00    -0.187 A  
HETATM   14  O   UNL     1      -7.065  14.583  67.012  1.00  0.00    -0.359 OA 
HETATM   15  C   UNL     1      -9.116  14.571  68.257  1.00  0.00    -0.196 A  
HETATM   16  C   UNL     1     -10.233  13.872  68.808  1.00  0.00    -0.188 A  
HETATM   17  H   UNL     1      -6.903  15.488  67.254  1.00  0.00     0.000 HD 
HETATM   18  C   UNL     1     -10.381  12.510  68.576  1.00  0.00    -0.233 A  
HETATM   19  C   UNL     1     -11.445  11.551  69.142  1.00  0.00    -0.362 C  
HETATM   20  C   UNL     1      -9.423  11.970  67.727  1.00  0.00    -0.190 A  
HETATM   21  C   UNL     1     -10.926   9.888  69.129  1.00  0.00    -0.233 C  
HETATM   22  C   UNL     1     -10.447   9.764  67.613  1.00  0.00    -0.251 C  
HETATM   23  O   UNL     1     -11.429  10.450  66.766  1.00  0.00    -0.026 OA 
HETATM   24  C   UNL     1     -10.405   8.413  66.865  1.00  0.00    -0.378 C  
ENDROOT
BRANCH   2  25
HETATM   25  C   UNL     1      -9.132   7.714  69.633  1.00  0.00    -0.147 C  
BRANCH  25  26
HETATM   26  C   UNL     1      -9.942   6.505  70.073  1.00  0.00    -0.193 C  
HETATM   27  C   UNL     1     -11.273   6.211  69.423  1.00  0.00    -0.466 C  
HETATM   28  C   UNL     1     -10.135   5.263  69.216  1.00  0.00    -0.300 C  
ENDBRANCH  25  26
ENDBRANCH   2  25
TORSDOF 2
ENDMDL
MODEL       56
REMARK 921   NORMALIZED FREE ENERGY PREDICTED BY IDOCK:   -4.79 KCAL/MOL
REMARK 922        TOTAL FREE ENERGY PREDICTED BY IDOCK:   -5.87 KCAL/MOL
REMARK 923 INTER-LIGAND FREE ENERGY PREDICTED BY IDOCK:   -5.29 KCAL/MOL
REMARK 924 INTRA-LIGAND FREE ENERGY PREDICTED BY IDOCK:   -0.58 KCAL/MOL
REMARK 927      BINDING AFFINITY PREDICTED BY RF-SCORE:    0.00 PKD
ROOT
HETATM    1  C   UNL     1      -7.648   8.078  72.804  1.00  0.00    -0.124 C  
HETATM    2  N   UNL     1      -8.169   7.750  71.386  1.00  0.00    -0.097 N  
HETATM    3  O   UNL     1      -8.812   6.379  66.375  1.00  0.00    -0.132 OA 
HETATM    4  C   UNL     1      -7.923   8.927  70.407  1.00  0.00    -0.117 C  
HETATM    5  C   UNL     1      -8.523   8.532  69.066  1.00  0.00    -0.126 C  
HETATM    6  C   UNL     1      -9.539   6.388  67.363  1.00  0.00    -0.120 C  
HETATM    7  C   UNL     1      -9.992   7.944  69.103  1.00  0.00    -0.184 C  
HETATM    8  C   UNL     1      -9.474   5.228  68.377  1.00  0.00    -0.159 C  
HETATM    9  H   UNL     1     -12.070   6.194  70.876  1.00  0.00     0.000 HD 
HETATM   10  C   UNL     1     -10.465   7.565  67.708  1.00  0.00    -0.223 C  
HETATM   11  O   UNL     1     -10.499   8.827  67.006  1.00  0.00    -0.283 OA 
HETATM   12  C   UNL     1     -10.958   9.693  67.992  1.00  0.00    -0.140 A  
HETATM   13  C   UNL     1     -11.311  11.006  67.907  1.00  0.00    -0.311 A  
HETATM   14  O   UNL     1     -11.148  11.705  66.757  1.00  0.00    -0.284 OA 
HETATM   15  C   UNL     1     -11.743  11.649  69.080  1.00  0.00    -0.388 A  
HETATM   16  C   UNL     1     -11.767  10.983  70.342  1.00  0.00    -0.437 A  
HETATM   17  H   UNL     1     -11.394  12.621  66.697  1.00  0.00     0.000 HD 
HETATM   18  C   UNL     1     -11.261   9.693  70.455  1.00  0.00    -0.359 A  
HETATM   19  C   UNL     1     -11.104   8.832  71.722  1.00  0.00    -0.417 C  
HETATM   20  C   UNL     1     -10.840   9.140  69.252  1.00  0.00    -0.150 A  
HETATM   21  C   UNL     1      -9.892   7.593  71.547  1.00  0.00    -0.192 C  
HETATM   22  C   UNL     1     -10.371   6.936  70.174  1.00  0.00    -0.199 C  
HETATM   23  O   UNL     1     -11.833   6.825  70.206  1.00  0.00    -0.364 OA 
HETATM   24  C   UNL     1     -10.039   5.476  69.794  1.00  0.00    -0.302 C  
ENDROOT
BRANCH   2  25
HETATM   25  C   UNL     1      -7.311   6.547  70.881  1.00  0.00    -0.083 C  
BRANCH  25  26
HETATM   26  C   UNL     1      -6.804   5.577  71.934  1.00  0.00    -0.063 C  
HETATM   27  C   UNL     1      -6.718   4.101  71.623  1.00  0.00    -0.026 C  
HETATM   28  C   UNL     1      -5.457   4.873  71.852  1.00  0.00    -0.005 C  
ENDBRANCH  25  26
ENDBRANCH   2  25
TORSDOF 2
ENDMDL
MODEL       57
REMARK 921   NORMALIZED FREE ENERGY PREDICTED BY IDOCK:   -4.78 KCAL/MOL
REMARK 922        TOTAL FREE ENERGY PREDICTED BY IDOCK:   -5.85 KCAL/MOL
REMARK 923 INTER-LIGAND FREE ENERGY PREDICTED BY IDOCK:   -5.27 KCAL/MOL
REMARK 924 INTRA-LIGAND FREE ENERGY PREDICTED BY IDOCK:   -0.58 KCAL/MOL
REMARK 927      BINDING AFFINITY PREDICTED BY RF-SCORE:    0.00 PKD
ROOT
HETATM    1  C   UNL     1     -12.595  15.155  69.488  1.00  0.00     0.011 C  
HETATM    2  N   UNL     1     -11.146  14.834  69.053  1.00  0.00    -0.244 N  
HETATM    3  O   UNL     1      -6.212  13.149  68.586  1.00  0.00    -0.074 OA 
HETATM    4  C   UNL     1     -10.126  15.771  69.750  1.00  0.00    -0.276 C  
HETATM    5  C   UNL     1      -8.748  15.417  69.212  1.00  0.00    -0.252 C  
HETATM    6  C   UNL     1      -7.085  13.480  67.791  1.00  0.00    -0.159 C  
HETATM    7  C   UNL     1      -8.624  15.287  67.639  1.00  0.00    -0.178 C  
HETATM    8  C   UNL     1      -8.183  12.474  67.391  1.00  0.00    -0.183 C  
HETATM    9  H   UNL     1     -10.215  14.427  64.947  1.00  0.00     0.000 HD 
HETATM   10  C   UNL     1      -7.208  14.906  67.231  1.00  0.00    -0.107 C  
HETATM   11  O   UNL     1      -6.416  16.036  67.658  1.00  0.00    -0.135 OA 
HETATM   12  C   UNL     1      -7.260  17.104  67.375  1.00  0.00    -0.154 A  
HETATM   13  C   UNL     1      -7.028  18.444  67.446  1.00  0.00    -0.203 A  
HETATM   14  O   UNL     1      -5.863  18.930  67.940  1.00  0.00    -0.194 OA 
HETATM   15  C   UNL     1      -8.077  19.313  67.102  1.00  0.00    -0.290 A  
HETATM   16  C   UNL     1      -9.371  18.830  66.737  1.00  0.00    -0.330 A  
HETATM   17  H   UNL     1      -5.701  19.866  67.989  1.00  0.00     0.000 HD 
HETATM   18  C   UNL     1      -9.650  17.470  66.815  1.00  0.00    -0.286 A  
HETATM   19  C   UNL     1     -10.987  16.750  66.563  1.00  0.00     0.142 C  
HETATM   20  C   UNL     1      -8.562  16.687  67.180  1.00  0.00    -0.214 A  
HETATM   21  C   UNL     1     -11.077  15.202  67.356  1.00  0.00    -0.325 C  
HETATM   22  C   UNL     1      -9.704  14.560  66.857  1.00  0.00    -0.252 C  
HETATM   23  O   UNL     1      -9.539  14.882  65.435  1.00  0.00    -0.252 OA 
HETATM   24  C   UNL     1      -9.484  13.034  66.773  1.00  0.00    -0.250 C  
ENDROOT
BRANCH   2  25
HETATM   25  C   UNL     1     -10.858  13.385  69.559  1.00  0.00     0.137 C  
BRANCH  25  26
HETATM   26  C   UNL     1     -12.030  12.418  69.574  1.00  0.00    -0.324 C  
HETATM   27  C   UNL     1     -11.787  10.934  69.428  1.00  0.00    -0.400 C  
HETATM   28  C   UNL     1     -12.319  11.462  70.723  1.00  0.00    -0.483 C  
ENDBRANCH  25  26
ENDBRANCH   2  25
TORSDOF 2
ENDMDL
MODEL       58
REMARK 921   NORMALIZED FREE ENERGY PREDICTED BY IDOCK:   -4.76 KCAL/MOL
REMARK 922        TOTAL FREE ENERGY PREDICTED BY IDOCK:   -5.84 KCAL/MOL
REMARK 923 INTER-LIGAND FREE ENERGY PREDICTED BY IDOCK:   -5.18 KCAL/MOL
REMARK 924 INTRA-LIGAND FREE ENERGY PREDICTED BY IDOCK:   -0.66 KCAL/MOL
REMARK 927      BINDING AFFINITY PREDICTED BY RF-SCORE:    0.00 PKD
ROOT
HETATM    1  C   UNL     1      -6.205   6.781  68.011  1.00  0.00    -0.033 C  
HETATM    2  N   UNL     1      -7.388   7.760  68.193  1.00  0.00    -0.103 N  
HETATM    3  O   UNL     1     -10.545  11.880  68.869  1.00  0.00    -0.217 OA 
HETATM    4  C   UNL     1      -7.615   8.100  69.689  1.00  0.00    -0.099 C  
HETATM    5  C   UNL     1      -8.829   9.014  69.764  1.00  0.00    -0.155 C  
HETATM    6  C   UNL     1     -10.670  10.780  68.341  1.00  0.00    -0.217 C  
HETATM    7  C   UNL     1     -10.104   8.551  68.947  1.00  0.00    -0.213 C  
HETATM    8  C   UNL     1     -10.156  10.552  66.906  1.00  0.00    -0.265 C  
HETATM    9  H   UNL     1     -11.079   6.992  66.274  1.00  0.00     0.000 HD 
HETATM   10  C   UNL     1     -11.236   9.558  69.082  1.00  0.00     0.031 C  
HETATM   11  O   UNL     1     -11.560   9.518  70.490  1.00  0.00    -0.265 OA 
HETATM   12  C   UNL     1     -11.414   8.166  70.781  1.00  0.00    -0.261 A  
HETATM   13  C   UNL     1     -11.698   7.482  71.924  1.00  0.00    -0.284 A  
HETATM   14  O   UNL     1     -12.106   8.127  73.045  1.00  0.00    -0.640 OA 
HETATM   15  C   UNL     1     -11.444   6.100  71.945  1.00  0.00    -0.355 A  
HETATM   16  C   UNL     1     -10.858   5.421  70.834  1.00  0.00    -0.190 A  
HETATM   17  H   UNL     1     -12.305   7.650  73.843  1.00  0.00     0.000 HD 
HETATM   18  C   UNL     1     -10.428   6.146  69.728  1.00  0.00    -0.299 A  
HETATM   19  C   UNL     1      -9.692   5.637  68.475  1.00  0.00    -0.172 C  
HETATM   20  C   UNL     1     -10.701   7.507  69.799  1.00  0.00    -0.249 A  
HETATM   21  C   UNL     1      -8.797   6.892  67.664  1.00  0.00    -0.118 C  
HETATM   22  C   UNL     1      -9.936   8.002  67.541  1.00  0.00    -0.194 C  
HETATM   23  O   UNL     1     -11.184   7.336  67.154  1.00  0.00    -0.215 OA 
HETATM   24  C   UNL     1      -9.913   9.096  66.450  1.00  0.00    -0.358 C  
ENDROOT
BRANCH   2  25
HETATM   25  C   UNL     1      -6.963   9.083  67.481  1.00  0.00    -0.078 C  
BRANCH  25  26
HETATM   26  C   UNL     1      -6.076   8.947  66.254  1.00  0.00    -0.063 C  
HETATM   27  C   UNL     1      -6.668   9.106  64.874  1.00  0.00    -0.073 C  
HETATM   28  C   UNL     1      -5.683  10.119  65.366  1.00  0.00    -0.091 C  
ENDBRANCH  25  26
ENDBRANCH   2  25
TORSDOF 2
ENDMDL
MODEL       59
REMARK 921   NORMALIZED FREE ENERGY PREDICTED BY IDOCK:   -4.74 KCAL/MOL
REMARK 922        TOTAL FREE ENERGY PREDICTED BY IDOCK:   -5.81 KCAL/MOL
REMARK 923 INTER-LIGAND FREE ENERGY PREDICTED BY IDOCK:   -5.19 KCAL/MOL
REMARK 924 INTRA-LIGAND FREE ENERGY PREDICTED BY IDOCK:   -0.63 KCAL/MOL
REMARK 927      BINDING AFFINITY PREDICTED BY RF-SCORE:    0.00 PKD
ROOT
HETATM    1  C   UNL     1     -10.619   7.180  73.501  1.00  0.00    -0.374 C  
HETATM    2  N   UNL     1     -10.359   7.473  72.006  1.00  0.00    -0.195 N  
HETATM    3  O   UNL     1     -10.571   8.069  66.810  1.00  0.00    -0.320 OA 
HETATM    4  C   UNL     1      -9.958   6.186  71.239  1.00  0.00    -0.182 C  
HETATM    5  C   UNL     1      -9.666   6.590  69.802  1.00  0.00    -0.170 C  
HETATM    6  C   UNL     1      -9.940   8.611  67.711  1.00  0.00    -0.190 C  
HETATM    7  C   UNL     1      -8.724   7.847  69.607  1.00  0.00    -0.134 C  
HETATM    8  C   UNL     1     -10.596   9.728  68.546  1.00  0.00    -0.252 C  
HETATM    9  H   UNL     1      -7.860  10.698  70.890  1.00  0.00     0.000 HD 
HETATM   10  C   UNL     1      -8.531   8.162  68.131  1.00  0.00    -0.126 C  
HETATM   11  O   UNL     1      -7.845   6.997  67.621  1.00  0.00    -0.109 OA 
HETATM   12  C   UNL     1      -6.992   6.682  68.673  1.00  0.00    -0.080 A  
HETATM   13  C   UNL     1      -6.003   5.749  68.746  1.00  0.00    -0.020 A  
HETATM   14  O   UNL     1      -5.784   4.876  67.732  1.00  0.00    -0.016 OA 
HETATM   15  C   UNL     1      -5.289   5.639  69.952  1.00  0.00    -0.004 A  
HETATM   16  C   UNL     1      -5.607   6.433  71.094  1.00  0.00    -0.026 A  
HETATM   17  H   UNL     1      -5.093   4.225  67.783  1.00  0.00     0.000 HD 
HETATM   18  C   UNL     1      -6.715   7.274  71.067  1.00  0.00    -0.048 A  
HETATM   19  C   UNL     1      -7.291   8.138  72.203  1.00  0.00    -0.117 C  
HETATM   20  C   UNL     1      -7.373   7.308  69.844  1.00  0.00    -0.084 A  
HETATM   21  C   UNL     1      -8.974   8.521  71.970  1.00  0.00    -0.301 C  
HETATM   22  C   UNL     1      -8.922   9.076  70.476  1.00  0.00    -0.213 C  
HETATM   23  O   UNL     1      -7.736   9.930  70.346  1.00  0.00    -0.184 OA 
HETATM   24  C   UNL     1      -9.974  10.062  69.921  1.00  0.00    -0.280 C  
ENDROOT
BRANCH   2  25
HETATM   25  C   UNL     1     -11.725   7.949  71.418  1.00  0.00    -0.281 C  
BRANCH  25  26
HETATM   26  C   UNL     1     -12.647   8.711  72.356  1.00  0.00    -0.426 C  
HETATM   27  C   UNL     1     -13.189  10.061  71.951  1.00  0.00    -0.557 C  
HETATM   28  C   UNL     1     -14.133   8.910  72.097  1.00  0.00    -0.497 C  
ENDBRANCH  25  26
ENDBRANCH   2  25
TORSDOF 2
ENDMDL
MODEL       60
REMARK 921   NORMALIZED FREE ENERGY PREDICTED BY IDOCK:   -4.74 KCAL/MOL
REMARK 922        TOTAL FREE ENERGY PREDICTED BY IDOCK:   -5.81 KCAL/MOL
REMARK 923 INTER-LIGAND FREE ENERGY PREDICTED BY IDOCK:   -5.16 KCAL/MOL
REMARK 924 INTRA-LIGAND FREE ENERGY PREDICTED BY IDOCK:   -0.65 KCAL/MOL
REMARK 927      BINDING AFFINITY PREDICTED BY RF-SCORE:    0.00 PKD
ROOT
HETATM    1  C   UNL     1     -11.156   6.343  67.381  1.00  0.00    -0.322 C  
HETATM    2  N   UNL     1     -10.150   6.899  68.415  1.00  0.00    -0.161 N  
HETATM    3  O   UNL     1      -5.969   8.625  71.050  1.00  0.00    -0.033 OA 
HETATM    4  C   UNL     1      -9.372   5.756  69.117  1.00  0.00    -0.123 C  
HETATM    5  C   UNL     1      -8.459   6.400  70.150  1.00  0.00    -0.135 C  
HETATM    6  C   UNL     1      -7.175   8.838  71.117  1.00  0.00    -0.093 C  
HETATM    7  C   UNL     1      -9.127   7.480  71.095  1.00  0.00    -0.149 C  
HETATM    8  C   UNL     1      -7.832   9.849  70.157  1.00  0.00    -0.186 C  
HETATM    9  H   UNL     1     -11.402   9.787  71.240  1.00  0.00     0.000 HD 
HETATM   10  C   UNL     1      -8.108   8.065  72.062  1.00  0.00    -0.131 C  
HETATM   11  O   UNL     1      -7.718   6.933  72.871  1.00  0.00    -0.092 OA 
HETATM   12  C   UNL     1      -8.922   6.252  73.013  1.00  0.00    -0.130 A  
HETATM   13  C   UNL     1      -9.225   5.162  73.772  1.00  0.00    -0.125 A  
HETATM   14  O   UNL     1      -8.267   4.503  74.469  1.00  0.00    -0.093 OA 
HETATM   15  C   UNL     1     -10.540   4.670  73.722  1.00  0.00    -0.325 A  
HETATM   16  C   UNL     1     -11.531   5.245  72.869  1.00  0.00    -0.339 A  
HETATM   17  H   UNL     1      -8.478   3.742  74.999  1.00  0.00     0.000 HD 
HETATM   18  C   UNL     1     -11.179   6.256  71.982  1.00  0.00    -0.327 A  
HETATM   19  C   UNL     1     -12.053   6.946  70.919  1.00  0.00    -0.424 C  
HETATM   20  C   UNL     1      -9.857   6.669  72.086  1.00  0.00    -0.166 A  
HETATM   21  C   UNL     1     -11.115   7.665  69.640  1.00  0.00    -0.074 C  
HETATM   22  C   UNL     1     -10.076   8.509  70.507  1.00  0.00    -0.192 C  
HETATM   23  O   UNL     1     -10.808   9.144  71.608  1.00  0.00    -0.337 OA 
HETATM   24  C   UNL     1      -9.361   9.763  69.955  1.00  0.00    -0.274 C  
ENDROOT
BRANCH   2  25
HETATM   25  C   UNL     1      -9.109   7.727  67.598  1.00  0.00    -0.133 C  
BRANCH  25  26
HETATM   26  C   UNL     1      -9.620   8.432  66.352  1.00  0.00    -0.307 C  
HETATM   27  C   UNL     1      -9.724   9.939  66.325  1.00  0.00    -0.281 C  
HETATM   28  C   UNL     1      -8.735   9.260  65.430  1.00  0.00    -0.208 C  
ENDBRANCH  25  26
ENDBRANCH   2  25
TORSDOF 2
ENDMDL
MODEL       61
REMARK 921   NORMALIZED FREE ENERGY PREDICTED BY IDOCK:   -4.74 KCAL/MOL
REMARK 922        TOTAL FREE ENERGY PREDICTED BY IDOCK:   -5.81 KCAL/MOL
REMARK 923 INTER-LIGAND FREE ENERGY PREDICTED BY IDOCK:   -5.17 KCAL/MOL
REMARK 924 INTRA-LIGAND FREE ENERGY PREDICTED BY IDOCK:   -0.64 KCAL/MOL
REMARK 927      BINDING AFFINITY PREDICTED BY RF-SCORE:    0.00 PKD
ROOT
HETATM    1  C   UNL     1      -8.511   5.654  72.502  1.00  0.00    -0.117 C  
HETATM    2  N   UNL     1      -8.696   6.825  71.509  1.00  0.00    -0.127 N  
HETATM    3  O   UNL     1      -8.199  11.011  68.406  1.00  0.00    -0.122 OA 
HETATM    4  C   UNL     1      -8.975   8.157  72.252  1.00  0.00    -0.189 C  
HETATM    5  C   UNL     1      -9.201   9.226  71.193  1.00  0.00    -0.225 C  
HETATM    6  C   UNL     1      -8.914  10.015  68.396  1.00  0.00    -0.121 C  
HETATM    7  C   UNL     1     -10.198   8.851  70.023  1.00  0.00    -0.214 C  
HETATM    8  C   UNL     1      -8.374   8.687  67.829  1.00  0.00    -0.118 C  
HETATM    9  H   UNL     1     -11.300   6.402  68.203  1.00  0.00     0.000 HD 
HETATM   10  C   UNL     1     -10.318   9.988  69.020  1.00  0.00    -0.206 C  
HETATM   11  O   UNL     1     -10.904  11.061  69.791  1.00  0.00    -0.231 OA 
HETATM   12  C   UNL     1     -11.801  10.376  70.603  1.00  0.00    -0.350 A  
HETATM   13  C   UNL     1     -12.738  10.854  71.468  1.00  0.00    -0.428 A  
HETATM   14  O   UNL     1     -12.844  12.181  71.725  1.00  0.00    -0.339 OA 
HETATM   15  C   UNL     1     -13.517   9.923  72.175  1.00  0.00    -0.454 A  
HETATM   16  C   UNL     1     -13.315   8.515  72.048  1.00  0.00    -0.397 A  
HETATM   17  H   UNL     1     -13.498  12.515  72.329  1.00  0.00     0.000 HD 
HETATM   18  C   UNL     1     -12.258   8.034  71.284  1.00  0.00    -0.308 A  
HETATM   19  C   UNL     1     -11.803   6.576  71.088  1.00  0.00    -0.383 C  
HETATM   20  C   UNL     1     -11.529   9.022  70.635  1.00  0.00    -0.291 A  
HETATM   21  C   UNL     1     -10.133   6.451  70.608  1.00  0.00    -0.221 C  
HETATM   22  C   UNL     1     -10.124   7.475  69.385  1.00  0.00    -0.190 C  
HETATM   23  O   UNL     1     -11.347   7.263  68.602  1.00  0.00     0.146 OA 
HETATM   24  C   UNL     1      -9.098   7.383  68.234  1.00  0.00    -0.128 C  
ENDROOT
BRANCH   2  25
HETATM   25  C   UNL     1      -7.325   6.988  70.778  1.00  0.00    -0.073 C  
BRANCH  25  26
HETATM   26  C   UNL     1      -6.537   5.716  70.508  1.00  0.00    -0.040 C  
HETATM   27  C   UNL     1      -6.516   5.121  69.120  1.00  0.00    -0.039 C  
HETATM   28  C   UNL     1      -5.252   5.679  69.694  1.00  0.00    -0.004 C  
ENDBRANCH  25  26
ENDBRANCH   2  25
TORSDOF 2
ENDMDL
MODEL       62
REMARK 921   NORMALIZED FREE ENERGY PREDICTED BY IDOCK:   -4.73 KCAL/MOL
REMARK 922        TOTAL FREE ENERGY PREDICTED BY IDOCK:   -5.81 KCAL/MOL
REMARK 923 INTER-LIGAND FREE ENERGY PREDICTED BY IDOCK:   -5.15 KCAL/MOL
REMARK 924 INTRA-LIGAND FREE ENERGY PREDICTED BY IDOCK:   -0.65 KCAL/MOL
REMARK 927      BINDING AFFINITY PREDICTED BY RF-SCORE:    0.00 PKD
ROOT
HETATM    1  C   UNL     1      -9.897  10.150  65.306  1.00  0.00    -0.319 C  
HETATM    2  N   UNL     1      -9.502   9.218  66.475  1.00  0.00    -0.185 N  
HETATM    3  O   UNL     1      -8.206   5.231  69.609  1.00  0.00    -0.092 OA 
HETATM    4  C   UNL     1     -10.740   8.492  67.062  1.00  0.00    -0.120 C  
HETATM    5  C   UNL     1     -10.257   7.654  68.236  1.00  0.00    -0.229 C  
HETATM    6  C   UNL     1      -7.991   6.438  69.622  1.00  0.00    -0.116 C  
HETATM    7  C   UNL     1      -9.312   8.385  69.274  1.00  0.00    -0.154 C  
HETATM    8  C   UNL     1      -6.849   7.026  68.770  1.00  0.00    -0.076 C  
HETATM    9  H   UNL     1      -7.023  10.663  69.583  1.00  0.00     0.000 HD 
HETATM   10  C   UNL     1      -8.878   7.436  70.382  1.00  0.00    -0.149 C  
HETATM   11  O   UNL     1     -10.117   7.105  71.049  1.00  0.00    -0.192 OA 
HETATM   12  C   UNL     1     -10.798   8.317  71.011  1.00  0.00    -0.233 A  
HETATM   13  C   UNL     1     -11.979   8.674  71.587  1.00  0.00    -0.326 A  
HETATM   14  O   UNL     1     -12.740   7.767  72.249  1.00  0.00    -0.482 OA 
HETATM   15  C   UNL     1     -12.446   9.983  71.378  1.00  0.00    -0.510 A  
HETATM   16  C   UNL     1     -11.747  10.910  70.547  1.00  0.00    -0.441 A  
HETATM   17  H   UNL     1     -13.564   8.016  72.652  1.00  0.00     0.000 HD 
HETATM   18  C   UNL     1     -10.625  10.496  69.837  1.00  0.00    -0.261 A  
HETATM   19  C   UNL     1      -9.785  11.293  68.822  1.00  0.00    -0.184 C  
HETATM   20  C   UNL     1     -10.245   9.184  70.089  1.00  0.00    -0.237 A  
HETATM   21  C   UNL     1      -8.904  10.266  67.725  1.00  0.00    -0.125 C  
HETATM   22  C   UNL     1      -8.200   9.290  68.772  1.00  0.00    -0.112 C  
HETATM   23  O   UNL     1      -7.718  10.097  69.897  1.00  0.00    -0.160 OA 
HETATM   24  C   UNL     1      -6.889   8.537  68.452  1.00  0.00    -0.065 C  
ENDROOT
BRANCH   2  25
HETATM   25  C   UNL     1      -8.579   8.121  65.856  1.00  0.00    -0.151 C  
BRANCH  25  26
HETATM   26  C   UNL     1      -7.740   8.529  64.656  1.00  0.00    -0.116 C  
HETATM   27  C   UNL     1      -6.236   8.615  64.780  1.00  0.00    -0.065 C  
HETATM   28  C   UNL     1      -6.837   7.569  63.894  1.00  0.00    -0.054 C  
ENDBRANCH  25  26
ENDBRANCH   2  25
TORSDOF 2
ENDMDL
MODEL       63
REMARK 921   NORMALIZED FREE ENERGY PREDICTED BY IDOCK:   -4.71 KCAL/MOL
REMARK 922        TOTAL FREE ENERGY PREDICTED BY IDOCK:   -5.77 KCAL/MOL
REMARK 923 INTER-LIGAND FREE ENERGY PREDICTED BY IDOCK:   -5.46 KCAL/MOL
REMARK 924 INTRA-LIGAND FREE ENERGY PREDICTED BY IDOCK:   -0.32 KCAL/MOL
REMARK 927      BINDING AFFINITY PREDICTED BY RF-SCORE:    0.00 PKD
ROOT
HETATM    1  C   UNL     1     -10.093  13.365  64.571  1.00  0.00    -0.192 C  
HETATM    2  N   UNL     1     -10.491  14.041  65.903  1.00  0.00    -0.300 N  
HETATM    3  O   UNL     1     -12.910  15.951  70.134  1.00  0.00    -0.285 OA 
HETATM    4  C   UNL     1     -11.092  15.451  65.663  1.00  0.00    -0.271 C  
HETATM    5  C   UNL     1     -11.391  16.052  67.029  1.00  0.00     0.149 C  
HETATM    6  C   UNL     1     -11.763  15.593  69.889  1.00  0.00    -0.362 C  
HETATM    7  C   UNL     1     -10.234  15.954  68.104  1.00  0.00    -0.232 C  
HETATM    8  C   UNL     1     -11.397  14.096  69.939  1.00  0.00    -0.232 C  
HETATM    9  H   UNL     1      -7.755  14.129  69.128  1.00  0.00     0.000 HD 
HETATM   10  C   UNL     1     -10.665  16.565  69.429  1.00  0.00    -0.330 C  
HETATM   11  O   UNL     1     -10.872  17.959  69.109  1.00  0.00     0.164 OA 
HETATM   12  C   UNL     1      -9.840  18.204  68.209  1.00  0.00    -0.351 A  
HETATM   13  C   UNL     1      -9.435  19.374  67.642  1.00  0.00    -0.313 A  
HETATM   14  O   UNL     1     -10.122  20.526  67.840  1.00  0.00    -0.350 OA 
HETATM   15  C   UNL     1      -8.351  19.332  66.749  1.00  0.00    -0.311 A  
HETATM   16  C   UNL     1      -7.712  18.106  66.392  1.00  0.00    -0.295 A  
HETATM   17  H   UNL     1      -9.840  21.343  67.444  1.00  0.00     0.000 HD 
HETATM   18  C   UNL     1      -8.225  16.898  66.852  1.00  0.00    -0.245 A  
HETATM   19  C   UNL     1      -7.757  15.470  66.519  1.00  0.00     0.189 C  
HETATM   20  C   UNL     1      -9.306  17.031  67.713  1.00  0.00    -0.237 A  
HETATM   21  C   UNL     1      -9.003  14.279  66.768  1.00  0.00    -0.249 C  
HETATM   22  C   UNL     1      -9.452  14.660  68.251  1.00  0.00    -0.211 C  
HETATM   23  O   UNL     1      -8.244  14.938  69.037  1.00  0.00    -0.162 OA 
HETATM   24  C   UNL     1     -10.116  13.642  69.204  1.00  0.00     0.153 C  
ENDROOT
BRANCH   2  25
HETATM   25  C   UNL     1     -11.625  13.157  66.511  1.00  0.00    -0.356 C  
BRANCH  25  26
HETATM   26  C   UNL     1     -11.458  11.651  66.393  1.00  0.00    -0.238 C  
HETATM   27  C   UNL     1     -10.142  11.006  66.759  1.00  0.00    -0.260 C  
HETATM   28  C   UNL     1     -11.352  10.719  67.592  1.00  0.00    -0.328 C  
ENDBRANCH  25  26
ENDBRANCH   2  25
TORSDOF 2
ENDMDL
MODEL       64
REMARK 921   NORMALIZED FREE ENERGY PREDICTED BY IDOCK:   -4.65 KCAL/MOL
REMARK 922        TOTAL FREE ENERGY PREDICTED BY IDOCK:   -5.72 KCAL/MOL
REMARK 923 INTER-LIGAND FREE ENERGY PREDICTED BY IDOCK:   -5.30 KCAL/MOL
REMARK 924 INTRA-LIGAND FREE ENERGY PREDICTED BY IDOCK:   -0.42 KCAL/MOL
REMARK 927      BINDING AFFINITY PREDICTED BY RF-SCORE:    0.00 PKD
ROOT
HETATM    1  C   UNL     1     -11.391   6.623  69.423  1.00  0.00    -0.271 C  
HETATM    2  N   UNL     1     -10.179   7.581  69.485  1.00  0.00    -0.201 N  
HETATM    3  O   UNL     1      -6.355  10.892  70.831  1.00  0.00    -0.352 OA 
HETATM    4  C   UNL     1     -10.628   9.065  69.437  1.00  0.00    -0.221 C  
HETATM    5  C   UNL     1      -9.368   9.917  69.441  1.00  0.00    -0.226 C  
HETATM    6  C   UNL     1      -6.494  10.056  69.945  1.00  0.00    -0.077 C  
HETATM    7  C   UNL     1      -8.233   9.492  68.424  1.00  0.00    -0.113 C  
HETATM    8  C   UNL     1      -6.234   8.566  70.245  1.00  0.00    -0.034 C  
HETATM    9  H   UNL     1      -6.860   6.956  66.938  1.00  0.00     0.000 HD 
HETATM   10  C   UNL     1      -7.020  10.404  68.544  1.00  0.00    -0.062 C  
HETATM   11  O   UNL     1      -7.527  11.697  68.145  1.00  0.00    -0.091 OA 
HETATM   12  C   UNL     1      -8.398  11.360  67.115  1.00  0.00    -0.155 A  
HETATM   13  C   UNL     1      -9.091  12.162  66.259  1.00  0.00    -0.141 A  
HETATM   14  O   UNL     1      -9.077  13.511  66.393  1.00  0.00    -0.434 OA 
HETATM   15  C   UNL     1      -9.916  11.546  65.302  1.00  0.00    -0.302 A  
HETATM   16  C   UNL     1     -10.080  10.129  65.245  1.00  0.00    -0.344 A  
HETATM   17  H   UNL     1      -9.560  14.070  65.796  1.00  0.00     0.000 HD 
HETATM   18  C   UNL     1      -9.495   9.324  66.215  1.00  0.00    -0.284 A  
HETATM   19  C   UNL     1      -9.617   7.800  66.398  1.00  0.00    -0.235 C  
HETATM   20  C   UNL     1      -8.712  10.015  67.131  1.00  0.00    -0.132 A  
HETATM   21  C   UNL     1      -9.279   7.289  68.028  1.00  0.00    -0.131 C  
HETATM   22  C   UNL     1      -7.882   8.024  68.260  1.00  0.00    -0.123 C  
HETATM   23  O   UNL     1      -7.079   7.874  67.041  1.00  0.00    -0.075 OA 
HETATM   24  C   UNL     1      -6.839   7.520  69.282  1.00  0.00    -0.056 C  
ENDROOT
BRANCH   2  25
HETATM   25  C   UNL     1      -9.519   7.348  70.881  1.00  0.00    -0.165 C  
BRANCH  25  26
HETATM   26  C   UNL     1     -10.439   6.915  72.011  1.00  0.00    -0.229 C  
HETATM   27  C   UNL     1     -10.157   7.358  73.427  1.00  0.00    -0.389 C  
HETATM   28  C   UNL     1     -11.385   7.861  72.736  1.00  0.00    -0.453 C  
ENDBRANCH  25  26
ENDBRANCH   2  25
TORSDOF 2
ENDMDL
MODEL       65
REMARK 921   NORMALIZED FREE ENERGY PREDICTED BY IDOCK:   -4.63 KCAL/MOL
REMARK 922        TOTAL FREE ENERGY PREDICTED BY IDOCK:   -5.69 KCAL/MOL
REMARK 923 INTER-LIGAND FREE ENERGY PREDICTED BY IDOCK:   -5.31 KCAL/MOL
REMARK 924 INTRA-LIGAND FREE ENERGY PREDICTED BY IDOCK:   -0.38 KCAL/MOL
REMARK 927      BINDING AFFINITY PREDICTED BY RF-SCORE:    0.00 PKD
ROOT
HETATM    1  C   UNL     1     -10.839  17.705  67.731  1.00  0.00    -0.234 C  
HETATM    2  N   UNL     1     -10.003  16.418  67.550  1.00  0.00    -0.245 N  
HETATM    3  O   UNL     1      -6.273  12.807  66.877  1.00  0.00    -0.177 OA 
HETATM    4  C   UNL     1      -9.690  16.153  66.055  1.00  0.00    -0.344 C  
HETATM    5  C   UNL     1      -8.922  14.841  65.980  1.00  0.00     0.073 C  
HETATM    6  C   UNL     1      -7.380  12.810  67.404  1.00  0.00    -0.134 C  
HETATM    7  C   UNL     1      -9.529  13.629  66.797  1.00  0.00    -0.275 C  
HETATM    8  C   UNL     1      -7.549  13.346  68.839  1.00  0.00     0.018 C  
HETATM    9  H   UNL     1     -11.191  12.840  69.468  1.00  0.00     0.000 HD 
HETATM   10  C   UNL     1      -8.659  12.388  66.662  1.00  0.00    -0.075 C  
HETATM   11  O   UNL     1      -8.735  12.071  65.254  1.00  0.00     0.379 OA 
HETATM   12  C   UNL     1     -10.061  12.371  64.963  1.00  0.00    -0.247 A  
HETATM   13  C   UNL     1     -10.772  12.168  63.819  1.00  0.00    -0.437 A  
HETATM   14  O   UNL     1     -10.179  11.688  62.699  1.00  0.00    -0.576 OA 
HETATM   15  C   UNL     1     -12.116  12.578  63.797  1.00  0.00    -0.615 A  
HETATM   16  C   UNL     1     -12.723  13.239  64.908  1.00  0.00    -0.391 A  
HETATM   17  H   UNL     1     -10.675  11.545  61.900  1.00  0.00     0.000 HD 
HETATM   18  C   UNL     1     -11.954  13.584  66.014  1.00  0.00    -0.449 A  
HETATM   19  C   UNL     1     -12.376  14.373  67.267  1.00  0.00    -0.090 C  
HETATM   20  C   UNL     1     -10.635  13.155  65.944  1.00  0.00    -0.290 A  
HETATM   21  C   UNL     1     -11.027  15.118  68.078  1.00  0.00    -0.295 C  
HETATM   22  C   UNL     1     -10.056  13.859  68.203  1.00  0.00    -0.250 C  
HETATM   23  O   UNL     1     -10.862  12.695  68.589  1.00  0.00    -0.237 OA 
HETATM   24  C   UNL     1      -8.967  13.756  69.294  1.00  0.00     0.597 C  
ENDROOT
BRANCH   2  25
HETATM   25  C   UNL     1      -8.640  16.688  68.262  1.00  0.00    -0.212 C  
BRANCH  25  26
HETATM   26  C   UNL     1      -7.815  17.854  67.744  1.00  0.00    -0.221 C  
HETATM   27  C   UNL     1      -7.740  19.137  68.538  1.00  0.00    -0.376 C  
HETATM   28  C   UNL     1      -6.506  18.307  68.376  1.00  0.00    -0.208 C  
ENDBRANCH  25  26
ENDBRANCH   2  25
TORSDOF 2
ENDMDL
MODEL       66
REMARK 921   NORMALIZED FREE ENERGY PREDICTED BY IDOCK:   -4.62 KCAL/MOL
REMARK 922        TOTAL FREE ENERGY PREDICTED BY IDOCK:   -5.68 KCAL/MOL
REMARK 923 INTER-LIGAND FREE ENERGY PREDICTED BY IDOCK:   -5.00 KCAL/MOL
REMARK 924 INTRA-LIGAND FREE ENERGY PREDICTED BY IDOCK:   -0.69 KCAL/MOL
REMARK 927      BINDING AFFINITY PREDICTED BY RF-SCORE:    0.00 PKD
ROOT
HETATM    1  C   UNL     1     -10.772   7.624  67.326  1.00  0.00    -0.274 C  
HETATM    2  N   UNL     1     -10.120   9.020  67.455  1.00  0.00    -0.212 N  
HETATM    3  O   UNL     1      -8.175  13.619  69.025  1.00  0.00     0.056 OA 
HETATM    4  C   UNL     1     -11.189  10.143  67.484  1.00  0.00    -0.047 C  
HETATM    5  C   UNL     1     -10.448  11.470  67.550  1.00  0.00    -0.229 C  
HETATM    6  C   UNL     1      -7.936  12.859  68.093  1.00  0.00    -0.153 C  
HETATM    7  C   UNL     1      -9.258  11.657  66.523  1.00  0.00    -0.205 C  
HETATM    8  C   UNL     1      -7.029  11.633  68.312  1.00  0.00    -0.074 C  
HETATM    9  H   UNL     1      -6.913  10.096  64.915  1.00  0.00     0.000 HD 
HETATM   10  C   UNL     1      -8.584  13.009  66.707  1.00  0.00    -0.050 C  
HETATM   11  O   UNL     1      -9.625  13.955  66.375  1.00  0.00    -0.279 OA 
HETATM   12  C   UNL     1     -10.266  13.319  65.318  1.00  0.00    -0.290 A  
HETATM   13  C   UNL     1     -11.259  13.768  64.500  1.00  0.00    -0.373 A  
HETATM   14  O   UNL     1     -11.851  14.970  64.709  1.00  0.00    -0.387 OA 
HETATM   15  C   UNL     1     -11.733  12.900  63.502  1.00  0.00    -0.576 A  
HETATM   16  C   UNL     1     -11.242  11.567  63.364  1.00  0.00    -0.342 A  
HETATM   17  H   UNL     1     -12.544  15.283  64.139  1.00  0.00     0.000 HD 
HETATM   18  C   UNL     1     -10.342  11.059  64.294  1.00  0.00    -0.430 A  
HETATM   19  C   UNL     1      -9.762   9.636  64.391  1.00  0.00     0.101 C  
HETATM   20  C   UNL     1      -9.941  11.978  65.256  1.00  0.00    -0.273 A  
HETATM   21  C   UNL     1      -9.206   9.244  65.994  1.00  0.00    -0.262 C  
HETATM   22  C   UNL     1      -8.286  10.515  66.281  1.00  0.00    -0.147 C  
HETATM   23  O   UNL     1      -7.521  10.810  65.065  1.00  0.00     0.008 OA 
HETATM   24  C   UNL     1      -7.113  10.480  67.286  1.00  0.00    -0.088 C  
ENDROOT
BRANCH   2  25
HETATM   25  C   UNL     1      -9.404   9.033  68.843  1.00  0.00    -0.143 C  
BRANCH  25  26
HETATM   26  C   UNL     1      -8.848   7.708  69.340  1.00  0.00    -0.139 C  
HETATM   27  C   UNL     1      -7.443   7.294  68.971  1.00  0.00    -0.097 C  
HETATM   28  C   UNL     1      -7.762   7.596  70.401  1.00  0.00    -0.090 C  
ENDBRANCH  25  26
ENDBRANCH   2  25
TORSDOF 2
ENDMDL
MODEL       67
REMARK 921   NORMALIZED FREE ENERGY PREDICTED BY IDOCK:   -4.60 KCAL/MOL
REMARK 922        TOTAL FREE ENERGY PREDICTED BY IDOCK:   -5.65 KCAL/MOL
REMARK 923 INTER-LIGAND FREE ENERGY PREDICTED BY IDOCK:   -5.11 KCAL/MOL
REMARK 924 INTRA-LIGAND FREE ENERGY PREDICTED BY IDOCK:   -0.55 KCAL/MOL
REMARK 927      BINDING AFFINITY PREDICTED BY RF-SCORE:    0.00 PKD
ROOT
HETATM    1  C   UNL     1     -10.811  14.619  67.275  1.00  0.00    -0.305 C  
HETATM    2  N   UNL     1     -10.478  13.110  67.325  1.00  0.00    -0.242 N  
HETATM    3  O   UNL     1     -10.506   7.885  67.640  1.00  0.00    -0.228 OA 
HETATM    4  C   UNL     1     -10.386  12.598  68.785  1.00  0.00    -0.112 C  
HETATM    5  C   UNL     1      -9.997  11.129  68.726  1.00  0.00    -0.207 C  
HETATM    6  C   UNL     1      -9.772   8.709  67.105  1.00  0.00    -0.190 C  
HETATM    7  C   UNL     1      -8.784  10.765  67.775  1.00  0.00    -0.130 C  
HETATM    8  C   UNL     1     -10.153   9.304  65.736  1.00  0.00    -0.092 C  
HETATM    9  H   UNL     1      -7.282  11.576  65.017  1.00  0.00     0.000 HD 
HETATM   10  C   UNL     1      -8.512   9.268  67.784  1.00  0.00    -0.116 C  
HETATM   11  O   UNL     1      -8.116   9.003  69.148  1.00  0.00    -0.104 OA 
HETATM   12  C   UNL     1      -7.368  10.134  69.456  1.00  0.00    -0.123 A  
HETATM   13  C   UNL     1      -6.627  10.416  70.564  1.00  0.00    -0.069 A  
HETATM   14  O   UNL     1      -6.613   9.581  71.632  1.00  0.00    -0.299 OA 
HETATM   15  C   UNL     1      -5.968  11.656  70.617  1.00  0.00    -0.006 A  
HETATM   16  C   UNL     1      -6.099  12.627  69.578  1.00  0.00    -0.119 A  
HETATM   17  H   UNL     1      -6.096   9.778  72.405  1.00  0.00     0.000 HD 
HETATM   18  C   UNL     1      -6.977  12.400  68.524  1.00  0.00    -0.092 A  
HETATM   19  C   UNL     1      -7.341  13.339  67.360  1.00  0.00    -0.125 C  
HETATM   20  C   UNL     1      -7.599  11.158  68.560  1.00  0.00    -0.120 A  
HETATM   21  C   UNL     1      -8.885  12.961  66.647  1.00  0.00    -0.098 C  
HETATM   22  C   UNL     1      -8.693  11.397  66.397  1.00  0.00    -0.185 C  
HETATM   23  O   UNL     1      -7.338  11.180  65.878  1.00  0.00    -0.036 OA 
HETATM   24  C   UNL     1      -9.479  10.629  65.313  1.00  0.00    -0.270 C  
ENDROOT
BRANCH   2  25
HETATM   25  C   UNL     1     -11.689  12.381  66.660  1.00  0.00    -0.372 C  
BRANCH  25  26
HETATM   26  C   UNL     1     -12.315  13.057  65.451  1.00  0.00    -0.538 C  
HETATM   27  C   UNL     1     -11.491  13.294  64.207  1.00  0.00    -0.435 C  
HETATM   28  C   UNL     1     -12.634  12.331  64.152  1.00  0.00    -0.493 C  
ENDBRANCH  25  26
ENDBRANCH   2  25
TORSDOF 2
ENDMDL
MODEL       68
REMARK 921   NORMALIZED FREE ENERGY PREDICTED BY IDOCK:   -4.57 KCAL/MOL
REMARK 922        TOTAL FREE ENERGY PREDICTED BY IDOCK:   -5.63 KCAL/MOL
REMARK 923 INTER-LIGAND FREE ENERGY PREDICTED BY IDOCK:   -5.09 KCAL/MOL
REMARK 924 INTRA-LIGAND FREE ENERGY PREDICTED BY IDOCK:   -0.54 KCAL/MOL
REMARK 927      BINDING AFFINITY PREDICTED BY RF-SCORE:    0.00 PKD
ROOT
HETATM    1  C   UNL     1     -10.847  11.371  64.386  1.00  0.00    -0.330 C  
HETATM    2  N   UNL     1      -9.850  10.925  65.479  1.00  0.00    -0.231 N  
HETATM    3  O   UNL     1      -6.132   8.642  68.371  1.00  0.00    -0.048 OA 
HETATM    4  C   UNL     1     -10.366   9.675  66.238  1.00  0.00    -0.160 C  
HETATM    5  C   UNL     1      -9.350   9.356  67.325  1.00  0.00    -0.159 C  
HETATM    6  C   UNL     1      -6.647   9.755  68.358  1.00  0.00    -0.056 C  
HETATM    7  C   UNL     1      -8.875  10.574  68.217  1.00  0.00    -0.139 C  
HETATM    8  C   UNL     1      -6.162  10.816  67.351  1.00  0.00    -0.055 C  
HETATM    9  H   UNL     1      -8.286  13.764  68.197  1.00  0.00     0.000 HD 
HETATM   10  C   UNL     1      -7.845  10.131  69.245  1.00  0.00    -0.134 C  
HETATM   11  O   UNL     1      -8.577   9.211  70.085  1.00  0.00    -0.146 OA 
HETATM   12  C   UNL     1      -9.828   9.815  70.152  1.00  0.00    -0.255 A  
HETATM   13  C   UNL     1     -10.919   9.484  70.897  1.00  0.00    -0.337 A  
HETATM   14  O   UNL     1     -10.935   8.362  71.659  1.00  0.00    -0.246 OA 
HETATM   15  C   UNL     1     -12.072  10.276  70.764  1.00  0.00    -0.451 A  
HETATM   16  C   UNL     1     -12.139  11.366  69.845  1.00  0.00    -0.404 A  
HETATM   17  H   UNL     1     -11.697   8.131  72.180  1.00  0.00     0.000 HD 
HETATM   18  C   UNL     1     -11.080  11.605  68.976  1.00  0.00    -0.297 A  
HETATM   19  C   UNL     1     -10.979  12.654  67.853  1.00  0.00    -0.262 C  
HETATM   20  C   UNL     1      -9.989  10.765  69.164  1.00  0.00    -0.206 A  
HETATM   21  C   UNL     1      -9.812  12.223  66.634  1.00  0.00    -0.230 C  
HETATM   22  C   UNL     1      -8.554  11.906  67.561  1.00  0.00    -0.160 C  
HETATM   23  O   UNL     1      -8.487  12.931  68.608  1.00  0.00    -0.085 OA 
HETATM   24  C   UNL     1      -7.100  12.007  67.050  1.00  0.00    -0.091 C  
ENDROOT
BRANCH   2  25
HETATM   25  C   UNL     1      -8.550  10.500  64.727  1.00  0.00    -0.166 C  
BRANCH  25  26
HETATM   26  C   UNL     1      -8.670   9.341  63.750  1.00  0.00    -0.190 C  
HETATM   27  C   UNL     1      -7.542   9.042  62.791  1.00  0.00    -0.106 C  
HETATM   28  C   UNL     1      -7.866   8.054  63.867  1.00  0.00    -0.142 C  
ENDBRANCH  25  26
ENDBRANCH   2  25
TORSDOF 2
ENDMDL
MODEL       69
REMARK 921   NORMALIZED FREE ENERGY PREDICTED BY IDOCK:   -4.51 KCAL/MOL
REMARK 922        TOTAL FREE ENERGY PREDICTED BY IDOCK:   -5.56 KCAL/MOL
REMARK 923 INTER-LIGAND FREE ENERGY PREDICTED BY IDOCK:   -4.90 KCAL/MOL
REMARK 924 INTRA-LIGAND FREE ENERGY PREDICTED BY IDOCK:   -0.66 KCAL/MOL
REMARK 927      BINDING AFFINITY PREDICTED BY RF-SCORE:    0.00 PKD
ROOT
HETATM    1  C   UNL     1      -9.065   4.441  67.395  1.00  0.00    -0.132 C  
HETATM    2  N   UNL     1      -8.702   5.786  68.066  1.00  0.00    -0.104 N  
HETATM    3  O   UNL     1      -6.392  10.083  69.962  1.00  0.00    -0.057 OA 
HETATM    4  C   UNL     1      -8.102   5.569  69.479  1.00  0.00    -0.101 C  
HETATM    5  C   UNL     1      -7.837   6.944  70.074  1.00  0.00    -0.110 C  
HETATM    6  C   UNL     1      -7.531   9.810  69.600  1.00  0.00    -0.113 C  
HETATM    7  C   UNL     1      -9.019   7.991  69.965  1.00  0.00    -0.144 C  
HETATM    8  C   UNL     1      -7.891   9.843  68.102  1.00  0.00    -0.085 C  
HETATM    9  H   UNL     1     -11.513   8.946  68.123  1.00  0.00     0.000 HD 
HETATM   10  C   UNL     1      -8.622   9.329  70.570  1.00  0.00    -0.233 C  
HETATM   11  O   UNL     1      -8.414   9.022  71.967  1.00  0.00    -0.368 OA 
HETATM   12  C   UNL     1      -9.426   8.100  72.212  1.00  0.00    -0.245 A  
HETATM   13  C   UNL     1      -9.822   7.529  73.384  1.00  0.00    -0.310 A  
HETATM   14  O   UNL     1      -9.145   7.751  74.538  1.00  0.00    -0.419 OA 
HETATM   15  C   UNL     1     -10.885   6.611  73.343  1.00  0.00    -0.264 A  
HETATM   16  C   UNL     1     -11.510   6.232  72.116  1.00  0.00    -0.354 A  
HETATM   17  H   UNL     1      -9.422   7.353  75.355  1.00  0.00     0.000 HD 
HETATM   18  C   UNL     1     -11.003   6.697  70.908  1.00  0.00    -0.315 A  
HETATM   19  C   UNL     1     -11.456   6.346  69.479  1.00  0.00    -0.412 C  
HETATM   20  C   UNL     1      -9.942   7.585  71.040  1.00  0.00    -0.189 A  
HETATM   21  C   UNL     1     -10.210   6.617  68.292  1.00  0.00    -0.190 C  
HETATM   22  C   UNL     1      -9.799   8.112  68.667  1.00  0.00    -0.183 C  
HETATM   23  O   UNL     1     -11.026   8.871  68.935  1.00  0.00    -0.083 OA 
HETATM   24  C   UNL     1      -9.153   9.075  67.646  1.00  0.00    -0.144 C  
ENDROOT
BRANCH   2  25
HETATM   25  C   UNL     1      -7.578   6.416  67.184  1.00  0.00    -0.096 C  
BRANCH  25  26
HETATM   26  C   UNL     1      -7.620   6.105  65.696  1.00  0.00    -0.085 C  
HETATM   27  C   UNL     1      -8.030   7.176  64.713  1.00  0.00    -0.122 C  
HETATM   28  C   UNL     1      -6.624   6.665  64.691  1.00  0.00    -0.042 C  
ENDBRANCH  25  26
ENDBRANCH   2  25
TORSDOF 2
ENDMDL
MODEL       70
REMARK 921   NORMALIZED FREE ENERGY PREDICTED BY IDOCK:   -4.51 KCAL/MOL
REMARK 922        TOTAL FREE ENERGY PREDICTED BY IDOCK:   -5.55 KCAL/MOL
REMARK 923 INTER-LIGAND FREE ENERGY PREDICTED BY IDOCK:   -5.09 KCAL/MOL
REMARK 924 INTRA-LIGAND FREE ENERGY PREDICTED BY IDOCK:   -0.46 KCAL/MOL
REMARK 927      BINDING AFFINITY PREDICTED BY RF-SCORE:    0.00 PKD
ROOT
HETATM    1  C   UNL     1      -6.838  11.273  66.216  1.00  0.00    -0.001 C  
HETATM    2  N   UNL     1      -8.052  11.783  67.026  1.00  0.00    -0.164 N  
HETATM    3  O   UNL     1     -11.423  14.355  70.095  1.00  0.00    -0.263 OA 
HETATM    4  C   UNL     1      -7.969  11.339  68.509  1.00  0.00    -0.145 C  
HETATM    5  C   UNL     1      -9.230  11.835  69.200  1.00  0.00     0.372 C  
HETATM    6  C   UNL     1     -11.538  13.624  69.118  1.00  0.00    -0.309 C  
HETATM    7  C   UNL     1     -10.596  11.543  68.455  1.00  0.00    -0.227 C  
HETATM    8  C   UNL     1     -11.344  14.197  67.700  1.00  0.00    -0.342 C  
HETATM    9  H   UNL     1     -11.971  11.225  65.534  1.00  0.00     0.000 HD 
HETATM   10  C   UNL     1     -11.775  12.110  69.232  1.00  0.00    -0.328 C  
HETATM   11  O   UNL     1     -11.762  11.358  70.466  1.00  0.00    -0.320 OA 
HETATM   12  C   UNL     1     -11.399  10.089  70.026  1.00  0.00    -0.275 A  
HETATM   13  C   UNL     1     -11.333   8.913  70.710  1.00  0.00    -0.278 A  
HETATM   14  O   UNL     1     -11.546   8.866  72.049  1.00  0.00    -0.351 OA 
HETATM   15  C   UNL     1     -10.925   7.766  70.010  1.00  0.00    -0.218 A  
HETATM   16  C   UNL     1     -10.535   7.817  68.637  1.00  0.00    -0.199 A  
HETATM   17  H   UNL     1     -11.500   8.045  72.526  1.00  0.00     0.000 HD 
HETATM   18  C   UNL     1     -10.454   9.042  67.985  1.00  0.00    -0.270 A  
HETATM   19  C   UNL     1      -9.972   9.336  66.552  1.00  0.00    -0.344 C  
HETATM   20  C   UNL     1     -10.859  10.124  68.756  1.00  0.00    -0.259 A  
HETATM   21  C   UNL     1      -9.436  10.980  66.347  1.00  0.00    -0.218 C  
HETATM   22  C   UNL     1     -10.693  11.754  66.954  1.00  0.00    -0.250 C  
HETATM   23  O   UNL     1     -11.911  11.093  66.473  1.00  0.00     0.031 OA 
HETATM   24  C   UNL     1     -11.046  13.204  66.555  1.00  0.00    -0.317 C  
ENDROOT
BRANCH   2  25
HETATM   25  C   UNL     1      -7.956  13.341  67.008  1.00  0.00     0.029 C  
BRANCH  25  26
HETATM   26  C   UNL     1      -6.963  13.978  67.966  1.00  0.00    -0.147 C  
HETATM   27  C   UNL     1      -6.296  15.285  67.604  1.00  0.00    -0.171 C  
HETATM   28  C   UNL     1      -7.250  15.247  68.756  1.00  0.00    -0.127 C  
ENDBRANCH  25  26
ENDBRANCH   2  25
TORSDOF 2
ENDMDL
MODEL       71
REMARK 921   NORMALIZED FREE ENERGY PREDICTED BY IDOCK:   -4.51 KCAL/MOL
REMARK 922        TOTAL FREE ENERGY PREDICTED BY IDOCK:   -5.55 KCAL/MOL
REMARK 923 INTER-LIGAND FREE ENERGY PREDICTED BY IDOCK:   -5.12 KCAL/MOL
REMARK 924 INTRA-LIGAND FREE ENERGY PREDICTED BY IDOCK:   -0.43 KCAL/MOL
REMARK 927      BINDING AFFINITY PREDICTED BY RF-SCORE:    0.00 PKD
ROOT
HETATM    1  C   UNL     1      -6.311   8.583  68.945  1.00  0.00    -0.045 C  
HETATM    2  N   UNL     1      -7.738   8.830  69.484  1.00  0.00    -0.087 N  
HETATM    3  O   UNL     1     -12.133  10.710  71.619  1.00  0.00    -0.255 OA 
HETATM    4  C   UNL     1      -7.817   8.576  71.012  1.00  0.00    -0.110 C  
HETATM    5  C   UNL     1      -9.265   8.786  71.430  1.00  0.00    -0.325 C  
HETATM    6  C   UNL     1     -11.887   9.880  70.751  1.00  0.00    -0.330 C  
HETATM    7  C   UNL     1     -10.360   8.069  70.540  1.00  0.00    -0.205 C  
HETATM    8  C   UNL     1     -11.587  10.339  69.311  1.00  0.00    -0.186 C  
HETATM    9  H   UNL     1     -11.066   7.106  67.524  1.00  0.00     0.000 HD 
HETATM   10  C   UNL     1     -11.762   8.376  71.044  1.00  0.00    -0.267 C  
HETATM   11  O   UNL     1     -11.787   7.782  72.361  1.00  0.00    -0.324 OA 
HETATM   12  C   UNL     1     -11.052   6.618  72.167  1.00  0.00    -0.254 A  
HETATM   13  C   UNL     1     -10.824   5.577  73.014  1.00  0.00    -0.274 A  
HETATM   14  O   UNL     1     -11.256   5.609  74.299  1.00  0.00    -0.263 OA 
HETATM   15  C   UNL     1     -10.028   4.515  72.554  1.00  0.00    -0.225 A  
HETATM   16  C   UNL     1      -9.421   4.530  71.261  1.00  0.00    -0.222 A  
HETATM   17  H   UNL     1     -11.098   4.882  74.891  1.00  0.00     0.000 HD 
HETATM   18  C   UNL     1      -9.527   5.661  70.459  1.00  0.00    -0.203 A  
HETATM   19  C   UNL     1      -8.882   5.927  69.087  1.00  0.00    -0.117 C  
HETATM   20  C   UNL     1     -10.317   6.668  70.999  1.00  0.00    -0.234 A  
HETATM   21  C   UNL     1      -8.737   7.626  68.730  1.00  0.00    -0.128 C  
HETATM   22  C   UNL     1     -10.233   8.094  69.027  1.00  0.00    -0.220 C  
HETATM   23  O   UNL     1     -11.146   7.089  68.470  1.00  0.00    -0.122 OA 
HETATM   24  C   UNL     1     -10.853   9.351  68.376  1.00  0.00    -0.156 C  
ENDROOT
BRANCH   2  25
HETATM   25  C   UNL     1      -8.025  10.349  69.257  1.00  0.00    -0.157 C  
BRANCH  25  26
HETATM   26  C   UNL     1      -7.860  10.873  67.840  1.00  0.00    -0.109 C  
HETATM   27  C   UNL     1      -8.358  12.254  67.484  1.00  0.00    -0.170 C  
HETATM   28  C   UNL     1      -6.887  11.980  67.460  1.00  0.00    -0.128 C  
ENDBRANCH  25  26
ENDBRANCH   2  25
TORSDOF 2
ENDMDL
MODEL       72
REMARK 921   NORMALIZED FREE ENERGY PREDICTED BY IDOCK:   -4.47 KCAL/MOL
REMARK 922        TOTAL FREE ENERGY PREDICTED BY IDOCK:   -5.51 KCAL/MOL
REMARK 923 INTER-LIGAND FREE ENERGY PREDICTED BY IDOCK:   -5.09 KCAL/MOL
REMARK 924 INTRA-LIGAND FREE ENERGY PREDICTED BY IDOCK:   -0.43 KCAL/MOL
REMARK 927      BINDING AFFINITY PREDICTED BY RF-SCORE:    0.00 PKD
ROOT
HETATM    1  C   UNL     1     -11.671   9.875  70.885  1.00  0.00    -0.364 C  
HETATM    2  N   UNL     1     -10.636   9.387  69.846  1.00  0.00    -0.222 N  
HETATM    3  O   UNL     1      -6.913   6.909  67.126  1.00  0.00    -0.069 OA 
HETATM    4  C   UNL     1      -9.210   9.890  70.189  1.00  0.00    -0.135 C  
HETATM    5  C   UNL     1      -8.283   9.411  69.081  1.00  0.00    -0.112 C  
HETATM    6  C   UNL     1      -7.880   7.600  66.825  1.00  0.00    -0.107 C  
HETATM    7  C   UNL     1      -8.780   9.661  67.599  1.00  0.00    -0.126 C  
HETATM    8  C   UNL     1      -9.286   6.972  66.769  1.00  0.00    -0.191 C  
HETATM    9  H   UNL     1     -11.413   9.850  65.714  1.00  0.00     0.000 HD 
HETATM   10  C   UNL     1      -7.782   9.115  66.588  1.00  0.00    -0.097 C  
HETATM   11  O   UNL     1      -6.600   9.915  66.812  1.00  0.00    -0.069 OA 
HETATM   12  C   UNL     1      -7.145  11.169  67.069  1.00  0.00    -0.124 A  
HETATM   13  C   UNL     1      -6.528  12.371  67.239  1.00  0.00    -0.140 A  
HETATM   14  O   UNL     1      -5.176  12.470  67.271  1.00  0.00    -0.226 OA 
HETATM   15  C   UNL     1      -7.334  13.494  67.496  1.00  0.00    -0.174 A  
HETATM   16  C   UNL     1      -8.752  13.392  67.632  1.00  0.00    -0.198 A  
HETATM   17  H   UNL     1      -4.746  13.309  67.389  1.00  0.00     0.000 HD 
HETATM   18  C   UNL     1      -9.361  12.142  67.613  1.00  0.00    -0.187 A  
HETATM   19  C   UNL     1     -10.845  11.796  67.834  1.00  0.00    -0.255 C  
HETATM   20  C   UNL     1      -8.490  11.088  67.372  1.00  0.00    -0.132 A  
HETATM   21  C   UNL     1     -11.082  10.150  68.350  1.00  0.00    -0.273 C  
HETATM   22  C   UNL     1     -10.230   9.390  67.236  1.00  0.00    -0.246 C  
HETATM   23  O   UNL     1     -10.506  10.020  65.940  1.00  0.00    -0.174 OA 
HETATM   24  C   UNL     1     -10.503   7.922  66.840  1.00  0.00    -0.388 C  
ENDROOT
BRANCH   2  25
HETATM   25  C   UNL     1     -10.613   7.830  69.962  1.00  0.00    -0.238 C  
BRANCH  25  26
HETATM   26  C   UNL     1     -10.496   7.249  71.361  1.00  0.00    -0.219 C  
HETATM   27  C   UNL     1     -11.604   6.383  71.914  1.00  0.00    -0.367 C  
HETATM   28  C   UNL     1     -10.266   5.771  71.643  1.00  0.00    -0.253 C  
ENDBRANCH  25  26
ENDBRANCH   2  25
TORSDOF 2
ENDMDL
MODEL       73
REMARK 921   NORMALIZED FREE ENERGY PREDICTED BY IDOCK:   -4.44 KCAL/MOL
REMARK 922        TOTAL FREE ENERGY PREDICTED BY IDOCK:   -5.48 KCAL/MOL
REMARK 923 INTER-LIGAND FREE ENERGY PREDICTED BY IDOCK:   -5.00 KCAL/MOL
REMARK 924 INTRA-LIGAND FREE ENERGY PREDICTED BY IDOCK:   -0.48 KCAL/MOL
REMARK 927      BINDING AFFINITY PREDICTED BY RF-SCORE:    0.00 PKD
ROOT
HETATM    1  C   UNL     1     -10.973   7.113  67.437  1.00  0.00    -0.226 C  
HETATM    2  N   UNL     1     -10.000   8.246  67.836  1.00  0.00    -0.174 N  
HETATM    3  O   UNL     1      -6.713  11.543  70.228  1.00  0.00    -0.126 OA 
HETATM    4  C   UNL     1     -10.737   9.386  68.586  1.00  0.00    -0.160 C  
HETATM    5  C   UNL     1      -9.711  10.470  68.878  1.00  0.00    -0.206 C  
HETATM    6  C   UNL     1      -6.888  11.200  69.064  1.00  0.00    -0.092 C  
HETATM    7  C   UNL     1      -8.790  10.906  67.667  1.00  0.00    -0.133 C  
HETATM    8  C   UNL     1      -6.269   9.886  68.548  1.00  0.00    -0.049 C  
HETATM    9  H   UNL     1      -7.330   9.844  64.971  1.00  0.00     0.000 HD 
HETATM   10  C   UNL     1      -7.794  11.974  68.093  1.00  0.00    -0.145 C  
HETATM   11  O   UNL     1      -8.631  13.095  68.453  1.00  0.00    -0.172 OA 
HETATM   12  C   UNL     1      -9.637  13.023  67.496  1.00  0.00    -0.204 A  
HETATM   13  C   UNL     1     -10.661  13.883  67.238  1.00  0.00    -0.284 A  
HETATM   14  O   UNL     1     -10.887  14.962  68.027  1.00  0.00    -0.251 OA 
HETATM   15  C   UNL     1     -11.550  13.557  66.199  1.00  0.00    -0.371 A  
HETATM   16  C   UNL     1     -11.433  12.342  65.458  1.00  0.00    -0.408 A  
HETATM   17  H   UNL     1     -11.602  15.563  67.847  1.00  0.00     0.000 HD 
HETATM   18  C   UNL     1     -10.483  11.395  65.825  1.00  0.00    -0.314 A  
HETATM   19  C   UNL     1     -10.248   9.993  65.233  1.00  0.00    -0.196 C  
HETATM   20  C   UNL     1      -9.660  11.791  66.871  1.00  0.00    -0.204 A  
HETATM   21  C   UNL     1      -9.434   8.923  66.340  1.00  0.00    -0.283 C  
HETATM   22  C   UNL     1      -8.200   9.846  66.752  1.00  0.00    -0.124 C  
HETATM   23  O   UNL     1      -7.699  10.508  65.543  1.00  0.00    -0.152 OA 
HETATM   24  C   UNL     1      -6.864   9.264  67.264  1.00  0.00    -0.080 C  
ENDROOT
BRANCH   2  25
HETATM   25  C   UNL     1      -8.992   7.610  68.846  1.00  0.00    -0.137 C  
BRANCH  25  26
HETATM   26  C   UNL     1      -9.473   6.393  69.620  1.00  0.00    -0.154 C  
HETATM   27  C   UNL     1      -8.789   5.999  70.908  1.00  0.00    -0.136 C  
HETATM   28  C   UNL     1     -10.206   6.478  70.951  1.00  0.00    -0.220 C  
ENDBRANCH  25  26
ENDBRANCH   2  25
TORSDOF 2
ENDMDL
MODEL       74
REMARK 921   NORMALIZED FREE ENERGY PREDICTED BY IDOCK:   -4.43 KCAL/MOL
REMARK 922        TOTAL FREE ENERGY PREDICTED BY IDOCK:   -5.46 KCAL/MOL
REMARK 923 INTER-LIGAND FREE ENERGY PREDICTED BY IDOCK:   -4.95 KCAL/MOL
REMARK 924 INTRA-LIGAND FREE ENERGY PREDICTED BY IDOCK:   -0.52 KCAL/MOL
REMARK 927      BINDING AFFINITY PREDICTED BY RF-SCORE:    0.00 PKD
ROOT
HETATM    1  C   UNL     1     -10.535  10.075  70.206  1.00  0.00    -0.272 C  
HETATM    2  N   UNL     1     -10.450  10.589  68.750  1.00  0.00    -0.184 N  
HETATM    3  O   UNL     1     -11.322  12.445  63.934  1.00  0.00    -0.362 OA 
HETATM    4  C   UNL     1     -10.807   9.473  67.735  1.00  0.00    -0.195 C  
HETATM    5  C   UNL     1     -10.635  10.059  66.341  1.00  0.00    -0.138 C  
HETATM    6  C   UNL     1     -10.364  12.460  64.699  1.00  0.00    -0.307 C  
HETATM    7  C   UNL     1      -9.288  10.847  66.076  1.00  0.00    -0.215 C  
HETATM    8  C   UNL     1     -10.294  13.510  65.825  1.00  0.00    -0.296 C  
HETATM    9  H   UNL     1      -7.034  12.724  67.461  1.00  0.00     0.000 HD 
HETATM   10  C   UNL     1      -9.249  11.403  64.660  1.00  0.00    -0.015 C  
HETATM   11  O   UNL     1      -9.254  10.220  63.830  1.00  0.00    -0.228 OA 
HETATM   12  C   UNL     1      -8.452   9.351  64.561  1.00  0.00    -0.177 A  
HETATM   13  C   UNL     1      -7.983   8.114  64.238  1.00  0.00    -0.144 A  
HETATM   14  O   UNL     1      -8.363   7.496  63.092  1.00  0.00    -0.359 OA 
HETATM   15  C   UNL     1      -7.185   7.445  65.181  1.00  0.00    -0.066 A  
HETATM   16  C   UNL     1      -6.904   8.002  66.466  1.00  0.00    -0.067 A  
HETATM   17  H   UNL     1      -8.035   6.633  62.866  1.00  0.00     0.000 HD 
HETATM   18  C   UNL     1      -7.510   9.193  66.852  1.00  0.00    -0.091 A  
HETATM   19  C   UNL     1      -7.426   9.915  68.209  1.00  0.00    -0.080 C  
HETATM   20  C   UNL     1      -8.296   9.776  65.866  1.00  0.00    -0.128 A  
HETATM   21  C   UNL     1      -8.777  10.978  68.490  1.00  0.00    -0.159 C  
HETATM   22  C   UNL     1      -8.759  11.807  67.127  1.00  0.00    -0.169 C  
HETATM   23  O   UNL     1      -7.364  12.124  66.803  1.00  0.00    -0.059 OA 
HETATM   24  C   UNL     1      -9.349  13.230  67.015  1.00  0.00    -0.242 C  
ENDROOT
BRANCH   2  25
HETATM   25  C   UNL     1     -11.546  11.694  68.621  1.00  0.00    -0.312 C  
BRANCH  25  26
HETATM   26  C   UNL     1     -11.696  12.652  69.791  1.00  0.00    -0.354 C  
HETATM   27  C   UNL     1     -11.164  14.062  69.685  1.00  0.00    -0.218 C  
HETATM   28  C   UNL     1     -12.641  13.845  69.788  1.00  0.00    -0.113 C  
ENDBRANCH  25  26
ENDBRANCH   2  25
TORSDOF 2
ENDMDL
MODEL       75
REMARK 921   NORMALIZED FREE ENERGY PREDICTED BY IDOCK:   -4.42 KCAL/MOL
REMARK 922        TOTAL FREE ENERGY PREDICTED BY IDOCK:   -5.45 KCAL/MOL
REMARK 923 INTER-LIGAND FREE ENERGY PREDICTED BY IDOCK:   -4.92 KCAL/MOL
REMARK 924 INTRA-LIGAND FREE ENERGY PREDICTED BY IDOCK:   -0.53 KCAL/MOL
REMARK 927      BINDING AFFINITY PREDICTED BY RF-SCORE:    0.00 PKD
ROOT
HETATM    1  C   UNL     1     -11.871  12.208  67.853  1.00  0.00    -0.269 C  
HETATM    2  N   UNL     1     -10.545  11.431  67.689  1.00  0.00    -0.193 N  
HETATM    3  O   UNL     1      -6.029   9.323  66.087  1.00  0.00    -0.056 OA 
HETATM    4  C   UNL     1     -10.749  10.130  66.871  1.00  0.00    -0.161 C  
HETATM    5  C   UNL     1      -9.408   9.413  66.820  1.00  0.00    -0.202 C  
HETATM    6  C   UNL     1      -6.514   9.582  67.183  1.00  0.00    -0.066 C  
HETATM    7  C   UNL     1      -8.642   9.265  68.197  1.00  0.00    -0.125 C  
HETATM    8  C   UNL     1      -6.429  11.016  67.742  1.00  0.00    -0.063 C  
HETATM    9  H   UNL     1      -8.101  10.688  71.061  1.00  0.00     0.000 HD 
HETATM   10  C   UNL     1      -7.308   8.557  68.008  1.00  0.00    -0.092 C  
HETATM   11  O   UNL     1      -7.685   7.238  67.554  1.00  0.00    -0.107 OA 
HETATM   12  C   UNL     1      -8.826   6.988  68.308  1.00  0.00    -0.126 A  
HETATM   13  C   UNL     1      -9.572   5.854  68.414  1.00  0.00    -0.122 A  
HETATM   14  O   UNL     1      -9.311   4.766  67.648  1.00  0.00    -0.126 OA 
HETATM   15  C   UNL     1     -10.695   5.881  69.259  1.00  0.00    -0.401 A  
HETATM   16  C   UNL     1     -11.092   7.064  69.952  1.00  0.00    -0.301 A  
HETATM   17  H   UNL     1      -9.831   3.975  67.722  1.00  0.00     0.000 HD 
HETATM   18  C   UNL     1     -10.421   8.260  69.722  1.00  0.00    -0.220 A  
HETATM   19  C   UNL     1     -10.735   9.659  70.282  1.00  0.00    -0.335 C  
HETATM   20  C   UNL     1      -9.336   8.147  68.861  1.00  0.00    -0.147 A  
HETATM   21  C   UNL     1     -10.090  10.940  69.293  1.00  0.00    -0.164 C  
HETATM   22  C   UNL     1      -8.581  10.443  69.154  1.00  0.00    -0.164 C  
HETATM   23  O   UNL     1      -8.139   9.951  70.463  1.00  0.00    -0.230 OA 
HETATM   24  C   UNL     1      -7.412  11.411  68.867  1.00  0.00    -0.113 C  
ENDROOT
BRANCH   2  25
HETATM   25  C   UNL     1      -9.606  12.356  66.851  1.00  0.00    -0.219 C  
BRANCH  25  26
HETATM   26  C   UNL     1      -9.894  13.848  66.899  1.00  0.00    -0.268 C  
HETATM   27  C   UNL     1      -8.797  14.839  66.587  1.00  0.00    -0.262 C  
HETATM   28  C   UNL     1      -9.967  14.731  65.661  1.00  0.00    -0.390 C  
ENDBRANCH  25  26
ENDBRANCH   2  25
TORSDOF 2
ENDMDL
MODEL       76
REMARK 921   NORMALIZED FREE ENERGY PREDICTED BY IDOCK:   -4.41 KCAL/MOL
REMARK 922        TOTAL FREE ENERGY PREDICTED BY IDOCK:   -5.44 KCAL/MOL
REMARK 923 INTER-LIGAND FREE ENERGY PREDICTED BY IDOCK:   -4.86 KCAL/MOL
REMARK 924 INTRA-LIGAND FREE ENERGY PREDICTED BY IDOCK:   -0.58 KCAL/MOL
REMARK 927      BINDING AFFINITY PREDICTED BY RF-SCORE:    0.00 PKD
ROOT
HETATM    1  C   UNL     1      -7.779   4.705  70.725  1.00  0.00    -0.061 C  
HETATM    2  N   UNL     1      -8.069   5.769  69.641  1.00  0.00    -0.103 N  
HETATM    3  O   UNL     1      -7.883   9.387  65.863  1.00  0.00    -0.098 OA 
HETATM    4  C   UNL     1      -7.890   7.205  70.197  1.00  0.00    -0.108 C  
HETATM    5  C   UNL     1      -8.255   8.170  69.079  1.00  0.00    -0.127 C  
HETATM    6  C   UNL     1      -8.717   8.562  66.222  1.00  0.00    -0.142 C  
HETATM    7  C   UNL     1      -9.610   7.875  68.316  1.00  0.00    -0.164 C  
HETATM    8  C   UNL     1      -8.597   7.097  65.759  1.00  0.00    -0.143 C  
HETATM    9  H   UNL     1     -11.594   5.511  67.317  1.00  0.00     0.000 HD 
HETATM   10  C   UNL     1      -9.847   8.892  67.209  1.00  0.00    -0.199 C  
HETATM   11  O   UNL     1      -9.989  10.142  67.921  1.00  0.00    -0.155 OA 
HETATM   12  C   UNL     1     -10.692   9.749  69.055  1.00  0.00    -0.217 A  
HETATM   13  C   UNL     1     -11.229  10.503  70.054  1.00  0.00    -0.315 A  
HETATM   14  O   UNL     1     -11.037  11.844  70.104  1.00  0.00    -0.438 OA 
HETATM   15  C   UNL     1     -11.893   9.836  71.098  1.00  0.00    -0.466 A  
HETATM   16  C   UNL     1     -11.968   8.411  71.158  1.00  0.00    -0.301 A  
HETATM   17  H   UNL     1     -11.412  12.370  70.801  1.00  0.00     0.000 HD 
HETATM   18  C   UNL     1     -11.287   7.641  70.222  1.00  0.00    -0.197 A  
HETATM   19  C   UNL     1     -11.154   6.109  70.155  1.00  0.00    -0.448 C  
HETATM   20  C   UNL     1     -10.644   8.381  69.237  1.00  0.00    -0.193 A  
HETATM   21  C   UNL     1      -9.754   5.594  69.255  1.00  0.00    -0.205 C  
HETATM   22  C   UNL     1      -9.956   6.450  67.924  1.00  0.00    -0.131 C  
HETATM   23  O   UNL     1     -11.377   6.403  67.562  1.00  0.00    -0.274 OA 
HETATM   24  C   UNL     1      -9.361   6.021  66.564  1.00  0.00    -0.166 C  
ENDROOT
BRANCH   2  25
HETATM   25  C   UNL     1      -6.981   5.565  68.539  1.00  0.00    -0.064 C  
BRANCH  25  26
HETATM   26  C   UNL     1      -6.591   4.132  68.218  1.00  0.00    -0.046 C  
HETATM   27  C   UNL     1      -7.602   3.194  67.601  1.00  0.00    -0.061 C  
HETATM   28  C   UNL     1      -6.407   3.607  66.801  1.00  0.00    -0.036 C  
ENDBRANCH  25  26
ENDBRANCH   2  25
TORSDOF 2
ENDMDL
MODEL       77
REMARK 921   NORMALIZED FREE ENERGY PREDICTED BY IDOCK:   -4.37 KCAL/MOL
REMARK 922        TOTAL FREE ENERGY PREDICTED BY IDOCK:   -5.40 KCAL/MOL
REMARK 923 INTER-LIGAND FREE ENERGY PREDICTED BY IDOCK:   -4.77 KCAL/MOL
REMARK 924 INTRA-LIGAND FREE ENERGY PREDICTED BY IDOCK:   -0.64 KCAL/MOL
REMARK 927      BINDING AFFINITY PREDICTED BY RF-SCORE:    0.00 PKD
ROOT
HETATM    1  C   UNL     1      -5.950  12.952  67.535  1.00  0.00    -0.128 C  
HETATM    2  N   UNL     1      -7.360  12.330  67.664  1.00  0.00    -0.115 N  
HETATM    3  O   UNL     1     -12.305  11.100  68.861  1.00  0.00    -0.512 OA 
HETATM    4  C   UNL     1      -7.464  11.419  68.915  1.00  0.00    -0.113 C  
HETATM    5  C   UNL     1      -8.859  10.813  68.917  1.00  0.00    -0.154 C  
HETATM    6  C   UNL     1     -11.588  10.920  67.883  1.00  0.00    -0.188 C  
HETATM    7  C   UNL     1      -9.351  10.187  67.549  1.00  0.00    -0.168 C  
HETATM    8  C   UNL     1     -11.405  12.046  66.846  1.00  0.00    -0.400 C  
HETATM    9  H   UNL     1      -9.159  10.463  64.322  1.00  0.00     0.000 HD 
HETATM   10  C   UNL     1     -10.764   9.639  67.674  1.00  0.00    -0.262 C  
HETATM   11  O   UNL     1     -10.631   8.572  68.640  1.00  0.00    -0.198 OA 
HETATM   12  C   UNL     1      -9.398   8.027  68.298  1.00  0.00    -0.140 A  
HETATM   13  C   UNL     1      -8.774   6.913  68.771  1.00  0.00    -0.129 A  
HETATM   14  O   UNL     1      -9.299   6.195  69.794  1.00  0.00    -0.148 OA 
HETATM   15  C   UNL     1      -7.511   6.592  68.245  1.00  0.00    -0.095 A  
HETATM   16  C   UNL     1      -6.859   7.422  67.283  1.00  0.00    -0.078 A  
HETATM   17  H   UNL     1      -8.864   5.417  70.124  1.00  0.00     0.000 HD 
HETATM   18  C   UNL     1      -7.428   8.637  66.918  1.00  0.00    -0.083 A  
HETATM   19  C   UNL     1      -6.859   9.719  65.982  1.00  0.00    -0.094 C  
HETATM   20  C   UNL     1      -8.666   8.882  67.498  1.00  0.00    -0.124 A  
HETATM   21  C   UNL     1      -7.541  11.294  66.282  1.00  0.00    -0.032 C  
HETATM   22  C   UNL     1      -9.093  10.928  66.248  1.00  0.00    -0.176 C  
HETATM   23  O   UNL     1      -9.321   9.999  65.135  1.00  0.00    -0.204 OA 
HETATM   24  C   UNL     1     -10.183  11.968  65.904  1.00  0.00    -0.263 C  
ENDROOT
BRANCH   2  25
HETATM   25  C   UNL     1      -8.338  13.527  67.887  1.00  0.00    -0.175 C  
BRANCH  25  26
HETATM   26  C   UNL     1      -7.977  14.841  67.214  1.00  0.00    -0.232 C  
HETATM   27  C   UNL     1      -8.949  15.492  66.258  1.00  0.00    -0.362 C  
HETATM   28  C   UNL     1      -8.636  16.170  67.555  1.00  0.00    -0.189 C  
ENDBRANCH  25  26
ENDBRANCH   2  25
TORSDOF 2
ENDMDL
MODEL       78
REMARK 921   NORMALIZED FREE ENERGY PREDICTED BY IDOCK:   -4.31 KCAL/MOL
REMARK 922        TOTAL FREE ENERGY PREDICTED BY IDOCK:   -5.34 KCAL/MOL
REMARK 923 INTER-LIGAND FREE ENERGY PREDICTED BY IDOCK:   -4.73 KCAL/MOL
REMARK 924 INTRA-LIGAND FREE ENERGY PREDICTED BY IDOCK:   -0.61 KCAL/MOL
REMARK 927      BINDING AFFINITY PREDICTED BY RF-SCORE:    0.00 PKD
ROOT
HETATM    1  C   UNL     1      -6.705   7.568  73.301  1.00  0.00    -0.067 C  
HETATM    2  N   UNL     1      -7.511   6.725  72.287  1.00  0.00    -0.091 N  
HETATM    3  O   UNL     1      -9.241   3.259  68.766  1.00  0.00    -0.138 OA 
HETATM    4  C   UNL     1      -7.203   7.149  70.828  1.00  0.00    -0.071 C  
HETATM    5  C   UNL     1      -8.084   6.308  69.917  1.00  0.00    -0.120 C  
HETATM    6  C   UNL     1      -9.776   3.944  69.631  1.00  0.00    -0.138 C  
HETATM    7  C   UNL     1      -9.613   6.216  70.315  1.00  0.00    -0.188 C  
HETATM    8  C   UNL     1      -9.774   3.472  71.098  1.00  0.00    -0.237 C  
HETATM    9  H   UNL     1     -11.671   6.182  72.822  1.00  0.00     0.000 HD 
HETATM   10  C   UNL     1     -10.379   5.329  69.345  1.00  0.00    -0.243 C  
HETATM   11  O   UNL     1     -10.278   6.034  68.087  1.00  0.00    -0.147 OA 
HETATM   12  C   UNL     1     -10.385   7.360  68.492  1.00  0.00    -0.198 A  
HETATM   13  C   UNL     1     -10.480   8.496  67.746  1.00  0.00    -0.223 A  
HETATM   14  O   UNL     1     -10.376   8.460  66.395  1.00  0.00    -0.408 OA 
HETATM   15  C   UNL     1     -10.573   9.723  68.424  1.00  0.00    -0.264 A  
HETATM   16  C   UNL     1     -10.518   9.806  69.849  1.00  0.00    -0.298 A  
HETATM   17  H   UNL     1     -10.442   9.253  65.874  1.00  0.00     0.000 HD 
HETATM   18  C   UNL     1     -10.266   8.664  70.600  1.00  0.00    -0.237 A  
HETATM   19  C   UNL     1     -10.074   8.540  72.123  1.00  0.00    -0.393 C  
HETATM   20  C   UNL     1     -10.171   7.499  69.849  1.00  0.00    -0.210 A  
HETATM   21  C   UNL     1      -9.179   7.116  72.574  1.00  0.00    -0.159 C  
HETATM   22  C   UNL     1     -10.001   6.011  71.769  1.00  0.00    -0.170 C  
HETATM   23  O   UNL     1     -11.430   6.310  71.913  1.00  0.00    -0.282 OA 
HETATM   24  C   UNL     1     -10.033   4.527  72.196  1.00  0.00    -0.246 C  
ENDROOT
BRANCH   2  25
HETATM   25  C   UNL     1      -7.005   5.256  72.452  1.00  0.00    -0.080 C  
BRANCH  25  26
HETATM   26  C   UNL     1      -6.511   4.853  73.832  1.00  0.00    -0.066 C  
HETATM   27  C   UNL     1      -7.002   3.572  74.465  1.00  0.00    -0.050 C  
HETATM   28  C   UNL     1      -5.561   3.690  74.080  1.00  0.00    -0.004 C  
ENDBRANCH  25  26
ENDBRANCH   2  25
TORSDOF 2
ENDMDL
MODEL       79
REMARK 921   NORMALIZED FREE ENERGY PREDICTED BY IDOCK:   -4.26 KCAL/MOL
REMARK 922        TOTAL FREE ENERGY PREDICTED BY IDOCK:   -5.28 KCAL/MOL
REMARK 923 INTER-LIGAND FREE ENERGY PREDICTED BY IDOCK:   -4.79 KCAL/MOL
REMARK 924 INTRA-LIGAND FREE ENERGY PREDICTED BY IDOCK:   -0.49 KCAL/MOL
REMARK 927      BINDING AFFINITY PREDICTED BY RF-SCORE:    0.00 PKD
ROOT
HETATM    1  C   UNL     1      -5.880   9.177  69.605  1.00  0.00    -0.033 C  
HETATM    2  N   UNL     1      -7.027   8.245  69.152  1.00  0.00    -0.062 N  
HETATM    3  O   UNL     1     -10.712   5.569  66.570  1.00  0.00    -0.296 OA 
HETATM    4  C   UNL     1      -8.377   9.005  69.077  1.00  0.00    -0.124 C  
HETATM    5  C   UNL     1      -9.444   7.994  68.685  1.00  0.00    -0.147 C  
HETATM    6  C   UNL     1     -10.045   5.359  67.577  1.00  0.00    -0.180 C  
HETATM    7  C   UNL     1      -9.447   6.633  69.494  1.00  0.00    -0.148 C  
HETATM    8  C   UNL     1      -8.606   4.821  67.449  1.00  0.00    -0.104 C  
HETATM    9  H   UNL     1      -7.552   4.482  71.012  1.00  0.00     0.000 HD 
HETATM   10  C   UNL     1     -10.539   5.701  68.992  1.00  0.00    -0.246 C  
HETATM   11  O   UNL     1     -11.760   6.413  69.295  1.00  0.00    -0.277 OA 
HETATM   12  C   UNL     1     -11.458   6.993  70.522  1.00  0.00    -0.319 A  
HETATM   13  C   UNL     1     -12.254   7.692  71.378  1.00  0.00    -0.326 A  
HETATM   14  O   UNL     1     -13.530   8.010  71.049  1.00  0.00    -0.540 OA 
HETATM   15  C   UNL     1     -11.679   8.177  72.565  1.00  0.00    -0.457 A  
HETATM   16  C   UNL     1     -10.293   8.000  72.861  1.00  0.00    -0.397 A  
HETATM   17  H   UNL     1     -14.086   8.498  71.646  1.00  0.00     0.000 HD 
HETATM   18  C   UNL     1      -9.451   7.423  71.918  1.00  0.00    -0.166 A  
HETATM   19  C   UNL     1      -7.926   7.223  71.988  1.00  0.00    -0.093 C  
HETATM   20  C   UNL     1     -10.099   6.989  70.768  1.00  0.00    -0.205 A  
HETATM   21  C   UNL     1      -7.195   7.064  70.415  1.00  0.00    -0.075 C  
HETATM   22  C   UNL     1      -8.133   5.933  69.793  1.00  0.00    -0.105 C  
HETATM   23  O   UNL     1      -8.374   4.920  70.825  1.00  0.00    -0.098 OA 
HETATM   24  C   UNL     1      -7.661   4.996  68.659  1.00  0.00    -0.078 C  
ENDROOT
BRANCH   2  25
HETATM   25  C   UNL     1      -6.671   7.800  67.698  1.00  0.00    -0.068 C  
BRANCH  25  26
HETATM   26  C   UNL     1      -6.949   8.800  66.588  1.00  0.00    -0.080 C  
HETATM   27  C   UNL     1      -6.419   8.550  65.196  1.00  0.00    -0.063 C  
HETATM   28  C   UNL     1      -7.897   8.528  65.428  1.00  0.00    -0.107 C  
ENDBRANCH  25  26
ENDBRANCH   2  25
TORSDOF 2
ENDMDL
MODEL       80
REMARK 921   NORMALIZED FREE ENERGY PREDICTED BY IDOCK:   -4.25 KCAL/MOL
REMARK 922        TOTAL FREE ENERGY PREDICTED BY IDOCK:   -5.27 KCAL/MOL
REMARK 923 INTER-LIGAND FREE ENERGY PREDICTED BY IDOCK:   -4.82 KCAL/MOL
REMARK 924 INTRA-LIGAND FREE ENERGY PREDICTED BY IDOCK:   -0.45 KCAL/MOL
REMARK 927      BINDING AFFINITY PREDICTED BY RF-SCORE:    0.00 PKD
ROOT
HETATM    1  C   UNL     1      -7.818   7.876  64.954  1.00  0.00    -0.126 C  
HETATM    2  N   UNL     1      -8.501   8.124  66.318  1.00  0.00    -0.124 N  
HETATM    3  O   UNL     1     -11.429   8.005  70.656  1.00  0.00    -0.277 OA 
HETATM    4  C   UNL     1      -9.854   8.863  66.148  1.00  0.00    -0.256 C  
HETATM    5  C   UNL     1     -10.411   9.111  67.541  1.00  0.00    -0.335 C  
HETATM    6  C   UNL     1     -10.316   8.442  70.383  1.00  0.00    -0.205 C  
HETATM    7  C   UNL     1      -9.404   9.722  68.598  1.00  0.00    -0.147 C  
HETATM    8  C   UNL     1      -9.101   7.494  70.363  1.00  0.00    -0.153 C  
HETATM    9  H   UNL     1      -6.293   9.799  69.513  1.00  0.00     0.000 HD 
HETATM   10  C   UNL     1     -10.073   9.898  69.954  1.00  0.00    -0.257 C  
HETATM   11  O   UNL     1     -11.109  10.872  69.698  1.00  0.00    -0.242 OA 
HETATM   12  C   UNL     1     -10.483  11.728  68.798  1.00  0.00    -0.198 A  
HETATM   13  C   UNL     1     -10.910  12.912  68.278  1.00  0.00    -0.242 A  
HETATM   14  O   UNL     1     -12.155  13.385  68.534  1.00  0.00    -0.352 OA 
HETATM   15  C   UNL     1     -10.066  13.576  67.372  1.00  0.00    -0.237 A  
HETATM   16  C   UNL     1      -8.818  13.021  66.954  1.00  0.00    -0.184 A  
HETATM   17  H   UNL     1     -12.453  14.211  68.172  1.00  0.00     0.000 HD 
HETATM   18  C   UNL     1      -8.457  11.743  67.366  1.00  0.00    -0.158 A  
HETATM   19  C   UNL     1      -7.218  10.921  66.966  1.00  0.00    -0.114 C  
HETATM   20  C   UNL     1      -9.357  11.153  68.245  1.00  0.00    -0.176 A  
HETATM   21  C   UNL     1      -7.450   9.208  67.177  1.00  0.00    -0.087 C  
HETATM   22  C   UNL     1      -7.984   9.189  68.679  1.00  0.00    -0.101 C  
HETATM   23  O   UNL     1      -7.181  10.133  69.463  1.00  0.00    -0.086 OA 
HETATM   24  C   UNL     1      -7.841   7.952  69.595  1.00  0.00    -0.105 C  
ENDROOT
BRANCH   2  25
HETATM   25  C   UNL     1      -8.823   6.710  66.900  1.00  0.00    -0.118 C  
BRANCH  25  26
HETATM   26  C   UNL     1      -9.379   5.680  65.930  1.00  0.00    -0.119 C  
HETATM   27  C   UNL     1      -8.965   4.232  66.048  1.00  0.00    -0.123 C  
HETATM   28  C   UNL     1     -10.386   4.610  66.325  1.00  0.00    -0.293 C  
ENDBRANCH  25  26
ENDBRANCH   2  25
TORSDOF 2
ENDMDL
MODEL       81
REMARK 921   NORMALIZED FREE ENERGY PREDICTED BY IDOCK:   -4.23 KCAL/MOL
REMARK 922        TOTAL FREE ENERGY PREDICTED BY IDOCK:   -5.24 KCAL/MOL
REMARK 923 INTER-LIGAND FREE ENERGY PREDICTED BY IDOCK:   -4.72 KCAL/MOL
REMARK 924 INTRA-LIGAND FREE ENERGY PREDICTED BY IDOCK:   -0.52 KCAL/MOL
REMARK 927      BINDING AFFINITY PREDICTED BY RF-SCORE:    0.00 PKD
ROOT
HETATM    1  C   UNL     1     -11.729  11.174  68.334  1.00  0.00    -0.279 C  
HETATM    2  N   UNL     1     -10.510  10.223  68.319  1.00  0.00    -0.187 N  
HETATM    3  O   UNL     1      -6.440   7.160  67.112  1.00  0.00    -0.053 OA 
HETATM    4  C   UNL     1     -10.932   8.767  67.996  1.00  0.00     0.132 C  
HETATM    5  C   UNL     1      -9.679   7.907  68.066  1.00  0.00    -0.182 C  
HETATM    6  C   UNL     1      -6.760   7.813  68.100  1.00  0.00    -0.067 C  
HETATM    7  C   UNL     1      -8.766   8.107  69.343  1.00  0.00    -0.143 C  
HETATM    8  C   UNL     1      -6.474   9.327  68.147  1.00  0.00    -0.058 C  
HETATM    9  H   UNL     1      -7.746  10.284  71.521  1.00  0.00     0.000 HD 
HETATM   10  C   UNL     1      -7.536   7.213  69.282  1.00  0.00    -0.102 C  
HETATM   11  O   UNL     1      -8.086   5.877  69.322  1.00  0.00    -0.103 OA 
HETATM   12  C   UNL     1      -9.143   6.026  70.213  1.00  0.00    -0.151 A  
HETATM   13  C   UNL     1      -9.971   5.088  70.751  1.00  0.00    -0.221 A  
HETATM   14  O   UNL     1      -9.907   3.790  70.365  1.00  0.00    -0.185 OA 
HETATM   15  C   UNL     1     -10.973   5.524  71.634  1.00  0.00    -0.238 A  
HETATM   16  C   UNL     1     -11.171   6.906  71.932  1.00  0.00    -0.287 A  
HETATM   17  H   UNL     1     -10.484   3.135  70.741  1.00  0.00     0.000 HD 
HETATM   18  C   UNL     1     -10.426   7.872  71.263  1.00  0.00    -0.233 A  
HETATM   19  C   UNL     1     -10.539   9.405  71.357  1.00  0.00    -0.381 C  
HETATM   20  C   UNL     1      -9.472   7.354  70.396  1.00  0.00    -0.165 A  
HETATM   21  C   UNL     1      -9.907  10.213  69.949  1.00  0.00    -0.223 C  
HETATM   22  C   UNL     1      -8.479   9.510  69.850  1.00  0.00    -0.187 C  
HETATM   23  O   UNL     1      -7.925   9.407  71.205  1.00  0.00    -0.322 OA 
HETATM   24  C   UNL     1      -7.270  10.180  69.160  1.00  0.00    -0.081 C  
ENDROOT
BRANCH   2  25
HETATM   25  C   UNL     1      -9.601  10.708  67.145  1.00  0.00    -0.164 C  
BRANCH  25  26
HETATM   26  C   UNL     1     -10.244  10.792  65.771  1.00  0.00    -0.319 C  
HETATM   27  C   UNL     1      -9.614  11.643  64.693  1.00  0.00    -0.149 C  
HETATM   28  C   UNL     1      -9.649  10.157  64.522  1.00  0.00    -0.376 C  
ENDBRANCH  25  26
ENDBRANCH   2  25
TORSDOF 2
ENDMDL
MODEL       82
REMARK 921   NORMALIZED FREE ENERGY PREDICTED BY IDOCK:   -4.22 KCAL/MOL
REMARK 922        TOTAL FREE ENERGY PREDICTED BY IDOCK:   -5.24 KCAL/MOL
REMARK 923 INTER-LIGAND FREE ENERGY PREDICTED BY IDOCK:   -4.55 KCAL/MOL
REMARK 924 INTRA-LIGAND FREE ENERGY PREDICTED BY IDOCK:   -0.69 KCAL/MOL
REMARK 927      BINDING AFFINITY PREDICTED BY RF-SCORE:    0.00 PKD
ROOT
HETATM    1  C   UNL     1      -7.831   4.762  66.210  1.00  0.00    -0.099 C  
HETATM    2  N   UNL     1      -7.886   6.185  66.813  1.00  0.00    -0.103 N  
HETATM    3  O   UNL     1      -6.912  10.960  68.724  1.00  0.00    -0.067 OA 
HETATM    4  C   UNL     1      -7.568   6.168  68.331  1.00  0.00    -0.092 C  
HETATM    5  C   UNL     1      -7.708   7.596  68.837  1.00  0.00    -0.117 C  
HETATM    6  C   UNL     1      -7.874  10.436  68.172  1.00  0.00    -0.108 C  
HETATM    7  C   UNL     1      -9.021   8.365  68.402  1.00  0.00    -0.136 C  
HETATM    8  C   UNL     1      -7.909  10.318  66.636  1.00  0.00    -0.116 C  
HETATM    9  H   UNL     1     -11.207   8.684  66.026  1.00  0.00     0.000 HD 
HETATM   10  C   UNL     1      -9.030   9.785  68.948  1.00  0.00    -0.144 C  
HETATM   11  O   UNL     1      -9.066   9.598  70.381  1.00  0.00    -0.246 OA 
HETATM   12  C   UNL     1      -9.907   8.497  70.506  1.00  0.00    -0.180 A  
HETATM   13  C   UNL     1     -10.423   7.915  71.624  1.00  0.00    -0.209 A  
HETATM   14  O   UNL     1     -10.061   8.330  72.863  1.00  0.00    -0.294 OA 
HETATM   15  C   UNL     1     -11.253   6.793  71.459  1.00  0.00    -0.300 A  
HETATM   16  C   UNL     1     -11.519   6.232  70.173  1.00  0.00    -0.452 A  
HETATM   17  H   UNL     1     -10.422   7.924  73.644  1.00  0.00     0.000 HD 
HETATM   18  C   UNL     1     -10.868   6.732  69.051  1.00  0.00    -0.290 A  
HETATM   19  C   UNL     1     -10.932   6.224  67.599  1.00  0.00    -0.438 C  
HETATM   20  C   UNL     1     -10.054   7.828  69.308  1.00  0.00    -0.199 A  
HETATM   21  C   UNL     1      -9.541   6.691  66.661  1.00  0.00    -0.207 C  
HETATM   22  C   UNL     1      -9.518   8.256  66.971  1.00  0.00    -0.176 C  
HETATM   23  O   UNL     1     -10.897   8.753  66.922  1.00  0.00    -0.171 OA 
HETATM   24  C   UNL     1      -8.871   9.282  66.013  1.00  0.00    -0.191 C  
ENDROOT
BRANCH   2  25
HETATM   25  C   UNL     1      -6.746   6.992  66.115  1.00  0.00    -0.053 C  
BRANCH  25  26
HETATM   26  C   UNL     1      -6.420   6.615  64.679  1.00  0.00    -0.042 C  
HETATM   27  C   UNL     1      -7.214   7.214  63.542  1.00  0.00    -0.075 C  
HETATM   28  C   UNL     1      -5.767   7.566  63.686  1.00  0.00    -0.045 C  
ENDBRANCH  25  26
ENDBRANCH   2  25
TORSDOF 2
ENDMDL
MODEL       83
REMARK 921   NORMALIZED FREE ENERGY PREDICTED BY IDOCK:   -4.22 KCAL/MOL
REMARK 922        TOTAL FREE ENERGY PREDICTED BY IDOCK:   -5.24 KCAL/MOL
REMARK 923 INTER-LIGAND FREE ENERGY PREDICTED BY IDOCK:   -4.90 KCAL/MOL
REMARK 924 INTRA-LIGAND FREE ENERGY PREDICTED BY IDOCK:   -0.34 KCAL/MOL
REMARK 927      BINDING AFFINITY PREDICTED BY RF-SCORE:    0.00 PKD
ROOT
HETATM    1  C   UNL     1      -9.396  12.320  66.454  1.00  0.00    -0.219 C  
HETATM    2  N   UNL     1      -9.199  10.790  66.554  1.00  0.00    -0.165 N  
HETATM    3  O   UNL     1      -8.958   5.615  65.801  1.00  0.00    -0.155 OA 
HETATM    4  C   UNL     1     -10.525  10.071  66.911  1.00  0.00    -0.218 C  
HETATM    5  C   UNL     1     -10.214   8.588  67.045  1.00  0.00    -0.371 C  
HETATM    6  C   UNL     1      -8.344   6.410  66.504  1.00  0.00    -0.115 C  
HETATM    7  C   UNL     1      -8.953   8.216  67.926  1.00  0.00    -0.133 C  
HETATM    8  C   UNL     1      -7.187   7.233  65.905  1.00  0.00    -0.074 C  
HETATM    9  H   UNL     1      -6.004   9.215  68.836  1.00  0.00     0.000 HD 
HETATM   10  C   UNL     1      -8.734   6.711  67.960  1.00  0.00    -0.117 C  
HETATM   11  O   UNL     1      -9.916   6.210  68.623  1.00  0.00    -0.136 OA 
HETATM   12  C   UNL     1     -10.141   7.187  69.587  1.00  0.00    -0.192 A  
HETATM   13  C   UNL     1     -11.046   7.218  70.604  1.00  0.00    -0.264 A  
HETATM   14  O   UNL     1     -11.981   6.246  70.743  1.00  0.00    -0.262 OA 
HETATM   15  C   UNL     1     -11.060   8.348  71.439  1.00  0.00    -0.312 A  
HETATM   16  C   UNL     1     -10.197   9.464  71.216  1.00  0.00    -0.340 A  
HETATM   17  H   UNL     1     -12.613   6.268  71.453  1.00  0.00     0.000 HD 
HETATM   18  C   UNL     1      -9.384   9.496  70.088  1.00  0.00    -0.286 A  
HETATM   19  C   UNL     1      -8.457  10.627  69.607  1.00  0.00     0.104 C  
HETATM   20  C   UNL     1      -9.446   8.347  69.309  1.00  0.00    -0.155 A  
HETATM   21  C   UNL     1      -8.126  10.544  67.899  1.00  0.00    -0.107 C  
HETATM   22  C   UNL     1      -7.672   9.019  67.783  1.00  0.00    -0.097 C  
HETATM   23  O   UNL     1      -6.805   8.712  68.926  1.00  0.00    -0.059 OA 
HETATM   24  C   UNL     1      -6.749   8.512  66.653  1.00  0.00    -0.068 C  
ENDROOT
BRANCH   2  25
HETATM   25  C   UNL     1      -8.792  10.315  65.123  1.00  0.00    -0.184 C  
BRANCH  25  26
HETATM   26  C   UNL     1      -9.864  10.382  64.048  1.00  0.00    -0.355 C  
HETATM   27  C   UNL     1      -9.922  11.566  63.111  1.00  0.00    -0.404 C  
HETATM   28  C   UNL     1      -9.578  10.217  62.562  1.00  0.00    -0.217 C  
ENDBRANCH  25  26
ENDBRANCH   2  25
TORSDOF 2
ENDMDL
MODEL       84
REMARK 921   NORMALIZED FREE ENERGY PREDICTED BY IDOCK:   -4.22 KCAL/MOL
REMARK 922        TOTAL FREE ENERGY PREDICTED BY IDOCK:   -5.23 KCAL/MOL
REMARK 923 INTER-LIGAND FREE ENERGY PREDICTED BY IDOCK:   -4.62 KCAL/MOL
REMARK 924 INTRA-LIGAND FREE ENERGY PREDICTED BY IDOCK:   -0.61 KCAL/MOL
REMARK 927      BINDING AFFINITY PREDICTED BY RF-SCORE:    0.00 PKD
ROOT
HETATM    1  C   UNL     1      -8.385  11.122  68.689  1.00  0.00    -0.154 C  
HETATM    2  N   UNL     1      -8.758   9.623  68.621  1.00  0.00    -0.122 N  
HETATM    3  O   UNL     1     -10.637   4.880  67.449  1.00  0.00    -0.075 OA 
HETATM    4  C   UNL     1     -10.148   9.357  69.255  1.00  0.00    -0.196 C  
HETATM    5  C   UNL     1     -10.392   7.857  69.193  1.00  0.00    -0.225 C  
HETATM    6  C   UNL     1      -9.635   5.288  68.027  1.00  0.00    -0.132 C  
HETATM    7  C   UNL     1      -9.205   6.934  69.688  1.00  0.00    -0.146 C  
HETATM    8  C   UNL     1      -8.412   5.749  67.211  1.00  0.00    -0.107 C  
HETATM    9  H   UNL     1      -5.975   6.694  69.874  1.00  0.00     0.000 HD 
HETATM   10  C   UNL     1      -9.563   5.462  69.552  1.00  0.00    -0.149 C  
HETATM   11  O   UNL     1     -10.675   5.297  70.460  1.00  0.00    -0.239 OA 
HETATM   12  C   UNL     1     -10.307   6.120  71.519  1.00  0.00    -0.209 A  
HETATM   13  C   UNL     1     -10.895   6.294  72.735  1.00  0.00    -0.252 A  
HETATM   14  O   UNL     1     -12.072   5.694  73.039  1.00  0.00    -0.531 OA 
HETATM   15  C   UNL     1     -10.305   7.207  73.626  1.00  0.00    -0.411 A  
HETATM   16  C   UNL     1      -9.157   7.978  73.270  1.00  0.00    -0.349 A  
HETATM   17  H   UNL     1     -12.482   5.816  73.888  1.00  0.00     0.000 HD 
HETATM   18  C   UNL     1      -8.653   7.912  71.977  1.00  0.00    -0.173 A  
HETATM   19  C   UNL     1      -7.496   8.717  71.356  1.00  0.00    -0.126 C  
HETATM   20  C   UNL     1      -9.306   6.999  71.157  1.00  0.00    -0.158 A  
HETATM   21  C   UNL     1      -7.594   8.806  69.620  1.00  0.00    -0.076 C  
HETATM   22  C   UNL     1      -7.779   7.259  69.278  1.00  0.00    -0.107 C  
HETATM   23  O   UNL     1      -6.867   6.490  70.131  1.00  0.00    -0.054 OA 
HETATM   24  C   UNL     1      -7.377   6.658  67.913  1.00  0.00    -0.096 C  
ENDROOT
BRANCH   2  25
HETATM   25  C   UNL     1      -8.874   9.279  67.102  1.00  0.00    -0.127 C  
BRANCH  25  26
HETATM   26  C   UNL     1      -8.176  10.217  66.131  1.00  0.00    -0.138 C  
HETATM   27  C   UNL     1      -6.934   9.761  65.401  1.00  0.00    -0.105 C  
HETATM   28  C   UNL     1      -8.184  10.025  64.621  1.00  0.00    -0.163 C  
ENDBRANCH  25  26
ENDBRANCH   2  25
TORSDOF 2
ENDMDL
MODEL       85
REMARK 921   NORMALIZED FREE ENERGY PREDICTED BY IDOCK:   -4.12 KCAL/MOL
REMARK 922        TOTAL FREE ENERGY PREDICTED BY IDOCK:   -5.12 KCAL/MOL
REMARK 923 INTER-LIGAND FREE ENERGY PREDICTED BY IDOCK:   -4.58 KCAL/MOL
REMARK 924 INTRA-LIGAND FREE ENERGY PREDICTED BY IDOCK:   -0.54 KCAL/MOL
REMARK 927      BINDING AFFINITY PREDICTED BY RF-SCORE:    0.00 PKD
ROOT
HETATM    1  C   UNL     1     -11.164   8.324  70.233  1.00  0.00    -0.176 C  
HETATM    2  N   UNL     1     -10.179   8.931  69.209  1.00  0.00    -0.204 N  
HETATM    3  O   UNL     1      -6.112  10.174  66.156  1.00  0.00    -0.068 OA 
HETATM    4  C   UNL     1      -9.210   9.936  69.883  1.00  0.00    -0.212 C  
HETATM    5  C   UNL     1      -8.329  10.519  68.788  1.00  0.00    -0.136 C  
HETATM    6  C   UNL     1      -7.329  10.287  66.053  1.00  0.00    -0.129 C  
HETATM    7  C   UNL     1      -9.076  11.026  67.488  1.00  0.00    -0.138 C  
HETATM    8  C   UNL     1      -8.177   9.085  65.592  1.00  0.00    -0.120 C  
HETATM    9  H   UNL     1     -11.629  10.499  65.557  1.00  0.00     0.000 HD 
HETATM   10  C   UNL     1      -8.087  11.560  66.462  1.00  0.00    -0.112 C  
HETATM   11  O   UNL     1      -7.496  12.702  67.122  1.00  0.00    -0.134 OA 
HETATM   12  C   UNL     1      -8.585  13.238  67.800  1.00  0.00    -0.184 A  
HETATM   13  C   UNL     1      -8.689  14.396  68.509  1.00  0.00    -0.180 A  
HETATM   14  O   UNL     1      -7.608  15.184  68.730  1.00  0.00    -0.119 OA 
HETATM   15  C   UNL     1      -9.926  14.694  69.106  1.00  0.00    -0.149 A  
HETATM   16  C   UNL     1     -11.037  13.801  69.029  1.00  0.00    -0.296 A  
HETATM   17  H   UNL     1      -7.681  15.993  69.225  1.00  0.00     0.000 HD 
HETATM   18  C   UNL     1     -10.883  12.552  68.439  1.00  0.00    -0.266 A  
HETATM   19  C   UNL     1     -11.908  11.408  68.332  1.00  0.00    -0.344 C  
HETATM   20  C   UNL     1      -9.625  12.334  67.891  1.00  0.00    -0.203 A  
HETATM   21  C   UNL     1     -11.159   9.852  68.109  1.00  0.00    -0.215 C  
HETATM   22  C   UNL     1     -10.191  10.189  66.886  1.00  0.00    -0.236 C  
HETATM   23  O   UNL     1     -10.932  11.023  65.933  1.00  0.00    -0.173 OA 
HETATM   24  C   UNL     1      -9.690   9.108  65.903  1.00  0.00    -0.336 C  
ENDROOT
BRANCH   2  25
HETATM   25  C   UNL     1      -9.314   7.740  68.687  1.00  0.00    -0.148 C  
BRANCH  25  26
HETATM   26  C   UNL     1      -8.620   6.886  69.736  1.00  0.00    -0.141 C  
HETATM   27  C   UNL     1      -7.856   5.651  69.320  1.00  0.00    -0.089 C  
HETATM   28  C   UNL     1      -7.108   6.811  69.896  1.00  0.00    -0.071 C  
ENDBRANCH  25  26
ENDBRANCH   2  25
TORSDOF 2
ENDMDL
MODEL       86
REMARK 921   NORMALIZED FREE ENERGY PREDICTED BY IDOCK:   -4.05 KCAL/MOL
REMARK 922        TOTAL FREE ENERGY PREDICTED BY IDOCK:   -5.04 KCAL/MOL
REMARK 923 INTER-LIGAND FREE ENERGY PREDICTED BY IDOCK:   -4.53 KCAL/MOL
REMARK 924 INTRA-LIGAND FREE ENERGY PREDICTED BY IDOCK:   -0.50 KCAL/MOL
REMARK 927      BINDING AFFINITY PREDICTED BY RF-SCORE:    0.00 PKD
ROOT
HETATM    1  C   UNL     1     -11.989   9.230  72.019  1.00  0.00    -0.321 C  
HETATM    2  N   UNL     1     -10.946   8.529  71.119  1.00  0.00    -0.242 N  
HETATM    3  O   UNL     1      -7.233   5.496  69.018  1.00  0.00    -0.065 OA 
HETATM    4  C   UNL     1      -9.515   9.059  71.392  1.00  0.00    -0.264 C  
HETATM    5  C   UNL     1      -8.579   8.356  70.420  1.00  0.00    -0.136 C  
HETATM    6  C   UNL     1      -8.176   6.136  68.566  1.00  0.00    -0.111 C  
HETATM    7  C   UNL     1      -9.040   8.325  68.906  1.00  0.00    -0.147 C  
HETATM    8  C   UNL     1      -9.597   5.538  68.599  1.00  0.00    -0.172 C  
HETATM    9  H   UNL     1     -11.631   8.200  66.957  1.00  0.00     0.000 HD 
HETATM   10  C   UNL     1      -8.036   7.574  68.044  1.00  0.00    -0.124 C  
HETATM   11  O   UNL     1      -6.840   8.379  68.138  1.00  0.00    -0.066 OA 
HETATM   12  C   UNL     1      -7.358   9.669  68.135  1.00  0.00    -0.081 A  
HETATM   13  C   UNL     1      -6.716  10.869  68.084  1.00  0.00    -0.063 A  
HETATM   14  O   UNL     1      -5.363  10.944  68.129  1.00  0.00    -0.037 OA 
HETATM   15  C   UNL     1      -7.499  12.036  68.101  1.00  0.00    -0.112 A  
HETATM   16  C   UNL     1      -8.921  11.991  68.220  1.00  0.00    -0.186 A  
HETATM   17  H   UNL     1      -4.915  11.782  68.093  1.00  0.00     0.000 HD 
HETATM   18  C   UNL     1      -9.561  10.774  68.428  1.00  0.00    -0.177 A  
HETATM   19  C   UNL     1     -11.057  10.507  68.675  1.00  0.00    -0.319 C  
HETATM   20  C   UNL     1      -8.711   9.676  68.415  1.00  0.00    -0.120 A  
HETATM   21  C   UNL     1     -11.344   8.997  69.493  1.00  0.00     0.166 C  
HETATM   22  C   UNL     1     -10.489   8.019  68.568  1.00  0.00    -0.164 C  
HETATM   23  O   UNL     1     -10.724   8.392  67.168  1.00  0.00    -0.291 OA 
HETATM   24  C   UNL     1     -10.791   6.508  68.455  1.00  0.00    -0.353 C  
ENDROOT
BRANCH   2  25
HETATM   25  C   UNL     1     -10.963   7.024  71.533  1.00  0.00    -0.234 C  
BRANCH  25  26
HETATM   26  C   UNL     1     -11.149   6.722  73.011  1.00  0.00    -0.252 C  
HETATM   27  C   UNL     1     -10.789   5.359  73.555  1.00  0.00    -0.342 C  
HETATM   28  C   UNL     1      -9.994   6.550  73.987  1.00  0.00    -0.320 C  
ENDBRANCH  25  26
ENDBRANCH   2  25
TORSDOF 2
ENDMDL
MODEL       87
REMARK 921   NORMALIZED FREE ENERGY PREDICTED BY IDOCK:   -3.98 KCAL/MOL
REMARK 922        TOTAL FREE ENERGY PREDICTED BY IDOCK:   -4.97 KCAL/MOL
REMARK 923 INTER-LIGAND FREE ENERGY PREDICTED BY IDOCK:   -4.31 KCAL/MOL
REMARK 924 INTRA-LIGAND FREE ENERGY PREDICTED BY IDOCK:   -0.66 KCAL/MOL
REMARK 927      BINDING AFFINITY PREDICTED BY RF-SCORE:    0.00 PKD
ROOT
HETATM    1  C   UNL     1      -8.072  14.156  66.909  1.00  0.00     0.110 C  
HETATM    2  N   UNL     1      -8.825  13.025  67.646  1.00  0.00    -0.179 N  
HETATM    3  O   UNL     1     -11.177   9.858  71.088  1.00  0.00    -0.354 OA 
HETATM    4  C   UNL     1      -7.840  12.033  68.317  1.00  0.00    -0.145 C  
HETATM    5  C   UNL     1      -8.673  10.934  68.958  1.00  0.00    -0.108 C  
HETATM    6  C   UNL     1     -11.303  10.064  69.885  1.00  0.00    -0.250 C  
HETATM    7  C   UNL     1      -9.804  10.297  68.053  1.00  0.00    -0.171 C  
HETATM    8  C   UNL     1     -12.136  11.264  69.394  1.00  0.00    -0.384 C  
HETATM    9  H   UNL     1     -11.929  10.925  65.684  1.00  0.00     0.000 HD 
HETATM   10  C   UNL     1     -10.579   9.232  68.815  1.00  0.00    -0.193 C  
HETATM   11  O   UNL     1      -9.587   8.216  69.084  1.00  0.00    -0.155 OA 
HETATM   12  C   UNL     1      -8.837   8.229  67.913  1.00  0.00    -0.138 A  
HETATM   13  C   UNL     1      -7.827   7.407  67.513  1.00  0.00    -0.112 A  
HETATM   14  O   UNL     1      -7.333   6.450  68.336  1.00  0.00    -0.082 OA 
HETATM   15  C   UNL     1      -7.232   7.655  66.264  1.00  0.00    -0.071 A  
HETATM   16  C   UNL     1      -7.621   8.759  65.447  1.00  0.00    -0.087 A  
HETATM   17  H   UNL     1      -6.629   5.876  68.056  1.00  0.00     0.000 HD 
HETATM   18  C   UNL     1      -8.541   9.685  65.925  1.00  0.00    -0.146 A  
HETATM   19  C   UNL     1      -9.027  10.986  65.260  1.00  0.00    -0.177 C  
HETATM   20  C   UNL     1      -9.065   9.373  67.173  1.00  0.00    -0.148 A  
HETATM   21  C   UNL     1      -9.657  12.134  66.408  1.00  0.00    -0.243 C  
HETATM   22  C   UNL     1     -10.678  11.197  67.198  1.00  0.00    -0.259 C  
HETATM   23  O   UNL     1     -11.383  10.361  66.219  1.00  0.00     0.202 OA 
HETATM   24  C   UNL     1     -11.908  11.757  67.947  1.00  0.00    -0.289 C  
ENDROOT
BRANCH   2  25
HETATM   25  C   UNL     1      -9.627  13.719  68.792  1.00  0.00    -0.040 C  
BRANCH  25  26
HETATM   26  C   UNL     1     -10.121  15.132  68.525  1.00  0.00    -0.228 C  
HETATM   27  C   UNL     1     -11.312  15.357  67.624  1.00  0.00    -0.292 C  
HETATM   28  C   UNL     1     -11.425  15.687  69.079  1.00  0.00    -0.369 C  
ENDBRANCH  25  26
ENDBRANCH   2  25
TORSDOF 2
ENDMDL
MODEL       88
REMARK 921   NORMALIZED FREE ENERGY PREDICTED BY IDOCK:   -3.97 KCAL/MOL
REMARK 922        TOTAL FREE ENERGY PREDICTED BY IDOCK:   -4.96 KCAL/MOL
REMARK 923 INTER-LIGAND FREE ENERGY PREDICTED BY IDOCK:   -5.34 KCAL/MOL
REMARK 924 INTRA-LIGAND FREE ENERGY PREDICTED BY IDOCK:    0.38 KCAL/MOL
REMARK 927      BINDING AFFINITY PREDICTED BY RF-SCORE:    0.00 PKD
ROOT
HETATM    1  C   UNL     1      -9.069  10.879  68.113  1.00  0.00    -0.155 C  
HETATM    2  N   UNL     1      -9.261  12.406  67.968  1.00  0.00    -0.198 N  
HETATM    3  O   UNL     1      -8.755  17.575  67.312  1.00  0.00    -0.223 OA 
HETATM    4  C   UNL     1      -8.925  13.146  69.288  1.00  0.00     0.926 C  
HETATM    5  C   UNL     1      -9.203  14.625  69.060  1.00  0.00    -0.108 C  
HETATM    6  C   UNL     1      -9.664  16.772  67.134  1.00  0.00    -0.251 C  
HETATM    7  C   UNL     1     -10.593  14.978  68.390  1.00  0.00    -0.239 C  
HETATM    8  C   UNL     1      -9.706  15.929  65.844  1.00  0.00    -0.386 C  
HETATM    9  H   UNL     1     -12.828  13.934  66.283  1.00  0.00     0.000 HD 
HETATM   10  C   UNL     1     -10.739  16.480  68.193  1.00  0.00    -0.343 C  
HETATM   11  O   UNL     1     -10.739  17.001  69.541  1.00  0.00    -0.313 OA 
HETATM   12  C   UNL     1     -11.462  16.030  70.225  1.00  0.00    -0.359 A  
HETATM   13  C   UNL     1     -11.903  16.014  71.514  1.00  0.00    -0.486 A  
HETATM   14  O   UNL     1     -11.570  17.002  72.382  1.00  0.00    -0.360 OA 
HETATM   15  C   UNL     1     -12.616  14.886  71.953  1.00  0.00    -0.400 A  
HETATM   16  C   UNL     1     -12.839  13.757  71.108  1.00  0.00    -0.409 A  
HETATM   17  H   UNL     1     -11.878  16.991  73.281  1.00  0.00     0.000 HD 
HETATM   18  C   UNL     1     -12.257  13.710  69.846  1.00  0.00    -0.367 A  
HETATM   19  C   UNL     1     -12.286  12.563  68.819  1.00  0.00     0.019 C  
HETATM   20  C   UNL     1     -11.554  14.858  69.501  1.00  0.00    -0.333 A  
HETATM   21  C   UNL     1     -10.961  12.637  67.691  1.00  0.00    -0.275 C  
HETATM   22  C   UNL     1     -11.093  14.155  67.216  1.00  0.00    -0.305 C  
HETATM   23  O   UNL     1     -12.516  14.450  67.018  1.00  0.00    -0.260 OA 
HETATM   24  C   UNL     1     -10.565  14.645  65.849  1.00  0.00    -0.319 C  
ENDROOT
BRANCH   2  25
HETATM   25  C   UNL     1      -8.218  12.871  66.903  1.00  0.00    -0.002 C  
BRANCH  25  26
HETATM   26  C   UNL     1      -6.752  12.772  67.291  1.00  0.00    -0.089 C  
HETATM   27  C   UNL     1      -6.252  11.566  68.052  1.00  0.00    -0.046 C  
HETATM   28  C   UNL     1      -5.776  11.794  66.652  1.00  0.00    -0.057 C  
ENDBRANCH  25  26
ENDBRANCH   2  25
TORSDOF 2
ENDMDL
MODEL       89
REMARK 921   NORMALIZED FREE ENERGY PREDICTED BY IDOCK:   -3.95 KCAL/MOL
REMARK 922        TOTAL FREE ENERGY PREDICTED BY IDOCK:   -4.93 KCAL/MOL
REMARK 923 INTER-LIGAND FREE ENERGY PREDICTED BY IDOCK:   -4.75 KCAL/MOL
REMARK 924 INTRA-LIGAND FREE ENERGY PREDICTED BY IDOCK:   -0.18 KCAL/MOL
REMARK 927      BINDING AFFINITY PREDICTED BY RF-SCORE:    0.00 PKD
ROOT
HETATM    1  C   UNL     1     -12.748  12.370  64.818  1.00  0.00    -0.236 C  
HETATM    2  N   UNL     1     -11.600  12.813  65.754  1.00  0.00    -0.355 N  
HETATM    3  O   UNL     1      -7.724  15.281  68.261  1.00  0.00    -0.108 OA 
HETATM    4  C   UNL     1     -10.214  12.564  65.106  1.00  0.00    -0.279 C  
HETATM    5  C   UNL     1      -9.159  12.973  66.123  1.00  0.00     0.077 C  
HETATM    6  C   UNL     1      -8.547  14.430  68.579  1.00  0.00    -0.175 C  
HETATM    7  C   UNL     1      -9.357  12.423  67.594  1.00  0.00    -0.188 C  
HETATM    8  C   UNL     1      -9.978  14.851  68.968  1.00  0.00    -0.235 C  
HETATM    9  H   UNL     1     -11.581  11.586  69.802  1.00  0.00     0.000 HD 
HETATM   10  C   UNL     1      -8.256  12.922  68.517  1.00  0.00    -0.065 C  
HETATM   11  O   UNL     1      -7.057  12.330  67.968  1.00  0.00    -0.082 OA 
HETATM   12  C   UNL     1      -7.509  11.075  67.576  1.00  0.00    -0.102 A  
HETATM   13  C   UNL     1      -6.814  10.007  67.095  1.00  0.00    -0.082 A  
HETATM   14  O   UNL     1      -5.487  10.093  66.833  1.00  0.00    -0.044 OA 
HETATM   15  C   UNL     1      -7.535   8.846  66.767  1.00  0.00    -0.083 A  
HETATM   16  C   UNL     1      -8.957   8.783  66.876  1.00  0.00    -0.155 A  
HETATM   17  H   UNL     1      -5.001   9.347  66.498  1.00  0.00     0.000 HD 
HETATM   18  C   UNL     1      -9.677   9.922  67.218  1.00  0.00    -0.213 A  
HETATM   19  C   UNL     1     -11.204  10.102  67.300  1.00  0.00    -0.024 C  
HETATM   20  C   UNL     1      -8.888  11.028  67.508  1.00  0.00    -0.131 A  
HETATM   21  C   UNL     1     -11.694  11.766  67.137  1.00  0.00    -0.267 C  
HETATM   22  C   UNL     1     -10.739  12.439  68.223  1.00  0.00    -0.230 C  
HETATM   23  O   UNL     1     -10.716  11.576  69.409  1.00  0.00    -0.179 OA 
HETATM   24  C   UNL     1     -11.085  13.774  68.918  1.00  0.00    -0.300 C  
ENDROOT
BRANCH   2  25
HETATM   25  C   UNL     1     -11.755  14.358  65.922  1.00  0.00    -0.369 C  
BRANCH  25  26
HETATM   26  C   UNL     1     -10.719  15.230  65.232  1.00  0.00    -0.433 C  
HETATM   27  C   UNL     1     -11.113  16.585  64.690  1.00  0.00    -0.135 C  
HETATM   28  C   UNL     1     -10.156  16.507  65.838  1.00  0.00    -0.359 C  
ENDBRANCH  25  26
ENDBRANCH   2  25
TORSDOF 2
ENDMDL
MODEL       90
REMARK 921   NORMALIZED FREE ENERGY PREDICTED BY IDOCK:   -3.95 KCAL/MOL
REMARK 922        TOTAL FREE ENERGY PREDICTED BY IDOCK:   -4.93 KCAL/MOL
REMARK 923 INTER-LIGAND FREE ENERGY PREDICTED BY IDOCK:   -4.45 KCAL/MOL
REMARK 924 INTRA-LIGAND FREE ENERGY PREDICTED BY IDOCK:   -0.48 KCAL/MOL
REMARK 927      BINDING AFFINITY PREDICTED BY RF-SCORE:    0.00 PKD
ROOT
HETATM    1  C   UNL     1     -10.233   8.181  71.104  1.00  0.00    -0.195 C  
HETATM    2  N   UNL     1      -9.683   8.641  69.734  1.00  0.00    -0.174 N  
HETATM    3  O   UNL     1      -8.704  10.965  65.147  1.00  0.00    -0.187 OA 
HETATM    4  C   UNL     1     -10.486   8.016  68.564  1.00  0.00    -0.164 C  
HETATM    5  C   UNL     1      -9.832   8.479  67.271  1.00  0.00    -0.259 C  
HETATM    6  C   UNL     1      -8.020  10.364  65.969  1.00  0.00    -0.144 C  
HETATM    7  C   UNL     1      -8.257   8.341  67.196  1.00  0.00    -0.119 C  
HETATM    8  C   UNL     1      -7.500  11.097  67.221  1.00  0.00    -0.118 C  
HETATM    9  H   UNL     1      -5.531   8.443  68.951  1.00  0.00     0.000 HD 
HETATM   10  C   UNL     1      -7.724   8.859  65.868  1.00  0.00    -0.098 C  
HETATM   11  O   UNL     1      -8.306   7.962  64.896  1.00  0.00    -0.142 OA 
HETATM   12  C   UNL     1      -8.253   6.742  65.561  1.00  0.00    -0.131 A  
HETATM   13  C   UNL     1      -8.546   5.490  65.114  1.00  0.00    -0.141 A  
HETATM   14  O   UNL     1      -9.063   5.289  63.876  1.00  0.00    -0.351 OA 
HETATM   15  C   UNL     1      -8.408   4.419  66.014  1.00  0.00    -0.113 A  
HETATM   16  C   UNL     1      -8.023   4.621  67.374  1.00  0.00    -0.101 A  
HETATM   17  H   UNL     1      -9.268   4.415  63.564  1.00  0.00     0.000 HD 
HETATM   18  C   UNL     1      -7.875   5.912  67.868  1.00  0.00    -0.104 A  
HETATM   19  C   UNL     1      -7.562   6.357  69.309  1.00  0.00    -0.099 C  
HETATM   20  C   UNL     1      -8.047   6.908  66.916  1.00  0.00    -0.109 A  
HETATM   21  C   UNL     1      -8.076   7.989  69.635  1.00  0.00    -0.119 C  
HETATM   22  C   UNL     1      -7.410   8.737  68.393  1.00  0.00    -0.086 C  
HETATM   23  O   UNL     1      -6.060   8.195  68.202  1.00  0.00    -0.044 OA 
HETATM   24  C   UNL     1      -7.051  10.239  68.425  1.00  0.00    -0.078 C  
ENDROOT
BRANCH   2  25
HETATM   25  C   UNL     1      -9.914  10.184  69.676  1.00  0.00    -0.232 C  
BRANCH  25  26
HETATM   26  C   UNL     1     -11.302  10.655  69.272  1.00  0.00    -0.346 C  
HETATM   27  C   UNL     1     -11.751  12.057  69.609  1.00  0.00    -0.405 C  
HETATM   28  C   UNL     1     -11.557  11.678  68.174  1.00  0.00    -0.389 C  
ENDBRANCH  25  26
ENDBRANCH   2  25
TORSDOF 2
ENDMDL
MODEL       91
REMARK 921   NORMALIZED FREE ENERGY PREDICTED BY IDOCK:   -3.93 KCAL/MOL
REMARK 922        TOTAL FREE ENERGY PREDICTED BY IDOCK:   -4.91 KCAL/MOL
REMARK 923 INTER-LIGAND FREE ENERGY PREDICTED BY IDOCK:   -4.45 KCAL/MOL
REMARK 924 INTRA-LIGAND FREE ENERGY PREDICTED BY IDOCK:   -0.46 KCAL/MOL
REMARK 927      BINDING AFFINITY PREDICTED BY RF-SCORE:    0.00 PKD
ROOT
HETATM    1  C   UNL     1      -8.401  14.477  68.068  1.00  0.00    -0.153 C  
HETATM    2  N   UNL     1      -8.424  12.939  67.913  1.00  0.00    -0.168 N  
HETATM    3  O   UNL     1      -7.482   7.790  67.957  1.00  0.00    -0.102 OA 
HETATM    4  C   UNL     1      -7.558  12.479  66.712  1.00  0.00     0.210 C  
HETATM    5  C   UNL     1      -7.696  10.967  66.608  1.00  0.00    -0.153 C  
HETATM    6  C   UNL     1      -8.496   8.477  67.908  1.00  0.00    -0.130 C  
HETATM    7  C   UNL     1      -9.170  10.394  66.673  1.00  0.00    -0.178 C  
HETATM    8  C   UNL     1      -9.092   9.065  69.202  1.00  0.00    -0.140 C  
HETATM    9  H   UNL     1     -12.112  10.867  67.955  1.00  0.00     0.000 HD 
HETATM   10  C   UNL     1      -9.171   8.875  66.585  1.00  0.00    -0.170 C  
HETATM   11  O   UNL     1      -8.637   8.610  65.269  1.00  0.00    -0.172 OA 
HETATM   12  C   UNL     1      -9.205   9.633  64.517  1.00  0.00    -0.218 A  
HETATM   13  C   UNL     1      -9.174   9.850  63.172  1.00  0.00    -0.249 A  
HETATM   14  O   UNL     1      -8.433   9.065  62.351  1.00  0.00    -0.184 OA 
HETATM   15  C   UNL     1      -9.838  10.983  62.672  1.00  0.00    -0.179 A  
HETATM   16  C   UNL     1     -10.488  11.919  63.532  1.00  0.00    -0.505 A  
HETATM   17  H   UNL     1      -8.412   9.216  61.413  1.00  0.00     0.000 HD 
HETATM   18  C   UNL     1     -10.386  11.779  64.912  1.00  0.00    -0.334 A  
HETATM   19  C   UNL     1     -10.921  12.714  66.013  1.00  0.00    -0.313 C  
HETATM   20  C   UNL     1      -9.698  10.643  65.319  1.00  0.00    -0.315 A  
HETATM   21  C   UNL     1     -10.068  12.534  67.520  1.00  0.00    -0.207 C  
HETATM   22  C   UNL     1     -10.149  10.950  67.692  1.00  0.00    -0.179 C  
HETATM   23  O   UNL     1     -11.500  10.519  67.318  1.00  0.00    -0.366 OA 
HETATM   24  C   UNL     1     -10.062  10.260  69.071  1.00  0.00    -0.225 C  
ENDROOT
BRANCH   2  25
HETATM   25  C   UNL     1      -7.757  12.367  69.204  1.00  0.00     0.290 C  
BRANCH  25  26
HETATM   26  C   UNL     1      -6.270  12.626  69.380  1.00  0.00    -0.113 C  
HETATM   27  C   UNL     1      -5.529  12.010  70.543  1.00  0.00    -0.156 C  
HETATM   28  C   UNL     1      -5.198  11.570  69.152  1.00  0.00    -0.043 C  
ENDBRANCH  25  26
ENDBRANCH   2  25
TORSDOF 2
ENDMDL
MODEL       92
REMARK 921   NORMALIZED FREE ENERGY PREDICTED BY IDOCK:   -3.93 KCAL/MOL
REMARK 922        TOTAL FREE ENERGY PREDICTED BY IDOCK:   -4.91 KCAL/MOL
REMARK 923 INTER-LIGAND FREE ENERGY PREDICTED BY IDOCK:   -4.46 KCAL/MOL
REMARK 924 INTRA-LIGAND FREE ENERGY PREDICTED BY IDOCK:   -0.45 KCAL/MOL
REMARK 927      BINDING AFFINITY PREDICTED BY RF-SCORE:    0.00 PKD
ROOT
HETATM    1  C   UNL     1     -10.750   5.675  66.393  1.00  0.00    -0.161 C  
HETATM    2  N   UNL     1      -9.781   5.711  67.598  1.00  0.00    -0.118 N  
HETATM    3  O   UNL     1      -6.381   4.691  71.445  1.00  0.00    -0.018 OA 
HETATM    4  C   UNL     1     -10.475   5.224  68.896  1.00  0.00    -0.120 C  
HETATM    5  C   UNL     1      -9.464   5.355  70.025  1.00  0.00    -0.212 C  
HETATM    6  C   UNL     1      -6.666   5.690  70.793  1.00  0.00    -0.048 C  
HETATM    7  C   UNL     1      -8.692   6.734  70.115  1.00  0.00    -0.141 C  
HETATM    8  C   UNL     1      -6.058   5.893  69.392  1.00  0.00    -0.028 C  
HETATM    9  H   UNL     1      -7.486   9.181  68.360  1.00  0.00     0.000 HD 
HETATM   10  C   UNL     1      -7.695   6.729  71.264  1.00  0.00    -0.093 C  
HETATM   11  O   UNL     1      -8.530   6.598  72.437  1.00  0.00    -0.117 OA 
HETATM   12  C   UNL     1      -9.628   7.382  72.098  1.00  0.00    -0.146 A  
HETATM   13  C   UNL     1     -10.704   7.749  72.848  1.00  0.00    -0.385 A  
HETATM   14  O   UNL     1     -10.884   7.265  74.102  1.00  0.00    -0.536 OA 
HETATM   15  C   UNL     1     -11.684   8.554  72.243  1.00  0.00    -0.443 A  
HETATM   16  C   UNL     1     -11.602   8.943  70.872  1.00  0.00    -0.331 A  
HETATM   17  H   UNL     1     -11.635   7.522  74.625  1.00  0.00     0.000 HD 
HETATM   18  C   UNL     1     -10.585   8.440  70.068  1.00  0.00    -0.235 A  
HETATM   19  C   UNL     1     -10.364   8.649  68.559  1.00  0.00    -0.228 C  
HETATM   20  C   UNL     1      -9.672   7.639  70.742  1.00  0.00    -0.173 A  
HETATM   21  C   UNL     1      -9.400   7.388  67.840  1.00  0.00    -0.138 C  
HETATM   22  C   UNL     1      -8.164   7.383  68.848  1.00  0.00    -0.129 C  
HETATM   23  O   UNL     1      -7.817   8.775  69.153  1.00  0.00    -0.094 OA 
HETATM   24  C   UNL     1      -6.761   6.883  68.437  1.00  0.00    -0.068 C  
ENDROOT
BRANCH   2  25
HETATM   25  C   UNL     1      -8.651   4.684  67.270  1.00  0.00    -0.104 C  
BRANCH  25  26
HETATM   26  C   UNL     1      -9.043   3.216  67.251  1.00  0.00    -0.201 C  
HETATM   27  C   UNL     1      -8.895   2.411  65.981  1.00  0.00    -0.125 C  
HETATM   28  C   UNL     1      -8.037   2.077  67.160  1.00  0.00    -0.068 C  
ENDBRANCH  25  26
ENDBRANCH   2  25
TORSDOF 2
ENDMDL
MODEL       93
REMARK 921   NORMALIZED FREE ENERGY PREDICTED BY IDOCK:   -3.93 KCAL/MOL
REMARK 922        TOTAL FREE ENERGY PREDICTED BY IDOCK:   -4.91 KCAL/MOL
REMARK 923 INTER-LIGAND FREE ENERGY PREDICTED BY IDOCK:   -4.71 KCAL/MOL
REMARK 924 INTRA-LIGAND FREE ENERGY PREDICTED BY IDOCK:   -0.20 KCAL/MOL
REMARK 927      BINDING AFFINITY PREDICTED BY RF-SCORE:    0.00 PKD
ROOT
HETATM    1  C   UNL     1      -9.241  19.654  69.424  1.00  0.00     0.117 C  
HETATM    2  N   UNL     1      -9.222  18.260  68.758  1.00  0.00    -0.274 N  
HETATM    3  O   UNL     1     -10.318  13.602  66.636  1.00  0.00    -0.268 OA 
HETATM    4  C   UNL     1      -9.307  17.127  69.813  1.00  0.00     0.861 C  
HETATM    5  C   UNL     1      -9.219  15.805  69.064  1.00  0.00    -0.243 C  
HETATM    6  C   UNL     1      -9.408  14.412  66.504  1.00  0.00    -0.278 C  
HETATM    7  C   UNL     1      -8.060  15.684  67.994  1.00  0.00    -0.140 C  
HETATM    8  C   UNL     1      -9.593  15.634  65.582  1.00  0.00    -0.319 C  
HETATM    9  H   UNL     1      -6.292  17.352  65.845  1.00  0.00     0.000 HD 
HETATM   10  C   UNL     1      -8.095  14.331  67.299  1.00  0.00    -0.178 C  
HETATM   11  O   UNL     1      -7.828  13.394  68.367  1.00  0.00    -0.131 OA 
HETATM   12  C   UNL     1      -6.884  14.080  69.123  1.00  0.00    -0.112 A  
HETATM   13  C   UNL     1      -6.157  13.666  70.197  1.00  0.00    -0.131 A  
HETATM   14  O   UNL     1      -6.364  12.449  70.759  1.00  0.00    -0.504 OA 
HETATM   15  C   UNL     1      -5.264  14.581  70.781  1.00  0.00    -0.126 A  
HETATM   16  C   UNL     1      -5.146  15.925  70.313  1.00  0.00    -0.143 A  
HETATM   17  H   UNL     1      -5.856  12.160  71.509  1.00  0.00     0.000 HD 
HETATM   18  C   UNL     1      -5.999  16.390  69.318  1.00  0.00    -0.154 A  
HETATM   19  C   UNL     1      -6.109  17.811  68.736  1.00  0.00    -0.195 C  
HETATM   20  C   UNL     1      -6.860  15.425  68.811  1.00  0.00    -0.113 A  
HETATM   21  C   UNL     1      -7.660  18.122  68.009  1.00  0.00    -0.245 C  
HETATM   22  C   UNL     1      -7.776  16.846  67.058  1.00  0.00    -0.195 C  
HETATM   23  O   UNL     1      -6.469  16.624  66.430  1.00  0.00    -0.236 OA 
HETATM   24  C   UNL     1      -8.647  16.839  65.783  1.00  0.00     0.169 C  
ENDROOT
BRANCH   2  25
HETATM   25  C   UNL     1     -10.521  18.179  67.894  1.00  0.00    -0.392 C  
BRANCH  25  26
HETATM   26  C   UNL     1     -10.900  19.424  67.109  1.00  0.00    -0.561 C  
HETATM   27  C   UNL     1      -9.837  20.210  66.378  1.00  0.00    -0.560 C  
HETATM   28  C   UNL     1     -10.889  19.497  65.589  1.00  0.00    -0.354 C  
ENDBRANCH  25  26
ENDBRANCH   2  25
TORSDOF 2
ENDMDL
MODEL       94
REMARK 921   NORMALIZED FREE ENERGY PREDICTED BY IDOCK:   -3.92 KCAL/MOL
REMARK 922        TOTAL FREE ENERGY PREDICTED BY IDOCK:   -4.90 KCAL/MOL
REMARK 923 INTER-LIGAND FREE ENERGY PREDICTED BY IDOCK:   -4.24 KCAL/MOL
REMARK 924 INTRA-LIGAND FREE ENERGY PREDICTED BY IDOCK:   -0.66 KCAL/MOL
REMARK 927      BINDING AFFINITY PREDICTED BY RF-SCORE:    0.00 PKD
ROOT
HETATM    1  C   UNL     1      -6.459   9.368  71.150  1.00  0.00    -0.067 C  
HETATM    2  N   UNL     1      -7.456   8.532  70.315  1.00  0.00    -0.061 N  
HETATM    3  O   UNL     1     -10.043   4.852  67.638  1.00  0.00    -0.162 OA 
HETATM    4  C   UNL     1      -7.027   8.463  68.826  1.00  0.00    -0.063 C  
HETATM    5  C   UNL     1      -8.098   7.677  68.084  1.00  0.00    -0.124 C  
HETATM    6  C   UNL     1     -10.376   5.856  68.258  1.00  0.00    -0.214 C  
HETATM    7  C   UNL     1      -9.597   8.101  68.366  1.00  0.00    -0.155 C  
HETATM    8  C   UNL     1     -10.519   5.801  69.792  1.00  0.00    -0.363 C  
HETATM    9  H   UNL     1     -11.609   9.271  70.626  1.00  0.00     0.000 HD 
HETATM   10  C   UNL     1     -10.569   7.226  67.588  1.00  0.00    -0.246 C  
HETATM   11  O   UNL     1     -10.264   7.524  66.207  1.00  0.00    -0.043 OA 
HETATM   12  C   UNL     1     -10.003   8.889  66.259  1.00  0.00    -0.266 A  
HETATM   13  C   UNL     1      -9.772   9.773  65.249  1.00  0.00    -0.300 A  
HETATM   14  O   UNL     1      -9.668   9.358  63.962  1.00  0.00    -0.345 OA 
HETATM   15  C   UNL     1      -9.528  11.115  65.590  1.00  0.00    -0.252 A  
HETATM   16  C   UNL     1      -9.467  11.550  66.948  1.00  0.00    -0.194 A  
HETATM   17  H   UNL     1      -9.507   9.975  63.257  1.00  0.00     0.000 HD 
HETATM   18  C   UNL     1      -9.549  10.620  67.978  1.00  0.00    -0.167 A  
HETATM   19  C   UNL     1      -9.414  10.853  69.494  1.00  0.00     0.157 C  
HETATM   20  C   UNL     1      -9.772   9.317  67.551  1.00  0.00    -0.201 A  
HETATM   21  C   UNL     1      -8.953   9.413  70.358  1.00  0.00    -0.294 C  
HETATM   22  C   UNL     1     -10.041   8.394  69.789  1.00  0.00    -0.197 C  
HETATM   23  O   UNL     1     -11.332   9.087  69.736  1.00  0.00    -0.105 OA 
HETATM   24  C   UNL     1     -10.487   7.137  70.568  1.00  0.00    -0.228 C  
ENDROOT
BRANCH   2  25
HETATM   25  C   UNL     1      -7.378   7.079  70.882  1.00  0.00    -0.077 C  
BRANCH  25  26
HETATM   26  C   UNL     1      -7.077   6.937  72.365  1.00  0.00    -0.070 C  
HETATM   27  C   UNL     1      -8.178   6.559  73.326  1.00  0.00    -0.118 C  
HETATM   28  C   UNL     1      -7.052   5.602  73.095  1.00  0.00    -0.086 C  
ENDBRANCH  25  26
ENDBRANCH   2  25
TORSDOF 2
ENDMDL
MODEL       95
REMARK 921   NORMALIZED FREE ENERGY PREDICTED BY IDOCK:   -3.92 KCAL/MOL
REMARK 922        TOTAL FREE ENERGY PREDICTED BY IDOCK:   -4.89 KCAL/MOL
REMARK 923 INTER-LIGAND FREE ENERGY PREDICTED BY IDOCK:   -4.31 KCAL/MOL
REMARK 924 INTRA-LIGAND FREE ENERGY PREDICTED BY IDOCK:   -0.58 KCAL/MOL
REMARK 927      BINDING AFFINITY PREDICTED BY RF-SCORE:    0.00 PKD
ROOT
HETATM    1  C   UNL     1      -5.363  15.261  68.920  1.00  0.00    -0.099 C  
HETATM    2  N   UNL     1      -6.842  15.594  68.620  1.00  0.00    -0.116 N  
HETATM    3  O   UNL     1     -11.619  17.695  68.215  1.00  0.00     0.547 OA 
HETATM    4  C   UNL     1      -7.757  15.236  69.820  1.00  0.00    -0.079 C  
HETATM    5  C   UNL     1      -9.188  15.542  69.404  1.00  0.00    -0.280 C  
HETATM    6  C   UNL     1     -10.965  16.912  67.534  1.00  0.00    -0.120 C  
HETATM    7  C   UNL     1      -9.637  14.993  67.989  1.00  0.00    -0.208 C  
HETATM    8  C   UNL     1      -9.907  17.448  66.550  1.00  0.00    -0.310 C  
HETATM    9  H   UNL     1      -8.600  14.321  64.989  1.00  0.00     0.000 HD 
HETATM   10  C   UNL     1     -11.073  15.386  67.680  1.00  0.00    -0.316 C  
HETATM   11  O   UNL     1     -11.839  14.702  68.697  1.00  0.00    -0.319 OA 
HETATM   12  C   UNL     1     -11.158  13.494  68.807  1.00  0.00    -0.264 A  
HETATM   13  C   UNL     1     -11.470  12.377  69.521  1.00  0.00    -0.240 A  
HETATM   14  O   UNL     1     -12.536  12.353  70.358  1.00  0.00    -0.239 OA 
HETATM   15  C   UNL     1     -10.588  11.285  69.453  1.00  0.00    -0.142 A  
HETATM   16  C   UNL     1      -9.370  11.341  68.709  1.00  0.00    -0.136 A  
HETATM   17  H   UNL     1     -12.753  11.574  70.857  1.00  0.00     0.000 HD 
HETATM   18  C   UNL     1      -8.979  12.533  68.109  1.00  0.00    -0.199 A  
HETATM   19  C   UNL     1      -7.677  12.841  67.348  1.00  0.00    -0.165 C  
HETATM   20  C   UNL     1      -9.901  13.564  68.240  1.00  0.00    -0.233 A  
HETATM   21  C   UNL     1      -7.302  14.542  67.316  1.00  0.00    -0.098 C  
HETATM   22  C   UNL     1      -8.698  15.118  66.802  1.00  0.00    -0.273 C  
HETATM   23  O   UNL     1      -9.188  14.242  65.732  1.00  0.00    -0.048 OA 
HETATM   24  C   UNL     1      -8.815  16.469  66.062  1.00  0.00    -0.267 C  
ENDROOT
BRANCH   2  25
HETATM   25  C   UNL     1      -6.905  17.144  68.442  1.00  0.00    -0.191 C  
BRANCH  25  26
HETATM   26  C   UNL     1      -5.744  17.798  67.712  1.00  0.00    -0.146 C  
HETATM   27  C   UNL     1      -5.964  18.433  66.359  1.00  0.00    -0.195 C  
HETATM   28  C   UNL     1      -5.608  19.302  67.523  1.00  0.00    -0.173 C  
ENDBRANCH  25  26
ENDBRANCH   2  25
TORSDOF 2
ENDMDL
MODEL       96
REMARK 921   NORMALIZED FREE ENERGY PREDICTED BY IDOCK:   -3.88 KCAL/MOL
REMARK 922        TOTAL FREE ENERGY PREDICTED BY IDOCK:   -4.85 KCAL/MOL
REMARK 923 INTER-LIGAND FREE ENERGY PREDICTED BY IDOCK:   -4.44 KCAL/MOL
REMARK 924 INTRA-LIGAND FREE ENERGY PREDICTED BY IDOCK:   -0.41 KCAL/MOL
REMARK 927      BINDING AFFINITY PREDICTED BY RF-SCORE:    0.00 PKD
ROOT
HETATM    1  C   UNL     1     -12.185   6.634  70.622  1.00  0.00    -0.200 C  
HETATM    2  N   UNL     1     -10.745   6.307  70.164  1.00  0.00    -0.259 N  
HETATM    3  O   UNL     1      -5.660   5.128  69.767  1.00  0.00    -0.010 OA 
HETATM    4  C   UNL     1      -9.833   7.560  70.228  1.00  0.00    -0.183 C  
HETATM    5  C   UNL     1      -8.465   7.150  69.704  1.00  0.00    -0.134 C  
HETATM    6  C   UNL     1      -6.637   4.970  69.043  1.00  0.00    -0.048 C  
HETATM    7  C   UNL     1      -8.452   6.339  68.345  1.00  0.00    -0.115 C  
HETATM    8  C   UNL     1      -7.588   3.781  69.284  1.00  0.00    -0.053 C  
HETATM    9  H   UNL     1     -10.102   4.193  66.558  1.00  0.00     0.000 HD 
HETATM   10  C   UNL     1      -7.032   5.968  67.943  1.00  0.00    -0.072 C  
HETATM   11  O   UNL     1      -6.398   7.246  67.715  1.00  0.00    -0.044 OA 
HETATM   12  C   UNL     1      -7.423   7.975  67.122  1.00  0.00    -0.092 A  
HETATM   13  C   UNL     1      -7.404   9.219  66.568  1.00  0.00    -0.092 A  
HETATM   14  O   UNL     1      -6.294   9.996  66.626  1.00  0.00    -0.067 OA 
HETATM   15  C   UNL     1      -8.603   9.722  66.036  1.00  0.00    -0.146 A  
HETATM   16  C   UNL     1      -9.828   8.992  66.110  1.00  0.00    -0.349 A  
HETATM   17  H   UNL     1      -6.281  10.865  66.239  1.00  0.00     0.000 HD 
HETATM   18  C   UNL     1      -9.879   7.792  66.811  1.00  0.00    -0.312 A  
HETATM   19  C   UNL     1     -11.099   6.898  67.095  1.00  0.00    -0.362 C  
HETATM   20  C   UNL     1      -8.653   7.379  67.319  1.00  0.00    -0.118 A  
HETATM   21  C   UNL     1     -10.875   5.875  68.487  1.00  0.00    -0.323 C  
HETATM   22  C   UNL     1      -9.463   5.227  68.123  1.00  0.00    -0.123 C  
HETATM   23  O   UNL     1      -9.469   4.888  66.696  1.00  0.00    -0.131 OA 
HETATM   24  C   UNL     1      -9.009   3.860  68.681  1.00  0.00    -0.170 C  
ENDROOT
BRANCH   2  25
HETATM   25  C   UNL     1     -10.187   5.282  71.202  1.00  0.00    -0.224 C  
BRANCH  25  26
HETATM   26  C   UNL     1     -10.478   5.563  72.668  1.00  0.00    -0.257 C  
HETATM   27  C   UNL     1     -11.283   4.576  73.480  1.00  0.00    -0.388 C  
HETATM   28  C   UNL     1      -9.841   4.793  73.815  1.00  0.00    -0.170 C  
ENDBRANCH  25  26
ENDBRANCH   2  25
TORSDOF 2
ENDMDL
MODEL       97
REMARK 921   NORMALIZED FREE ENERGY PREDICTED BY IDOCK:   -3.80 KCAL/MOL
REMARK 922        TOTAL FREE ENERGY PREDICTED BY IDOCK:   -4.77 KCAL/MOL
REMARK 923 INTER-LIGAND FREE ENERGY PREDICTED BY IDOCK:   -4.31 KCAL/MOL
REMARK 924 INTRA-LIGAND FREE ENERGY PREDICTED BY IDOCK:   -0.46 KCAL/MOL
REMARK 927      BINDING AFFINITY PREDICTED BY RF-SCORE:    0.00 PKD
ROOT
HETATM    1  C   UNL     1      -7.806  10.546  67.749  1.00  0.00    -0.104 C  
HETATM    2  N   UNL     1      -8.083   9.491  68.844  1.00  0.00    -0.094 N  
HETATM    3  O   UNL     1      -7.987   6.270  72.970  1.00  0.00    -0.107 OA 
HETATM    4  C   UNL     1      -7.342   8.161  68.548  1.00  0.00    -0.093 C  
HETATM    5  C   UNL     1      -7.727   7.177  69.642  1.00  0.00    -0.109 C  
HETATM    6  C   UNL     1      -8.878   6.777  72.297  1.00  0.00    -0.131 C  
HETATM    7  C   UNL     1      -9.271   7.064  69.969  1.00  0.00    -0.148 C  
HETATM    8  C   UNL     1      -9.327   8.224  72.581  1.00  0.00    -0.350 C  
HETATM    9  H   UNL     1     -12.054   8.726  70.085  1.00  0.00     0.000 HD 
HETATM   10  C   UNL     1      -9.521   6.070  71.094  1.00  0.00    -0.164 C  
HETATM   11  O   UNL     1      -9.081   4.811  70.539  1.00  0.00    -0.111 OA 
HETATM   12  C   UNL     1      -9.500   4.916  69.217  1.00  0.00    -0.142 A  
HETATM   13  C   UNL     1      -9.478   3.992  68.217  1.00  0.00    -0.156 A  
HETATM   14  O   UNL     1      -8.902   2.777  68.395  1.00  0.00    -0.093 OA 
HETATM   15  C   UNL     1      -9.966   4.374  66.956  1.00  0.00    -0.197 A  
HETATM   16  C   UNL     1     -10.427   5.700  66.694  1.00  0.00    -0.340 A  
HETATM   17  H   UNL     1      -8.886   2.132  67.697  1.00  0.00     0.000 HD 
HETATM   18  C   UNL     1     -10.304   6.682  67.670  1.00  0.00    -0.248 A  
HETATM   19  C   UNL     1     -10.644   8.180  67.572  1.00  0.00    -0.291 C  
HETATM   20  C   UNL     1      -9.796   6.222  68.879  1.00  0.00    -0.155 A  
HETATM   21  C   UNL     1      -9.782   9.144  68.739  1.00  0.00    -0.167 C  
HETATM   22  C   UNL     1     -10.113   8.324  70.066  1.00  0.00    -0.196 C  
HETATM   23  O   UNL     1     -11.528   7.938  70.024  1.00  0.00    -0.118 OA 
HETATM   24  C   UNL     1     -10.095   8.972  71.468  1.00  0.00    -0.409 C  
ENDROOT
BRANCH   2  25
HETATM   25  C   UNL     1      -7.476  10.069  70.162  1.00  0.00    -0.166 C  
BRANCH  25  26
HETATM   26  C   UNL     1      -5.994   9.828  70.397  1.00  0.00    -0.069 C  
HETATM   27  C   UNL     1      -5.212  10.755  71.298  1.00  0.00    -0.078 C  
HETATM   28  C   UNL     1      -5.421   9.335  71.718  1.00  0.00    -0.071 C  
ENDBRANCH  25  26
ENDBRANCH   2  25
TORSDOF 2
ENDMDL
MODEL       98
REMARK 921   NORMALIZED FREE ENERGY PREDICTED BY IDOCK:   -3.79 KCAL/MOL
REMARK 922        TOTAL FREE ENERGY PREDICTED BY IDOCK:   -4.75 KCAL/MOL
REMARK 923 INTER-LIGAND FREE ENERGY PREDICTED BY IDOCK:   -4.23 KCAL/MOL
REMARK 924 INTRA-LIGAND FREE ENERGY PREDICTED BY IDOCK:   -0.52 KCAL/MOL
REMARK 927      BINDING AFFINITY PREDICTED BY RF-SCORE:    0.00 PKD
ROOT
HETATM    1  C   UNL     1      -9.365   9.723  64.528  1.00  0.00    -0.235 C  
HETATM    2  N   UNL     1      -9.761  10.867  65.489  1.00  0.00    -0.219 N  
HETATM    3  O   UNL     1     -11.733  15.113  67.830  1.00  0.00    -0.331 OA 
HETATM    4  C   UNL     1      -8.911  12.138  65.236  1.00  0.00     0.498 C  
HETATM    5  C   UNL     1      -9.333  13.176  66.265  1.00  0.00    -0.138 C  
HETATM    6  C   UNL     1     -11.325  14.027  68.225  1.00  0.00    -0.288 C  
HETATM    7  C   UNL     1      -9.422  12.676  67.764  1.00  0.00    -0.198 C  
HETATM    8  C   UNL     1     -12.248  12.794  68.176  1.00  0.00     0.031 C  
HETATM    9  H   UNL     1     -10.100  10.117  69.638  1.00  0.00     0.000 HD 
HETATM   10  C   UNL     1      -9.877  13.796  68.688  1.00  0.00    -0.157 C  
HETATM   11  O   UNL     1      -8.812  14.768  68.595  1.00  0.00    -0.171 OA 
HETATM   12  C   UNL     1      -7.686  13.955  68.526  1.00  0.00    -0.139 A  
HETATM   13  C   UNL     1      -6.365  14.288  68.544  1.00  0.00    -0.092 A  
HETATM   14  O   UNL     1      -5.967  15.584  68.537  1.00  0.00    -0.091 OA 
HETATM   15  C   UNL     1      -5.423  13.249  68.454  1.00  0.00    -0.086 A  
HETATM   16  C   UNL     1      -5.814  11.885  68.293  1.00  0.00    -0.050 A  
HETATM   17  H   UNL     1      -5.046  15.816  68.550  1.00  0.00     0.000 HD 
HETATM   18  C   UNL     1      -7.156  11.565  68.120  1.00  0.00    -0.076 A  
HETATM   19  C   UNL     1      -7.784  10.188  67.839  1.00  0.00    -0.089 C  
HETATM   20  C   UNL     1      -8.015  12.653  68.206  1.00  0.00    -0.153 A  
HETATM   21  C   UNL     1      -9.347  10.304  67.080  1.00  0.00    -0.177 C  
HETATM   22  C   UNL     1     -10.056  11.331  68.072  1.00  0.00    -0.177 C  
HETATM   23  O   UNL     1      -9.703  10.958  69.446  1.00  0.00    -0.131 OA 
HETATM   24  C   UNL     1     -11.591  11.397  68.241  1.00  0.00    -0.376 C  
ENDROOT
BRANCH   2  25
HETATM   25  C   UNL     1     -11.240  11.227  65.140  1.00  0.00    -0.001 C  
BRANCH  25  26
HETATM   26  C   UNL     1     -11.477  11.946  63.822  1.00  0.00    -0.542 C  
HETATM   27  C   UNL     1     -12.877  12.060  63.265  1.00  0.00    -0.330 C  
HETATM   28  C   UNL     1     -12.167  13.299  63.712  1.00  0.00    -0.508 C  
ENDBRANCH  25  26
ENDBRANCH   2  25
TORSDOF 2
ENDMDL
MODEL       99
REMARK 921   NORMALIZED FREE ENERGY PREDICTED BY IDOCK:   -3.78 KCAL/MOL
REMARK 922        TOTAL FREE ENERGY PREDICTED BY IDOCK:   -4.73 KCAL/MOL
REMARK 923 INTER-LIGAND FREE ENERGY PREDICTED BY IDOCK:   -4.21 KCAL/MOL
REMARK 924 INTRA-LIGAND FREE ENERGY PREDICTED BY IDOCK:   -0.52 KCAL/MOL
REMARK 927      BINDING AFFINITY PREDICTED BY RF-SCORE:    0.00 PKD
ROOT
HETATM    1  C   UNL     1     -12.013   6.595  70.254  1.00  0.00    -0.240 C  
HETATM    2  N   UNL     1     -10.509   6.924  70.112  1.00  0.00    -0.203 N  
HETATM    3  O   UNL     1      -5.481   8.216  70.787  1.00  0.00    -0.029 OA 
HETATM    4  C   UNL     1     -10.269   8.454  70.037  1.00  0.00    -0.202 C  
HETATM    5  C   UNL     1      -8.776   8.668  69.838  1.00  0.00    -0.133 C  
HETATM    6  C   UNL     1      -6.089   7.530  69.973  1.00  0.00    -0.027 C  
HETATM    7  C   UNL     1      -8.089   7.793  68.713  1.00  0.00    -0.126 C  
HETATM    8  C   UNL     1      -6.465   6.076  70.321  1.00  0.00    -0.039 C  
HETATM    9  H   UNL     1      -8.172   4.918  67.212  1.00  0.00     0.000 HD 
HETATM   10  C   UNL     1      -6.597   8.080  68.631  1.00  0.00    -0.057 C  
HETATM   11  O   UNL     1      -6.539   9.466  68.227  1.00  0.00    -0.057 OA 
HETATM   12  C   UNL     1      -7.601   9.550  67.333  1.00  0.00    -0.095 A  
HETATM   13  C   UNL     1      -7.986  10.578  66.526  1.00  0.00    -0.132 A  
HETATM   14  O   UNL     1      -7.368  11.784  66.582  1.00  0.00    -0.314 OA 
HETATM   15  C   UNL     1      -9.118  10.391  65.715  1.00  0.00    -0.197 A  
HETATM   16  C   UNL     1      -9.888   9.189  65.757  1.00  0.00    -0.248 A  
HETATM   17  H   UNL     1      -7.636  12.501  66.020  1.00  0.00     0.000 HD 
HETATM   18  C   UNL     1      -9.585   8.205  66.690  1.00  0.00    -0.295 A  
HETATM   19  C   UNL     1     -10.332   6.888  66.972  1.00  0.00    -0.348 C  
HETATM   20  C   UNL     1      -8.463   8.479  67.463  1.00  0.00    -0.128 A  
HETATM   21  C   UNL     1     -10.032   6.273  68.573  1.00  0.00    -0.163 C  
HETATM   22  C   UNL     1      -8.438   6.320  68.588  1.00  0.00    -0.122 C  
HETATM   23  O   UNL     1      -7.954   5.839  67.289  1.00  0.00    -0.101 OA 
HETATM   24  C   UNL     1      -7.590   5.405  69.500  1.00  0.00    -0.070 C  
ENDROOT
BRANCH   2  25
HETATM   25  C   UNL     1      -9.833   6.419  71.426  1.00  0.00    -0.176 C  
BRANCH  25  26
HETATM   26  C   UNL     1     -10.172   5.005  71.871  1.00  0.00    -0.267 C  
HETATM   27  C   UNL     1      -9.281   4.291  72.861  1.00  0.00    -0.129 C  
HETATM   28  C   UNL     1     -10.674   4.659  73.266  1.00  0.00    -0.313 C  
ENDBRANCH  25  26
ENDBRANCH   2  25
TORSDOF 2
ENDMDL
MODEL      100
REMARK 921   NORMALIZED FREE ENERGY PREDICTED BY IDOCK:   -3.77 KCAL/MOL
REMARK 922        TOTAL FREE ENERGY PREDICTED BY IDOCK:   -4.73 KCAL/MOL
REMARK 923 INTER-LIGAND FREE ENERGY PREDICTED BY IDOCK:   -4.25 KCAL/MOL
REMARK 924 INTRA-LIGAND FREE ENERGY PREDICTED BY IDOCK:   -0.48 KCAL/MOL
REMARK 927      BINDING AFFINITY PREDICTED BY RF-SCORE:    0.00 PKD
ROOT
HETATM    1  C   UNL     1     -11.462   6.178  69.242  1.00  0.00    -0.127 C  
HETATM    2  N   UNL     1     -10.264   6.328  70.207  1.00  0.00    -0.189 N  
HETATM    3  O   UNL     1      -5.605   7.027  72.490  1.00  0.00    -0.037 OA 
HETATM    4  C   UNL     1      -9.433   5.020  70.285  1.00  0.00    -0.172 C  
HETATM    5  C   UNL     1      -8.323   5.250  71.299  1.00  0.00    -0.123 C  
HETATM    6  C   UNL     1      -6.768   7.178  72.848  1.00  0.00    -0.064 C  
HETATM    7  C   UNL     1      -8.760   5.889  72.680  1.00  0.00    -0.122 C  
HETATM    8  C   UNL     1      -7.530   8.461  72.465  1.00  0.00    -0.122 C  
HETATM    9  H   UNL     1     -10.855   7.935  74.075  1.00  0.00     0.000 HD 
HETATM   10  C   UNL     1      -7.559   6.091  73.593  1.00  0.00    -0.096 C  
HETATM   11  O   UNL     1      -7.092   4.747  73.842  1.00  0.00    -0.073 OA 
HETATM   12  C   UNL     1      -8.285   4.040  73.939  1.00  0.00    -0.092 A  
HETATM   13  C   UNL     1      -8.506   2.741  74.284  1.00  0.00    -0.068 A  
HETATM   14  O   UNL     1      -7.475   1.887  74.502  1.00  0.00    -0.031 OA 
HETATM   15  C   UNL     1      -9.833   2.278  74.295  1.00  0.00    -0.137 A  
HETATM   16  C   UNL     1     -10.927   3.111  73.908  1.00  0.00    -0.276 A  
HETATM   17  H   UNL     1      -7.629   0.981  74.743  1.00  0.00     0.000 HD 
HETATM   18  C   UNL     1     -10.685   4.386  73.409  1.00  0.00    -0.315 A  
HETATM   19  C   UNL     1     -11.695   5.405  72.852  1.00  0.00    -0.232 C  
HETATM   20  C   UNL     1      -9.345   4.754  73.417  1.00  0.00    -0.129 A  
HETATM   21  C   UNL     1     -10.959   6.565  71.782  1.00  0.00    -0.287 C  
HETATM   22  C   UNL     1      -9.743   7.046  72.696  1.00  0.00    -0.150 C  
HETATM   23  O   UNL     1     -10.239   7.212  74.066  1.00  0.00    -0.342 OA 
HETATM   24  C   UNL     1      -9.074   8.428  72.526  1.00  0.00    -0.326 C  
ENDROOT
BRANCH   2  25
HETATM   25  C   UNL     1      -9.341   7.420  69.580  1.00  0.00    -0.156 C  
BRANCH  25  26
HETATM   26  C   UNL     1     -10.005   8.434  68.662  1.00  0.00    -0.197 C  
HETATM   27  C   UNL     1      -9.215   9.612  68.142  1.00  0.00    -0.130 C  
HETATM   28  C   UNL     1      -9.683   8.566  67.181  1.00  0.00    -0.251 C  
ENDBRANCH  25  26
ENDBRANCH   2  25
TORSDOF 2
ENDMDL
MODEL      101
REMARK 921   NORMALIZED FREE ENERGY PREDICTED BY IDOCK:   -3.72 KCAL/MOL
REMARK 922        TOTAL FREE ENERGY PREDICTED BY IDOCK:   -4.67 KCAL/MOL
REMARK 923 INTER-LIGAND FREE ENERGY PREDICTED BY IDOCK:   -4.20 KCAL/MOL
REMARK 924 INTRA-LIGAND FREE ENERGY PREDICTED BY IDOCK:   -0.47 KCAL/MOL
REMARK 927      BINDING AFFINITY PREDICTED BY RF-SCORE:    0.00 PKD
ROOT
HETATM    1  C   UNL     1     -11.522  10.752  69.178  1.00  0.00    -0.298 C  
HETATM    2  N   UNL     1     -10.400  10.286  68.222  1.00  0.00    -0.172 N  
HETATM    3  O   UNL     1      -7.109   9.449  64.238  1.00  0.00    -0.096 OA 
HETATM    4  C   UNL     1     -10.904   9.188  67.250  1.00  0.00    -0.051 C  
HETATM    5  C   UNL     1      -9.718   8.757  66.401  1.00  0.00    -0.335 C  
HETATM    6  C   UNL     1      -7.020   9.362  65.458  1.00  0.00    -0.086 C  
HETATM    7  C   UNL     1      -8.377   8.443  67.182  1.00  0.00    -0.122 C  
HETATM    8  C   UNL     1      -6.751  10.623  66.302  1.00  0.00    -0.129 C  
HETATM    9  H   UNL     1      -6.600   9.257  69.771  1.00  0.00     0.000 HD 
HETATM   10  C   UNL     1      -7.264   8.050  66.222  1.00  0.00    -0.071 C  
HETATM   11  O   UNL     1      -7.743   6.822  65.630  1.00  0.00    -0.091 OA 
HETATM   12  C   UNL     1      -8.366   6.206  66.710  1.00  0.00    -0.110 A  
HETATM   13  C   UNL     1      -8.908   4.961  66.812  1.00  0.00    -0.110 A  
HETATM   14  O   UNL     1      -8.991   4.140  65.735  1.00  0.00    -0.121 OA 
HETATM   15  C   UNL     1      -9.486   4.592  68.039  1.00  0.00    -0.191 A  
HETATM   16  C   UNL     1      -9.561   5.497  69.141  1.00  0.00    -0.189 A  
HETATM   17  H   UNL     1      -9.369   3.271  65.806  1.00  0.00     0.000 HD 
HETATM   18  C   UNL     1      -9.147   6.815  68.985  1.00  0.00    -0.137 A  
HETATM   19  C   UNL     1      -9.226   7.971  69.999  1.00  0.00    -0.156 C  
HETATM   20  C   UNL     1      -8.607   7.097  67.737  1.00  0.00    -0.126 A  
HETATM   21  C   UNL     1      -9.205   9.537  69.237  1.00  0.00    -0.169 C  
HETATM   22  C   UNL     1      -7.925   9.366  68.300  1.00  0.00    -0.094 C  
HETATM   23  O   UNL     1      -6.882   8.680  69.071  1.00  0.00    -0.054 OA 
HETATM   24  C   UNL     1      -7.091  10.569  67.808  1.00  0.00    -0.083 C  
ENDROOT
BRANCH   2  25
HETATM   25  C   UNL     1     -10.030  11.531  67.355  1.00  0.00    -0.190 C  
BRANCH  25  26
HETATM   26  C   UNL     1     -11.148  12.149  66.531  1.00  0.00    -0.352 C  
HETATM   27  C   UNL     1     -11.523  13.598  66.736  1.00  0.00    -0.370 C  
HETATM   28  C   UNL     1     -10.915  13.179  65.435  1.00  0.00    -0.298 C  
ENDBRANCH  25  26
ENDBRANCH   2  25
TORSDOF 2
ENDMDL
MODEL      102
REMARK 921   NORMALIZED FREE ENERGY PREDICTED BY IDOCK:   -3.63 KCAL/MOL
REMARK 922        TOTAL FREE ENERGY PREDICTED BY IDOCK:   -4.58 KCAL/MOL
REMARK 923 INTER-LIGAND FREE ENERGY PREDICTED BY IDOCK:   -4.16 KCAL/MOL
REMARK 924 INTRA-LIGAND FREE ENERGY PREDICTED BY IDOCK:   -0.42 KCAL/MOL
REMARK 927      BINDING AFFINITY PREDICTED BY RF-SCORE:    0.00 PKD
ROOT
HETATM    1  C   UNL     1      -9.310  10.187  66.355  1.00  0.00    -0.169 C  
HETATM    2  N   UNL     1      -9.031   9.411  67.663  1.00  0.00    -0.119 N  
HETATM    3  O   UNL     1      -7.200   7.541  72.196  1.00  0.00    -0.065 OA 
HETATM    4  C   UNL     1      -7.911   8.357  67.466  1.00  0.00    -0.099 C  
HETATM    5  C   UNL     1      -7.756   7.612  68.784  1.00  0.00    -0.118 C  
HETATM    6  C   UNL     1      -8.299   7.551  71.653  1.00  0.00    -0.107 C  
HETATM    7  C   UNL     1      -9.094   7.100  69.458  1.00  0.00    -0.146 C  
HETATM    8  C   UNL     1      -9.195   8.802  71.752  1.00  0.00    -0.332 C  
HETATM    9  H   UNL     1     -12.243   7.763  69.868  1.00  0.00     0.000 HD 
HETATM   10  C   UNL     1      -8.808   6.396  70.776  1.00  0.00    -0.144 C  
HETATM   11  O   UNL     1      -8.027   5.245  70.385  1.00  0.00    -0.087 OA 
HETATM   12  C   UNL     1      -8.638   4.875  69.191  1.00  0.00    -0.080 A  
HETATM   13  C   UNL     1      -8.426   3.785  68.403  1.00  0.00    -0.091 A  
HETATM   14  O   UNL     1      -7.432   2.903  68.675  1.00  0.00    -0.048 OA 
HETATM   15  C   UNL     1      -9.192   3.660  67.231  1.00  0.00    -0.215 A  
HETATM   16  C   UNL     1     -10.131   4.659  66.832  1.00  0.00    -0.227 A  
HETATM   17  H   UNL     1      -7.285   2.142  68.125  1.00  0.00     0.000 HD 
HETATM   18  C   UNL     1     -10.234   5.842  67.556  1.00  0.00    -0.239 A  
HETATM   19  C   UNL     1     -11.101   7.078  67.254  1.00  0.00    -0.302 C  
HETATM   20  C   UNL     1      -9.429   5.888  68.687  1.00  0.00    -0.137 A  
HETATM   21  C   UNL     1     -10.488   8.527  68.001  1.00  0.00    -0.249 C  
HETATM   22  C   UNL     1     -10.311   8.008  69.499  1.00  0.00    -0.221 C  
HETATM   23  O   UNL     1     -11.482   7.195  69.842  1.00  0.00    -0.212 OA 
HETATM   24  C   UNL     1     -10.329   8.960  70.714  1.00  0.00    -0.283 C  
ENDROOT
BRANCH   2  25
HETATM   25  C   UNL     1      -8.493  10.466  68.682  1.00  0.00    -0.129 C  
BRANCH  25  26
HETATM   26  C   UNL     1      -7.798  11.687  68.102  1.00  0.00    -0.133 C  
HETATM   27  C   UNL     1      -8.300  13.072  68.437  1.00  0.00    -0.118 C  
HETATM   28  C   UNL     1      -6.953  12.646  68.927  1.00  0.00    -0.086 C  
ENDBRANCH  25  26
ENDBRANCH   2  25
TORSDOF 2
ENDMDL
MODEL      103
REMARK 921   NORMALIZED FREE ENERGY PREDICTED BY IDOCK:   -3.45 KCAL/MOL
REMARK 922        TOTAL FREE ENERGY PREDICTED BY IDOCK:   -4.37 KCAL/MOL
REMARK 923 INTER-LIGAND FREE ENERGY PREDICTED BY IDOCK:   -3.73 KCAL/MOL
REMARK 924 INTRA-LIGAND FREE ENERGY PREDICTED BY IDOCK:   -0.64 KCAL/MOL
REMARK 927      BINDING AFFINITY PREDICTED BY RF-SCORE:    0.00 PKD
ROOT
HETATM    1  C   UNL     1     -10.529   6.880  73.944  1.00  0.00    -0.318 C  
HETATM    2  N   UNL     1     -10.158   6.540  72.482  1.00  0.00    -0.172 N  
HETATM    3  O   UNL     1     -10.037   5.114  67.447  1.00  0.00    -0.170 OA 
HETATM    4  C   UNL     1      -9.926   5.018  72.297  1.00  0.00    -0.182 C  
HETATM    5  C   UNL     1      -9.510   4.798  70.850  1.00  0.00    -0.230 C  
HETATM    6  C   UNL     1      -9.372   5.877  68.139  1.00  0.00    -0.115 C  
HETATM    7  C   UNL     1      -8.377   5.754  70.296  1.00  0.00    -0.117 C  
HETATM    8  C   UNL     1      -9.885   7.302  68.425  1.00  0.00    -0.161 C  
HETATM    9  H   UNL     1      -7.142   8.747  70.500  1.00  0.00     0.000 HD 
HETATM   10  C   UNL     1      -8.070   5.451  68.837  1.00  0.00    -0.094 C  
HETATM   11  O   UNL     1      -7.550   4.103  68.872  1.00  0.00    -0.055 OA 
HETATM   12  C   UNL     1      -6.804   4.112  70.046  1.00  0.00    -0.034 A  
HETATM   13  C   UNL     1      -5.976   3.163  70.563  1.00  0.00    -0.018 A  
HETATM   14  O   UNL     1      -5.849   1.947  69.977  1.00  0.00    -0.017 OA 
HETATM   15  C   UNL     1      -5.344   3.436  71.788  1.00  0.00    -0.004 A  
HETATM   16  C   UNL     1      -5.588   4.642  72.512  1.00  0.00    -0.008 A  
HETATM   17  H   UNL     1      -5.271   1.284  70.337  1.00  0.00     0.000 HD 
HETATM   18  C   UNL     1      -6.549   5.539  72.060  1.00  0.00    -0.057 A  
HETATM   19  C   UNL     1      -7.036   6.840  72.726  1.00  0.00    -0.075 C  
HETATM   20  C   UNL     1      -7.137   5.182  70.853  1.00  0.00    -0.059 A  
HETATM   21  C   UNL     1      -8.627   7.311  72.198  1.00  0.00    -0.126 C  
HETATM   22  C   UNL     1      -8.422   7.238  70.617  1.00  0.00    -0.140 C  
HETATM   23  O   UNL     1      -7.113   7.819  70.299  1.00  0.00    -0.049 OA 
HETATM   24  C   UNL     1      -9.282   8.057  69.630  1.00  0.00    -0.152 C  
ENDROOT
BRANCH   2  25
HETATM   25  C   UNL     1     -11.405   6.921  71.623  1.00  0.00    -0.260 C  
BRANCH  25  26
HETATM   26  C   UNL     1     -12.236   8.099  72.105  1.00  0.00    -0.398 C  
HETATM   27  C   UNL     1     -12.428   9.303  71.213  1.00  0.00    -0.389 C  
HETATM   28  C   UNL     1     -13.609   8.446  71.547  1.00  0.00    -0.332 C  
ENDBRANCH  25  26
ENDBRANCH   2  25
TORSDOF 2
ENDMDL
MODEL      104
REMARK 921   NORMALIZED FREE ENERGY PREDICTED BY IDOCK:   -3.43 KCAL/MOL
REMARK 922        TOTAL FREE ENERGY PREDICTED BY IDOCK:   -4.35 KCAL/MOL
REMARK 923 INTER-LIGAND FREE ENERGY PREDICTED BY IDOCK:   -3.68 KCAL/MOL
REMARK 924 INTRA-LIGAND FREE ENERGY PREDICTED BY IDOCK:   -0.67 KCAL/MOL
REMARK 927      BINDING AFFINITY PREDICTED BY RF-SCORE:    0.00 PKD
ROOT
HETATM    1  C   UNL     1     -10.158   4.172  65.452  1.00  0.00    -0.197 C  
HETATM    2  N   UNL     1      -9.156   4.684  66.512  1.00  0.00    -0.119 N  
HETATM    3  O   UNL     1      -5.144   5.478  69.780  1.00  0.00    -0.004 OA 
HETATM    4  C   UNL     1      -9.323   3.933  67.858  1.00  0.00    -0.177 C  
HETATM    5  C   UNL     1      -8.341   4.549  68.844  1.00  0.00    -0.086 C  
HETATM    6  C   UNL     1      -5.970   6.207  69.241  1.00  0.00    -0.024 C  
HETATM    7  C   UNL     1      -8.325   6.130  68.918  1.00  0.00    -0.115 C  
HETATM    8  C   UNL     1      -5.756   6.668  67.785  1.00  0.00    -0.016 C  
HETATM    9  H   UNL     1      -8.729   8.839  67.180  1.00  0.00     0.000 HD 
HETATM   10  C   UNL     1      -7.287   6.620  69.917  1.00  0.00    -0.086 C  
HETATM   11  O   UNL     1      -7.766   6.111  71.181  1.00  0.00    -0.101 OA 
HETATM   12  C   UNL     1      -9.142   6.260  71.050  1.00  0.00    -0.154 A  
HETATM   13  C   UNL     1     -10.133   6.065  71.963  1.00  0.00    -0.186 A  
HETATM   14  O   UNL     1      -9.866   5.566  73.195  1.00  0.00    -0.159 OA 
HETATM   15  C   UNL     1     -11.459   6.287  71.553  1.00  0.00    -0.351 A  
HETATM   16  C   UNL     1     -11.785   6.654  70.212  1.00  0.00    -0.432 A  
HETATM   17  H   UNL     1     -10.558   5.430  73.832  1.00  0.00     0.000 HD 
HETATM   18  C   UNL     1     -10.787   6.701  69.245  1.00  0.00    -0.335 A  
HETATM   19  C   UNL     1     -10.926   6.978  67.737  1.00  0.00    -0.234 C  
HETATM   20  C   UNL     1      -9.511   6.451  69.733  1.00  0.00    -0.160 A  
HETATM   21  C   UNL     1      -9.598   6.338  66.810  1.00  0.00    -0.183 C  
HETATM   22  C   UNL     1      -8.374   6.943  67.636  1.00  0.00    -0.123 C  
HETATM   23  O   UNL     1      -8.698   8.331  67.982  1.00  0.00    -0.134 OA 
HETATM   24  C   UNL     1      -6.985   7.183  67.004  1.00  0.00    -0.077 C  
ENDROOT
BRANCH   2  25
HETATM   25  C   UNL     1      -7.736   4.333  65.965  1.00  0.00    -0.090 C  
BRANCH  25  26
HETATM   26  C   UNL     1      -7.562   4.340  64.455  1.00  0.00    -0.073 C  
HETATM   27  C   UNL     1      -6.969   5.549  63.770  1.00  0.00    -0.047 C  
HETATM   28  C   UNL     1      -6.209   4.260  63.763  1.00  0.00    -0.018 C  
ENDBRANCH  25  26
ENDBRANCH   2  25
TORSDOF 2
ENDMDL
MODEL      105
REMARK 921   NORMALIZED FREE ENERGY PREDICTED BY IDOCK:   -3.40 KCAL/MOL
REMARK 922        TOTAL FREE ENERGY PREDICTED BY IDOCK:   -4.32 KCAL/MOL
REMARK 923 INTER-LIGAND FREE ENERGY PREDICTED BY IDOCK:   -3.98 KCAL/MOL
REMARK 924 INTRA-LIGAND FREE ENERGY PREDICTED BY IDOCK:   -0.34 KCAL/MOL
REMARK 927      BINDING AFFINITY PREDICTED BY RF-SCORE:    0.00 PKD
ROOT
HETATM    1  C   UNL     1      -8.078   3.463  66.313  1.00  0.00    -0.092 C  
HETATM    2  N   UNL     1      -8.392   4.862  66.892  1.00  0.00    -0.107 N  
HETATM    3  O   UNL     1      -8.850   9.974  67.921  1.00  0.00    -0.125 OA 
HETATM    4  C   UNL     1      -7.196   5.417  67.709  1.00  0.00    -0.072 C  
HETATM    5  C   UNL     1      -7.626   6.760  68.282  1.00  0.00    -0.107 C  
HETATM    6  C   UNL     1      -9.520   8.981  68.186  1.00  0.00    -0.142 C  
HETATM    7  C   UNL     1      -9.040   6.796  68.992  1.00  0.00    -0.137 C  
HETATM    8  C   UNL     1     -10.500   8.413  67.141  1.00  0.00    -0.380 C  
HETATM    9  H   UNL     1     -12.026   5.529  68.951  1.00  0.00     0.000 HD 
HETATM   10  C   UNL     1      -9.363   8.194  69.497  1.00  0.00    -0.155 C  
HETATM   11  O   UNL     1      -8.347   8.438  70.495  1.00  0.00    -0.115 OA 
HETATM   12  C   UNL     1      -8.223   7.188  71.091  1.00  0.00    -0.112 A  
HETATM   13  C   UNL     1      -7.503   6.808  72.183  1.00  0.00    -0.093 A  
HETATM   14  O   UNL     1      -6.673   7.675  72.814  1.00  0.00    -0.062 OA 
HETATM   15  C   UNL     1      -7.555   5.458  72.569  1.00  0.00    -0.098 A  
HETATM   16  C   UNL     1      -8.290   4.486  71.825  1.00  0.00    -0.108 A  
HETATM   17  H   UNL     1      -6.171   7.410  73.576  1.00  0.00     0.000 HD 
HETATM   18  C   UNL     1      -8.897   4.845  70.626  1.00  0.00    -0.147 A  
HETATM   19  C   UNL     1      -9.650   3.948  69.627  1.00  0.00    -0.259 C  
HETATM   20  C   UNL     1      -8.780   6.193  70.312  1.00  0.00    -0.145 A  
HETATM   21  C   UNL     1      -9.691   4.619  68.020  1.00  0.00    -0.197 C  
HETATM   22  C   UNL     1     -10.221   6.087  68.351  1.00  0.00    -0.181 C  
HETATM   23  O   UNL     1     -11.288   5.973  69.352  1.00  0.00    -0.398 OA 
HETATM   24  C   UNL     1     -10.971   6.952  67.314  1.00  0.00    -0.406 C  
ENDROOT
BRANCH   2  25
HETATM   25  C   UNL     1      -8.581   5.803  65.660  1.00  0.00    -0.151 C  
BRANCH  25  26
HETATM   26  C   UNL     1      -7.318   6.336  65.004  1.00  0.00    -0.078 C  
HETATM   27  C   UNL     1      -6.765   5.660  63.771  1.00  0.00    -0.037 C  
HETATM   28  C   UNL     1      -7.305   7.051  63.660  1.00  0.00    -0.078 C  
ENDBRANCH  25  26
ENDBRANCH   2  25
TORSDOF 2
ENDMDL
MODEL      106
REMARK 921   NORMALIZED FREE ENERGY PREDICTED BY IDOCK:   -3.33 KCAL/MOL
REMARK 922        TOTAL FREE ENERGY PREDICTED BY IDOCK:   -4.24 KCAL/MOL
REMARK 923 INTER-LIGAND FREE ENERGY PREDICTED BY IDOCK:   -3.96 KCAL/MOL
REMARK 924 INTRA-LIGAND FREE ENERGY PREDICTED BY IDOCK:   -0.28 KCAL/MOL
REMARK 927      BINDING AFFINITY PREDICTED BY RF-SCORE:    0.00 PKD
ROOT
HETATM    1  C   UNL     1      -9.712  13.199  67.170  1.00  0.00    -0.235 C  
HETATM    2  N   UNL     1      -9.280  11.743  66.880  1.00  0.00    -0.183 N  
HETATM    3  O   UNL     1      -8.879   6.736  65.409  1.00  0.00    -0.050 OA 
HETATM    4  C   UNL     1      -9.854  10.762  67.935  1.00  0.00    -0.167 C  
HETATM    5  C   UNL     1      -9.324   9.377  67.597  1.00  0.00    -0.146 C  
HETATM    6  C   UNL     1      -8.073   7.638  65.610  1.00  0.00    -0.127 C  
HETATM    7  C   UNL     1      -7.771   9.273  67.312  1.00  0.00    -0.095 C  
HETATM    8  C   UNL     1      -7.803   8.687  64.514  1.00  0.00    -0.132 C  
HETATM    9  H   UNL     1      -5.217  10.862  66.096  1.00  0.00     0.000 HD 
HETATM   10  C   UNL     1      -7.373   7.846  66.963  1.00  0.00    -0.091 C  
HETATM   11  O   UNL     1      -7.663   7.107  68.170  1.00  0.00    -0.111 OA 
HETATM   12  C   UNL     1      -7.291   8.012  69.158  1.00  0.00    -0.086 A  
HETATM   13  C   UNL     1      -7.218   7.850  70.509  1.00  0.00    -0.053 A  
HETATM   14  O   UNL     1      -7.633   6.704  71.102  1.00  0.00    -0.087 OA 
HETATM   15  C   UNL     1      -6.810   8.950  71.283  1.00  0.00    -0.090 A  
HETATM   16  C   UNL     1      -6.526  10.222  70.699  1.00  0.00    -0.063 A  
HETATM   17  H   UNL     1      -7.582   6.591  72.045  1.00  0.00     0.000 HD 
HETATM   18  C   UNL     1      -6.749  10.427  69.342  1.00  0.00    -0.069 A  
HETATM   19  C   UNL     1      -6.603  11.728  68.532  1.00  0.00    -0.059 C  
HETATM   20  C   UNL     1      -7.169   9.293  68.657  1.00  0.00    -0.075 A  
HETATM   21  C   UNL     1      -7.553  11.722  67.072  1.00  0.00    -0.147 C  
HETATM   22  C   UNL     1      -7.092  10.326  66.453  1.00  0.00    -0.112 C  
HETATM   23  O   UNL     1      -5.641  10.203  66.633  1.00  0.00    -0.044 OA 
HETATM   24  C   UNL     1      -7.161  10.027  64.940  1.00  0.00    -0.140 C  
ENDROOT
BRANCH   2  25
HETATM   25  C   UNL     1      -9.925  11.370  65.508  1.00  0.00    -0.239 C  
BRANCH  25  26
HETATM   26  C   UNL     1     -11.208  12.095  65.133  1.00  0.00    -0.378 C  
HETATM   27  C   UNL     1     -11.179  13.192  64.095  1.00  0.00    -0.433 C  
HETATM   28  C   UNL     1     -11.912  11.923  63.795  1.00  0.00    -0.547 C  
ENDBRANCH  25  26
ENDBRANCH   2  25
TORSDOF 2
ENDMDL
MODEL      107
REMARK 921   NORMALIZED FREE ENERGY PREDICTED BY IDOCK:   -3.31 KCAL/MOL
REMARK 922        TOTAL FREE ENERGY PREDICTED BY IDOCK:   -4.22 KCAL/MOL
REMARK 923 INTER-LIGAND FREE ENERGY PREDICTED BY IDOCK:   -3.80 KCAL/MOL
REMARK 924 INTRA-LIGAND FREE ENERGY PREDICTED BY IDOCK:   -0.41 KCAL/MOL
REMARK 927      BINDING AFFINITY PREDICTED BY RF-SCORE:    0.00 PKD
ROOT
HETATM    1  C   UNL     1      -6.896   6.519  64.759  1.00  0.00    -0.050 C  
HETATM    2  N   UNL     1      -7.830   6.627  65.986  1.00  0.00    -0.100 N  
HETATM    3  O   UNL     1     -11.734   6.390  69.465  1.00  0.00    -0.366 OA 
HETATM    4  C   UNL     1      -8.851   7.783  65.819  1.00  0.00    -0.106 C  
HETATM    5  C   UNL     1      -9.676   7.844  67.096  1.00  0.00    -0.249 C  
HETATM    6  C   UNL     1     -10.515   6.497  69.548  1.00  0.00    -0.222 C  
HETATM    7  C   UNL     1      -8.864   7.813  68.455  1.00  0.00    -0.130 C  
HETATM    8  C   UNL     1      -9.625   5.243  69.447  1.00  0.00    -0.215 C  
HETATM    9  H   UNL     1      -6.197   6.649  69.888  1.00  0.00     0.000 HD 
HETATM   10  C   UNL     1      -9.801   7.853  69.653  1.00  0.00    -0.179 C  
HETATM   11  O   UNL     1     -10.445   9.142  69.537  1.00  0.00    -0.209 OA 
HETATM   12  C   UNL     1      -9.404   9.944  69.083  1.00  0.00    -0.193 A  
HETATM   13  C   UNL     1      -9.358  11.293  68.897  1.00  0.00    -0.072 A  
HETATM   14  O   UNL     1     -10.461  12.063  69.063  1.00  0.00    -0.369 OA 
HETATM   15  C   UNL     1      -8.162  11.851  68.415  1.00  0.00    -0.160 A  
HETATM   16  C   UNL     1      -7.035  11.043  68.073  1.00  0.00    -0.068 A  
HETATM   17  H   UNL     1     -10.429  13.004  68.933  1.00  0.00     0.000 HD 
HETATM   18  C   UNL     1      -7.136   9.657  68.117  1.00  0.00    -0.079 A  
HETATM   19  C   UNL     1      -6.090   8.605  67.706  1.00  0.00    -0.048 C  
HETATM   20  C   UNL     1      -8.358   9.192  68.587  1.00  0.00    -0.126 A  
HETATM   21  C   UNL     1      -6.802   7.064  67.318  1.00  0.00    -0.069 C  
HETATM   22  C   UNL     1      -7.704   6.846  68.615  1.00  0.00    -0.113 C  
HETATM   23  O   UNL     1      -6.923   7.254  69.788  1.00  0.00    -0.054 OA 
HETATM   24  C   UNL     1      -8.132   5.444  69.102  1.00  0.00    -0.094 C  
ENDROOT
BRANCH   2  25
HETATM   25  C   UNL     1      -8.646   5.297  66.023  1.00  0.00    -0.124 C  
BRANCH  25  26
HETATM   26  C   UNL     1      -8.447   4.338  64.860  1.00  0.00    -0.118 C  
HETATM   27  C   UNL     1      -9.327   3.117  64.729  1.00  0.00    -0.148 C  
HETATM   28  C   UNL     1      -9.427   4.202  63.704  1.00  0.00    -0.142 C  
ENDBRANCH  25  26
ENDBRANCH   2  25
TORSDOF 2
ENDMDL
MODEL      108
REMARK 921   NORMALIZED FREE ENERGY PREDICTED BY IDOCK:   -3.30 KCAL/MOL
REMARK 922        TOTAL FREE ENERGY PREDICTED BY IDOCK:   -4.20 KCAL/MOL
REMARK 923 INTER-LIGAND FREE ENERGY PREDICTED BY IDOCK:   -3.77 KCAL/MOL
REMARK 924 INTRA-LIGAND FREE ENERGY PREDICTED BY IDOCK:   -0.44 KCAL/MOL
REMARK 927      BINDING AFFINITY PREDICTED BY RF-SCORE:    0.00 PKD
ROOT
HETATM    1  C   UNL     1     -11.000  10.292  67.371  1.00  0.00    -0.252 C  
HETATM    2  N   UNL     1      -9.574   9.954  67.864  1.00  0.00    -0.138 N  
HETATM    3  O   UNL     1      -5.276   7.885  70.019  1.00  0.00    -0.023 OA 
HETATM    4  C   UNL     1      -9.358  10.415  69.328  1.00  0.00    -0.187 C  
HETATM    5  C   UNL     1      -7.917  10.094  69.695  1.00  0.00    -0.181 C  
HETATM    6  C   UNL     1      -5.489   8.605  69.049  1.00  0.00    -0.036 C  
HETATM    7  C   UNL     1      -6.815  10.538  68.648  1.00  0.00    -0.054 C  
HETATM    8  C   UNL     1      -5.940   7.982  67.713  1.00  0.00    -0.046 C  
HETATM    9  H   UNL     1      -6.223  10.962  65.487  1.00  0.00     0.000 HD 
HETATM   10  C   UNL     1      -5.423  10.139  69.117  1.00  0.00    -0.038 C  
HETATM   11  O   UNL     1      -5.238  10.909  70.325  1.00  0.00    -0.052 OA 
HETATM   12  C   UNL     1      -5.851  12.113  69.996  1.00  0.00    -0.152 A  
HETATM   13  C   UNL     1      -5.900  13.286  70.687  1.00  0.00    -0.150 A  
HETATM   14  O   UNL     1      -5.383  13.387  71.937  1.00  0.00    -0.273 OA 
HETATM   15  C   UNL     1      -6.604  14.359  70.114  1.00  0.00    -0.104 A  
HETATM   16  C   UNL     1      -7.299  14.231  68.874  1.00  0.00    -0.126 A  
HETATM   17  H   UNL     1      -5.417  14.206  72.419  1.00  0.00     0.000 HD 
HETATM   18  C   UNL     1      -7.377  12.992  68.248  1.00  0.00    -0.116 A  
HETATM   19  C   UNL     1      -8.145  12.610  66.969  1.00  0.00    -0.088 C  
HETATM   20  C   UNL     1      -6.668  11.984  68.891  1.00  0.00    -0.093 A  
HETATM   21  C   UNL     1      -8.503  10.908  66.882  1.00  0.00    -0.135 C  
HETATM   22  C   UNL     1      -7.052  10.309  67.165  1.00  0.00    -0.089 C  
HETATM   23  O   UNL     1      -6.074  11.105  66.414  1.00  0.00    -0.128 OA 
HETATM   24  C   UNL     1      -6.624   8.906  66.681  1.00  0.00    -0.064 C  
ENDROOT
BRANCH   2  25
HETATM   25  C   UNL     1      -9.475   8.396  67.855  1.00  0.00    -0.146 C  
BRANCH  25  26
HETATM   26  C   UNL     1     -10.785   7.626  67.812  1.00  0.00    -0.215 C  
HETATM   27  C   UNL     1     -10.872   6.326  67.048  1.00  0.00    -0.458 C  
HETATM   28  C   UNL     1     -11.011   6.307  68.537  1.00  0.00    -0.421 C  
ENDBRANCH  25  26
ENDBRANCH   2  25
TORSDOF 2
ENDMDL
MODEL      109
REMARK 921   NORMALIZED FREE ENERGY PREDICTED BY IDOCK:   -3.29 KCAL/MOL
REMARK 922        TOTAL FREE ENERGY PREDICTED BY IDOCK:   -4.19 KCAL/MOL
REMARK 923 INTER-LIGAND FREE ENERGY PREDICTED BY IDOCK:   -3.71 KCAL/MOL
REMARK 924 INTRA-LIGAND FREE ENERGY PREDICTED BY IDOCK:   -0.48 KCAL/MOL
REMARK 927      BINDING AFFINITY PREDICTED BY RF-SCORE:    0.00 PKD
ROOT
HETATM    1  C   UNL     1     -10.597   5.859  68.070  1.00  0.00    -0.252 C  
HETATM    2  N   UNL     1      -9.713   6.597  69.102  1.00  0.00    -0.145 N  
HETATM    3  O   UNL     1      -7.665   8.993  73.282  1.00  0.00    -0.258 OA 
HETATM    4  C   UNL     1     -10.036   8.113  69.140  1.00  0.00    -0.192 C  
HETATM    5  C   UNL     1      -9.078   8.754  70.134  1.00  0.00    -0.176 C  
HETATM    6  C   UNL     1      -7.198   8.367  72.336  1.00  0.00    -0.083 C  
HETATM    7  C   UNL     1      -7.552   8.363  69.984  1.00  0.00    -0.068 C  
HETATM    8  C   UNL     1      -7.181   6.826  72.366  1.00  0.00    -0.086 C  
HETATM    9  H   UNL     1      -5.530   5.974  69.131  1.00  0.00     0.000 HD 
HETATM   10  C   UNL     1      -6.705   9.045  71.048  1.00  0.00    -0.087 C  
HETATM   11  O   UNL     1      -6.846  10.451  70.744  1.00  0.00    -0.337 OA 
HETATM   12  C   UNL     1      -6.851  10.446  69.354  1.00  0.00    -0.083 A  
HETATM   13  C   UNL     1      -6.838  11.487  68.476  1.00  0.00    -0.074 A  
HETATM   14  O   UNL     1      -6.922  12.770  68.907  1.00  0.00    -0.096 OA 
HETATM   15  C   UNL     1      -6.853  11.192  67.102  1.00  0.00    -0.107 A  
HETATM   16  C   UNL     1      -6.932   9.850  66.619  1.00  0.00    -0.086 A  
HETATM   17  H   UNL     1      -6.913  13.497  68.295  1.00  0.00     0.000 HD 
HETATM   18  C   UNL     1      -7.101   8.800  67.514  1.00  0.00    -0.079 A  
HETATM   19  C   UNL     1      -7.302   7.304  67.210  1.00  0.00    -0.098 C  
HETATM   20  C   UNL     1      -7.093   9.184  68.849  1.00  0.00    -0.068 A  
HETATM   21  C   UNL     1      -8.086   6.453  68.511  1.00  0.00    -0.110 C  
HETATM   22  C   UNL     1      -7.168   6.915  69.731  1.00  0.00    -0.079 C  
HETATM   23  O   UNL     1      -5.769   6.879  69.290  1.00  0.00    -0.017 OA 
HETATM   24  C   UNL     1      -7.022   6.080  71.022  1.00  0.00    -0.068 C  
ENDROOT
BRANCH   2  25
HETATM   25  C   UNL     1     -10.102   6.011  70.497  1.00  0.00    -0.191 C  
BRANCH  25  26
HETATM   26  C   UNL     1     -11.526   6.253  70.969  1.00  0.00    -0.370 C  
HETATM   27  C   UNL     1     -11.939   5.841  72.363  1.00  0.00    -0.164 C  
HETATM   28  C   UNL     1     -11.902   7.295  72.012  1.00  0.00    -0.332 C  
ENDBRANCH  25  26
ENDBRANCH   2  25
TORSDOF 2
ENDMDL
MODEL      110
REMARK 921   NORMALIZED FREE ENERGY PREDICTED BY IDOCK:   -3.20 KCAL/MOL
REMARK 922        TOTAL FREE ENERGY PREDICTED BY IDOCK:   -4.09 KCAL/MOL
REMARK 923 INTER-LIGAND FREE ENERGY PREDICTED BY IDOCK:   -3.45 KCAL/MOL
REMARK 924 INTRA-LIGAND FREE ENERGY PREDICTED BY IDOCK:   -0.64 KCAL/MOL
REMARK 927      BINDING AFFINITY PREDICTED BY RF-SCORE:    0.00 PKD
ROOT
HETATM    1  C   UNL     1      -6.840   5.904  66.146  1.00  0.00    -0.061 C  
HETATM    2  N   UNL     1      -7.195   6.447  67.549  1.00  0.00    -0.083 N  
HETATM    3  O   UNL     1      -7.374   8.847  72.198  1.00  0.00    -0.320 OA 
HETATM    4  C   UNL     1      -6.476   5.645  68.665  1.00  0.00    -0.043 C  
HETATM    5  C   UNL     1      -6.936   6.215  69.998  1.00  0.00    -0.070 C  
HETATM    6  C   UNL     1      -8.220   8.421  71.419  1.00  0.00    -0.139 C  
HETATM    7  C   UNL     1      -8.496   6.415  70.171  1.00  0.00    -0.135 C  
HETATM    8  C   UNL     1      -8.645   9.269  70.204  1.00  0.00    -0.215 C  
HETATM    9  H   UNL     1     -11.238   7.126  68.591  1.00  0.00     0.000 HD 
HETATM   10  C   UNL     1      -8.824   7.012  71.532  1.00  0.00    -0.128 C  
HETATM   11  O   UNL     1      -8.391   5.995  72.463  1.00  0.00    -0.116 OA 
HETATM   12  C   UNL     1      -8.744   4.826  71.797  1.00  0.00    -0.123 A  
HETATM   13  C   UNL     1      -8.699   3.532  72.220  1.00  0.00    -0.088 A  
HETATM   14  O   UNL     1      -8.163   3.204  73.422  1.00  0.00    -0.072 OA 
HETATM   15  C   UNL     1      -9.118   2.532  71.327  1.00  0.00    -0.173 A  
HETATM   16  C   UNL     1      -9.531   2.834  69.994  1.00  0.00    -0.168 A  
HETATM   17  H   UNL     1      -8.131   2.301  73.718  1.00  0.00     0.000 HD 
HETATM   18  C   UNL     1      -9.430   4.135  69.515  1.00  0.00    -0.254 A  
HETATM   19  C   UNL     1      -9.726   4.662  68.099  1.00  0.00    -0.197 C  
HETATM   20  C   UNL     1      -8.990   5.056  70.458  1.00  0.00    -0.160 A  
HETATM   21  C   UNL     1      -8.896   6.152  67.747  1.00  0.00    -0.110 C  
HETATM   22  C   UNL     1      -9.310   7.003  69.032  1.00  0.00    -0.136 C  
HETATM   23  O   UNL     1     -10.730   6.758  69.304  1.00  0.00    -0.222 OA 
HETATM   24  C   UNL     1      -9.340   8.547  69.028  1.00  0.00    -0.146 C  
ENDROOT
BRANCH   2  25
HETATM   25  C   UNL     1      -6.636   7.904  67.599  1.00  0.00    -0.060 C  
BRANCH  25  26
HETATM   26  C   UNL     1      -6.489   8.628  66.271  1.00  0.00    -0.061 C  
HETATM   27  C   UNL     1      -7.429   9.757  65.919  1.00  0.00    -0.103 C  
HETATM   28  C   UNL     1      -5.980  10.056  66.142  1.00  0.00    -0.068 C  
ENDBRANCH  25  26
ENDBRANCH   2  25
TORSDOF 2
ENDMDL
MODEL      111
REMARK 921   NORMALIZED FREE ENERGY PREDICTED BY IDOCK:   -3.20 KCAL/MOL
REMARK 922        TOTAL FREE ENERGY PREDICTED BY IDOCK:   -4.09 KCAL/MOL
REMARK 923 INTER-LIGAND FREE ENERGY PREDICTED BY IDOCK:   -3.68 KCAL/MOL
REMARK 924 INTRA-LIGAND FREE ENERGY PREDICTED BY IDOCK:   -0.42 KCAL/MOL
REMARK 927      BINDING AFFINITY PREDICTED BY RF-SCORE:    0.00 PKD
ROOT
HETATM    1  C   UNL     1      -7.987   9.464  67.849  1.00  0.00    -0.092 C  
HETATM    2  N   UNL     1      -8.664  10.850  67.750  1.00  0.00    -0.127 N  
HETATM    3  O   UNL     1      -9.852  15.937  67.417  1.00  0.00    -0.230 OA 
HETATM    4  C   UNL     1      -8.755  11.535  69.138  1.00  0.00     0.271 C  
HETATM    5  C   UNL     1      -9.486  12.855  68.943  1.00  0.00     0.252 C  
HETATM    6  C   UNL     1     -10.411  14.901  67.074  1.00  0.00    -0.264 C  
HETATM    7  C   UNL     1     -10.824  12.795  68.099  1.00  0.00    -0.249 C  
HETATM    8  C   UNL     1     -10.013  14.213  65.753  1.00  0.00    -0.331 C  
HETATM    9  H   UNL     1     -12.311  11.275  65.649  1.00  0.00     0.000 HD 
HETATM   10  C   UNL     1     -11.442  14.177  67.954  1.00  0.00    -0.312 C  
HETATM   11  O   UNL     1     -11.777  14.544  69.312  1.00  0.00    -0.275 OA 
HETATM   12  C   UNL     1     -12.206  13.331  69.840  1.00  0.00    -0.246 A  
HETATM   13  C   UNL     1     -12.765  13.054  71.050  1.00  0.00    -0.262 A  
HETATM   14  O   UNL     1     -12.890  14.012  72.002  1.00  0.00    -0.335 OA 
HETATM   15  C   UNL     1     -13.105  11.719  71.329  1.00  0.00    -0.237 A  
HETATM   16  C   UNL     1     -12.833  10.662  70.409  1.00  0.00    -0.277 A  
HETATM   17  H   UNL     1     -13.280  13.819  72.847  1.00  0.00     0.000 HD 
HETATM   18  C   UNL     1     -12.123  10.924  69.243  1.00  0.00    -0.332 A  
HETATM   19  C   UNL     1     -11.643   9.930  68.169  1.00  0.00     0.403 C  
HETATM   20  C   UNL     1     -11.813  12.265  69.055  1.00  0.00    -0.358 A  
HETATM   21  C   UNL     1     -10.297  10.537  67.245  1.00  0.00    -0.275 C  
HETATM   22  C   UNL     1     -10.874  11.965  66.828  1.00  0.00    -0.266 C  
HETATM   23  O   UNL     1     -12.280  11.795  66.444  1.00  0.00    -0.341 OA 
HETATM   24  C   UNL     1     -10.385  12.723  65.575  1.00  0.00    -0.301 C  
ENDROOT
BRANCH   2  25
HETATM   25  C   UNL     1      -7.720  11.727  66.867  1.00  0.00    -0.129 C  
BRANCH  25  26
HETATM   26  C   UNL     1      -6.513  12.343  67.557  1.00  0.00    -0.146 C  
HETATM   27  C   UNL     1      -5.163  12.318  66.881  1.00  0.00     0.082 C  
HETATM   28  C   UNL     1      -5.847  13.631  67.096  1.00  0.00     0.700 C  
ENDBRANCH  25  26
ENDBRANCH   2  25
TORSDOF 2
ENDMDL
MODEL      112
REMARK 921   NORMALIZED FREE ENERGY PREDICTED BY IDOCK:   -3.19 KCAL/MOL
REMARK 922        TOTAL FREE ENERGY PREDICTED BY IDOCK:   -4.08 KCAL/MOL
REMARK 923 INTER-LIGAND FREE ENERGY PREDICTED BY IDOCK:   -3.57 KCAL/MOL
REMARK 924 INTRA-LIGAND FREE ENERGY PREDICTED BY IDOCK:   -0.50 KCAL/MOL
REMARK 927      BINDING AFFINITY PREDICTED BY RF-SCORE:    0.00 PKD
ROOT
HETATM    1  C   UNL     1     -11.725   6.225  69.766  1.00  0.00    -0.087 C  
HETATM    2  N   UNL     1     -10.229   6.576  69.603  1.00  0.00    -0.180 N  
HETATM    3  O   UNL     1      -5.176   6.893  68.271  1.00  0.00    -0.014 OA 
HETATM    4  C   UNL     1      -9.330   5.622  70.433  1.00  0.00    -0.160 C  
HETATM    5  C   UNL     1      -7.893   6.087  70.254  1.00  0.00    -0.102 C  
HETATM    6  C   UNL     1      -6.000   7.688  68.710  1.00  0.00    -0.031 C  
HETATM    7  C   UNL     1      -7.632   7.637  70.439  1.00  0.00    -0.088 C  
HETATM    8  C   UNL     1      -6.994   8.372  67.751  1.00  0.00    -0.075 C  
HETATM    9  H   UNL     1      -8.938  10.580  70.046  1.00  0.00     0.000 HD 
HETATM   10  C   UNL     1      -6.166   7.976  70.210  1.00  0.00    -0.032 C  
HETATM   11  O   UNL     1      -5.484   7.271  71.271  1.00  0.00    -0.027 OA 
HETATM   12  C   UNL     1      -6.369   7.424  72.334  1.00  0.00    -0.050 A  
HETATM   13  C   UNL     1      -6.229   7.079  73.644  1.00  0.00    -0.062 A  
HETATM   14  O   UNL     1      -5.141   6.396  74.078  1.00  0.00    -0.038 OA 
HETATM   15  C   UNL     1      -7.299   7.348  74.514  1.00  0.00    -0.144 A  
HETATM   16  C   UNL     1      -8.525   7.917  74.051  1.00  0.00    -0.321 A  
HETATM   17  H   UNL     1      -5.043   6.155  74.992  1.00  0.00     0.000 HD 
HETATM   18  C   UNL     1      -8.722   8.125  72.691  1.00  0.00    -0.277 A  
HETATM   19  C   UNL     1      -9.986   8.632  71.972  1.00  0.00    -0.399 C  
HETATM   20  C   UNL     1      -7.621   7.815  71.903  1.00  0.00    -0.092 A  
HETATM   21  C   UNL     1     -10.042   8.158  70.297  1.00  0.00    -0.192 C  
HETATM   22  C   UNL     1      -8.596   8.640  69.829  1.00  0.00    -0.131 C  
HETATM   23  O   UNL     1      -8.335   9.953  70.428  1.00  0.00    -0.153 OA 
HETATM   24  C   UNL     1      -8.273   8.991  68.360  1.00  0.00    -0.116 C  
ENDROOT
BRANCH   2  25
HETATM   25  C   UNL     1      -9.891   6.329  68.099  1.00  0.00    -0.129 C  
BRANCH  25  26
HETATM   26  C   UNL     1     -10.231   4.959  67.535  1.00  0.00    -0.152 C  
HETATM   27  C   UNL     1     -10.508   4.797  66.059  1.00  0.00    -0.332 C  
HETATM   28  C   UNL     1      -9.291   4.156  66.648  1.00  0.00    -0.189 C  
ENDBRANCH  25  26
ENDBRANCH   2  25
TORSDOF 2
ENDMDL
MODEL      113
REMARK 921   NORMALIZED FREE ENERGY PREDICTED BY IDOCK:   -3.11 KCAL/MOL
REMARK 922        TOTAL FREE ENERGY PREDICTED BY IDOCK:   -3.99 KCAL/MOL
REMARK 923 INTER-LIGAND FREE ENERGY PREDICTED BY IDOCK:   -3.67 KCAL/MOL
REMARK 924 INTRA-LIGAND FREE ENERGY PREDICTED BY IDOCK:   -0.32 KCAL/MOL
REMARK 927      BINDING AFFINITY PREDICTED BY RF-SCORE:    0.00 PKD
ROOT
HETATM    1  C   UNL     1      -9.765   3.918  66.504  1.00  0.00    -0.164 C  
HETATM    2  N   UNL     1      -9.137   5.308  66.758  1.00  0.00    -0.117 N  
HETATM    3  O   UNL     1      -6.162   9.612  66.918  1.00  0.00    -0.063 OA 
HETATM    4  C   UNL     1      -8.055   5.246  67.867  1.00  0.00    -0.099 C  
HETATM    5  C   UNL     1      -7.547   6.664  68.081  1.00  0.00    -0.104 C  
HETATM    6  C   UNL     1      -7.361   9.392  67.052  1.00  0.00    -0.087 C  
HETATM    7  C   UNL     1      -8.653   7.786  68.239  1.00  0.00    -0.124 C  
HETATM    8  C   UNL     1      -8.258   9.238  65.808  1.00  0.00    -0.117 C  
HETATM    9  H   UNL     1     -11.629   8.682  67.309  1.00  0.00     0.000 HD 
HETATM   10  C   UNL     1      -8.019   9.157  68.421  1.00  0.00    -0.103 C  
HETATM   11  O   UNL     1      -7.309   9.040  69.674  1.00  0.00    -0.060 OA 
HETATM   12  C   UNL     1      -8.178   8.257  70.426  1.00  0.00    -0.114 A  
HETATM   13  C   UNL     1      -8.120   7.901  71.739  1.00  0.00    -0.109 A  
HETATM   14  O   UNL     1      -7.052   8.227  72.508  1.00  0.00    -0.094 OA 
HETATM   15  C   UNL     1      -9.146   7.086  72.247  1.00  0.00    -0.146 A  
HETATM   16  C   UNL     1     -10.198   6.590  71.418  1.00  0.00    -0.221 A  
HETATM   17  H   UNL     1      -7.011   7.979  73.425  1.00  0.00     0.000 HD 
HETATM   18  C   UNL     1     -10.170   6.826  70.048  1.00  0.00    -0.211 A  
HETATM   19  C   UNL     1     -11.139   6.312  68.967  1.00  0.00    -0.446 C  
HETATM   20  C   UNL     1      -9.113   7.625  69.630  1.00  0.00    -0.147 A  
HETATM   21  C   UNL     1     -10.425   6.295  67.378  1.00  0.00    -0.308 C  
HETATM   22  C   UNL     1      -9.860   7.786  67.318  1.00  0.00    -0.189 C  
HETATM   23  O   UNL     1     -10.873   8.682  67.885  1.00  0.00    -0.138 OA 
HETATM   24  C   UNL     1      -9.620   8.528  65.984  1.00  0.00    -0.236 C  
ENDROOT
BRANCH   2  25
HETATM   25  C   UNL     1      -8.412   5.699  65.431  1.00  0.00    -0.147 C  
BRANCH  25  26
HETATM   26  C   UNL     1      -7.027   5.114  65.209  1.00  0.00    -0.062 C  
HETATM   27  C   UNL     1      -6.864   3.839  64.415  1.00  0.00    -0.045 C  
HETATM   28  C   UNL     1      -6.317   5.118  63.863  1.00  0.00    -0.022 C  
ENDBRANCH  25  26
ENDBRANCH   2  25
TORSDOF 2
ENDMDL
MODEL      114
REMARK 921   NORMALIZED FREE ENERGY PREDICTED BY IDOCK:   -3.06 KCAL/MOL
REMARK 922        TOTAL FREE ENERGY PREDICTED BY IDOCK:   -3.93 KCAL/MOL
REMARK 923 INTER-LIGAND FREE ENERGY PREDICTED BY IDOCK:   -3.46 KCAL/MOL
REMARK 924 INTRA-LIGAND FREE ENERGY PREDICTED BY IDOCK:   -0.47 KCAL/MOL
REMARK 927      BINDING AFFINITY PREDICTED BY RF-SCORE:    0.00 PKD
ROOT
HETATM    1  C   UNL     1      -6.603  14.865  67.222  1.00  0.00     0.154 C  
HETATM    2  N   UNL     1      -7.666  13.755  67.384  1.00  0.00    -0.167 N  
HETATM    3  O   UNL     1     -12.000  10.899  68.063  1.00  0.00    -0.586 OA 
HETATM    4  C   UNL     1      -7.971  13.476  68.878  1.00  0.00     0.087 C  
HETATM    5  C   UNL     1      -8.976  12.335  68.929  1.00  0.00     0.269 C  
HETATM    6  C   UNL     1     -10.933  10.716  67.487  1.00  0.00    -0.310 C  
HETATM    7  C   UNL     1      -8.646  11.073  68.032  1.00  0.00    -0.134 C  
HETATM    8  C   UNL     1     -10.716  11.286  66.072  1.00  0.00    -0.301 C  
HETATM    9  H   UNL     1      -7.266  10.122  65.254  1.00  0.00     0.000 HD 
HETATM   10  C   UNL     1      -9.735  10.018  68.150  1.00  0.00    -0.140 C  
HETATM   11  O   UNL     1      -9.671   9.618  69.537  1.00  0.00    -0.179 OA 
HETATM   12  C   UNL     1      -8.302   9.641  69.781  1.00  0.00    -0.174 A  
HETATM   13  C   UNL     1      -7.603   9.245  70.881  1.00  0.00    -0.104 A  
HETATM   14  O   UNL     1      -8.239   8.829  72.005  1.00  0.00    -0.323 OA 
HETATM   15  C   UNL     1      -6.206   9.388  70.860  1.00  0.00    -0.074 A  
HETATM   16  C   UNL     1      -5.522   9.977  69.753  1.00  0.00    -0.037 A  
HETATM   17  H   UNL     1      -7.751   8.552  72.772  1.00  0.00     0.000 HD 
HETATM   18  C   UNL     1      -6.249  10.521  68.700  1.00  0.00    -0.046 A  
HETATM   19  C   UNL     1      -5.727  11.279  67.466  1.00  0.00    -0.050 C  
HETATM   20  C   UNL     1      -7.623  10.352  68.811  1.00  0.00    -0.097 A  
HETATM   21  C   UNL     1      -6.934  12.312  66.751  1.00  0.00     0.180 C  
HETATM   22  C   UNL     1      -8.136  11.272  66.615  1.00  0.00    -0.160 C  
HETATM   23  O   UNL     1      -7.586   9.997  66.140  1.00  0.00    -0.101 OA 
HETATM   24  C   UNL     1      -9.262  11.438  65.571  1.00  0.00    -0.193 C  
ENDROOT
BRANCH   2  25
HETATM   25  C   UNL     1      -8.976  14.319  66.747  1.00  0.00    -0.227 C  
BRANCH  25  26
HETATM   26  C   UNL     1      -9.823  15.232  67.618  1.00  0.00    -0.217 C  
HETATM   27  C   UNL     1     -10.787  16.204  66.979  1.00  0.00    -0.194 C  
HETATM   28  C   UNL     1     -11.327  15.071  67.794  1.00  0.00    -0.340 C  
ENDBRANCH  25  26
ENDBRANCH   2  25
TORSDOF 2
ENDMDL
MODEL      115
REMARK 921   NORMALIZED FREE ENERGY PREDICTED BY IDOCK:   -3.02 KCAL/MOL
REMARK 922        TOTAL FREE ENERGY PREDICTED BY IDOCK:   -3.89 KCAL/MOL
REMARK 923 INTER-LIGAND FREE ENERGY PREDICTED BY IDOCK:   -3.24 KCAL/MOL
REMARK 924 INTRA-LIGAND FREE ENERGY PREDICTED BY IDOCK:   -0.65 KCAL/MOL
REMARK 927      BINDING AFFINITY PREDICTED BY RF-SCORE:    0.00 PKD
ROOT
HETATM    1  C   UNL     1      -7.501  10.808  70.249  1.00  0.00     0.634 C  
HETATM    2  N   UNL     1      -7.579   9.935  68.976  1.00  0.00    -0.081 N  
HETATM    3  O   UNL     1      -6.732   6.720  64.932  1.00  0.00    -0.047 OA 
HETATM    4  C   UNL     1      -6.960  10.661  67.754  1.00  0.00    -0.078 C  
HETATM    5  C   UNL     1      -7.140   9.750  66.548  1.00  0.00    -0.090 C  
HETATM    6  C   UNL     1      -7.726   7.064  65.562  1.00  0.00    -0.105 C  
HETATM    7  C   UNL     1      -8.586   9.138  66.345  1.00  0.00    -0.135 C  
HETATM    8  C   UNL     1      -8.059   6.385  66.905  1.00  0.00    -0.109 C  
HETATM    9  H   UNL     1     -11.228   8.083  67.904  1.00  0.00     0.000 HD 
HETATM   10  C   UNL     1      -8.629   8.229  65.126  1.00  0.00    -0.105 C  
HETATM   11  O   UNL     1      -8.355   9.124  64.025  1.00  0.00    -0.163 OA 
HETATM   12  C   UNL     1      -9.036  10.273  64.411  1.00  0.00    -0.239 A  
HETATM   13  C   UNL     1      -9.253  11.432  63.729  1.00  0.00    -0.022 A  
HETATM   14  O   UNL     1      -8.693  11.646  62.513  1.00  0.00    -0.603 OA 
HETATM   15  C   UNL     1      -9.981  12.448  64.371  1.00  0.00    -0.220 A  
HETATM   16  C   UNL     1     -10.442  12.314  65.716  1.00  0.00    -0.287 A  
HETATM   17  H   UNL     1      -8.845  12.455  62.036  1.00  0.00     0.000 HD 
HETATM   18  C   UNL     1     -10.087  11.196  66.462  1.00  0.00    -0.265 A  
HETATM   19  C   UNL     1     -10.390  10.894  67.941  1.00  0.00    -0.216 C  
HETATM   20  C   UNL     1      -9.353  10.251  65.755  1.00  0.00    -0.233 A  
HETATM   21  C   UNL     1      -9.273   9.753  68.637  1.00  0.00    -0.137 C  
HETATM   22  C   UNL     1      -9.348   8.596  67.542  1.00  0.00    -0.137 C  
HETATM   23  O   UNL     1     -10.752   8.422  67.155  1.00  0.00    -0.291 OA 
HETATM   24  C   UNL     1      -9.016   7.123  67.868  1.00  0.00    -0.122 C  
ENDROOT
BRANCH   2  25
HETATM   25  C   UNL     1      -6.692   8.681  69.260  1.00  0.00    -0.050 C  
BRANCH  25  26
HETATM   26  C   UNL     1      -6.508   8.288  70.717  1.00  0.00    -0.037 C  
HETATM   27  C   UNL     1      -7.258   7.104  71.280  1.00  0.00    -0.074 C  
HETATM   28  C   UNL     1      -5.768   7.035  71.164  1.00  0.00    -0.031 C  
ENDBRANCH  25  26
ENDBRANCH   2  25
TORSDOF 2
ENDMDL
MODEL      116
REMARK 921   NORMALIZED FREE ENERGY PREDICTED BY IDOCK:   -2.97 KCAL/MOL
REMARK 922        TOTAL FREE ENERGY PREDICTED BY IDOCK:   -3.83 KCAL/MOL
REMARK 923 INTER-LIGAND FREE ENERGY PREDICTED BY IDOCK:   -3.50 KCAL/MOL
REMARK 924 INTRA-LIGAND FREE ENERGY PREDICTED BY IDOCK:   -0.34 KCAL/MOL
REMARK 927      BINDING AFFINITY PREDICTED BY RF-SCORE:    0.00 PKD
ROOT
HETATM    1  C   UNL     1      -7.921   5.004  71.207  1.00  0.00    -0.109 C  
HETATM    2  N   UNL     1      -8.051   5.403  69.719  1.00  0.00    -0.094 N  
HETATM    3  O   UNL     1      -7.488   6.158  64.570  1.00  0.00    -0.071 OA 
HETATM    4  C   UNL     1      -7.178   6.641  69.388  1.00  0.00    -0.090 C  
HETATM    5  C   UNL     1      -7.421   6.987  67.927  1.00  0.00    -0.099 C  
HETATM    6  C   UNL     1      -8.448   6.122  65.332  1.00  0.00    -0.138 C  
HETATM    7  C   UNL     1      -8.935   7.051  67.467  1.00  0.00    -0.117 C  
HETATM    8  C   UNL     1      -9.045   4.765  65.754  1.00  0.00    -0.142 C  
HETATM    9  H   UNL     1     -11.879   5.780  67.959  1.00  0.00     0.000 HD 
HETATM   10  C   UNL     1      -9.043   7.380  65.985  1.00  0.00    -0.085 C  
HETATM   11  O   UNL     1      -8.484   8.708  65.890  1.00  0.00    -0.129 OA 
HETATM   12  C   UNL     1      -8.948   9.301  67.060  1.00  0.00    -0.126 A  
HETATM   13  C   UNL     1      -8.853  10.592  67.482  1.00  0.00    -0.132 A  
HETATM   14  O   UNL     1      -8.143  11.510  66.781  1.00  0.00    -0.156 OA 
HETATM   15  C   UNL     1      -9.415  10.921  68.728  1.00  0.00    -0.196 A  
HETATM   16  C   UNL     1     -10.025   9.938  69.565  1.00  0.00    -0.240 A  
HETATM   17  H   UNL     1      -8.076  12.412  67.076  1.00  0.00     0.000 HD 
HETATM   18  C   UNL     1      -9.983   8.596  69.202  1.00  0.00    -0.193 A  
HETATM   19  C   UNL     1     -10.487   7.374  69.990  1.00  0.00    -0.233 C  
HETATM   20  C   UNL     1      -9.394   8.360  67.966  1.00  0.00    -0.146 A  
HETATM   21  C   UNL     1      -9.704   5.894  69.510  1.00  0.00    -0.190 C  
HETATM   22  C   UNL     1      -9.907   5.979  67.930  1.00  0.00    -0.120 C  
HETATM   23  O   UNL     1     -11.271   6.450  67.669  1.00  0.00    -0.337 OA 
HETATM   24  C   UNL     1      -9.920   4.726  67.027  1.00  0.00    -0.235 C  
ENDROOT
BRANCH   2  25
HETATM   25  C   UNL     1      -7.474   4.204  68.901  1.00  0.00    -0.055 C  
BRANCH  25  26
HETATM   26  C   UNL     1      -6.048   4.343  68.394  1.00  0.00    -0.031 C  
HETATM   27  C   UNL     1      -5.206   3.111  68.163  1.00  0.00    -0.012 C  
HETATM   28  C   UNL     1      -5.611   3.947  66.990  1.00  0.00    -0.021 C  
ENDBRANCH  25  26
ENDBRANCH   2  25
TORSDOF 2
ENDMDL
MODEL      117
REMARK 921   NORMALIZED FREE ENERGY PREDICTED BY IDOCK:   -2.92 KCAL/MOL
REMARK 922        TOTAL FREE ENERGY PREDICTED BY IDOCK:   -3.78 KCAL/MOL
REMARK 923 INTER-LIGAND FREE ENERGY PREDICTED BY IDOCK:   -4.28 KCAL/MOL
REMARK 924 INTRA-LIGAND FREE ENERGY PREDICTED BY IDOCK:    0.50 KCAL/MOL
REMARK 927      BINDING AFFINITY PREDICTED BY RF-SCORE:    0.00 PKD
ROOT
HETATM    1  C   UNL     1      -9.526  11.581  64.592  1.00  0.00    -0.100 C  
HETATM    2  N   UNL     1     -10.011  12.539  65.704  1.00  0.00    -0.259 N  
HETATM    3  O   UNL     1     -12.639  15.807  68.836  1.00  0.00     0.165 OA 
HETATM    4  C   UNL     1      -9.874  14.022  65.272  1.00  0.00    -0.152 C  
HETATM    5  C   UNL     1     -10.316  14.878  66.449  1.00  0.00    -0.291 C  
HETATM    6  C   UNL     1     -11.726  15.006  69.004  1.00  0.00    -0.325 C  
HETATM    7  C   UNL     1      -9.705  14.497  67.859  1.00  0.00    -0.218 C  
HETATM    8  C   UNL     1     -12.040  13.507  69.177  1.00  0.00    -0.331 C  
HETATM    9  H   UNL     1      -8.653  12.025  69.677  1.00  0.00     0.000 HD 
HETATM   10  C   UNL     1     -10.244  15.407  68.952  1.00  0.00    -0.219 C  
HETATM   11  O   UNL     1      -9.749  16.713  68.581  1.00  0.00    -0.229 OA 
HETATM   12  C   UNL     1      -8.481  16.414  68.095  1.00  0.00    -0.188 A  
HETATM   13  C   UNL     1      -7.477  17.246  67.703  1.00  0.00    -0.174 A  
HETATM   14  O   UNL     1      -7.657  18.589  67.652  1.00  0.00    -0.226 OA 
HETATM   15  C   UNL     1      -6.284  16.666  67.241  1.00  0.00    -0.206 A  
HETATM   16  C   UNL     1      -6.125  15.252  67.127  1.00  0.00     0.405 A  
HETATM   17  H   UNL     1      -6.956  19.170  67.378  1.00  0.00     0.000 HD 
HETATM   18  C   UNL     1      -7.203  14.411  67.380  1.00  0.00    -0.148 A  
HETATM   19  C   UNL     1      -7.281  12.881  67.229  1.00  0.00    -0.075 C  
HETATM   20  C   UNL     1      -8.347  15.069  67.814  1.00  0.00    -0.158 A  
HETATM   21  C   UNL     1      -8.914  12.308  67.031  1.00  0.00    -0.204 C  
HETATM   22  C   UNL     1      -9.611  13.037  68.267  1.00  0.00    -0.213 C  
HETATM   23  O   UNL     1      -8.712  12.938  69.422  1.00  0.00     0.807 OA 
HETATM   24  C   UNL     1     -10.897  12.497  68.931  1.00  0.00    -0.238 C  
ENDROOT
BRANCH   2  25
HETATM   25  C   UNL     1     -11.536  12.254  65.881  1.00  0.00    -0.393 C  
BRANCH  25  26
HETATM   26  C   UNL     1     -12.465  12.801  64.810  1.00  0.00    -0.539 C  
HETATM   27  C   UNL     1     -11.993  12.898  63.379  1.00  0.00    -0.612 C  
HETATM   28  C   UNL     1     -13.092  11.943  63.721  1.00  0.00    -0.156 C  
ENDBRANCH  25  26
ENDBRANCH   2  25
TORSDOF 2
ENDMDL
MODEL      118
REMARK 921   NORMALIZED FREE ENERGY PREDICTED BY IDOCK:   -2.76 KCAL/MOL
REMARK 922        TOTAL FREE ENERGY PREDICTED BY IDOCK:   -3.60 KCAL/MOL
REMARK 923 INTER-LIGAND FREE ENERGY PREDICTED BY IDOCK:   -3.58 KCAL/MOL
REMARK 924 INTRA-LIGAND FREE ENERGY PREDICTED BY IDOCK:   -0.02 KCAL/MOL
REMARK 927      BINDING AFFINITY PREDICTED BY RF-SCORE:    0.00 PKD
ROOT
HETATM    1  C   UNL     1     -10.571  20.006  69.298  1.00  0.00     0.412 C  
HETATM    2  N   UNL     1      -9.610  18.954  68.698  1.00  0.00    -0.373 N  
HETATM    3  O   UNL     1      -5.793  16.332  66.257  1.00  0.00     0.140 OA 
HETATM    4  C   UNL     1      -9.933  18.676  67.208  1.00  0.00    -0.329 C  
HETATM    5  C   UNL     1      -8.979  17.591  66.733  1.00  0.00    -0.272 C  
HETATM    6  C   UNL     1      -6.516  16.098  67.219  1.00  0.00    -0.181 C  
HETATM    7  C   UNL     1      -8.840  16.323  67.670  1.00  0.00    -0.195 C  
HETATM    8  C   UNL     1      -6.161  16.670  68.606  1.00  0.00    -0.142 C  
HETATM    9  H   UNL     1      -8.898  15.328  70.757  1.00  0.00     0.000 HD 
HETATM   10  C   UNL     1      -7.841  15.328  67.100  1.00  0.00    -0.214 C  
HETATM   11  O   UNL     1      -8.449  14.910  65.858  1.00  0.00     0.492 OA 
HETATM   12  C   UNL     1      -9.796  14.856  66.200  1.00  0.00    -0.308 A  
HETATM   13  C   UNL     1     -10.863  14.410  65.481  1.00  0.00    -0.331 A  
HETATM   14  O   UNL     1     -10.726  14.018  64.190  1.00  0.00    -0.565 OA 
HETATM   15  C   UNL     1     -12.134  14.476  66.077  1.00  0.00    -0.298 A  
HETATM   16  C   UNL     1     -12.331  15.039  67.375  1.00  0.00     0.464 A  
HETATM   17  H   UNL     1     -11.470  13.706  63.688  1.00  0.00     0.000 HD 
HETATM   18  C   UNL     1     -11.266  15.633  68.042  1.00  0.00    -0.339 A  
HETATM   19  C   UNL     1     -11.273  16.375  69.391  1.00  0.00    -0.267 C  
HETATM   20  C   UNL     1     -10.052  15.538  67.373  1.00  0.00    -0.246 A  
HETATM   21  C   UNL     1      -9.937  17.480  69.558  1.00  0.00     0.118 C  
HETATM   22  C   UNL     1      -8.731  16.509  69.174  1.00  0.00    -0.150 C  
HETATM   23  O   UNL     1      -8.966  15.211  69.817  1.00  0.00    -0.149 OA 
HETATM   24  C   UNL     1      -7.286  16.748  69.663  1.00  0.00     0.183 C  
ENDROOT
BRANCH   2  25
HETATM   25  C   UNL     1      -8.187  19.596  68.746  1.00  0.00    -0.254 C  
BRANCH  25  26
HETATM   26  C   UNL     1      -7.492  19.822  67.413  1.00  0.00    -0.298 C  
HETATM   27  C   UNL     1      -7.065  21.214  67.011  1.00  0.00    -0.278 C  
HETATM   28  C   UNL     1      -6.018  20.180  67.282  1.00  0.00    -0.201 C  
ENDBRANCH  25  26
ENDBRANCH   2  25
TORSDOF 2
ENDMDL
MODEL      119
REMARK 921   NORMALIZED FREE ENERGY PREDICTED BY IDOCK:   -2.71 KCAL/MOL
REMARK 922        TOTAL FREE ENERGY PREDICTED BY IDOCK:   -3.55 KCAL/MOL
REMARK 923 INTER-LIGAND FREE ENERGY PREDICTED BY IDOCK:   -2.94 KCAL/MOL
REMARK 924 INTRA-LIGAND FREE ENERGY PREDICTED BY IDOCK:   -0.60 KCAL/MOL
REMARK 927      BINDING AFFINITY PREDICTED BY RF-SCORE:    0.00 PKD
ROOT
HETATM    1  C   UNL     1      -9.517   3.928  67.263  1.00  0.00    -0.199 C  
HETATM    2  N   UNL     1      -8.717   5.060  67.947  1.00  0.00    -0.103 N  
HETATM    3  O   UNL     1      -5.882   8.108  71.121  1.00  0.00    -0.033 OA 
HETATM    4  C   UNL     1      -9.588   5.826  68.977  1.00  0.00    -0.135 C  
HETATM    5  C   UNL     1      -8.733   6.949  69.544  1.00  0.00    -0.133 C  
HETATM    6  C   UNL     1      -6.056   8.058  69.908  1.00  0.00    -0.026 C  
HETATM    7  C   UNL     1      -7.951   7.833  68.490  1.00  0.00    -0.122 C  
HETATM    8  C   UNL     1      -5.262   7.047  69.058  1.00  0.00    -0.014 C  
HETATM    9  H   UNL     1      -6.471   7.773  65.604  1.00  0.00     0.000 HD 
HETATM   10  C   UNL     1      -7.117   8.900  69.182  1.00  0.00    -0.063 C  
HETATM   11  O   UNL     1      -8.102   9.734  69.832  1.00  0.00    -0.148 OA 
HETATM   12  C   UNL     1      -9.128   9.751  68.893  1.00  0.00    -0.148 A  
HETATM   13  C   UNL     1     -10.286  10.468  68.878  1.00  0.00    -0.208 A  
HETATM   14  O   UNL     1     -10.643  11.250  69.928  1.00  0.00    -0.436 OA 
HETATM   15  C   UNL     1     -11.160  10.285  67.793  1.00  0.00    -0.335 A  
HETATM   16  C   UNL     1     -10.889   9.343  66.754  1.00  0.00    -0.012 A  
HETATM   17  H   UNL     1     -11.451  11.750  69.917  1.00  0.00     0.000 HD 
HETATM   18  C   UNL     1      -9.785   8.504  66.851  1.00  0.00    -0.286 A  
HETATM   19  C   UNL     1      -9.360   7.366  65.906  1.00  0.00     0.040 C  
HETATM   20  C   UNL     1      -8.986   8.741  67.963  1.00  0.00    -0.141 A  
HETATM   21  C   UNL     1      -8.336   6.191  66.684  1.00  0.00    -0.111 C  
HETATM   22  C   UNL     1      -7.245   7.163  67.324  1.00  0.00    -0.086 C  
HETATM   23  O   UNL     1      -6.913   8.192  66.333  1.00  0.00    -0.065 OA 
HETATM   24  C   UNL     1      -5.811   6.695  67.657  1.00  0.00    -0.020 C  
ENDROOT
BRANCH   2  25
HETATM   25  C   UNL     1      -7.575   4.356  68.747  1.00  0.00    -0.063 C  
BRANCH  25  26
HETATM   26  C   UNL     1      -7.109   3.005  68.229  1.00  0.00    -0.049 C  
HETATM   27  C   UNL     1      -5.642   2.767  67.954  1.00  0.00    -0.018 C  
HETATM   28  C   UNL     1      -6.308   2.015  69.063  1.00  0.00    -0.029 C  
ENDBRANCH  25  26
ENDBRANCH   2  25
TORSDOF 2
ENDMDL
MODEL      120
REMARK 921   NORMALIZED FREE ENERGY PREDICTED BY IDOCK:   -2.70 KCAL/MOL
REMARK 922        TOTAL FREE ENERGY PREDICTED BY IDOCK:   -3.54 KCAL/MOL
REMARK 923 INTER-LIGAND FREE ENERGY PREDICTED BY IDOCK:   -3.49 KCAL/MOL
REMARK 924 INTRA-LIGAND FREE ENERGY PREDICTED BY IDOCK:   -0.04 KCAL/MOL
REMARK 927      BINDING AFFINITY PREDICTED BY RF-SCORE:    0.00 PKD
ROOT
HETATM    1  C   UNL     1     -11.095  10.601  64.338  1.00  0.00     0.744 C  
HETATM    2  N   UNL     1     -10.215  11.226  65.444  1.00  0.00    -0.258 N  
HETATM    3  O   UNL     1      -6.905  14.072  68.333  1.00  0.00    -0.082 OA 
HETATM    4  C   UNL     1      -8.755  10.710  65.364  1.00  0.00    -0.185 C  
HETATM    5  C   UNL     1      -7.991  11.333  66.523  1.00  0.00    -0.145 C  
HETATM    6  C   UNL     1      -7.904  13.406  68.579  1.00  0.00    -0.115 C  
HETATM    7  C   UNL     1      -8.688  11.253  67.942  1.00  0.00    -0.138 C  
HETATM    8  C   UNL     1      -9.305  14.012  68.365  1.00  0.00    -0.210 C  
HETATM    9  H   UNL     1     -11.557  11.245  69.455  1.00  0.00     0.000 HD 
HETATM   10  C   UNL     1      -7.840  11.931  69.007  1.00  0.00     0.101 C  
HETATM   11  O   UNL     1      -6.638  11.130  69.046  1.00  0.00    -0.062 OA 
HETATM   12  C   UNL     1      -7.142   9.846  68.868  1.00  0.00    -0.071 A  
HETATM   13  C   UNL     1      -6.508   8.642  68.931  1.00  0.00    -0.049 A  
HETATM   14  O   UNL     1      -5.165   8.563  69.097  1.00  0.00    -0.034 OA 
HETATM   15  C   UNL     1      -7.270   7.484  68.702  1.00  0.00    -0.086 A  
HETATM   16  C   UNL     1      -8.655   7.545  68.360  1.00  0.00    -0.124 A  
HETATM   17  H   UNL     1      -4.722   7.723  69.141  1.00  0.00     0.000 HD 
HETATM   18  C   UNL     1      -9.262   8.778  68.145  1.00  0.00    -0.145 A  
HETATM   19  C   UNL     1     -10.701   9.070  67.683  1.00  0.00    -0.232 C  
HETATM   20  C   UNL     1      -8.432   9.868  68.376  1.00  0.00    -0.111 A  
HETATM   21  C   UNL     1     -10.864  10.640  66.945  1.00  0.00    -0.267 C  
HETATM   22  C   UNL     1     -10.174  11.540  68.066  1.00  0.00    -0.191 C  
HETATM   23  O   UNL     1     -10.628  11.065  69.378  1.00  0.00    -0.223 OA 
HETATM   24  C   UNL     1     -10.500  13.040  68.242  1.00  0.00    -0.258 C  
ENDROOT
BRANCH   2  25
HETATM   25  C   UNL     1     -10.176  12.759  65.146  1.00  0.00    -0.278 C  
BRANCH  25  26
HETATM   26  C   UNL     1     -11.470  13.530  65.351  1.00  0.00    -0.318 C  
HETATM   27  C   UNL     1     -11.534  15.001  65.013  1.00  0.00    -0.364 C  
HETATM   28  C   UNL     1     -12.340  14.031  64.208  1.00  0.00    -0.393 C  
ENDBRANCH  25  26
ENDBRANCH   2  25
TORSDOF 2
ENDMDL
MODEL      121
REMARK 921   NORMALIZED FREE ENERGY PREDICTED BY IDOCK:   -2.70 KCAL/MOL
REMARK 922        TOTAL FREE ENERGY PREDICTED BY IDOCK:   -3.53 KCAL/MOL
REMARK 923 INTER-LIGAND FREE ENERGY PREDICTED BY IDOCK:   -3.17 KCAL/MOL
REMARK 924 INTRA-LIGAND FREE ENERGY PREDICTED BY IDOCK:   -0.36 KCAL/MOL
REMARK 927      BINDING AFFINITY PREDICTED BY RF-SCORE:    0.00 PKD
ROOT
HETATM    1  C   UNL     1      -5.450  10.287  70.031  1.00  0.00    -0.045 C  
HETATM    2  N   UNL     1      -6.669   9.356  69.837  1.00  0.00    -0.052 N  
HETATM    3  O   UNL     1     -10.265   5.555  69.996  1.00  0.00    -0.219 OA 
HETATM    4  C   UNL     1      -6.334   8.176  68.889  1.00  0.00    -0.040 C  
HETATM    5  C   UNL     1      -7.606   7.360  68.716  1.00  0.00    -0.107 C  
HETATM    6  C   UNL     1     -10.286   6.746  69.703  1.00  0.00    -0.198 C  
HETATM    7  C   UNL     1      -8.920   8.177  68.384  1.00  0.00    -0.136 C  
HETATM    8  C   UNL     1     -10.380   7.810  70.814  1.00  0.00    -0.206 C  
HETATM    9  H   UNL     1     -10.448  10.997  68.875  1.00  0.00     0.000 HD 
HETATM   10  C   UNL     1     -10.123   7.254  68.261  1.00  0.00    -0.170 C  
HETATM   11  O   UNL     1      -9.802   6.427  67.121  1.00  0.00    -0.132 OA 
HETATM   12  C   UNL     1      -9.176   7.334  66.274  1.00  0.00    -0.130 A  
HETATM   13  C   UNL     1      -8.751   7.181  64.989  1.00  0.00     0.223 A  
HETATM   14  O   UNL     1      -8.814   5.977  64.367  1.00  0.00    -0.349 OA 
HETATM   15  C   UNL     1      -8.137   8.278  64.362  1.00  0.00    -0.145 A  
HETATM   16  C   UNL     1      -7.907   9.509  65.048  1.00  0.00    -0.117 A  
HETATM   17  H   UNL     1      -8.518   5.870  63.470  1.00  0.00     0.000 HD 
HETATM   18  C   UNL     1      -8.201   9.613  66.404  1.00  0.00    -0.119 A  
HETATM   19  C   UNL     1      -7.949  10.799  67.352  1.00  0.00    -0.112 C  
HETATM   20  C   UNL     1      -8.788   8.476  66.946  1.00  0.00    -0.153 A  
HETATM   21  C   UNL     1      -7.866  10.318  69.024  1.00  0.00    -0.114 C  
HETATM   22  C   UNL     1      -9.212   9.468  69.129  1.00  0.00    -0.163 C  
HETATM   23  O   UNL     1     -10.266  10.190  68.408  1.00  0.00    -0.157 OA 
HETATM   24  C   UNL     1      -9.955   9.254  70.467  1.00  0.00    -0.307 C  
ENDROOT
BRANCH   2  25
HETATM   25  C   UNL     1      -6.970   8.745  71.242  1.00  0.00    -0.088 C  
BRANCH  25  26
HETATM   26  C   UNL     1      -6.160   7.523  71.646  1.00  0.00    -0.036 C  
HETATM   27  C   UNL     1      -5.195   7.607  72.804  1.00  0.00    -0.037 C  
HETATM   28  C   UNL     1      -6.405   6.736  72.925  1.00  0.00    -0.058 C  
ENDBRANCH  25  26
ENDBRANCH   2  25
TORSDOF 2
ENDMDL
MODEL      122
REMARK 921   NORMALIZED FREE ENERGY PREDICTED BY IDOCK:   -2.68 KCAL/MOL
REMARK 922        TOTAL FREE ENERGY PREDICTED BY IDOCK:   -3.51 KCAL/MOL
REMARK 923 INTER-LIGAND FREE ENERGY PREDICTED BY IDOCK:   -3.20 KCAL/MOL
REMARK 924 INTRA-LIGAND FREE ENERGY PREDICTED BY IDOCK:   -0.31 KCAL/MOL
REMARK 927      BINDING AFFINITY PREDICTED BY RF-SCORE:    0.00 PKD
ROOT
HETATM    1  C   UNL     1      -8.273   9.592  67.821  1.00  0.00    -0.114 C  
HETATM    2  N   UNL     1      -8.071   8.169  68.391  1.00  0.00    -0.126 N  
HETATM    3  O   UNL     1      -6.299   3.731  70.528  1.00  0.00    -0.025 OA 
HETATM    4  C   UNL     1      -7.390   7.236  67.356  1.00  0.00    -0.092 C  
HETATM    5  C   UNL     1      -7.293   5.855  67.987  1.00  0.00    -0.080 C  
HETATM    6  C   UNL     1      -7.404   4.254  70.427  1.00  0.00    -0.045 C  
HETATM    7  C   UNL     1      -8.611   5.305  68.668  1.00  0.00    -0.087 C  
HETATM    8  C   UNL     1      -7.826   5.358  71.416  1.00  0.00    -0.110 C  
HETATM    9  H   UNL     1     -11.286   6.176  70.285  1.00  0.00     0.000 HD 
HETATM   10  C   UNL     1      -8.378   3.933  69.282  1.00  0.00    -0.060 C  
HETATM   11  O   UNL     1      -8.074   3.098  68.143  1.00  0.00    -0.072 OA 
HETATM   12  C   UNL     1      -8.937   3.603  67.177  1.00  0.00    -0.145 A  
HETATM   13  C   UNL     1      -9.204   3.150  65.920  1.00  0.00    -0.135 A  
HETATM   14  O   UNL     1      -8.517   2.108  65.389  1.00  0.00    -0.091 OA 
HETATM   15  C   UNL     1     -10.131   3.867  65.145  1.00  0.00    -0.145 A  
HETATM   16  C   UNL     1     -10.747   5.065  65.618  1.00  0.00    -0.055 A  
HETATM   17  H   UNL     1      -8.703   1.792  64.512  1.00  0.00     0.000 HD 
HETATM   18  C   UNL     1     -10.358   5.609  66.837  1.00  0.00    -0.312 A  
HETATM   19  C   UNL     1     -10.816   6.926  67.489  1.00  0.00    -0.363 C  
HETATM   20  C   UNL     1      -9.425   4.846  67.528  1.00  0.00    -0.161 A  
HETATM   21  C   UNL     1      -9.669   7.538  68.648  1.00  0.00    -0.154 C  
HETATM   22  C   UNL     1      -9.452   6.229  69.533  1.00  0.00    -0.141 C  
HETATM   23  O   UNL     1     -10.760   5.598  69.745  1.00  0.00    -0.310 OA 
HETATM   24  C   UNL     1      -8.987   6.290  71.004  1.00  0.00    -0.143 C  
ENDROOT
BRANCH   2  25
HETATM   25  C   UNL     1      -7.081   8.323  69.589  1.00  0.00    -0.056 C  
BRANCH  25  26
HETATM   26  C   UNL     1      -7.228   9.572  70.443  1.00  0.00    -0.130 C  
HETATM   27  C   UNL     1      -6.157   9.931  71.446  1.00  0.00     0.093 C  
HETATM   28  C   UNL     1      -6.376  10.820  70.263  1.00  0.00    -0.142 C  
ENDBRANCH  25  26
ENDBRANCH   2  25
TORSDOF 2
ENDMDL
MODEL      123
REMARK 921   NORMALIZED FREE ENERGY PREDICTED BY IDOCK:   -2.67 KCAL/MOL
REMARK 922        TOTAL FREE ENERGY PREDICTED BY IDOCK:   -3.50 KCAL/MOL
REMARK 923 INTER-LIGAND FREE ENERGY PREDICTED BY IDOCK:   -3.00 KCAL/MOL
REMARK 924 INTRA-LIGAND FREE ENERGY PREDICTED BY IDOCK:   -0.50 KCAL/MOL
REMARK 927      BINDING AFFINITY PREDICTED BY RF-SCORE:    0.00 PKD
ROOT
HETATM    1  C   UNL     1      -5.850   5.391  65.605  1.00  0.00    -0.021 C  
HETATM    2  N   UNL     1      -6.858   6.325  66.313  1.00  0.00    -0.060 N  
HETATM    3  O   UNL     1     -10.180  10.115  67.727  1.00  0.00    -0.171 OA 
HETATM    4  C   UNL     1      -6.144   7.528  66.979  1.00  0.00    -0.047 C  
HETATM    5  C   UNL     1      -7.209   8.346  67.695  1.00  0.00    -0.088 C  
HETATM    6  C   UNL     1     -10.052   8.932  68.023  1.00  0.00    -0.195 C  
HETATM    7  C   UNL     1      -8.217   7.535  68.606  1.00  0.00    -0.129 C  
HETATM    8  C   UNL     1     -10.627   7.841  67.099  1.00  0.00    -0.401 C  
HETATM    9  H   UNL     1      -9.766   4.702  68.922  1.00  0.00     0.000 HD 
HETATM   10  C   UNL     1      -9.245   8.459  69.242  1.00  0.00    -0.154 C  
HETATM   11  O   UNL     1      -8.450   9.314  70.094  1.00  0.00    -0.151 OA 
HETATM   12  C   UNL     1      -7.497   8.429  70.584  1.00  0.00    -0.065 A  
HETATM   13  C   UNL     1      -6.536   8.614  71.531  1.00  0.00    -0.075 A  
HETATM   14  O   UNL     1      -6.325   9.832  72.088  1.00  0.00    -0.243 OA 
HETATM   15  C   UNL     1      -5.691   7.533  71.833  1.00  0.00    -0.036 A  
HETATM   16  C   UNL     1      -5.782   6.286  71.143  1.00  0.00    -0.026 A  
HETATM   17  H   UNL     1      -5.654   9.962  72.749  1.00  0.00     0.000 HD 
HETATM   18  C   UNL     1      -6.659   6.149  70.072  1.00  0.00    -0.044 A  
HETATM   19  C   UNL     1      -6.850   4.941  69.138  1.00  0.00    -0.050 C  
HETATM   20  C   UNL     1      -7.442   7.271  69.832  1.00  0.00    -0.086 A  
HETATM   21  C   UNL     1      -7.543   5.381  67.602  1.00  0.00    -0.088 C  
HETATM   22  C   UNL     1      -8.800   6.226  68.102  1.00  0.00    -0.113 C  
HETATM   23  O   UNL     1      -9.402   5.520  69.238  1.00  0.00    -0.113 OA 
HETATM   24  C   UNL     1     -10.072   6.406  67.244  1.00  0.00    -0.207 C  
ENDROOT
BRANCH   2  25
HETATM   25  C   UNL     1      -7.773   6.901  65.186  1.00  0.00    -0.109 C  
BRANCH  25  26
HETATM   26  C   UNL     1      -7.135   7.892  64.226  1.00  0.00    -0.074 C  
HETATM   27  C   UNL     1      -7.646   8.006  62.809  1.00  0.00    -0.123 C  
HETATM   28  C   UNL     1      -7.824   9.161  63.744  1.00  0.00    -0.133 C  
ENDBRANCH  25  26
ENDBRANCH   2  25
TORSDOF 2
ENDMDL
MODEL      124
REMARK 921   NORMALIZED FREE ENERGY PREDICTED BY IDOCK:   -2.39 KCAL/MOL
REMARK 922        TOTAL FREE ENERGY PREDICTED BY IDOCK:   -3.18 KCAL/MOL
REMARK 923 INTER-LIGAND FREE ENERGY PREDICTED BY IDOCK:   -2.64 KCAL/MOL
REMARK 924 INTRA-LIGAND FREE ENERGY PREDICTED BY IDOCK:   -0.54 KCAL/MOL
REMARK 927      BINDING AFFINITY PREDICTED BY RF-SCORE:    0.00 PKD
ROOT
HETATM    1  C   UNL     1     -10.041   7.239  73.026  1.00  0.00    -0.248 C  
HETATM    2  N   UNL     1      -9.018   7.830  72.028  1.00  0.00    -0.127 N  
HETATM    3  O   UNL     1      -5.285  10.532  69.545  1.00  0.00    -0.038 OA 
HETATM    4  C   UNL     1      -9.557   9.124  71.366  1.00  0.00    -0.246 C  
HETATM    5  C   UNL     1      -8.510   9.588  70.364  1.00  0.00    -0.238 C  
HETATM    6  C   UNL     1      -5.749   9.403  69.429  1.00  0.00    -0.034 C  
HETATM    7  C   UNL     1      -7.941   8.482  69.385  1.00  0.00    -0.107 C  
HETATM    8  C   UNL     1      -5.261   8.271  70.354  1.00  0.00    -0.022 C  
HETATM    9  H   UNL     1      -7.208   5.332  69.132  1.00  0.00     0.000 HD 
HETATM   10  C   UNL     1      -6.888   9.065  68.454  1.00  0.00    -0.064 C  
HETATM   11  O   UNL     1      -7.624  10.030  67.671  1.00  0.00    -0.090 OA 
HETATM   12  C   UNL     1      -8.842   9.385  67.487  1.00  0.00    -0.118 A  
HETATM   13  C   UNL     1      -9.913   9.740  66.725  1.00  0.00    -0.218 A  
HETATM   14  O   UNL     1      -9.948  10.928  66.072  1.00  0.00    -0.221 OA 
HETATM   15  C   UNL     1     -11.034   8.892  66.727  1.00  0.00     0.323 A  
HETATM   16  C   UNL     1     -11.091   7.717  67.536  1.00  0.00     0.092 A  
HETATM   17  H   UNL     1     -10.695  11.176  65.540  1.00  0.00     0.000 HD 
HETATM   18  C   UNL     1     -10.061   7.439  68.428  1.00  0.00    -0.196 A  
HETATM   19  C   UNL     1      -9.962   6.292  69.451  1.00  0.00    -0.192 C  
HETATM   20  C   UNL     1      -9.003   8.338  68.372  1.00  0.00    -0.136 A  
HETATM   21  C   UNL     1      -8.870   6.651  70.759  1.00  0.00    -0.147 C  
HETATM   22  C   UNL     1      -7.588   7.108  69.927  1.00  0.00    -0.098 C  
HETATM   23  O   UNL     1      -7.429   6.192  68.793  1.00  0.00    -0.083 OA 
HETATM   24  C   UNL     1      -6.155   7.019  70.496  1.00  0.00    -0.027 C  
ENDROOT
BRANCH   2  25
HETATM   25  C   UNL     1      -7.773   8.234  72.879  1.00  0.00    -0.117 C  
BRANCH  25  26
HETATM   26  C   UNL     1      -7.500   7.412  74.128  1.00  0.00    -0.134 C  
HETATM   27  C   UNL     1      -7.131   5.953  74.006  1.00  0.00    -0.081 C  
HETATM   28  C   UNL     1      -6.116   6.921  74.527  1.00  0.00    -0.072 C  
ENDBRANCH  25  26
ENDBRANCH   2  25
TORSDOF 2
ENDMDL
MODEL      125
REMARK 921   NORMALIZED FREE ENERGY PREDICTED BY IDOCK:   -2.32 KCAL/MOL
REMARK 922        TOTAL FREE ENERGY PREDICTED BY IDOCK:   -3.11 KCAL/MOL
REMARK 923 INTER-LIGAND FREE ENERGY PREDICTED BY IDOCK:   -2.72 KCAL/MOL
REMARK 924 INTRA-LIGAND FREE ENERGY PREDICTED BY IDOCK:   -0.38 KCAL/MOL
REMARK 927      BINDING AFFINITY PREDICTED BY RF-SCORE:    0.00 PKD
ROOT
HETATM    1  C   UNL     1      -7.295   9.335  71.224  1.00  0.00     0.033 C  
HETATM    2  N   UNL     1      -8.024   8.696  70.019  1.00  0.00    -0.101 N  
HETATM    3  O   UNL     1     -11.455   6.836  66.531  1.00  0.00     0.273 OA 
HETATM    4  C   UNL     1      -8.468   7.244  70.333  1.00  0.00    -0.139 C  
HETATM    5  C   UNL     1      -9.115   6.688  69.073  1.00  0.00    -0.133 C  
HETATM    6  C   UNL     1     -10.303   7.251  66.465  1.00  0.00    -0.034 C  
HETATM    7  C   UNL     1      -8.316   6.902  67.724  1.00  0.00    -0.120 C  
HETATM    8  C   UNL     1     -10.033   8.767  66.404  1.00  0.00    -0.346 C  
HETATM    9  H   UNL     1      -6.313   8.916  66.157  1.00  0.00     0.000 HD 
HETATM   10  C   UNL     1      -9.077   6.326  66.540  1.00  0.00    -0.153 C  
HETATM   11  O   UNL     1      -9.121   4.910  66.821  1.00  0.00    -0.116 OA 
HETATM   12  C   UNL     1      -7.867   4.687  67.378  1.00  0.00    -0.090 A  
HETATM   13  C   UNL     1      -7.266   3.519  67.739  1.00  0.00    -0.058 A  
HETATM   14  O   UNL     1      -7.929   2.338  67.672  1.00  0.00    -0.063 OA 
HETATM   15  C   UNL     1      -5.976   3.586  68.292  1.00  0.00    -0.027 A  
HETATM   16  C   UNL     1      -5.318   4.831  68.528  1.00  0.00    -0.007 A  
HETATM   17  H   UNL     1      -7.509   1.523  67.924  1.00  0.00     0.000 HD 
HETATM   18  C   UNL     1      -5.993   6.025  68.303  1.00  0.00    -0.020 A  
HETATM   19  C   UNL     1      -5.515   7.463  68.576  1.00  0.00    -0.022 C  
HETATM   20  C   UNL     1      -7.268   5.866  67.774  1.00  0.00    -0.076 A  
HETATM   21  C   UNL     1      -6.833   8.587  68.758  1.00  0.00    -0.062 C  
HETATM   22  C   UNL     1      -7.666   8.246  67.441  1.00  0.00    -0.102 C  
HETATM   23  O   UNL     1      -6.719   8.076  66.333  1.00  0.00    -0.056 OA 
HETATM   24  C   UNL     1      -8.618   9.264  66.775  1.00  0.00    -0.134 C  
ENDROOT
BRANCH   2  25
HETATM   25  C   UNL     1      -9.322   9.537  69.808  1.00  0.00    -0.211 C  
BRANCH  25  26
HETATM   26  C   UNL     1     -10.179   9.795  71.036  1.00  0.00    -0.113 C  
HETATM   27  C   UNL     1     -11.679   9.917  70.899  1.00  0.00    -0.449 C  
HETATM   28  C   UNL     1     -11.107   8.756  71.649  1.00  0.00    -0.398 C  
ENDBRANCH  25  26
ENDBRANCH   2  25
TORSDOF 2
ENDMDL
MODEL      126
REMARK 921   NORMALIZED FREE ENERGY PREDICTED BY IDOCK:   -2.16 KCAL/MOL
REMARK 922        TOTAL FREE ENERGY PREDICTED BY IDOCK:   -2.93 KCAL/MOL
REMARK 923 INTER-LIGAND FREE ENERGY PREDICTED BY IDOCK:   -2.58 KCAL/MOL
REMARK 924 INTRA-LIGAND FREE ENERGY PREDICTED BY IDOCK:   -0.35 KCAL/MOL
REMARK 927      BINDING AFFINITY PREDICTED BY RF-SCORE:    0.00 PKD
ROOT
HETATM    1  C   UNL     1      -8.010   8.939  66.082  1.00  0.00    -0.106 C  
HETATM    2  N   UNL     1      -8.156   8.037  67.328  1.00  0.00    -0.120 N  
HETATM    3  O   UNL     1      -7.977   5.793  72.055  1.00  0.00    -0.105 OA 
HETATM    4  C   UNL     1      -6.923   7.114  67.506  1.00  0.00    -0.079 C  
HETATM    5  C   UNL     1      -7.191   6.230  68.715  1.00  0.00    -0.084 C  
HETATM    6  C   UNL     1      -8.777   5.775  71.126  1.00  0.00    -0.135 C  
HETATM    7  C   UNL     1      -8.608   5.527  68.766  1.00  0.00    -0.100 C  
HETATM    8  C   UNL     1      -9.792   6.923  70.962  1.00  0.00    -0.185 C  
HETATM    9  H   UNL     1     -11.731   5.864  67.955  1.00  0.00     0.000 HD 
HETATM   10  C   UNL     1      -8.762   4.696  70.031  1.00  0.00    -0.081 C  
HETATM   11  O   UNL     1      -7.752   3.672  69.890  1.00  0.00    -0.048 OA 
HETATM   12  C   UNL     1      -7.808   3.398  68.527  1.00  0.00    -0.058 A  
HETATM   13  C   UNL     1      -7.175   2.434  67.803  1.00  0.00    -0.048 A  
HETATM   14  O   UNL     1      -6.258   1.615  68.374  1.00  0.00    -0.024 OA 
HETATM   15  C   UNL     1      -7.413   2.388  66.419  1.00  0.00    -0.070 A  
HETATM   16  C   UNL     1      -8.246   3.344  65.762  1.00  0.00    -0.094 A  
HETATM   17  H   UNL     1      -5.817   0.942  67.869  1.00  0.00     0.000 HD 
HETATM   18  C   UNL     1      -8.766   4.417  66.477  1.00  0.00    -0.112 A  
HETATM   19  C   UNL     1      -9.600   5.601  65.957  1.00  0.00    -0.104 C  
HETATM   20  C   UNL     1      -8.467   4.394  67.834  1.00  0.00    -0.102 A  
HETATM   21  C   UNL     1      -9.508   6.997  66.995  1.00  0.00    -0.184 C  
HETATM   22  C   UNL     1      -9.852   6.316  68.397  1.00  0.00    -0.130 C  
HETATM   23  O   UNL     1     -10.954   5.370  68.187  1.00  0.00    -0.005 OA 
HETATM   24  C   UNL     1     -10.454   7.109  69.578  1.00  0.00    -0.236 C  
ENDROOT
BRANCH   2  25
HETATM   25  C   UNL     1      -8.187   9.002  68.556  1.00  0.00    -0.112 C  
BRANCH  25  26
HETATM   26  C   UNL     1      -6.849   9.534  69.043  1.00  0.00    -0.054 C  
HETATM   27  C   UNL     1      -6.394  10.916  68.639  1.00  0.00    -0.050 C  
HETATM   28  C   UNL     1      -6.710  10.643  70.075  1.00  0.00    -0.156 C  
ENDBRANCH  25  26
ENDBRANCH   2  25
TORSDOF 2
ENDMDL
MODEL      127
REMARK 921   NORMALIZED FREE ENERGY PREDICTED BY IDOCK:   -2.12 KCAL/MOL
REMARK 922        TOTAL FREE ENERGY PREDICTED BY IDOCK:   -2.89 KCAL/MOL
REMARK 923 INTER-LIGAND FREE ENERGY PREDICTED BY IDOCK:   -2.47 KCAL/MOL
REMARK 924 INTRA-LIGAND FREE ENERGY PREDICTED BY IDOCK:   -0.41 KCAL/MOL
REMARK 927      BINDING AFFINITY PREDICTED BY RF-SCORE:    0.00 PKD
ROOT
HETATM    1  C   UNL     1      -8.899  10.188  67.827  1.00  0.00    -0.125 C  
HETATM    2  N   UNL     1      -8.237   8.855  67.406  1.00  0.00    -0.108 N  
HETATM    3  O   UNL     1      -6.342   4.664  64.907  1.00  0.00    -0.033 OA 
HETATM    4  C   UNL     1      -9.289   7.727  67.248  1.00  0.00    -0.145 C  
HETATM    5  C   UNL     1      -8.535   6.453  66.895  1.00  0.00    -0.110 C  
HETATM    6  C   UNL     1      -6.048   5.252  65.943  1.00  0.00    -0.033 C  
HETATM    7  C   UNL     1      -7.272   6.118  67.789  1.00  0.00    -0.083 C  
HETATM    8  C   UNL     1      -5.177   6.522  65.886  1.00  0.00    -0.017 C  
HETATM    9  H   UNL     1      -4.842   7.432  69.489  1.00  0.00     0.000 HD 
HETATM   10  C   UNL     1      -6.594   4.840  67.320  1.00  0.00    -0.050 C  
HETATM   11  O   UNL     1      -7.594   3.822  67.546  1.00  0.00    -0.067 OA 
HETATM   12  C   UNL     1      -8.168   4.242  68.740  1.00  0.00    -0.079 A  
HETATM   13  C   UNL     1      -9.093   3.627  69.529  1.00  0.00    -0.134 A  
HETATM   14  O   UNL     1      -9.681   2.466  69.148  1.00  0.00    -0.041 OA 
HETATM   15  C   UNL     1      -9.507   4.290  70.697  1.00  0.00    -0.241 A  
HETATM   16  C   UNL     1      -9.027   5.590  71.039  1.00  0.00    -0.153 A  
HETATM   17  H   UNL     1     -10.326   2.037  69.699  1.00  0.00     0.000 HD 
HETATM   18  C   UNL     1      -8.204   6.280  70.156  1.00  0.00    -0.121 A  
HETATM   19  C   UNL     1      -7.653   7.712  70.278  1.00  0.00    -0.089 C  
HETATM   20  C   UNL     1      -7.859   5.558  69.020  1.00  0.00    -0.091 A  
HETATM   21  C   UNL     1      -7.218   8.399  68.737  1.00  0.00    -0.079 C  
HETATM   22  C   UNL     1      -6.303   7.225  68.165  1.00  0.00    -0.044 C  
HETATM   23  O   UNL     1      -5.448   6.739  69.254  1.00  0.00    -0.013 OA 
HETATM   24  C   UNL     1      -5.205   7.470  67.106  1.00  0.00    -0.029 C  
ENDROOT
BRANCH   2  25
HETATM   25  C   UNL     1      -7.622   9.109  65.993  1.00  0.00    -0.095 C  
BRANCH  25  26
HETATM   26  C   UNL     1      -8.532   8.878  64.798  1.00  0.00    -0.193 C  
HETATM   27  C   UNL     1      -8.355   9.700  63.543  1.00  0.00    -0.172 C  
HETATM   28  C   UNL     1      -8.069   8.233  63.499  1.00  0.00    -0.130 C  
ENDBRANCH  25  26
ENDBRANCH   2  25
TORSDOF 2
ENDMDL
MODEL      128
REMARK 921   NORMALIZED FREE ENERGY PREDICTED BY IDOCK:   -1.95 KCAL/MOL
REMARK 922        TOTAL FREE ENERGY PREDICTED BY IDOCK:   -2.70 KCAL/MOL
REMARK 923 INTER-LIGAND FREE ENERGY PREDICTED BY IDOCK:   -2.49 KCAL/MOL
REMARK 924 INTRA-LIGAND FREE ENERGY PREDICTED BY IDOCK:   -0.21 KCAL/MOL
REMARK 927      BINDING AFFINITY PREDICTED BY RF-SCORE:    0.00 PKD
ROOT
HETATM    1  C   UNL     1      -7.110   9.314  70.841  1.00  0.00    -0.103 C  
HETATM    2  N   UNL     1      -7.716   8.068  70.154  1.00  0.00    -0.085 N  
HETATM    3  O   UNL     1     -10.499   4.633  67.352  1.00  0.00    -0.040 OA 
HETATM    4  C   UNL     1      -8.978   7.567  70.904  1.00  0.00    -0.149 C  
HETATM    5  C   UNL     1      -9.458   6.313  70.190  1.00  0.00    -0.172 C  
HETATM    6  C   UNL     1      -9.352   4.659  67.785  1.00  0.00    -0.141 C  
HETATM    7  C   UNL     1      -8.354   5.226  69.867  1.00  0.00    -0.094 C  
HETATM    8  C   UNL     1      -8.257   5.426  67.017  1.00  0.00    -0.104 C  
HETATM    9  H   UNL     1      -5.227   4.812  69.107  1.00  0.00     0.000 HD 
HETATM   10  C   UNL     1      -8.954   4.037  69.132  1.00  0.00    -0.111 C  
HETATM   11  O   UNL     1      -9.877   3.475  70.092  1.00  0.00    -0.148 OA 
HETATM   12  C   UNL     1      -9.185   3.638  71.287  1.00  0.00    -0.127 A  
HETATM   13  C   UNL     1      -9.487   3.195  72.539  1.00  0.00    -0.113 A  
HETATM   14  O   UNL     1     -10.660   2.565  72.798  1.00  0.00    -0.157 OA 
HETATM   15  C   UNL     1      -8.600   3.512  73.582  1.00  0.00    -0.082 A  
HETATM   16  C   UNL     1      -7.440   4.317  73.369  1.00  0.00    -0.077 A  
HETATM   17  H   UNL     1     -10.870   2.256  73.672  1.00  0.00     0.000 HD 
HETATM   18  C   UNL     1      -7.216   4.895  72.125  1.00  0.00    -0.080 A  
HETATM   19  C   UNL     1      -6.095   5.863  71.704  1.00  0.00    -0.039 C  
HETATM   20  C   UNL     1      -8.151   4.544  71.158  1.00  0.00    -0.086 A  
HETATM   21  C   UNL     1      -6.519   6.819  70.312  1.00  0.00    -0.043 C  
HETATM   22  C   UNL     1      -7.004   5.664  69.325  1.00  0.00    -0.063 C  
HETATM   23  O   UNL     1      -6.071   4.538  69.446  1.00  0.00    -0.024 OA 
HETATM   24  C   UNL     1      -6.977   5.819  67.789  1.00  0.00    -0.066 C  
ENDROOT
BRANCH   2  25
HETATM   25  C   UNL     1      -8.181   8.542  68.741  1.00  0.00    -0.122 C  
BRANCH  25  26
HETATM   26  C   UNL     1      -7.141   9.227  67.870  1.00  0.00    -0.078 C  
HETATM   27  C   UNL     1      -7.572  10.012  66.654  1.00  0.00    -0.104 C  
HETATM   28  C   UNL     1      -6.956  10.737  67.808  1.00  0.00    -0.077 C  
ENDBRANCH  25  26
ENDBRANCH   2  25
TORSDOF 2
ENDMDL
MODEL      129
REMARK 921   NORMALIZED FREE ENERGY PREDICTED BY IDOCK:   -1.77 KCAL/MOL
REMARK 922        TOTAL FREE ENERGY PREDICTED BY IDOCK:   -2.49 KCAL/MOL
REMARK 923 INTER-LIGAND FREE ENERGY PREDICTED BY IDOCK:   -2.09 KCAL/MOL
REMARK 924 INTRA-LIGAND FREE ENERGY PREDICTED BY IDOCK:   -0.40 KCAL/MOL
REMARK 927      BINDING AFFINITY PREDICTED BY RF-SCORE:    0.00 PKD
ROOT
HETATM    1  C   UNL     1      -5.169   9.540  69.626  1.00  0.00    -0.034 C  
HETATM    2  N   UNL     1      -6.532   9.156  69.006  1.00  0.00    -0.047 N  
HETATM    3  O   UNL     1     -11.393   7.498  67.994  1.00  0.00     0.286 OA 
HETATM    4  C   UNL     1      -6.589   7.647  68.654  1.00  0.00    -0.053 C  
HETATM    5  C   UNL     1      -7.937   7.386  67.999  1.00  0.00    -0.119 C  
HETATM    6  C   UNL     1     -10.652   8.339  67.496  1.00  0.00    -0.221 C  
HETATM    7  C   UNL     1      -8.363   8.391  66.853  1.00  0.00    -0.106 C  
HETATM    8  C   UNL     1     -10.535   9.737  68.135  1.00  0.00    -0.258 C  
HETATM    9  H   UNL     1      -8.146  11.470  65.853  1.00  0.00     0.000 HD 
HETATM   10  C   UNL     1      -9.735   8.040  66.299  1.00  0.00    -0.126 C  
HETATM   11  O   UNL     1      -9.540   6.735  65.709  1.00  0.00     0.150 OA 
HETATM   12  C   UNL     1      -8.266   6.854  65.163  1.00  0.00    -0.115 A  
HETATM   13  C   UNL     1      -7.571   5.991  64.372  1.00  0.00    -0.093 A  
HETATM   14  O   UNL     1      -8.057   4.760  64.078  1.00  0.00    -0.096 OA 
HETATM   15  C   UNL     1      -6.281   6.367  63.961  1.00  0.00    -0.030 A  
HETATM   16  C   UNL     1      -5.676   7.587  64.391  1.00  0.00    -0.037 A  
HETATM   17  H   UNL     1      -7.572   4.157  63.525  1.00  0.00     0.000 HD 
HETATM   18  C   UNL     1      -6.325   8.392  65.322  1.00  0.00    -0.052 A  
HETATM   19  C   UNL     1      -5.822   9.685  65.987  1.00  0.00    -0.061 C  
HETATM   20  C   UNL     1      -7.586   7.936  65.686  1.00  0.00    -0.084 A  
HETATM   21  C   UNL     1      -6.619  10.018  67.500  1.00  0.00    -0.068 C  
HETATM   22  C   UNL     1      -8.141   9.882  67.040  1.00  0.00    -0.110 C  
HETATM   23  O   UNL     1      -8.285  10.537  65.736  1.00  0.00    -0.152 OA 
HETATM   24  C   UNL     1      -9.297  10.590  67.781  1.00  0.00    -0.158 C  
ENDROOT
BRANCH   2  25
HETATM   25  C   UNL     1      -7.597   9.407  70.121  1.00  0.00    -0.130 C  
BRANCH  25  26
HETATM   26  C   UNL     1      -7.687   8.369  71.228  1.00  0.00    -0.110 C  
HETATM   27  C   UNL     1      -7.233   8.716  72.626  1.00  0.00     0.009 C  
HETATM   28  C   UNL     1      -8.683   8.447  72.376  1.00  0.00    -0.280 C  
ENDBRANCH  25  26
ENDBRANCH   2  25
TORSDOF 2
ENDMDL
MODEL      130
REMARK 921   NORMALIZED FREE ENERGY PREDICTED BY IDOCK:   -1.58 KCAL/MOL
REMARK 922        TOTAL FREE ENERGY PREDICTED BY IDOCK:   -2.28 KCAL/MOL
REMARK 923 INTER-LIGAND FREE ENERGY PREDICTED BY IDOCK:   -1.77 KCAL/MOL
REMARK 924 INTRA-LIGAND FREE ENERGY PREDICTED BY IDOCK:   -0.51 KCAL/MOL
REMARK 927      BINDING AFFINITY PREDICTED BY RF-SCORE:    0.00 PKD
ROOT
HETATM    1  C   UNL     1      -7.614   5.726  70.043  1.00  0.00    -0.083 C  
HETATM    2  N   UNL     1      -7.873   6.595  68.791  1.00  0.00    -0.109 N  
HETATM    3  O   UNL     1      -8.306   8.617  63.982  1.00  0.00    -0.168 OA 
HETATM    4  C   UNL     1      -6.583   7.320  68.329  1.00  0.00    -0.049 C  
HETATM    5  C   UNL     1      -6.956   8.190  67.137  1.00  0.00    -0.075 C  
HETATM    6  C   UNL     1      -8.901   8.785  65.041  1.00  0.00    -0.107 C  
HETATM    7  C   UNL     1      -8.246   9.091  67.307  1.00  0.00    -0.103 C  
HETATM    8  C   UNL     1     -10.013   7.806  65.464  1.00  0.00     1.306 C  
HETATM    9  H   UNL     1     -11.169   9.246  68.705  1.00  0.00     0.000 HD 
HETATM   10  C   UNL     1      -8.526   9.889  66.042  1.00  0.00    -0.129 C  
HETATM   11  O   UNL     1      -7.376  10.758  65.928  1.00  0.00    -0.146 OA 
HETATM   12  C   UNL     1      -7.130  11.086  67.257  1.00  0.00    -0.097 A  
HETATM   13  C   UNL     1      -6.242  11.972  67.788  1.00  0.00    -0.081 A  
HETATM   14  O   UNL     1      -5.350  12.627  67.006  1.00  0.00    -0.339 OA 
HETATM   15  C   UNL     1      -6.199  12.103  69.187  1.00  0.00    -0.088 A  
HETATM   16  C   UNL     1      -7.013  11.304  70.046  1.00  0.00     0.182 A  
HETATM   17  H   UNL     1      -4.731  13.246  67.376  1.00  0.00     0.000 HD 
HETATM   18  C   UNL     1      -7.803  10.294  69.510  1.00  0.00    -0.172 A  
HETATM   19  C   UNL     1      -8.676   9.264  70.251  1.00  0.00    -0.246 C  
HETATM   20  C   UNL     1      -7.772  10.223  68.123  1.00  0.00    -0.092 A  
HETATM   21  C   UNL     1      -8.979   7.834  69.304  1.00  0.00    -0.139 C  
HETATM   22  C   UNL     1      -9.491   8.507  67.951  1.00  0.00    -0.139 C  
HETATM   23  O   UNL     1     -10.390   9.611  68.302  1.00  0.00    -0.186 OA 
HETATM   24  C   UNL     1     -10.413   7.769  66.956  1.00  0.00    -0.419 C  
ENDROOT
BRANCH   2  25
HETATM   25  C   UNL     1      -8.273   5.602  67.655  1.00  0.00    -0.101 C  
BRANCH  25  26
HETATM   26  C   UNL     1      -7.609   4.234  67.675  1.00  0.00    -0.073 C  
HETATM   27  C   UNL     1      -7.647   3.358  66.445  1.00  0.00    -0.077 C  
HETATM   28  C   UNL     1      -6.335   3.905  66.911  1.00  0.00    -0.040 C  
ENDBRANCH  25  26
ENDBRANCH   2  25
TORSDOF 2
ENDMDL
MODEL      131
REMARK 921   NORMALIZED FREE ENERGY PREDICTED BY IDOCK:   -1.43 KCAL/MOL
REMARK 922        TOTAL FREE ENERGY PREDICTED BY IDOCK:   -2.12 KCAL/MOL
REMARK 923 INTER-LIGAND FREE ENERGY PREDICTED BY IDOCK:   -1.96 KCAL/MOL
REMARK 924 INTRA-LIGAND FREE ENERGY PREDICTED BY IDOCK:   -0.16 KCAL/MOL
REMARK 927      BINDING AFFINITY PREDICTED BY RF-SCORE:    0.00 PKD
ROOT
HETATM    1  C   UNL     1     -11.494   6.418  68.509  1.00  0.00     0.122 C  
HETATM    2  N   UNL     1     -10.067   5.878  68.755  1.00  0.00    -0.158 N  
HETATM    3  O   UNL     1      -5.579   3.186  68.879  1.00  0.00    -0.019 OA 
HETATM    4  C   UNL     1     -10.058   4.780  69.849  1.00  0.00    -0.229 C  
HETATM    5  C   UNL     1      -8.610   4.362  70.058  1.00  0.00    -0.099 C  
HETATM    6  C   UNL     1      -5.877   4.366  69.029  1.00  0.00    -0.022 C  
HETATM    7  C   UNL     1      -7.562   5.535  70.232  1.00  0.00    -0.080 C  
HETATM    8  C   UNL     1      -6.088   5.268  67.797  1.00  0.00    -0.026 C  
HETATM    9  H   UNL     1      -6.861   8.575  69.343  1.00  0.00     0.000 HD 
HETATM   10  C   UNL     1      -6.153   4.989  70.406  1.00  0.00    -0.018 C  
HETATM   11  O   UNL     1      -6.225   4.256  71.649  1.00  0.00    -0.016 OA 
HETATM   12  C   UNL     1      -7.062   5.063  72.412  1.00  0.00    -0.084 A  
HETATM   13  C   UNL     1      -7.413   4.964  73.724  1.00  0.00    -0.090 A  
HETATM   14  O   UNL     1      -7.019   3.909  74.480  1.00  0.00    -0.055 OA 
HETATM   15  C   UNL     1      -8.293   5.928  74.245  1.00  0.00    -0.108 A  
HETATM   16  C   UNL     1      -8.856   6.957  73.430  1.00  0.00    -0.152 A  
HETATM   17  H   UNL     1      -7.264   3.840  75.396  1.00  0.00     0.000 HD 
HETATM   18  C   UNL     1      -8.618   6.963  72.060  1.00  0.00    -0.121 A  
HETATM   19  C   UNL     1      -9.194   7.911  70.992  1.00  0.00    -0.164 C  
HETATM   20  C   UNL     1      -7.753   5.966  71.629  1.00  0.00    -0.101 A  
HETATM   21  C   UNL     1      -9.165   7.219  69.393  1.00  0.00    -0.148 C  
HETATM   22  C   UNL     1      -7.641   6.752  69.327  1.00  0.00    -0.096 C  
HETATM   23  O   UNL     1      -6.812   7.814  69.909  1.00  0.00    -0.048 OA 
HETATM   24  C   UNL     1      -6.884   6.578  67.991  1.00  0.00    -0.074 C  
ENDROOT
BRANCH   2  25
HETATM   25  C   UNL     1      -9.629   5.197  67.419  1.00  0.00    -0.139 C  
BRANCH  25  26
HETATM   26  C   UNL     1      -9.827   6.000  66.144  1.00  0.00    -0.032 C  
HETATM   27  C   UNL     1      -8.934   7.183  65.850  1.00  0.00    -0.098 C  
HETATM   28  C   UNL     1      -8.855   5.973  64.973  1.00  0.00     0.100 C  
ENDBRANCH  25  26
ENDBRANCH   2  25
TORSDOF 2
ENDMDL
MODEL      132
REMARK 921   NORMALIZED FREE ENERGY PREDICTED BY IDOCK:   -1.37 KCAL/MOL
REMARK 922        TOTAL FREE ENERGY PREDICTED BY IDOCK:   -2.04 KCAL/MOL
REMARK 923 INTER-LIGAND FREE ENERGY PREDICTED BY IDOCK:   -2.56 KCAL/MOL
REMARK 924 INTRA-LIGAND FREE ENERGY PREDICTED BY IDOCK:    0.52 KCAL/MOL
REMARK 927      BINDING AFFINITY PREDICTED BY RF-SCORE:    0.00 PKD
ROOT
HETATM    1  C   UNL     1     -11.060  18.344  68.437  1.00  0.00     0.629 C  
HETATM    2  N   UNL     1     -10.360  16.966  68.408  1.00  0.00    -0.317 N  
HETATM    3  O   UNL     1      -9.043  11.905  68.629  1.00  0.00    -0.144 OA 
HETATM    4  C   UNL     1      -9.923  16.524  69.828  1.00  0.00     0.067 C  
HETATM    5  C   UNL     1      -9.195  15.196  69.683  1.00  0.00    -0.082 C  
HETATM    6  C   UNL     1      -8.626  12.874  68.004  1.00  0.00    -0.186 C  
HETATM    7  C   UNL     1      -8.089  15.125  68.553  1.00  0.00    -0.145 C  
HETATM    8  C   UNL     1      -9.346  13.328  66.719  1.00  0.00    -0.254 C  
HETATM    9  H   UNL     1      -7.272  16.226  65.613  1.00  0.00     0.000 HD 
HETATM   10  C   UNL     1      -7.456  13.743  68.493  1.00  0.00    -0.119 C  
HETATM   11  O   UNL     1      -6.804  13.611  69.776  1.00  0.00    -0.009 OA 
HETATM   12  C   UNL     1      -6.323  14.899  69.988  1.00  0.00    -0.162 A  
HETATM   13  C   UNL     1      -5.516  15.379  70.974  1.00  0.00    -0.030 A  
HETATM   14  O   UNL     1      -5.133  14.595  72.012  1.00  0.00    -0.159 OA 
HETATM   15  C   UNL     1      -5.185  16.744  70.949  1.00  0.00    -0.171 A  
HETATM   16  C   UNL     1      -5.708  17.631  69.959  1.00  0.00    -0.246 A  
HETATM   17  H   UNL     1      -4.570  14.929  72.701  1.00  0.00     0.000 HD 
HETATM   18  C   UNL     1      -6.652  17.172  69.047  1.00  0.00    -0.218 A  
HETATM   19  C   UNL     1      -7.410  17.967  67.969  1.00  0.00    -0.232 C  
HETATM   20  C   UNL     1      -6.934  15.815  69.155  1.00  0.00    -0.174 A  
HETATM   21  C   UNL     1      -8.901  17.204  67.494  1.00  0.00    -0.218 C  
HETATM   22  C   UNL     1      -8.368  15.732  67.189  1.00  0.00    -0.202 C  
HETATM   23  O   UNL     1      -7.097  15.846  66.466  1.00  0.00    -0.143 OA 
HETATM   24  C   UNL     1      -9.094  14.770  66.223  1.00  0.00    -0.231 C  
ENDROOT
BRANCH   2  25
HETATM   25  C   UNL     1     -11.439  15.947  67.922  1.00  0.00    -0.187 C  
BRANCH  25  26
HETATM   26  C   UNL     1     -12.576  15.642  68.883  1.00  0.00     0.530 C  
HETATM   27  C   UNL     1     -12.773  14.236  69.398  1.00  0.00     0.262 C  
HETATM   28  C   UNL     1     -12.369  15.313  70.354  1.00  0.00    -0.422 C  
ENDBRANCH  25  26
ENDBRANCH   2  25
TORSDOF 2
ENDMDL
MODEL      133
REMARK 921   NORMALIZED FREE ENERGY PREDICTED BY IDOCK:   -0.52 KCAL/MOL
REMARK 922        TOTAL FREE ENERGY PREDICTED BY IDOCK:   -1.10 KCAL/MOL
REMARK 923 INTER-LIGAND FREE ENERGY PREDICTED BY IDOCK:   -2.19 KCAL/MOL
REMARK 924 INTRA-LIGAND FREE ENERGY PREDICTED BY IDOCK:    1.09 KCAL/MOL
REMARK 927      BINDING AFFINITY PREDICTED BY RF-SCORE:    0.00 PKD
ROOT
HETATM    1  C   UNL     1      -7.798  15.766  66.295  1.00  0.00     0.331 C  
HETATM    2  N   UNL     1      -8.725  14.864  67.142  1.00  0.00    -0.206 N  
HETATM    3  O   UNL     1     -11.912  12.745  70.712  1.00  0.00    -0.251 OA 
HETATM    4  C   UNL     1      -7.955  14.203  68.314  1.00  0.00    -0.140 C  
HETATM    5  C   UNL     1      -8.934  13.295  69.043  1.00  0.00     0.440 C  
HETATM    6  C   UNL     1     -11.722  12.561  69.515  1.00  0.00    -0.309 C  
HETATM    7  C   UNL     1      -9.799  12.329  68.135  1.00  0.00    -0.212 C  
HETATM    8  C   UNL     1     -12.390  13.486  68.479  1.00  0.00     0.047 C  
HETATM    9  H   UNL     1     -11.233  12.038  65.240  1.00  0.00     0.000 HD 
HETATM   10  C   UNL     1     -10.753  11.496  68.978  1.00  0.00    -0.193 C  
HETATM   11  O   UNL     1      -9.873  10.689  69.791  1.00  0.00    -0.107 OA 
HETATM   12  C   UNL     1      -8.845  10.396  68.901  1.00  0.00    -0.161 A  
HETATM   13  C   UNL     1      -7.773   9.568  69.044  1.00  0.00    -0.076 A  
HETATM   14  O   UNL     1      -7.517   8.950  70.224  1.00  0.00    -0.059 OA 
HETATM   15  C   UNL     1      -6.874   9.463  67.970  1.00  0.00    -0.074 A  
HETATM   16  C   UNL     1      -7.029  10.230  66.776  1.00  0.00    -0.093 A  
HETATM   17  H   UNL     1      -6.769   8.372  70.324  1.00  0.00     0.000 HD 
HETATM   18  C   UNL     1      -8.034  11.187  66.693  1.00  0.00    -0.159 A  
HETATM   19  C   UNL     1      -8.320  12.180  65.552  1.00  0.00     1.058 C  
HETATM   20  C   UNL     1      -8.865  11.237  67.805  1.00  0.00    -0.141 A  
HETATM   21  C   UNL     1      -9.216  13.576  66.084  1.00  0.00     0.006 C  
HETATM   22  C   UNL     1     -10.414  12.855  66.850  1.00  0.00    -0.246 C  
HETATM   23  O   UNL     1     -10.849  11.709  66.044  1.00  0.00    -0.276 OA 
HETATM   24  C   UNL     1     -11.791  13.525  67.055  1.00  0.00    -0.447 C  
ENDROOT
BRANCH   2  25
HETATM   25  C   UNL     1      -9.790  15.816  67.773  1.00  0.00    -0.224 C  
BRANCH  25  26
HETATM   26  C   UNL     1     -10.816  16.419  66.827  1.00  0.00    -0.098 C  
HETATM   27  C   UNL     1     -10.411  17.520  65.876  1.00  0.00    -0.251 C  
HETATM   28  C   UNL     1     -10.812  16.190  65.323  1.00  0.00    -0.349 C  
ENDBRANCH  25  26
ENDBRANCH   2  25
TORSDOF 2
ENDMDL
MODEL      134
REMARK 921   NORMALIZED FREE ENERGY PREDICTED BY IDOCK:   -0.34 KCAL/MOL
REMARK 922        TOTAL FREE ENERGY PREDICTED BY IDOCK:   -0.90 KCAL/MOL
REMARK 923 INTER-LIGAND FREE ENERGY PREDICTED BY IDOCK:   -1.47 KCAL/MOL
REMARK 924 INTRA-LIGAND FREE ENERGY PREDICTED BY IDOCK:    0.57 KCAL/MOL
REMARK 927      BINDING AFFINITY PREDICTED BY RF-SCORE:    0.00 PKD
ROOT
HETATM    1  C   UNL     1     -11.987  14.452  67.226  1.00  0.00    -0.377 C  
HETATM    2  N   UNL     1     -10.804  13.634  67.794  1.00  0.00    -0.250 N  
HETATM    3  O   UNL     1      -7.637  10.335  70.341  1.00  0.00    -0.228 OA 
HETATM    4  C   UNL     1     -10.342  14.189  69.167  1.00  0.00    -0.089 C  
HETATM    5  C   UNL     1      -9.144  13.360  69.608  1.00  0.00     1.692 C  
HETATM    6  C   UNL     1      -7.584  10.915  69.262  1.00  0.00    -0.113 C  
HETATM    7  C   UNL     1      -8.014  13.134  68.523  1.00  0.00    -0.094 C  
HETATM    8  C   UNL     1      -8.322  10.334  68.039  1.00  0.00    -0.114 C  
HETATM    9  H   UNL     1      -7.464  12.770  65.347  1.00  0.00     0.000 HD 
HETATM   10  C   UNL     1      -6.889  12.273  69.077  1.00  0.00    -0.094 C  
HETATM   11  O   UNL     1      -6.340  13.076  70.145  1.00  0.00    -0.079 OA 
HETATM   12  C   UNL     1      -6.417  14.358  69.611  1.00  0.00    -0.145 A  
HETATM   13  C   UNL     1      -5.942  15.538  70.097  1.00  0.00    -0.137 A  
HETATM   14  O   UNL     1      -5.365  15.611  71.323  1.00  0.00    -0.103 OA 
HETATM   15  C   UNL     1      -6.169  16.701  69.342  1.00  0.00    -0.205 A  
HETATM   16  C   UNL     1      -6.918  16.679  68.127  1.00  0.00    -0.156 A  
HETATM   17  H   UNL     1      -5.033  16.435  71.662  1.00  0.00     0.000 HD 
HETATM   18  C   UNL     1      -7.533  15.503  67.713  1.00  0.00    -0.168 A  
HETATM   19  C   UNL     1      -8.455  15.278  66.501  1.00  0.00    -0.202 C  
HETATM   20  C   UNL     1      -7.271  14.408  68.527  1.00  0.00    -0.119 A  
HETATM   21  C   UNL     1      -9.488  13.889  66.689  1.00  0.00    -0.296 C  
HETATM   22  C   UNL     1      -8.400  12.794  67.094  1.00  0.00    -0.164 C  
HETATM   23  O   UNL     1      -7.222  12.983  66.241  1.00  0.00     1.179 OA 
HETATM   24  C   UNL     1      -8.615  11.283  66.856  1.00  0.00    -0.150 C  
ENDROOT
BRANCH   2  25
HETATM   25  C   UNL     1     -11.358  12.196  68.044  1.00  0.00    -0.295 C  
BRANCH  25  26
HETATM   26  C   UNL     1     -12.380  12.039  69.159  1.00  0.00     0.069 C  
HETATM   27  C   UNL     1     -12.009  11.305  70.426  1.00  0.00    -0.471 C  
HETATM   28  C   UNL     1     -12.294  12.772  70.489  1.00  0.00    -0.355 C  
ENDBRANCH  25  26
ENDBRANCH   2  25
TORSDOF 2
ENDMDL
MODEL      135
REMARK 921   NORMALIZED FREE ENERGY PREDICTED BY IDOCK:    0.28 KCAL/MOL
REMARK 922        TOTAL FREE ENERGY PREDICTED BY IDOCK:   -0.21 KCAL/MOL
REMARK 923 INTER-LIGAND FREE ENERGY PREDICTED BY IDOCK:    0.30 KCAL/MOL
REMARK 924 INTRA-LIGAND FREE ENERGY PREDICTED BY IDOCK:   -0.50 KCAL/MOL
REMARK 927      BINDING AFFINITY PREDICTED BY RF-SCORE:    0.00 PKD
ROOT
HETATM    1  C   UNL     1      -9.695   5.073  68.493  1.00  0.00    -0.154 C  
HETATM    2  N   UNL     1      -9.478   5.902  69.779  1.00  0.00    -0.146 N  
HETATM    3  O   UNL     1      -8.314   7.704  74.554  1.00  0.00    -0.207 OA 
HETATM    4  C   UNL     1     -10.621   5.672  70.801  1.00  0.00    -0.265 C  
HETATM    5  C   UNL     1     -10.347   6.573  71.996  1.00  0.00    -0.221 C  
HETATM    6  C   UNL     1      -8.415   8.216  73.445  1.00  0.00    -0.239 C  
HETATM    7  C   UNL     1      -9.990   8.080  71.668  1.00  0.00    -0.237 C  
HETATM    8  C   UNL     1      -7.241   8.135  72.450  1.00  0.00    -0.119 C  
HETATM    9  H   UNL     1      -8.546  10.019  69.506  1.00  0.00     0.000 HD 
HETATM   10  C   UNL     1      -9.713   8.866  72.940  1.00  0.00     0.668 C  
HETATM   11  O   UNL     1     -10.979   8.841  73.637  1.00  0.00     1.854 OA 
HETATM   12  C   UNL     1     -11.887   8.962  72.591  1.00  0.00     0.068 A  
HETATM   13  C   UNL     1     -13.239   9.120  72.621  1.00  0.00    -0.296 A  
HETATM   14  O   UNL     1     -13.926   9.076  73.789  1.00  0.00    -0.658 OA 
HETATM   15  C   UNL     1     -13.919   9.212  71.394  1.00  0.00    -0.245 A  
HETATM   16  C   UNL     1     -13.241   9.095  70.143  1.00  0.00     1.352 A  
HETATM   17  H   UNL     1     -14.870   9.186  73.810  1.00  0.00     0.000 HD 
HETATM   18  C   UNL     1     -11.887   8.780  70.116  1.00  0.00     0.256 A  
HETATM   19  C   UNL     1     -10.988   8.515  68.894  1.00  0.00     0.106 C  
HETATM   20  C   UNL     1     -11.299   8.689  71.371  1.00  0.00    -0.350 A  
HETATM   21  C   UNL     1      -9.583   7.565  69.286  1.00  0.00    -0.158 C  
HETATM   22  C   UNL     1      -9.032   8.395  70.532  1.00  0.00    -0.150 C  
HETATM   23  O   UNL     1      -9.145   9.823  70.216  1.00  0.00    -0.237 OA 
HETATM   24  C   UNL     1      -7.546   8.370  70.953  1.00  0.00    -0.079 C  
ENDROOT
BRANCH   2  25
HETATM   25  C   UNL     1      -8.167   5.353  70.428  1.00  0.00    -0.105 C  
BRANCH  25  26
HETATM   26  C   UNL     1      -7.892   3.867  70.262  1.00  0.00    -0.047 C  
HETATM   27  C   UNL     1      -6.693   3.242  70.936  1.00  0.00    -0.032 C  
HETATM   28  C   UNL     1      -8.066   2.849  71.380  1.00  0.00    -0.062 C  
ENDBRANCH  25  26
ENDBRANCH   2  25
TORSDOF 2
ENDMDL
MODEL      136
REMARK 921   NORMALIZED FREE ENERGY PREDICTED BY IDOCK:    0.30 KCAL/MOL
REMARK 922        TOTAL FREE ENERGY PREDICTED BY IDOCK:   -0.19 KCAL/MOL
REMARK 923 INTER-LIGAND FREE ENERGY PREDICTED BY IDOCK:    0.07 KCAL/MOL
REMARK 924 INTRA-LIGAND FREE ENERGY PREDICTED BY IDOCK:   -0.26 KCAL/MOL
REMARK 927      BINDING AFFINITY PREDICTED BY RF-SCORE:    0.00 PKD
ROOT
HETATM    1  C   UNL     1     -12.697  12.217  65.528  1.00  0.00     0.990 C  
HETATM    2  N   UNL     1     -11.768  13.251  66.205  1.00  0.00    -0.356 N  
HETATM    3  O   UNL     1      -8.859  17.391  67.544  1.00  0.00    -0.221 OA 
HETATM    4  C   UNL     1     -10.331  13.184  65.626  1.00  0.00    -0.284 C  
HETATM    5  C   UNL     1      -9.488  14.190  66.395  1.00  0.00    -0.289 C  
HETATM    6  C   UNL     1      -9.437  16.509  68.170  1.00  0.00    -0.222 C  
HETATM    7  C   UNL     1      -9.614  14.146  67.973  1.00  0.00    -0.218 C  
HETATM    8  C   UNL     1     -10.948  16.628  68.449  1.00  0.00    -0.345 C  
HETATM    9  H   UNL     1     -11.651  13.542  70.423  1.00  0.00     0.000 HD 
HETATM   10  C   UNL     1      -8.745  15.213  68.621  1.00  0.00    -0.174 C  
HETATM   11  O   UNL     1      -7.401  14.822  68.261  1.00  0.00    -0.102 OA 
HETATM   12  C   UNL     1      -7.472  13.436  68.345  1.00  0.00    -0.117 A  
HETATM   13  C   UNL     1      -6.487  12.502  68.235  1.00  0.00    -0.067 A  
HETATM   14  O   UNL     1      -5.219  12.853  67.906  1.00  0.00    -0.090 OA 
HETATM   15  C   UNL     1      -6.845  11.149  68.358  1.00  0.00    -0.066 A  
HETATM   16  C   UNL     1      -8.201  10.739  68.540  1.00  0.00    -0.136 A  
HETATM   17  H   UNL     1      -4.532  12.202  67.829  1.00  0.00     0.000 HD 
HETATM   18  C   UNL     1      -9.222  11.682  68.497  1.00  0.00    -0.163 A  
HETATM   19  C   UNL     1     -10.742  11.454  68.575  1.00  0.00    -0.235 C  
HETATM   20  C   UNL     1      -8.780  12.992  68.355  1.00  0.00    -0.115 A  
HETATM   21  C   UNL     1     -11.655  12.758  67.867  1.00  0.00    -0.400 C  
HETATM   22  C   UNL     1     -10.982  13.997  68.614  1.00  0.00    -0.263 C  
HETATM   23  O   UNL     1     -10.795  13.635  70.023  1.00  0.00     0.231 OA 
HETATM   24  C   UNL     1     -11.717  15.340  68.819  1.00  0.00    -0.374 C  
ENDROOT
BRANCH   2  25
HETATM   25  C   UNL     1     -12.346  14.653  65.835  1.00  0.00    -0.115 C  
BRANCH  25  26
HETATM   26  C   UNL     1     -11.694  15.378  64.669  1.00  0.00    -0.267 C  
HETATM   27  C   UNL     1     -12.540  15.880  63.523  1.00  0.00     2.071 C  
HETATM   28  C   UNL     1     -11.853  16.870  64.410  1.00  0.00     1.397 C  
ENDBRANCH  25  26
ENDBRANCH   2  25
TORSDOF 2
ENDMDL
MODEL      137
REMARK 921   NORMALIZED FREE ENERGY PREDICTED BY IDOCK:    0.78 KCAL/MOL
REMARK 922        TOTAL FREE ENERGY PREDICTED BY IDOCK:    0.36 KCAL/MOL
REMARK 923 INTER-LIGAND FREE ENERGY PREDICTED BY IDOCK:    0.74 KCAL/MOL
REMARK 924 INTRA-LIGAND FREE ENERGY PREDICTED BY IDOCK:   -0.39 KCAL/MOL
REMARK 927      BINDING AFFINITY PREDICTED BY RF-SCORE:    0.00 PKD
ROOT
HETATM    1  C   UNL     1     -11.246   3.607  64.024  1.00  0.00     0.349 C  
HETATM    2  N   UNL     1     -10.034   4.019  64.892  1.00  0.00    -0.199 N  
HETATM    3  O   UNL     1      -5.461   4.427  67.406  1.00  0.00    -0.012 OA 
HETATM    4  C   UNL     1     -10.027   3.264  66.246  1.00  0.00     0.446 C  
HETATM    5  C   UNL     1      -8.840   3.781  67.045  1.00  0.00    -0.137 C  
HETATM    6  C   UNL     1      -6.304   5.231  67.020  1.00  0.00    -0.040 C  
HETATM    7  C   UNL     1      -8.677   5.354  67.115  1.00  0.00    -0.107 C  
HETATM    8  C   UNL     1      -6.309   5.693  65.550  1.00  0.00    -0.038 C  
HETATM    9  H   UNL     1      -9.148   8.113  65.476  1.00  0.00     0.000 HD 
HETATM   10  C   UNL     1      -7.443   5.741  67.917  1.00  0.00    -0.078 C  
HETATM   11  O   UNL     1      -7.735   5.255  69.246  1.00  0.00    -0.081 OA 
HETATM   12  C   UNL     1      -9.096   5.519  69.357  1.00  0.00    -0.112 A  
HETATM   13  C   UNL     1      -9.925   5.394  70.430  1.00  0.00    -0.223 A  
HETATM   14  O   UNL     1      -9.490   4.855  71.596  1.00  0.00    -0.143 OA 
HETATM   15  C   UNL     1     -11.279   5.732  70.259  1.00  0.00    -0.221 A  
HETATM   16  C   UNL     1     -11.801   6.145  68.996  1.00  0.00     0.922 A  
HETATM   17  H   UNL     1     -10.069   4.768  72.345  1.00  0.00     0.000 HD 
HETATM   18  C   UNL     1     -10.987   6.123  67.869  1.00  0.00    -0.399 A  
HETATM   19  C   UNL     1     -11.364   6.433  66.408  1.00  0.00     0.764 C  
HETATM   20  C   UNL     1      -9.671   5.760  68.125  1.00  0.00    -0.146 A  
HETATM   21  C   UNL     1     -10.276   5.699  65.263  1.00  0.00     0.852 C  
HETATM   22  C   UNL     1      -8.880   6.187  65.862  1.00  0.00    -0.143 C  
HETATM   23  O   UNL     1      -9.020   7.592  66.260  1.00  0.00    -0.158 OA 
HETATM   24  C   UNL     1      -7.608   6.321  64.996  1.00  0.00    -0.090 C  
ENDROOT
BRANCH   2  25
HETATM   25  C   UNL     1      -8.766   3.559  64.105  1.00  0.00    -0.097 C  
BRANCH  25  26
HETATM   26  C   UNL     1      -8.337   2.112  64.282  1.00  0.00    -0.082 C  
HETATM   27  C   UNL     1      -7.184   1.562  63.475  1.00  0.00    -0.039 C  
HETATM   28  C   UNL     1      -7.038   1.696  64.958  1.00  0.00    -0.047 C  
ENDBRANCH  25  26
ENDBRANCH   2  25
TORSDOF 2
ENDMDL
MODEL      138
REMARK 921   NORMALIZED FREE ENERGY PREDICTED BY IDOCK:    3.08 KCAL/MOL
REMARK 922        TOTAL FREE ENERGY PREDICTED BY IDOCK:    2.92 KCAL/MOL
REMARK 923 INTER-LIGAND FREE ENERGY PREDICTED BY IDOCK:    1.89 KCAL/MOL
REMARK 924 INTRA-LIGAND FREE ENERGY PREDICTED BY IDOCK:    1.03 KCAL/MOL
REMARK 927      BINDING AFFINITY PREDICTED BY RF-SCORE:    0.00 PKD
ROOT
HETATM    1  C   UNL     1     -11.784  17.737  67.358  1.00  0.00     1.666 C  
HETATM    2  N   UNL     1     -11.378  16.264  67.120  1.00  0.00     0.102 N  
HETATM    3  O   UNL     1     -10.522  11.441  65.275  1.00  0.00    -0.265 OA 
HETATM    4  C   UNL     1     -12.560  15.300  67.395  1.00  0.00     1.373 C  
HETATM    5  C   UNL     1     -12.044  13.883  67.193  1.00  0.00    -0.422 C  
HETATM    6  C   UNL     1      -9.958  12.160  66.092  1.00  0.00    -0.233 C  
HETATM    7  C   UNL     1     -10.671  13.533  67.899  1.00  0.00    -0.258 C  
HETATM    8  C   UNL     1      -8.979  13.250  65.612  1.00  0.00     0.798 C  
HETATM    9  H   UNL     1      -7.811  14.755  68.820  1.00  0.00     0.000 HD 
HETATM   10  C   UNL     1     -10.252  12.101  67.599  1.00  0.00    -0.197 C  
HETATM   11  O   UNL     1     -11.293  11.307  68.211  1.00  0.00    -0.239 OA 
HETATM   12  C   UNL     1     -11.558  12.026  69.372  1.00  0.00    -0.330 A  
HETATM   13  C   UNL     1     -12.365  11.718  70.425  1.00  0.00    -0.277 A  
HETATM   14  O   UNL     1     -13.146  10.609  70.411  1.00  0.00    -0.341 OA 
HETATM   15  C   UNL     1     -12.453  12.642  71.480  1.00  0.00    -0.128 A  
HETATM   16  C   UNL     1     -11.769  13.895  71.446  1.00  0.00     0.402 A  
HETATM   17  H   UNL     1     -13.709  10.394  71.146  1.00  0.00     0.000 HD 
HETATM   18  C   UNL     1     -11.072  14.274  70.304  1.00  0.00     0.047 A  
HETATM   19  C   UNL     1     -10.350  15.603  70.018  1.00  0.00    -0.309 C  
HETATM   20  C   UNL     1     -11.051  13.309  69.305  1.00  0.00    -0.208 A  
HETATM   21  C   UNL     1     -10.166  15.915  68.315  1.00  0.00    -0.227 C  
HETATM   22  C   UNL     1      -9.525  14.529  67.852  1.00  0.00    -0.212 C  
HETATM   23  O   UNL     1      -8.526  14.131  68.850  1.00  0.00    -0.113 OA 
HETATM   24  C   UNL     1      -8.648  14.402  66.587  1.00  0.00    -0.053 C  
ENDROOT
BRANCH   2  25
HETATM   25  C   UNL     1     -11.041  16.153  65.599  1.00  0.00    -0.023 C  
BRANCH  25  26
HETATM   26  C   UNL     1     -12.193  15.823  64.664  1.00  0.00     0.217 C  
HETATM   27  C   UNL     1     -11.996  14.828  63.544  1.00  0.00     0.760 C  
HETATM   28  C   UNL     1     -12.924  14.488  64.668  1.00  0.00     0.361 C  
ENDBRANCH  25  26
ENDBRANCH   2  25
TORSDOF 2
ENDMDL
MODEL      139
REMARK 921   NORMALIZED FREE ENERGY PREDICTED BY IDOCK:    3.38 KCAL/MOL
REMARK 922        TOTAL FREE ENERGY PREDICTED BY IDOCK:    3.25 KCAL/MOL
REMARK 923 INTER-LIGAND FREE ENERGY PREDICTED BY IDOCK:    1.72 KCAL/MOL
REMARK 924 INTRA-LIGAND FREE ENERGY PREDICTED BY IDOCK:    1.53 KCAL/MOL
REMARK 927      BINDING AFFINITY PREDICTED BY RF-SCORE:    0.00 PKD
ROOT
HETATM    1  C   UNL     1      -5.127   7.689  70.216  1.00  0.00    -0.023 C  
HETATM    2  N   UNL     1      -6.370   6.802  69.980  1.00  0.00    -0.038 N  
HETATM    3  O   UNL     1      -9.808   3.075  68.677  1.00  0.00     0.024 OA 
HETATM    4  C   UNL     1      -6.924   6.975  68.542  1.00  0.00    -0.075 C  
HETATM    5  C   UNL     1      -8.173   6.113  68.432  1.00  0.00    -0.115 C  
HETATM    6  C   UNL     1      -9.762   3.933  69.552  1.00  0.00    -0.121 C  
HETATM    7  C   UNL     1      -9.221   6.248  69.611  1.00  0.00    -0.144 C  
HETATM    8  C   UNL     1      -8.947   3.680  70.835  1.00  0.00    -0.158 C  
HETATM    9  H   UNL     1      -9.530   6.802  72.792  1.00  0.00     0.000 HD 
HETATM   10  C   UNL     1     -10.407   5.319  69.397  1.00  0.00    -0.243 C  
HETATM   11  O   UNL     1     -11.017   5.821  68.187  1.00  0.00    -0.230 OA 
HETATM   12  C   UNL     1     -10.866   7.195  68.336  1.00  0.00    -0.097 A  
HETATM   13  C   UNL     1     -11.348   8.215  67.573  1.00  0.00     1.038 A  
HETATM   14  O   UNL     1     -12.016   7.973  66.418  1.00  0.00     3.480 OA 
HETATM   15  C   UNL     1     -11.034   9.530  67.956  1.00  0.00    -0.155 A  
HETATM   16  C   UNL     1     -10.193   9.811  69.075  1.00  0.00    -0.214 A  
HETATM   17  H   UNL     1     -12.353   8.685  65.885  1.00  0.00     0.000 HD 
HETATM   18  C   UNL     1      -9.577   8.768  69.758  1.00  0.00    -0.173 A  
HETATM   19  C   UNL     1      -8.569   8.845  70.919  1.00  0.00    -0.242 C  
HETATM   20  C   UNL     1      -9.929   7.504  69.302  1.00  0.00    -0.179 A  
HETATM   21  C   UNL     1      -7.590   7.411  71.057  1.00  0.00    -0.086 C  
HETATM   22  C   UNL     1      -8.733   6.299  71.048  1.00  0.00    -0.136 C  
HETATM   23  O   UNL     1      -9.836   6.770  71.893  1.00  0.00    -0.167 OA 
HETATM   24  C   UNL     1      -8.538   4.905  71.684  1.00  0.00    -0.132 C  
ENDROOT
BRANCH   2  25
HETATM   25  C   UNL     1      -5.874   5.326  70.104  1.00  0.00    -0.017 C  
BRANCH  25  26
HETATM   26  C   UNL     1      -6.426   4.330  69.098  1.00  0.00    -0.036 C  
HETATM   27  C   UNL     1      -5.484   3.442  68.319  1.00  0.00    -0.013 C  
HETATM   28  C   UNL     1      -6.416   2.823  69.312  1.00  0.00    -0.029 C  
ENDBRANCH  25  26
ENDBRANCH   2  25
TORSDOF 2
ENDMDL
MODEL      140
REMARK 921   NORMALIZED FREE ENERGY PREDICTED BY IDOCK:    5.51 KCAL/MOL
REMARK 922        TOTAL FREE ENERGY PREDICTED BY IDOCK:    5.64 KCAL/MOL
REMARK 923 INTER-LIGAND FREE ENERGY PREDICTED BY IDOCK:    2.18 KCAL/MOL
REMARK 924 INTRA-LIGAND FREE ENERGY PREDICTED BY IDOCK:    3.45 KCAL/MOL
REMARK 927      BINDING AFFINITY PREDICTED BY RF-SCORE:    0.00 PKD
ROOT
HETATM    1  C   UNL     1      -6.463   8.974  67.835  1.00  0.00    -0.057 C  
HETATM    2  N   UNL     1      -7.462   8.429  68.881  1.00  0.00    -0.089 N  
HETATM    3  O   UNL     1     -10.709   5.578  71.835  1.00  0.00    -0.228 OA 
HETATM    4  C   UNL     1      -8.907   8.392  68.318  1.00  0.00    -0.139 C  
HETATM    5  C   UNL     1      -9.815   7.902  69.436  1.00  0.00    -0.180 C  
HETATM    6  C   UNL     1     -10.025   6.576  72.030  1.00  0.00    -0.169 C  
HETATM    7  C   UNL     1      -9.626   8.599  70.845  1.00  0.00    -0.252 C  
HETATM    8  C   UNL     1      -8.523   6.430  72.344  1.00  0.00    -0.120 C  
HETATM    9  H   UNL     1      -7.449   9.971  72.820  1.00  0.00     0.000 HD 
HETATM   10  C   UNL     1     -10.570   8.005  71.880  1.00  0.00    -0.245 C  
HETATM   11  O   UNL     1     -11.882   8.344  71.377  1.00  0.00    -0.280 OA 
HETATM   12  C   UNL     1     -11.673   9.619  70.862  1.00  0.00    -0.334 A  
HETATM   13  C   UNL     1     -12.566  10.515  70.357  1.00  0.00    -0.286 A  
HETATM   14  O   UNL     1     -13.873  10.191  70.199  1.00  0.00    -0.186 OA 
HETATM   15  C   UNL     1     -12.073  11.746  69.894  1.00  0.00    -0.359 A  
HETATM   16  C   UNL     1     -10.678  12.051  69.894  1.00  0.00     0.635 A  
HETATM   17  H   UNL     1     -14.496  10.816  69.847  1.00  0.00     0.000 HD 
HETATM   18  C   UNL     1      -9.756  11.078  70.266  1.00  0.00     1.577 A  
HETATM   19  C   UNL     1      -8.219  11.158  70.250  1.00  0.00     2.115 C  
HETATM   20  C   UNL     1     -10.329   9.886  70.692  1.00  0.00    -0.258 A  
HETATM   21  C   UNL     1      -7.465   9.590  70.174  1.00  0.00    -0.137 C  
HETATM   22  C   UNL     1      -8.226   8.863  71.372  1.00  0.00    -0.120 C  
HETATM   23  O   UNL     1      -8.325   9.807  72.491  1.00  0.00     1.781 OA 
HETATM   24  C   UNL     1      -7.619   7.666  72.136  1.00  0.00    -0.089 C  
ENDROOT
BRANCH   2  25
HETATM   25  C   UNL     1      -7.038   6.950  69.149  1.00  0.00    -0.084 C  
BRANCH  25  26
HETATM   26  C   UNL     1      -8.132   5.898  69.069  1.00  0.00    -0.103 C  
HETATM   27  C   UNL     1      -9.183   5.982  67.988  1.00  0.00    -0.115 C  
HETATM   28  C   UNL     1      -8.209   4.846  67.972  1.00  0.00    -0.096 C  
ENDBRANCH  25  26
ENDBRANCH   2  25
TORSDOF 2
ENDMDL
MODEL      141
REMARK 921   NORMALIZED FREE ENERGY PREDICTED BY IDOCK:    5.92 KCAL/MOL
REMARK 922        TOTAL FREE ENERGY PREDICTED BY IDOCK:    6.09 KCAL/MOL
REMARK 923 INTER-LIGAND FREE ENERGY PREDICTED BY IDOCK:    4.36 KCAL/MOL
REMARK 924 INTRA-LIGAND FREE ENERGY PREDICTED BY IDOCK:    1.73 KCAL/MOL
REMARK 927      BINDING AFFINITY PREDICTED BY RF-SCORE:    0.00 PKD
ROOT
HETATM    1  C   UNL     1      -8.639   7.616  67.939  1.00  0.00    -0.122 C  
HETATM    2  N   UNL     1      -9.717   7.795  69.032  1.00  0.00    -0.156 N  
HETATM    3  O   UNL     1     -13.874   7.491  72.199  1.00  0.00    -0.176 OA 
HETATM    4  C   UNL     1     -10.933   8.598  68.502  1.00  0.00     0.176 C  
HETATM    5  C   UNL     1     -11.902   8.770  69.663  1.00  0.00     0.758 C  
HETATM    6  C   UNL     1     -12.726   7.901  72.327  1.00  0.00    -0.158 C  
HETATM    7  C   UNL     1     -11.273   9.265  71.029  1.00  0.00    -0.392 C  
HETATM    8  C   UNL     1     -11.583   6.909  72.617  1.00  0.00    -0.181 C  
HETATM    9  H   UNL     1      -8.614   9.154  72.883  1.00  0.00     0.000 HD 
HETATM   10  C   UNL     1     -12.336   9.372  72.112  1.00  0.00    -0.298 C  
HETATM   11  O   UNL     1     -13.221  10.402  71.620  1.00  0.00    -0.399 OA 
HETATM   12  C   UNL     1     -12.329  11.294  71.034  1.00  0.00    -0.366 A  
HETATM   13  C   UNL     1     -12.549  12.527  70.501  1.00  0.00    -0.098 A  
HETATM   14  O   UNL     1     -13.804  13.030  70.387  1.00  0.00     1.519 OA 
HETATM   15  C   UNL     1     -11.450  13.219  69.964  1.00  0.00    -0.105 A  
HETATM   16  C   UNL     1     -10.144  12.644  69.919  1.00  0.00     1.907 A  
HETATM   17  H   UNL     1     -13.958  13.891  70.015  1.00  0.00     0.000 HD 
HETATM   18  C   UNL     1      -9.952  11.327  70.322  1.00  0.00     1.813 A  
HETATM   19  C   UNL     1      -8.663  10.487  70.271  1.00  0.00     0.910 C  
HETATM   20  C   UNL     1     -11.094  10.714  70.822  1.00  0.00     0.079 A  
HETATM   21  C   UNL     1      -8.977   8.774  70.262  1.00  0.00    -0.174 C  
HETATM   22  C   UNL     1      -9.962   8.671  71.512  1.00  0.00    -0.274 C  
HETATM   23  O   UNL     1      -9.435   9.526  72.581  1.00  0.00     1.028 OA 
HETATM   24  C   UNL     1     -10.137   7.369  72.325  1.00  0.00    -0.234 C  
ENDROOT
BRANCH   2  25
HETATM   25  C   UNL     1     -10.229   6.358  69.369  1.00  0.00    -0.192 C  
BRANCH  25  26
HETATM   26  C   UNL     1     -10.244   5.351  68.231  1.00  0.00    -0.224 C  
HETATM   27  C   UNL     1      -9.553   5.675  66.927  1.00  0.00    -0.151 C  
HETATM   28  C   UNL     1      -9.017   4.570  67.782  1.00  0.00    -0.131 C  
ENDBRANCH  25  26
ENDBRANCH   2  25
TORSDOF 2
ENDMDL
MODEL      142
REMARK 921   NORMALIZED FREE ENERGY PREDICTED BY IDOCK:    7.20 KCAL/MOL
REMARK 922        TOTAL FREE ENERGY PREDICTED BY IDOCK:    7.52 KCAL/MOL
REMARK 923 INTER-LIGAND FREE ENERGY PREDICTED BY IDOCK:    5.30 KCAL/MOL
REMARK 924 INTRA-LIGAND FREE ENERGY PREDICTED BY IDOCK:    2.22 KCAL/MOL
REMARK 927      BINDING AFFINITY PREDICTED BY RF-SCORE:    0.00 PKD
ROOT
HETATM    1  C   UNL     1      -7.259  16.420  66.510  1.00  0.00    -0.092 C  
HETATM    2  N   UNL     1      -8.683  15.821  66.563  1.00  0.00    -0.293 N  
HETATM    3  O   UNL     1     -13.709  14.538  65.861  1.00  0.00     0.474 OA 
HETATM    4  C   UNL     1      -9.650  16.730  67.364  1.00  0.00    -0.236 C  
HETATM    5  C   UNL     1     -10.998  16.027  67.409  1.00  0.00    -0.237 C  
HETATM    6  C   UNL     1     -12.726  13.950  66.298  1.00  0.00    -0.213 C  
HETATM    7  C   UNL     1     -10.975  14.496  67.812  1.00  0.00    -0.282 C  
HETATM    8  C   UNL     1     -11.722  13.301  65.325  1.00  0.00    -0.357 C  
HETATM    9  H   UNL     1      -9.230  11.767  67.639  1.00  0.00     0.000 HD 
HETATM   10  C   UNL     1     -12.376  13.904  67.794  1.00  0.00    -0.004 C  
HETATM   11  O   UNL     1     -13.067  14.636  68.830  1.00  0.00     0.938 OA 
HETATM   12  C   UNL     1     -12.076  14.774  69.796  1.00  0.00    -0.319 A  
HETATM   13  C   UNL     1     -12.152  15.273  71.061  1.00  0.00    -0.342 A  
HETATM   14  O   UNL     1     -13.296  15.832  71.528  1.00  0.00    -0.484 OA 
HETATM   15  C   UNL     1     -10.977  15.298  71.831  1.00  0.00    -0.025 A  
HETATM   16  C   UNL     1      -9.720  14.868  71.306  1.00  0.00     2.398 A  
HETATM   17  H   UNL     1     -13.349  16.181  72.411  1.00  0.00     0.000 HD 
HETATM   18  C   UNL     1      -9.615  14.505  69.968  1.00  0.00     0.767 A  
HETATM   19  C   UNL     1      -8.356  14.105  69.179  1.00  0.00     0.184 C  
HETATM   20  C   UNL     1     -10.821  14.526  69.278  1.00  0.00    -0.270 A  
HETATM   21  C   UNL     1      -8.534  14.342  67.462  1.00  0.00    -0.202 C  
HETATM   22  C   UNL     1      -9.915  13.580  67.225  1.00  0.00    -0.236 C  
HETATM   23  O   UNL     1      -9.893  12.339  68.006  1.00  0.00    -0.192 OA 
HETATM   24  C   UNL     1     -10.306  12.981  65.856  1.00  0.00    -0.296 C  
ENDROOT
BRANCH   2  25
HETATM   25  C   UNL     1      -9.193  15.799  65.087  1.00  0.00     1.083 C  
BRANCH  25  26
HETATM   26  C   UNL     1     -10.684  16.004  64.874  1.00  0.00    -0.339 C  
HETATM   27  C   UNL     1     -11.188  17.278  64.238  1.00  0.00     1.811 C  
HETATM   28  C   UNL     1     -11.350  15.983  63.506  1.00  0.00     2.069 C  
ENDBRANCH  25  26
ENDBRANCH   2  25
TORSDOF 2
ENDMDL
MODEL      143
REMARK 921   NORMALIZED FREE ENERGY PREDICTED BY IDOCK:    8.32 KCAL/MOL
REMARK 922        TOTAL FREE ENERGY PREDICTED BY IDOCK:    8.77 KCAL/MOL
REMARK 923 INTER-LIGAND FREE ENERGY PREDICTED BY IDOCK:    3.52 KCAL/MOL
REMARK 924 INTRA-LIGAND FREE ENERGY PREDICTED BY IDOCK:    5.25 KCAL/MOL
REMARK 927      BINDING AFFINITY PREDICTED BY RF-SCORE:    0.00 PKD
ROOT
HETATM    1  C   UNL     1     -12.381  16.088  65.766  1.00  0.00     1.910 C  
HETATM    2  N   UNL     1     -11.105  16.263  66.620  1.00  0.00    -0.004 N  
HETATM    3  O   UNL     1      -7.039  15.774  69.881  1.00  0.00    -0.126 OA 
HETATM    4  C   UNL     1     -11.450  16.680  68.073  1.00  0.00     0.087 C  
HETATM    5  C   UNL     1     -10.134  16.885  68.809  1.00  0.00    -0.295 C  
HETATM    6  C   UNL     1      -7.250  16.425  68.863  1.00  0.00    -0.203 C  
HETATM    7  C   UNL     1      -9.047  17.762  68.064  1.00  0.00    -0.269 C  
HETATM    8  C   UNL     1      -7.089  15.763  67.480  1.00  0.00    -0.215 C  
HETATM    9  H   UNL     1      -7.877  18.567  65.148  1.00  0.00     0.000 HD 
HETATM   10  C   UNL     1      -7.772  17.870  68.889  1.00  0.00    -0.201 C  
HETATM   11  O   UNL     1      -8.194  18.579  70.075  1.00  0.00     1.144 OA 
HETATM   12  C   UNL     1      -9.103  19.495  69.556  1.00  0.00     0.253 A  
HETATM   13  C   UNL     1      -9.751  20.524  70.167  1.00  0.00     1.153 A  
HETATM   14  O   UNL     1      -9.641  20.730  71.503  1.00  0.00     1.000 OA 
HETATM   15  C   UNL     1     -10.632  21.300  69.394  1.00  0.00     1.227 A  
HETATM   16  C   UNL     1     -10.894  21.004  68.022  1.00  0.00     1.510 A  
HETATM   17  H   UNL     1     -10.094  21.449  71.930  1.00  0.00     0.000 HD 
HETATM   18  C   UNL     1     -10.351  19.862  67.443  1.00  0.00    -0.565 A  
HETATM   19  C   UNL     1     -10.576  19.306  66.025  1.00  0.00    -0.550 C  
HETATM   20  C   UNL     1      -9.509  19.145  68.283  1.00  0.00    -0.408 A  
HETATM   21  C   UNL     1     -10.249  17.599  65.912  1.00  0.00    -0.240 C  
HETATM   22  C   UNL     1      -8.801  17.555  66.580  1.00  0.00    -0.262 C  
HETATM   23  O   UNL     1      -8.030  18.697  66.076  1.00  0.00    -0.432 OA 
HETATM   24  C   UNL     1      -7.780  16.437  66.273  1.00  0.00    -0.144 C  
ENDROOT
BRANCH   2  25
HETATM   25  C   UNL     1     -10.441  14.851  66.694  1.00  0.00    -0.292 C  
BRANCH  25  26
HETATM   26  C   UNL     1     -10.126  14.314  68.081  1.00  0.00    -0.232 C  
HETATM   27  C   UNL     1      -9.250  13.093  68.236  1.00  0.00    -0.194 C  
HETATM   28  C   UNL     1      -8.754  14.415  68.732  1.00  0.00    -0.129 C  
ENDBRANCH  25  26
ENDBRANCH   2  25
TORSDOF 2
ENDMDL
MODEL      144
REMARK 921   NORMALIZED FREE ENERGY PREDICTED BY IDOCK:   15.46 KCAL/MOL
REMARK 922        TOTAL FREE ENERGY PREDICTED BY IDOCK:   16.75 KCAL/MOL
REMARK 923 INTER-LIGAND FREE ENERGY PREDICTED BY IDOCK:   16.79 KCAL/MOL
REMARK 924 INTRA-LIGAND FREE ENERGY PREDICTED BY IDOCK:   -0.04 KCAL/MOL
REMARK 927      BINDING AFFINITY PREDICTED BY RF-SCORE:    0.00 PKD
ROOT
HETATM    1  C   UNL     1     -10.748  14.587  67.643  1.00  0.00    -0.254 C  
HETATM    2  N   UNL     1     -10.602  13.380  68.597  1.00  0.00    -0.248 N  
HETATM    3  O   UNL     1      -9.364   9.993  72.391  1.00  0.00     3.078 OA 
HETATM    4  C   UNL     1      -9.337  12.547  68.266  1.00  0.00    -0.193 C  
HETATM    5  C   UNL     1      -9.319  11.357  69.214  1.00  0.00     0.285 C  
HETATM    6  C   UNL     1     -10.343  10.155  71.671  1.00  0.00     1.938 C  
HETATM    7  C   UNL     1     -10.675  10.552  69.350  1.00  0.00    -0.277 C  
HETATM    8  C   UNL     1     -11.398  11.218  72.033  1.00  0.00     4.188 C  
HETATM    9  H   UNL     1     -13.906  10.833  69.298  1.00  0.00     0.000 HD 
HETATM   10  C   UNL     1     -10.534   9.407  70.342  1.00  0.00    -0.256 C  
HETATM   11  O   UNL     1      -9.552   8.543  69.727  1.00  0.00    -0.168 OA 
HETATM   12  C   UNL     1      -9.891   8.634  68.381  1.00  0.00    -0.172 A  
HETATM   13  C   UNL     1      -9.403   7.950  67.309  1.00  0.00    -0.148 A  
HETATM   14  O   UNL     1      -8.365   7.087  67.440  1.00  0.00    -0.121 OA 
HETATM   15  C   UNL     1      -9.929   8.251  66.041  1.00  0.00     0.089 A  
HETATM   16  C   UNL     1     -10.907   9.274  65.851  1.00  0.00     1.264 A  
HETATM   17  H   UNL     1      -8.025   6.610  66.692  1.00  0.00     0.000 HD 
HETATM   18  C   UNL     1     -11.289  10.074  66.922  1.00  0.00     0.574 A  
HETATM   19  C   UNL     1     -12.244  11.282  66.923  1.00  0.00     1.569 C  
HETATM   20  C   UNL     1     -10.707   9.720  68.133  1.00  0.00    -0.280 A  
HETATM   21  C   UNL     1     -11.967  12.357  68.266  1.00  0.00    -0.270 C  
HETATM   22  C   UNL     1     -11.988  11.305  69.465  1.00  0.00    -0.351 C  
HETATM   23  O   UNL     1     -13.085  10.361  69.226  1.00  0.00     0.355 OA 
HETATM   24  C   UNL     1     -12.344  11.707  70.914  1.00  0.00    -0.436 C  
ENDROOT
BRANCH   2  25
HETATM   25  C   UNL     1     -10.395  13.981  70.023  1.00  0.00     0.845 C  
BRANCH  25  26
HETATM   26  C   UNL     1      -8.984  14.418  70.384  1.00  0.00     2.061 C  
HETATM   27  C   UNL     1      -8.339  15.570  69.649  1.00  0.00    -0.113 C  
HETATM   28  C   UNL     1      -8.664  15.721  71.102  1.00  0.00     3.832 C  
ENDBRANCH  25  26
ENDBRANCH   2  25
TORSDOF 2
ENDMDL
MODEL      145
REMARK 921   NORMALIZED FREE ENERGY PREDICTED BY IDOCK:   20.40 KCAL/MOL
REMARK 922        TOTAL FREE ENERGY PREDICTED BY IDOCK:   22.27 KCAL/MOL
REMARK 923 INTER-LIGAND FREE ENERGY PREDICTED BY IDOCK:    4.66 KCAL/MOL
REMARK 924 INTRA-LIGAND FREE ENERGY PREDICTED BY IDOCK:   17.61 KCAL/MOL
REMARK 927      BINDING AFFINITY PREDICTED BY RF-SCORE:    0.00 PKD
ROOT
HETATM    1  C   UNL     1      -9.718  14.030  68.625  1.00  0.00    -0.179 C  
HETATM    2  N   UNL     1      -9.412  12.515  68.596  1.00  0.00    -0.076 N  
HETATM    3  O   UNL     1      -7.721   7.633  69.438  1.00  0.00    -0.102 OA 
HETATM    4  C   UNL     1      -8.054  12.225  67.906  1.00  0.00    -0.155 C  
HETATM    5  C   UNL     1      -7.877  10.714  67.875  1.00  0.00    -0.105 C  
HETATM    6  C   UNL     1      -8.719   8.118  68.915  1.00  0.00    -0.137 C  
HETATM    7  C   UNL     1      -9.119   9.876  67.364  1.00  0.00    -0.147 C  
HETATM    8  C   UNL     1      -9.897   8.584  69.793  1.00  0.00    -0.186 C  
HETATM    9  H   UNL     1     -12.360   9.790  67.263  1.00  0.00     0.000 HD 
HETATM   10  C   UNL     1      -8.825   8.383  67.405  1.00  0.00    -0.134 C  
HETATM   11  O   UNL     1      -7.748   8.223  66.456  1.00  0.00    -0.090 OA 
HETATM   12  C   UNL     1      -8.107   9.122  65.458  1.00  0.00    -0.115 A  
HETATM   13  C   UNL     1      -7.546   9.341  64.236  1.00  0.00    -0.112 A  
HETATM   14  O   UNL     1      -6.406   8.708  63.863  1.00  0.00    -0.072 OA 
HETATM   15  C   UNL     1      -8.117  10.329  63.416  1.00  0.00    -0.154 A  
HETATM   16  C   UNL     1      -9.218  11.128  63.851  1.00  0.00    -0.133 A  
HETATM   17  H   UNL     1      -6.015   8.860  63.010  1.00  0.00     0.000 HD 
HETATM   18  C   UNL     1      -9.689  11.009  65.153  1.00  0.00    -0.302 A  
HETATM   19  C   UNL     1     -10.790  11.827  65.853  1.00  0.00    -0.339 C  
HETATM   20  C   UNL     1      -9.057  10.022  65.899  1.00  0.00    -0.195 A  
HETATM   21  C   UNL     1     -10.639  11.810  67.589  1.00  0.00    -0.237 C  
HETATM   22  C   UNL     1     -10.516  10.239  67.836  1.00  0.00    -0.212 C  
HETATM   23  O   UNL     1     -11.486   9.562  66.968  1.00  0.00     0.505 OA 
HETATM   24  C   UNL     1     -10.907   9.577  69.176  1.00  0.00    -0.194 C  
ENDROOT
BRANCH   2  25
HETATM   25  C   UNL     1      -9.270  12.078  70.089  1.00  0.00     3.710 C  
BRANCH  25  26
HETATM   26  C   UNL     1      -9.715  10.666  70.435  1.00  0.00     1.035 C  
HETATM   27  C   UNL     1      -8.696   9.554  70.526  1.00  0.00    -0.247 C  
HETATM   28  C   UNL     1      -9.412   9.991  71.765  1.00  0.00     3.035 C  
ENDBRANCH  25  26
ENDBRANCH   2  25
TORSDOF 2
ENDMDL
MODEL      146
REMARK 921   NORMALIZED FREE ENERGY PREDICTED BY IDOCK:   21.85 KCAL/MOL
REMARK 922        TOTAL FREE ENERGY PREDICTED BY IDOCK:   23.89 KCAL/MOL
REMARK 923 INTER-LIGAND FREE ENERGY PREDICTED BY IDOCK:   18.43 KCAL/MOL
REMARK 924 INTRA-LIGAND FREE ENERGY PREDICTED BY IDOCK:    5.46 KCAL/MOL
REMARK 927      BINDING AFFINITY PREDICTED BY RF-SCORE:    0.00 PKD
ROOT
HETATM    1  C   UNL     1      -6.466  15.154  66.684  1.00  0.00     1.750 C  
HETATM    2  N   UNL     1      -7.567  14.488  67.541  1.00  0.00    -0.179 N  
HETATM    3  O   UNL     1     -10.384  11.838  71.069  1.00  0.00     3.841 OA 
HETATM    4  C   UNL     1      -7.759  12.998  67.156  1.00  0.00    -0.039 C  
HETATM    5  C   UNL     1      -8.897  12.455  68.008  1.00  0.00    -0.187 C  
HETATM    6  C   UNL     1     -10.598  12.812  70.355  1.00  0.00     2.533 C  
HETATM    7  C   UNL     1     -10.207  13.340  68.070  1.00  0.00    -0.240 C  
HETATM    8  C   UNL     1     -10.111  14.208  70.792  1.00  0.00     2.543 C  
HETATM    9  H   UNL     1     -11.316  16.389  68.015  1.00  0.00     0.000 HD 
HETATM   10  C   UNL     1     -11.256  12.704  68.970  1.00  0.00    -0.269 C  
HETATM   11  O   UNL     1     -11.575  11.466  68.298  1.00  0.00    -0.297 OA 
HETATM   12  C   UNL     1     -11.536  11.846  66.960  1.00  0.00    -0.316 A  
HETATM   13  C   UNL     1     -11.867  11.143  65.842  1.00  0.00     1.117 A  
HETATM   14  O   UNL     1     -12.218   9.835  65.913  1.00  0.00     4.858 OA 
HETATM   15  C   UNL     1     -11.724  11.779  64.597  1.00  0.00    -0.241 A  
HETATM   16  C   UNL     1     -11.199  13.102  64.480  1.00  0.00    -0.383 A  
HETATM   17  H   UNL     1     -12.450   9.344  65.132  1.00  0.00     0.000 HD 
HETATM   18  C   UNL     1     -10.717  13.758  65.607  1.00  0.00    -0.288 A  
HETATM   19  C   UNL     1     -10.031  15.134  65.696  1.00  0.00    -0.387 C  
HETATM   20  C   UNL     1     -10.882  13.050  66.791  1.00  0.00    -0.285 A  
HETATM   21  C   UNL     1      -9.043  15.302  67.120  1.00  0.00    -0.226 C  
HETATM   22  C   UNL     1     -10.090  14.846  68.233  1.00  0.00    -0.221 C  
HETATM   23  O   UNL     1     -11.390  15.447  67.912  1.00  0.00    -0.327 OA 
HETATM   24  C   UNL     1      -9.986  15.300  69.706  1.00  0.00    -0.210 C  
ENDROOT
BRANCH   2  25
HETATM   25  C   UNL     1      -7.041  14.517  69.011  1.00  0.00    -0.124 C  
BRANCH  25  26
HETATM   26  C   UNL     1      -7.487  15.685  69.876  1.00  0.00     0.081 C  
HETATM   27  C   UNL     1      -8.227  15.430  71.167  1.00  0.00     3.236 C  
HETATM   28  C   UNL     1      -6.857  16.028  71.218  1.00  0.00     2.688 C  
ENDBRANCH  25  26
ENDBRANCH   2  25
TORSDOF 2
ENDMDL
MODEL      147
REMARK 921   NORMALIZED FREE ENERGY PREDICTED BY IDOCK:   23.09 KCAL/MOL
REMARK 922        TOTAL FREE ENERGY PREDICTED BY IDOCK:   25.28 KCAL/MOL
REMARK 923 INTER-LIGAND FREE ENERGY PREDICTED BY IDOCK:   18.84 KCAL/MOL
REMARK 924 INTRA-LIGAND FREE ENERGY PREDICTED BY IDOCK:    6.43 KCAL/MOL
REMARK 927      BINDING AFFINITY PREDICTED BY RF-SCORE:    0.00 PKD
ROOT
HETATM    1  C   UNL     1     -10.834  12.653  66.262  1.00  0.00    -0.273 C  
HETATM    2  N   UNL     1     -10.323  11.280  66.756  1.00  0.00    -0.229 N  
HETATM    3  O   UNL     1      -8.132   7.265  69.301  1.00  0.00    -0.120 OA 
HETATM    4  C   UNL     1      -8.848  11.043  66.343  1.00  0.00    -0.177 C  
HETATM    5  C   UNL     1      -8.463   9.651  66.820  1.00  0.00    -0.129 C  
HETATM    6  C   UNL     1      -9.094   7.383  68.549  1.00  0.00    -0.136 C  
HETATM    7  C   UNL     1      -9.484   8.489  66.481  1.00  0.00    -0.282 C  
HETATM    8  C   UNL     1     -10.446   7.874  69.101  1.00  0.00    -0.218 C  
HETATM    9  H   UNL     1     -12.628   7.799  66.075  1.00  0.00     0.000 HD 
HETATM   10  C   UNL     1      -9.000   7.157  67.032  1.00  0.00    -0.129 C  
HETATM   11  O   UNL     1      -7.776   6.913  66.304  1.00  0.00    -0.090 OA 
HETATM   12  C   UNL     1      -8.095   7.388  65.036  1.00  0.00    -0.122 A  
HETATM   13  C   UNL     1      -7.386   7.325  63.875  1.00  0.00    -0.089 A  
HETATM   14  O   UNL     1      -6.126   6.824  63.847  1.00  0.00    -0.034 OA 
HETATM   15  C   UNL     1      -7.952   7.901  62.725  1.00  0.00    -0.146 A  
HETATM   16  C   UNL     1      -9.206   8.583  62.761  1.00  0.00     0.961 A  
HETATM   17  H   UNL     1      -5.631   6.779  63.037  1.00  0.00     0.000 HD 
HETATM   18  C   UNL     1      -9.853   8.781  63.975  1.00  0.00     2.584 A  
HETATM   19  C   UNL     1     -11.150   9.562  64.255  1.00  0.00     5.867 C  
HETATM   20  C   UNL     1      -9.215   8.195  65.061  1.00  0.00     0.507 A  
HETATM   21  C   UNL     1     -11.271  10.097  65.908  1.00  0.00     0.952 C  
HETATM   22  C   UNL     1     -10.974   8.722  66.661  1.00  0.00     0.583 C  
HETATM   23  O   UNL     1     -11.696   7.653  65.962  1.00  0.00     3.965 OA 
HETATM   24  C   UNL     1     -11.475   8.437  68.094  1.00  0.00     1.212 C  
ENDROOT
BRANCH   2  25
HETATM   25  C   UNL     1     -10.356  11.347  68.316  1.00  0.00    -0.194 C  
BRANCH  25  26
HETATM   26  C   UNL     1     -11.500  10.624  69.009  1.00  0.00    -0.342 C  
HETATM   27  C   UNL     1     -12.825  11.322  69.207  1.00  0.00     0.786 C  
HETATM   28  C   UNL     1     -12.751  10.143  68.289  1.00  0.00     4.135 C  
ENDBRANCH  25  26
ENDBRANCH   2  25
TORSDOF 2
ENDMDL
MODEL      148
REMARK 921   NORMALIZED FREE ENERGY PREDICTED BY IDOCK:   27.15 KCAL/MOL
REMARK 922        TOTAL FREE ENERGY PREDICTED BY IDOCK:   29.81 KCAL/MOL
REMARK 923 INTER-LIGAND FREE ENERGY PREDICTED BY IDOCK:   29.82 KCAL/MOL
REMARK 924 INTRA-LIGAND FREE ENERGY PREDICTED BY IDOCK:   -0.01 KCAL/MOL
REMARK 927      BINDING AFFINITY PREDICTED BY RF-SCORE:    0.00 PKD
ROOT
HETATM    1  C   UNL     1      -5.963  16.819  68.701  1.00  0.00    -0.136 C  
HETATM    2  N   UNL     1      -6.900  17.537  67.703  1.00  0.00    -0.160 N  
HETATM    3  O   UNL     1     -10.066  20.816  65.130  1.00  0.00     0.458 OA 
HETATM    4  C   UNL     1      -8.389  17.370  68.104  1.00  0.00    -0.240 C  
HETATM    5  C   UNL     1      -9.225  18.055  67.033  1.00  0.00    -0.265 C  
HETATM    6  C   UNL     1      -9.295  19.925  64.791  1.00  0.00     2.783 C  
HETATM    7  C   UNL     1      -8.857  17.709  65.533  1.00  0.00     0.944 C  
HETATM    8  C   UNL     1      -7.785  20.217  64.678  1.00  0.00     1.231 C  
HETATM    9  H   UNL     1      -6.414  16.937  63.544  1.00  0.00     0.000 HD 
HETATM   10  C   UNL     1      -9.745  18.474  64.562  1.00  0.00     5.835 C  
HETATM   11  O   UNL     1     -11.068  17.962  64.836  1.00  0.00    -0.782 OA 
HETATM   12  C   UNL     1     -10.813  16.616  65.074  1.00  0.00    -0.176 A  
HETATM   13  C   UNL     1     -11.680  15.584  65.271  1.00  0.00     0.117 A  
HETATM   14  O   UNL     1     -13.016  15.796  65.357  1.00  0.00     1.511 OA 
HETATM   15  C   UNL     1     -11.141  14.306  65.498  1.00  0.00    -0.323 A  
HETATM   16  C   UNL     1      -9.733  14.082  65.577  1.00  0.00    -0.141 A  
HETATM   17  H   UNL     1     -13.621  15.075  65.495  1.00  0.00     0.000 HD 
HETATM   18  C   UNL     1      -8.856  15.159  65.530  1.00  0.00     1.069 A  
HETATM   19  C   UNL     1      -7.325  15.157  65.690  1.00  0.00     5.647 C  
HETATM   20  C   UNL     1      -9.474  16.386  65.322  1.00  0.00     0.668 A  
HETATM   21  C   UNL     1      -6.699  16.703  66.192  1.00  0.00     0.478 C  
HETATM   22  C   UNL     1      -7.400  17.644  65.111  1.00  0.00     1.834 C  
HETATM   23  O   UNL     1      -7.326  16.977  63.807  1.00  0.00     9.873 OA 
HETATM   24  C   UNL     1      -6.815  19.014  64.701  1.00  0.00     0.747 C  
ENDROOT
BRANCH   2  25
HETATM   25  C   UNL     1      -6.563  19.058  67.816  1.00  0.00    -0.208 C  
BRANCH  25  26
HETATM   26  C   UNL     1      -6.456  19.633  69.219  1.00  0.00    -0.365 C  
HETATM   27  C   UNL     1      -5.157  19.525  69.982  1.00  0.00    -0.204 C  
HETATM   28  C   UNL     1      -5.644  20.875  69.559  1.00  0.00    -0.372 C  
ENDBRANCH  25  26
ENDBRANCH   2  25
TORSDOF 2
ENDMDL
MODEL      149
REMARK 921   NORMALIZED FREE ENERGY PREDICTED BY IDOCK:   30.13 KCAL/MOL
REMARK 922        TOTAL FREE ENERGY PREDICTED BY IDOCK:   33.14 KCAL/MOL
REMARK 923 INTER-LIGAND FREE ENERGY PREDICTED BY IDOCK:   24.17 KCAL/MOL
REMARK 924 INTRA-LIGAND FREE ENERGY PREDICTED BY IDOCK:    8.97 KCAL/MOL
REMARK 927      BINDING AFFINITY PREDICTED BY RF-SCORE:    0.00 PKD
ROOT
HETATM    1  C   UNL     1      -6.422  16.145  66.102  1.00  0.00     1.746 C  
HETATM    2  N   UNL     1      -7.677  15.508  66.742  1.00  0.00    -0.159 N  
HETATM    3  O   UNL     1     -12.498  14.138  68.254  1.00  0.00    -0.113 OA 
HETATM    4  C   UNL     1      -8.190  16.348  67.940  1.00  0.00    -0.166 C  
HETATM    5  C   UNL     1      -9.380  15.609  68.533  1.00  0.00    -0.197 C  
HETATM    6  C   UNL     1     -11.423  13.552  68.177  1.00  0.00    -0.303 C  
HETATM    7  C   UNL     1      -9.183  14.060  68.793  1.00  0.00    -0.050 C  
HETATM    8  C   UNL     1     -10.953  12.982  66.824  1.00  0.00    -0.299 C  
HETATM    9  H   UNL     1      -7.697  11.389  67.707  1.00  0.00     0.000 HD 
HETATM   10  C   UNL     1     -10.449  13.435  69.360  1.00  0.00     0.295 C  
HETATM   11  O   UNL     1     -10.611  14.093  70.636  1.00  0.00     0.753 OA 
HETATM   12  C   UNL     1      -9.295  14.203  71.072  1.00  0.00     4.766 A  
HETATM   13  C   UNL     1      -8.803  14.632  72.268  1.00  0.00     7.167 A  
HETATM   14  O   UNL     1      -9.622  15.137  73.224  1.00  0.00     5.169 OA 
HETATM   15  C   UNL     1      -7.409  14.646  72.440  1.00  0.00     4.091 A  
HETATM   16  C   UNL     1      -6.514  14.277  71.391  1.00  0.00     0.560 A  
HETATM   17  H   UNL     1      -9.279  15.436  74.058  1.00  0.00     0.000 HD 
HETATM   18  C   UNL     1      -7.011  13.988  70.125  1.00  0.00     0.284 A  
HETATM   19  C   UNL     1      -6.230  13.663  68.839  1.00  0.00    -0.092 C  
HETATM   20  C   UNL     1      -8.398  14.016  70.039  1.00  0.00     1.603 A  
HETATM   21  C   UNL     1      -7.148  13.987  67.394  1.00  0.00    -0.096 C  
HETATM   22  C   UNL     1      -8.493  13.204  67.745  1.00  0.00    -0.185 C  
HETATM   23  O   UNL     1      -8.129  11.924  68.363  1.00  0.00    -0.147 OA 
HETATM   24  C   UNL     1      -9.449  12.670  66.657  1.00  0.00    -0.244 C  
ENDROOT
BRANCH   2  25
HETATM   25  C   UNL     1      -8.787  15.551  65.644  1.00  0.00     0.523 C  
BRANCH  25  26
HETATM   26  C   UNL     1     -10.155  15.014  66.031  1.00  0.00    -0.322 C  
HETATM   27  C   UNL     1     -11.405  15.686  65.513  1.00  0.00    -0.037 C  
HETATM   28  C   UNL     1     -11.084  14.297  65.061  1.00  0.00    -0.377 C  
ENDBRANCH  25  26
ENDBRANCH   2  25
TORSDOF 2
ENDMDL
MODEL      150
REMARK 921   NORMALIZED FREE ENERGY PREDICTED BY IDOCK:   31.38 KCAL/MOL
REMARK 922        TOTAL FREE ENERGY PREDICTED BY IDOCK:   34.53 KCAL/MOL
REMARK 923 INTER-LIGAND FREE ENERGY PREDICTED BY IDOCK:   32.54 KCAL/MOL
REMARK 924 INTRA-LIGAND FREE ENERGY PREDICTED BY IDOCK:    1.99 KCAL/MOL
REMARK 927      BINDING AFFINITY PREDICTED BY RF-SCORE:    0.00 PKD
ROOT
HETATM    1  C   UNL     1     -11.002  11.443  65.554  1.00  0.00    -0.183 C  
HETATM    2  N   UNL     1     -10.530  12.173  66.832  1.00  0.00    -0.222 N  
HETATM    3  O   UNL     1      -7.883  14.224  70.856  1.00  0.00     1.889 OA 
HETATM    4  C   UNL     1     -10.411  11.196  68.030  1.00  0.00    -0.185 C  
HETATM    5  C   UNL     1     -10.003  12.017  69.244  1.00  0.00     0.394 C  
HETATM    6  C   UNL     1      -8.910  14.528  70.260  1.00  0.00     1.536 C  
HETATM    7  C   UNL     1     -10.827  13.344  69.499  1.00  0.00     0.084 C  
HETATM    8  C   UNL     1      -8.826  15.305  68.931  1.00  0.00    -0.209 C  
HETATM    9  H   UNL     1     -12.419  15.762  68.035  1.00  0.00     0.000 HD 
HETATM   10  C   UNL     1     -10.307  14.085  70.722  1.00  0.00     2.419 C  
HETATM   11  O   UNL     1     -10.570  13.171  71.810  1.00  0.00     5.951 OA 
HETATM   12  C   UNL     1     -11.798  12.631  71.442  1.00  0.00     1.239 A  
HETATM   13  C   UNL     1     -12.625  11.793  72.128  1.00  0.00     0.432 A  
HETATM   14  O   UNL     1     -12.259  11.268  73.323  1.00  0.00     4.483 OA 
HETATM   15  C   UNL     1     -13.821  11.394  71.507  1.00  0.00     0.828 A  
HETATM   16  C   UNL     1     -14.155  11.800  70.179  1.00  0.00     5.049 A  
HETATM   17  H   UNL     1     -12.835  10.683  73.802  1.00  0.00     0.000 HD 
HETATM   18  C   UNL     1     -13.241  12.527  69.426  1.00  0.00     2.292 A  
HETATM   19  C   UNL     1     -13.353  12.982  67.959  1.00  0.00     5.026 C  
HETATM   20  C   UNL     1     -12.079  12.862  70.110  1.00  0.00    -0.373 A  
HETATM   21  C   UNL     1     -11.802  13.288  67.229  1.00  0.00    -0.421 C  
HETATM   22  C   UNL     1     -11.168  14.253  68.330  1.00  0.00    -0.269 C  
HETATM   23  O   UNL     1     -12.206  15.194  68.766  1.00  0.00    -0.204 OA 
HETATM   24  C   UNL     1     -10.058  15.274  67.998  1.00  0.00    -0.229 C  
ENDROOT
BRANCH   2  25
HETATM   25  C   UNL     1      -9.091  12.695  66.522  1.00  0.00    -0.162 C  
BRANCH  25  26
HETATM   26  C   UNL     1      -8.746  12.926  65.060  1.00  0.00     2.068 C  
HETATM   27  C   UNL     1      -9.213  11.946  64.010  1.00  0.00     0.287 C  
HETATM   28  C   UNL     1      -9.767  13.335  64.008  1.00  0.00     1.023 C  
ENDBRANCH  25  26
ENDBRANCH   2  25
TORSDOF 2
ENDMDL
MODEL      151
REMARK 921   NORMALIZED FREE ENERGY PREDICTED BY IDOCK:   36.32 KCAL/MOL
REMARK 922        TOTAL FREE ENERGY PREDICTED BY IDOCK:   40.05 KCAL/MOL
REMARK 923 INTER-LIGAND FREE ENERGY PREDICTED BY IDOCK:   24.88 KCAL/MOL
REMARK 924 INTRA-LIGAND FREE ENERGY PREDICTED BY IDOCK:   15.17 KCAL/MOL
REMARK 927      BINDING AFFINITY PREDICTED BY RF-SCORE:    0.00 PKD
ROOT
HETATM    1  C   UNL     1      -7.001  14.062  69.076  1.00  0.00    -0.112 C  
HETATM    2  N   UNL     1      -7.982  15.138  68.556  1.00  0.00    -0.135 N  
HETATM    3  O   UNL     1     -10.330  19.271  66.363  1.00  0.00    -0.399 OA 
HETATM    4  C   UNL     1      -8.013  16.374  69.491  1.00  0.00     0.140 C  
HETATM    5  C   UNL     1      -9.045  17.340  68.929  1.00  0.00    -0.172 C  
HETATM    6  C   UNL     1     -10.684  18.131  66.644  1.00  0.00    -0.168 C  
HETATM    7  C   UNL     1     -10.447  16.715  68.540  1.00  0.00    -0.319 C  
HETATM    8  C   UNL     1     -10.347  16.964  65.695  1.00  0.00    -0.254 C  
HETATM    9  H   UNL     1     -11.906  14.045  67.417  1.00  0.00     0.000 HD 
HETATM   10  C   UNL     1     -11.378  17.774  67.968  1.00  0.00     0.554 C  
HETATM   11  O   UNL     1     -11.576  18.685  69.073  1.00  0.00     2.504 OA 
HETATM   12  C   UNL     1     -11.634  17.815  70.156  1.00  0.00     3.658 A  
HETATM   13  C   UNL     1     -11.924  18.066  71.463  1.00  0.00     6.490 A  
HETATM   14  O   UNL     1     -12.117  19.331  71.910  1.00  0.00     8.676 OA 
HETATM   15  C   UNL     1     -11.905  16.985  72.361  1.00  0.00     0.544 A  
HETATM   16  C   UNL     1     -11.544  15.666  71.950  1.00  0.00    -0.547 A  
HETATM   17  H   UNL     1     -12.320  19.506  72.822  1.00  0.00     0.000 HD 
HETATM   18  C   UNL     1     -11.099  15.443  70.651  1.00  0.00    -0.364 A  
HETATM   19  C   UNL     1     -10.575  14.136  70.028  1.00  0.00     0.404 C  
HETATM   20  C   UNL     1     -11.133  16.569  69.838  1.00  0.00    -0.241 A  
HETATM   21  C   UNL     1      -9.558  14.412  68.641  1.00  0.00    -0.208 C  
HETATM   22  C   UNL     1     -10.501  15.389  67.803  1.00  0.00    -0.266 C  
HETATM   23  O   UNL     1     -11.873  14.875  67.878  1.00  0.00    -0.338 OA 
HETATM   24  C   UNL     1     -10.393  15.530  66.269  1.00  0.00    -0.312 C  
ENDROOT
BRANCH   2  25
HETATM   25  C   UNL     1      -7.407  15.616  67.185  1.00  0.00    -0.212 C  
BRANCH  25  26
HETATM   26  C   UNL     1      -8.409  16.122  66.160  1.00  0.00    -0.222 C  
HETATM   27  C   UNL     1      -8.522  17.603  65.883  1.00  0.00     0.043 C  
HETATM   28  C   UNL     1      -8.012  16.696  64.807  1.00  0.00     6.133 C  
ENDBRANCH  25  26
ENDBRANCH   2  25
TORSDOF 2
ENDMDL
MODEL      152
REMARK 921   NORMALIZED FREE ENERGY PREDICTED BY IDOCK:   53.56 KCAL/MOL
REMARK 922        TOTAL FREE ENERGY PREDICTED BY IDOCK:   59.30 KCAL/MOL
REMARK 923 INTER-LIGAND FREE ENERGY PREDICTED BY IDOCK:   58.27 KCAL/MOL
REMARK 924 INTRA-LIGAND FREE ENERGY PREDICTED BY IDOCK:    1.04 KCAL/MOL
REMARK 927      BINDING AFFINITY PREDICTED BY RF-SCORE:    0.00 PKD
ROOT
HETATM    1  C   UNL     1      -7.491  17.905  67.209  1.00  0.00    -0.197 C  
HETATM    2  N   UNL     1      -8.948  17.653  66.759  1.00  0.00    -0.250 N  
HETATM    3  O   UNL     1     -14.144  17.474  66.154  1.00  0.00    13.876 OA 
HETATM    4  C   UNL     1      -9.608  16.522  67.590  1.00  0.00    -0.235 C  
HETATM    5  C   UNL     1     -11.008  16.311  67.033  1.00  0.00    -0.086 C  
HETATM    6  C   UNL     1     -13.187  17.361  65.396  1.00  0.00    11.006 C  
HETATM    7  C   UNL     1     -11.121  16.185  65.459  1.00  0.00    -0.071 C  
HETATM    8  C   UNL     1     -12.487  18.621  64.848  1.00  0.00     9.596 C  
HETATM    9  H   UNL     1      -9.838  17.181  62.651  1.00  0.00     0.000 HD 
HETATM   10  C   UNL     1     -12.569  16.003  65.028  1.00  0.00     1.579 C  
HETATM   11  O   UNL     1     -12.941  14.736  65.613  1.00  0.00    -0.019 OA 
HETATM   12  C   UNL     1     -11.775  13.994  65.459  1.00  0.00    -0.350 A  
HETATM   13  C   UNL     1     -11.538  12.676  65.711  1.00  0.00    -0.387 A  
HETATM   14  O   UNL     1     -12.483  11.889  66.283  1.00  0.00     0.040 OA 
HETATM   15  C   UNL     1     -10.246  12.181  65.467  1.00  0.00    -0.294 A  
HETATM   16  C   UNL     1      -9.184  13.026  65.021  1.00  0.00     0.840 A  
HETATM   17  H   UNL     1     -12.318  10.970  66.458  1.00  0.00     0.000 HD 
HETATM   18  C   UNL     1      -9.388  14.397  64.914  1.00  0.00     1.300 A  
HETATM   19  C   UNL     1      -8.370  15.492  64.547  1.00  0.00     8.674 C  
HETATM   20  C   UNL     1     -10.688  14.802  65.190  1.00  0.00    -0.433 A  
HETATM   21  C   UNL     1      -8.837  17.066  65.128  1.00  0.00     2.344 C  
HETATM   22  C   UNL     1     -10.331  17.129  64.570  1.00  0.00     2.249 C  
HETATM   23  O   UNL     1     -10.333  16.590  63.206  1.00  0.00     4.403 OA 
HETATM   24  C   UNL     1     -11.055  18.464  64.289  1.00  0.00     4.798 C  
ENDROOT
BRANCH   2  25
HETATM   25  C   UNL     1      -9.729  18.968  67.074  1.00  0.00    -0.315 C  
BRANCH  25  26
HETATM   26  C   UNL     1      -9.062  20.274  66.672  1.00  0.00    -0.395 C  
HETATM   27  C   UNL     1      -7.558  20.347  66.550  1.00  0.00    -0.256 C  
HETATM   28  C   UNL     1      -8.397  20.499  65.322  1.00  0.00     0.853 C  
ENDBRANCH  25  26
ENDBRANCH   2  25
TORSDOF 2
ENDMDL
