MODEL        1
REMARK 921   NORMALIZED FREE ENERGY PREDICTED BY IDOCK:   -6.34 KCAL/MOL
REMARK 922        TOTAL FREE ENERGY PREDICTED BY IDOCK:   -7.27 KCAL/MOL
REMARK 923 INTER-LIGAND FREE ENERGY PREDICTED BY IDOCK:   -7.08 KCAL/MOL
REMARK 924 INTRA-LIGAND FREE ENERGY PREDICTED BY IDOCK:   -0.19 KCAL/MOL
REMARK 927      BINDING AFFINITY PREDICTED BY RF-SCORE:    0.00 PKD
ROOT
HETATM    1 CL   UNL     1      -6.278  19.552  64.746  1.00  0.00    -0.315 Cl 
HETATM    2  C   UNL     2     -10.069  19.919  66.073  1.00  0.00    -0.487 C  
HETATM    3  N   UNL     2     -10.200  19.230  67.369  1.00  0.00    -0.385 NA 
HETATM    4  C   UNL     2      -9.078  19.487  68.283  1.00  0.00    -0.342 C  
ENDROOT
BRANCH   3   5
HETATM    5  C   UNL     2     -10.478  17.852  67.279  1.00  0.00    -0.366 A  
HETATM    6  C   UNL     2     -10.966  17.096  68.344  1.00  0.00    -0.221 A  
HETATM    7  C   UNL     2     -11.145  15.706  68.236  1.00  0.00    -0.336 A  
HETATM    8  S   UNL     2     -11.728  14.868  69.697  1.00  0.00    -0.341 SA 
HETATM    9  C   UNL     2     -11.617  13.164  69.186  1.00  0.00    -0.316 A  
HETATM   10  C   UNL     2     -11.253  12.808  67.878  1.00  0.00    -0.274 A  
HETATM   11  N   UNL     2     -10.932  13.665  66.873  1.00  0.00    -0.287 NA 
HETATM   12  C   UNL     2     -11.215  11.448  67.620  1.00  0.00    -0.346 A  
HETATM   13  C   UNL     2     -11.526  10.477  68.598  1.00  0.00    -0.290 A  
HETATM   14  C   UNL     2     -10.859  15.009  67.046  1.00  0.00    -0.311 A  
HETATM   15  C   UNL     2     -10.455  15.786  65.969  1.00  0.00    -0.350 A  
HETATM   16  C   UNL     2     -11.902  10.829  69.898  1.00  0.00    -0.335 A  
HETATM   17  C   UNL     2     -10.261  17.177  66.071  1.00  0.00    -0.332 A  
HETATM   18  C   UNL     2     -11.923  12.201  70.165  1.00  0.00    -0.394 A  
BRANCH  16  19
HETATM   19  N   UNL     2     -12.266   9.895  70.850  1.00  0.00    -0.316 NA 
HETATM   20  C   UNL     2     -13.272  10.189  71.869  1.00  0.00    -0.452 C  
HETATM   21  C   UNL     2     -11.550   8.638  71.015  1.00  0.00    -0.281 C  
ENDBRANCH  16  19
ENDBRANCH   3   5
TORSDOF 2
ENDMDL
MODEL        2
REMARK 921   NORMALIZED FREE ENERGY PREDICTED BY IDOCK:   -6.33 KCAL/MOL
REMARK 922        TOTAL FREE ENERGY PREDICTED BY IDOCK:   -7.27 KCAL/MOL
REMARK 923 INTER-LIGAND FREE ENERGY PREDICTED BY IDOCK:   -7.08 KCAL/MOL
REMARK 924 INTRA-LIGAND FREE ENERGY PREDICTED BY IDOCK:   -0.18 KCAL/MOL
REMARK 927      BINDING AFFINITY PREDICTED BY RF-SCORE:    0.00 PKD
ROOT
HETATM    1 CL   UNL     1     -10.314  20.138  66.903  1.00  0.00    -0.551 Cl 
HETATM    2  C   UNL     2      -8.702  16.524  66.125  1.00  0.00    -0.300 C  
HETATM    3  N   UNL     2      -9.782  15.555  65.869  1.00  0.00    -0.337 NA 
HETATM    4  C   UNL     2     -10.846  16.081  65.002  1.00  0.00    -0.404 C  
ENDROOT
BRANCH   3   5
HETATM    5  C   UNL     2     -10.317  14.949  67.022  1.00  0.00    -0.264 A  
HETATM    6  C   UNL     2     -10.045  13.633  67.395  1.00  0.00    -0.241 A  
HETATM    7  C   UNL     2     -10.672  13.041  68.506  1.00  0.00    -0.255 A  
HETATM    8  S   UNL     2     -10.262  11.336  68.829  1.00  0.00    -0.184 SA 
HETATM    9  C   UNL     2     -11.396  10.952  70.149  1.00  0.00    -0.284 A  
HETATM   10  C   UNL     2     -12.226  11.931  70.717  1.00  0.00    -0.303 A  
HETATM   11  N   UNL     2     -12.294  13.238  70.349  1.00  0.00    -0.323 NA 
HETATM   12  C   UNL     2     -13.050  11.492  71.739  1.00  0.00    -0.503 A  
HETATM   13  C   UNL     2     -13.058  10.154  72.191  1.00  0.00    -0.463 A  
HETATM   14  C   UNL     2     -11.589  13.747  69.306  1.00  0.00    -0.312 A  
HETATM   15  C   UNL     2     -11.786  15.080  68.974  1.00  0.00    -0.351 A  
HETATM   16  C   UNL     2     -12.223   9.179  71.636  1.00  0.00    -0.361 A  
HETATM   17  C   UNL     2     -11.173  15.679  67.857  1.00  0.00    -0.328 A  
HETATM   18  C   UNL     2     -11.403   9.617  70.592  1.00  0.00    -0.379 A  
BRANCH  16  19
HETATM   19  N   UNL     2     -12.175   7.879  72.105  1.00  0.00    -0.316 NA 
HETATM   20  C   UNL     2     -11.069   7.401  72.931  1.00  0.00    -0.349 C  
HETATM   21  C   UNL     2     -13.117   6.861  71.660  1.00  0.00    -0.279 C  
ENDBRANCH  16  19
ENDBRANCH   3   5
TORSDOF 2
ENDMDL
MODEL        3
REMARK 921   NORMALIZED FREE ENERGY PREDICTED BY IDOCK:   -6.30 KCAL/MOL
REMARK 922        TOTAL FREE ENERGY PREDICTED BY IDOCK:   -7.23 KCAL/MOL
REMARK 923 INTER-LIGAND FREE ENERGY PREDICTED BY IDOCK:   -7.05 KCAL/MOL
REMARK 924 INTRA-LIGAND FREE ENERGY PREDICTED BY IDOCK:   -0.18 KCAL/MOL
REMARK 927      BINDING AFFINITY PREDICTED BY RF-SCORE:    0.00 PKD
ROOT
HETATM    1 CL   UNL     1      -8.111  10.494  62.341  1.00  0.00    -0.193 Cl 
HETATM    2  C   UNL     2     -10.704  11.289  65.326  1.00  0.00    -0.237 C  
HETATM    3  N   UNL     2     -11.704  12.264  64.855  1.00  0.00    -0.358 NA 
HETATM    4  C   UNL     2     -12.210  11.975  63.505  1.00  0.00    -0.547 C  
ENDROOT
BRANCH   3   5
HETATM    5  C   UNL     2     -11.316  13.613  64.976  1.00  0.00    -0.329 A  
HETATM    6  C   UNL     2     -10.180  14.027  65.670  1.00  0.00    -0.351 A  
HETATM    7  C   UNL     2      -9.880  15.389  65.841  1.00  0.00    -0.356 A  
HETATM    8  S   UNL     2      -8.420  15.764  66.794  1.00  0.00    -0.292 SA 
HETATM    9  C   UNL     2      -8.538  17.537  66.923  1.00  0.00    -0.247 A  
HETATM   10  C   UNL     2      -9.543  18.260  66.262  1.00  0.00    -0.251 A  
HETATM   11  N   UNL     2     -10.528  17.739  65.485  1.00  0.00    -0.636 NA 
HETATM   12  C   UNL     2      -9.507  19.632  66.446  1.00  0.00    -0.479 A  
HETATM   13  C   UNL     2      -8.528  20.270  67.239  1.00  0.00    -0.415 A  
HETATM   14  C   UNL     2     -10.698  16.404  65.309  1.00  0.00    -0.295 A  
HETATM   15  C   UNL     2     -11.779  15.977  64.549  1.00  0.00    -0.127 A  
HETATM   16  C   UNL     2      -7.518  19.554  67.888  1.00  0.00    -0.275 A  
HETATM   17  C   UNL     2     -12.094  14.615  64.383  1.00  0.00    -0.481 A  
HETATM   18  C   UNL     2      -7.563  18.167  67.718  1.00  0.00    -0.222 A  
BRANCH  16  19
HETATM   19  N   UNL     2      -6.517  20.167  68.620  1.00  0.00    -0.298 NA 
HETATM   20  C   UNL     2      -5.599  21.126  68.011  1.00  0.00    -0.332 C  
HETATM   21  C   UNL     2      -6.198  19.765  69.983  1.00  0.00    -0.326 C  
ENDBRANCH  16  19
ENDBRANCH   3   5
TORSDOF 2
ENDMDL
MODEL        4
REMARK 921   NORMALIZED FREE ENERGY PREDICTED BY IDOCK:   -6.11 KCAL/MOL
REMARK 922        TOTAL FREE ENERGY PREDICTED BY IDOCK:   -7.01 KCAL/MOL
REMARK 923 INTER-LIGAND FREE ENERGY PREDICTED BY IDOCK:   -6.82 KCAL/MOL
REMARK 924 INTRA-LIGAND FREE ENERGY PREDICTED BY IDOCK:   -0.20 KCAL/MOL
REMARK 927      BINDING AFFINITY PREDICTED BY RF-SCORE:    0.00 PKD
ROOT
HETATM    1 CL   UNL     1     -11.034   6.052  67.384  1.00  0.00    -0.390 Cl 
HETATM    2  C   UNL     2     -10.647   7.431  71.154  1.00  0.00    -0.222 C  
HETATM    3  N   UNL     2     -11.920   8.033  71.585  1.00  0.00    -0.286 NA 
HETATM    4  C   UNL     2     -13.098   7.234  71.217  1.00  0.00    -0.307 C  
ENDROOT
BRANCH   3   5
HETATM    5  C   UNL     2     -12.088   9.383  71.222  1.00  0.00    -0.345 A  
HETATM    6  C   UNL     2     -11.461   9.967  70.121  1.00  0.00    -0.344 A  
HETATM    7  C   UNL     2     -11.586  11.340  69.848  1.00  0.00    -0.334 A  
HETATM    8  S   UNL     2     -10.687  11.950  68.435  1.00  0.00    -0.231 SA 
HETATM    9  C   UNL     2     -10.959  13.705  68.583  1.00  0.00    -0.267 A  
HETATM   10  C   UNL     2     -11.802  14.240  69.570  1.00  0.00    -0.329 A  
HETATM   11  N   UNL     2     -12.480  13.537  70.515  1.00  0.00    -0.325 NA 
HETATM   12  C   UNL     2     -11.926  15.620  69.562  1.00  0.00    -0.363 A  
HETATM   13  C   UNL     2     -11.259  16.440  68.625  1.00  0.00    -0.332 A  
HETATM   14  C   UNL     2     -12.360  12.193  70.658  1.00  0.00    -0.295 A  
HETATM   15  C   UNL     2     -13.046  11.583  71.700  1.00  0.00    -0.478 A  
HETATM   16  C   UNL     2     -10.429  15.909  67.633  1.00  0.00    -0.289 A  
HETATM   17  C   UNL     2     -12.917  10.211  71.989  1.00  0.00    -0.508 A  
HETATM   18  C   UNL     2     -10.289  14.518  67.651  1.00  0.00    -0.237 A  
BRANCH  16  19
HETATM   19  N   UNL     2      -9.815  16.692  66.673  1.00  0.00    -0.261 NA 
HETATM   20  C   UNL     2      -8.497  16.358  66.139  1.00  0.00    -0.294 C  
HETATM   21  C   UNL     2     -10.351  17.984  66.269  1.00  0.00    -0.382 C  
ENDBRANCH  16  19
ENDBRANCH   3   5
TORSDOF 2
ENDMDL
MODEL        5
REMARK 921   NORMALIZED FREE ENERGY PREDICTED BY IDOCK:   -6.09 KCAL/MOL
REMARK 922        TOTAL FREE ENERGY PREDICTED BY IDOCK:   -7.00 KCAL/MOL
REMARK 923 INTER-LIGAND FREE ENERGY PREDICTED BY IDOCK:   -6.81 KCAL/MOL
REMARK 924 INTRA-LIGAND FREE ENERGY PREDICTED BY IDOCK:   -0.19 KCAL/MOL
REMARK 927      BINDING AFFINITY PREDICTED BY RF-SCORE:    0.00 PKD
ROOT
HETATM    1 CL   UNL     1      -6.043  16.350  67.378  1.00  0.00    -0.183 Cl 
HETATM    2  C   UNL     2      -9.815  15.828  66.051  1.00  0.00    -0.337 C  
HETATM    3  N   UNL     2     -10.762  16.282  67.085  1.00  0.00    -0.288 NA 
HETATM    4  C   UNL     2     -10.377  17.555  67.711  1.00  0.00    -0.367 C  
ENDROOT
BRANCH   3   5
HETATM    5  C   UNL     2     -11.084  15.314  68.056  1.00  0.00    -0.312 A  
HETATM    6  C   UNL     2     -10.628  13.996  68.009  1.00  0.00    -0.250 A  
HETATM    7  C   UNL     2     -11.047  13.041  68.951  1.00  0.00    -0.262 A  
HETATM    8  S   UNL     2     -10.419  11.387  68.732  1.00  0.00    -0.194 SA 
HETATM    9  C   UNL     2     -11.335  10.501  69.978  1.00  0.00    -0.318 A  
HETATM   10  C   UNL     2     -12.190  11.162  70.874  1.00  0.00    -0.364 A  
HETATM   11  N   UNL     2     -12.443  12.497  70.906  1.00  0.00    -0.336 NA 
HETATM   12  C   UNL     2     -12.831  10.348  71.793  1.00  0.00    -0.561 A  
HETATM   13  C   UNL     2     -12.640   8.950  71.838  1.00  0.00    -0.439 A  
HETATM   14  C   UNL     2     -11.930  13.365  69.998  1.00  0.00    -0.337 A  
HETATM   15  C   UNL     2     -12.309  14.698  70.083  1.00  0.00    -0.390 A  
HETATM   16  C   UNL     2     -11.778   8.290  70.956  1.00  0.00    -0.270 A  
HETATM   17  C   UNL     2     -11.905  15.660  69.137  1.00  0.00    -0.378 A  
HETATM   18  C   UNL     2     -11.144   9.108  70.016  1.00  0.00    -0.208 A  
BRANCH  16  19
HETATM   19  N   UNL     2     -11.534   6.931  71.024  1.00  0.00    -0.295 NA 
HETATM   20  C   UNL     2     -11.426   6.234  72.303  1.00  0.00    -0.306 C  
HETATM   21  C   UNL     2     -11.188   6.147  69.846  1.00  0.00    -0.414 C  
ENDBRANCH  16  19
ENDBRANCH   3   5
TORSDOF 2
ENDMDL
MODEL        6
REMARK 921   NORMALIZED FREE ENERGY PREDICTED BY IDOCK:   -6.06 KCAL/MOL
REMARK 922        TOTAL FREE ENERGY PREDICTED BY IDOCK:   -6.96 KCAL/MOL
REMARK 923 INTER-LIGAND FREE ENERGY PREDICTED BY IDOCK:   -6.76 KCAL/MOL
REMARK 924 INTRA-LIGAND FREE ENERGY PREDICTED BY IDOCK:   -0.20 KCAL/MOL
REMARK 927      BINDING AFFINITY PREDICTED BY RF-SCORE:    0.00 PKD
ROOT
HETATM    1 CL   UNL     1      -8.964  11.279  62.628  1.00  0.00    -0.351 Cl 
HETATM    2  C   UNL     2     -12.152  13.158  64.229  1.00  0.00    -0.414 C  
HETATM    3  N   UNL     2     -11.710  13.981  65.369  1.00  0.00    -0.330 NA 
HETATM    4  C   UNL     2     -10.477  14.735  65.101  1.00  0.00    -0.418 C  
ENDROOT
BRANCH   3   5
HETATM    5  C   UNL     2     -11.632  13.296  66.597  1.00  0.00    -0.365 A  
HETATM    6  C   UNL     2     -11.176  11.984  66.717  1.00  0.00    -0.376 A  
HETATM    7  C   UNL     2     -11.199  11.309  67.950  1.00  0.00    -0.290 A  
HETATM    8  S   UNL     2     -10.631   9.619  67.937  1.00  0.00    -0.246 SA 
HETATM    9  C   UNL     2     -11.013   9.113  69.603  1.00  0.00    -0.153 A  
HETATM   10  C   UNL     2     -11.519  10.017  70.550  1.00  0.00    -0.330 A  
HETATM   11  N   UNL     2     -11.791  11.331  70.341  1.00  0.00    -0.348 NA 
HETATM   12  C   UNL     2     -11.762   9.486  71.806  1.00  0.00    -0.411 A  
HETATM   13  C   UNL     2     -11.518   8.132  72.123  1.00  0.00    -0.412 A  
HETATM   14  C   UNL     2     -11.665  11.925  69.127  1.00  0.00    -0.319 A  
HETATM   15  C   UNL     2     -12.036  13.258  69.009  1.00  0.00    -0.336 A  
HETATM   16  C   UNL     2     -11.002   7.232  71.185  1.00  0.00    -0.247 A  
HETATM   17  C   UNL     2     -12.028  13.938  67.777  1.00  0.00    -0.390 A  
HETATM   18  C   UNL     2     -10.772   7.762  69.912  1.00  0.00    -0.245 A  
BRANCH  16  19
HETATM   19  N   UNL     2     -10.701   5.919  71.494  1.00  0.00    -0.248 NA 
HETATM   20  C   UNL     2     -10.196   4.990  70.485  1.00  0.00    -0.246 C  
HETATM   21  C   UNL     2     -11.038   5.330  72.782  1.00  0.00    -0.286 C  
ENDBRANCH  16  19
ENDBRANCH   3   5
TORSDOF 2
ENDMDL
MODEL        7
REMARK 921   NORMALIZED FREE ENERGY PREDICTED BY IDOCK:   -6.03 KCAL/MOL
REMARK 922        TOTAL FREE ENERGY PREDICTED BY IDOCK:   -6.92 KCAL/MOL
REMARK 923 INTER-LIGAND FREE ENERGY PREDICTED BY IDOCK:   -6.73 KCAL/MOL
REMARK 924 INTRA-LIGAND FREE ENERGY PREDICTED BY IDOCK:   -0.20 KCAL/MOL
REMARK 927      BINDING AFFINITY PREDICTED BY RF-SCORE:    0.00 PKD
ROOT
HETATM    1 CL   UNL     1      -7.185   7.055  71.465  1.00  0.00    -0.077 Cl 
HETATM    2  C   UNL     2     -11.016   6.930  72.718  1.00  0.00    -0.280 C  
HETATM    3  N   UNL     2     -11.909   7.213  71.580  1.00  0.00    -0.289 NA 
HETATM    4  C   UNL     2     -11.522   6.516  70.346  1.00  0.00    -0.404 C  
ENDROOT
BRANCH   3   5
HETATM    5  C   UNL     2     -12.144   8.581  71.341  1.00  0.00    -0.303 A  
HETATM    6  C   UNL     2     -11.629   9.269  70.243  1.00  0.00    -0.151 A  
HETATM    7  C   UNL     2     -11.815  10.654  70.091  1.00  0.00    -0.337 A  
HETATM    8  S   UNL     2     -11.054  11.402  68.663  1.00  0.00    -0.262 SA 
HETATM    9  C   UNL     2     -11.363  13.130  68.972  1.00  0.00    -0.282 A  
HETATM   10  C   UNL     2     -12.135  13.558  70.063  1.00  0.00    -0.341 A  
HETATM   11  N   UNL     2     -12.712  12.761  71.000  1.00  0.00    -0.302 NA 
HETATM   12  C   UNL     2     -12.298  14.928  70.175  1.00  0.00    -0.376 A  
HETATM   13  C   UNL     2     -11.735  15.841  69.256  1.00  0.00    -0.384 A  
HETATM   14  C   UNL     2     -12.543  11.414  71.026  1.00  0.00    -0.386 A  
HETATM   15  C   UNL     2     -13.122  10.703  72.069  1.00  0.00    -0.501 A  
HETATM   16  C   UNL     2     -10.977  15.417  68.160  1.00  0.00    -0.297 A  
HETATM   17  C   UNL     2     -12.931   9.318  72.236  1.00  0.00    -0.488 A  
HETATM   18  C   UNL     2     -10.796  14.035  68.056  1.00  0.00    -0.257 A  
BRANCH  16  19
HETATM   19  N   UNL     2     -10.467  16.292  67.219  1.00  0.00    -0.298 NA 
HETATM   20  C   UNL     2     -10.527  17.740  67.406  1.00  0.00    -0.364 C  
HETATM   21  C   UNL     2     -10.010  15.843  65.911  1.00  0.00    -0.349 C  
ENDBRANCH  16  19
ENDBRANCH   3   5
TORSDOF 2
ENDMDL
MODEL        8
REMARK 921   NORMALIZED FREE ENERGY PREDICTED BY IDOCK:   -5.92 KCAL/MOL
REMARK 922        TOTAL FREE ENERGY PREDICTED BY IDOCK:   -6.81 KCAL/MOL
REMARK 923 INTER-LIGAND FREE ENERGY PREDICTED BY IDOCK:   -6.61 KCAL/MOL
REMARK 924 INTRA-LIGAND FREE ENERGY PREDICTED BY IDOCK:   -0.20 KCAL/MOL
REMARK 927      BINDING AFFINITY PREDICTED BY RF-SCORE:    0.00 PKD
ROOT
HETATM    1 CL   UNL     1      -8.383   9.657  70.432  1.00  0.00    -0.218 Cl 
HETATM    2  C   UNL     2     -12.035  10.853  69.206  1.00  0.00    -0.310 C  
HETATM    3  N   UNL     2     -11.905  11.584  67.934  1.00  0.00    -0.614 NA 
HETATM    4  C   UNL     2     -10.989  10.941  66.981  1.00  0.00    -0.247 C  
ENDROOT
BRANCH   3   5
HETATM    5  C   UNL     2     -11.618  12.957  68.068  1.00  0.00    -0.342 A  
HETATM    6  C   UNL     2     -10.788  13.658  67.195  1.00  0.00    -0.292 A  
HETATM    7  C   UNL     2     -10.458  15.006  67.418  1.00  0.00    -0.257 A  
HETATM    8  S   UNL     2      -9.345  15.753  66.243  1.00  0.00    -0.351 SA 
HETATM    9  C   UNL     2      -9.055  17.339  67.001  1.00  0.00    -0.236 A  
HETATM   10  C   UNL     2      -9.731  17.734  68.166  1.00  0.00    -0.313 A  
HETATM   11  N   UNL     2     -10.642  16.998  68.856  1.00  0.00    -0.337 NA 
HETATM   12  C   UNL     2      -9.412  18.996  68.640  1.00  0.00    -0.457 A  
HETATM   13  C   UNL     2      -8.475  19.837  67.999  1.00  0.00    -0.338 A  
HETATM   14  C   UNL     2     -10.961  15.722  68.521  1.00  0.00    -0.312 A  
HETATM   15  C   UNL     2     -11.853  15.037  69.335  1.00  0.00    -0.358 A  
HETATM   16  C   UNL     2      -7.810  19.451  66.831  1.00  0.00    -0.259 A  
HETATM   17  C   UNL     2     -12.180  13.683  69.126  1.00  0.00    -0.265 A  
HETATM   18  C   UNL     2      -8.118  18.171  66.362  1.00  0.00    -0.291 A  
BRANCH  16  19
HETATM   19  N   UNL     2      -6.935  20.283  66.158  1.00  0.00    -0.256 NA 
HETATM   20  C   UNL     2      -6.644  20.105  64.738  1.00  0.00    -0.227 C  
HETATM   21  C   UNL     2      -6.113  21.266  66.852  1.00  0.00    -0.333 C  
ENDBRANCH  16  19
ENDBRANCH   3   5
TORSDOF 2
ENDMDL
MODEL        9
REMARK 921   NORMALIZED FREE ENERGY PREDICTED BY IDOCK:   -5.89 KCAL/MOL
REMARK 922        TOTAL FREE ENERGY PREDICTED BY IDOCK:   -6.77 KCAL/MOL
REMARK 923 INTER-LIGAND FREE ENERGY PREDICTED BY IDOCK:   -6.58 KCAL/MOL
REMARK 924 INTRA-LIGAND FREE ENERGY PREDICTED BY IDOCK:   -0.19 KCAL/MOL
REMARK 927      BINDING AFFINITY PREDICTED BY RF-SCORE:    0.00 PKD
ROOT
HETATM    1 CL   UNL     1     -10.424  17.567  66.734  1.00  0.00    -0.303 Cl 
HETATM    2  C   UNL     2     -10.333  13.849  65.173  1.00  0.00    -0.383 C  
HETATM    3  N   UNL     2     -11.556  13.128  65.564  1.00  0.00    -0.323 NA 
HETATM    4  C   UNL     2     -12.776  13.939  65.446  1.00  0.00    -0.490 C  
ENDROOT
BRANCH   3   5
HETATM    5  C   UNL     2     -11.490  12.488  66.817  1.00  0.00    -0.362 A  
HETATM    6  C   UNL     2     -11.046  11.177  66.988  1.00  0.00    -0.339 A  
HETATM    7  C   UNL     2     -11.080  10.549  68.245  1.00  0.00    -0.284 A  
HETATM    8  S   UNL     2     -10.528   8.854  68.297  1.00  0.00    -0.160 SA 
HETATM    9  C   UNL     2     -10.922   8.414  69.978  1.00  0.00    -0.194 A  
HETATM   10  C   UNL     2     -11.423   9.356  70.890  1.00  0.00    -0.316 A  
HETATM   11  N   UNL     2     -11.684  10.665  70.631  1.00  0.00    -0.342 NA 
HETATM   12  C   UNL     2     -11.678   8.875  72.163  1.00  0.00    -0.411 A  
HETATM   13  C   UNL     2     -11.446   7.531  72.531  1.00  0.00    -0.376 A  
HETATM   14  C   UNL     2     -11.547  11.212  69.396  1.00  0.00    -0.318 A  
HETATM   15  C   UNL     2     -11.905  12.542  69.227  1.00  0.00    -0.360 A  
HETATM   16  C   UNL     2     -10.934   6.593  71.629  1.00  0.00    -0.241 A  
HETATM   17  C   UNL     2     -11.886  13.177  67.971  1.00  0.00    -0.398 A  
HETATM   18  C   UNL     2     -10.694   7.073  70.338  1.00  0.00    -0.259 A  
BRANCH  16  19
HETATM   19  N   UNL     2     -10.646   5.289  71.988  1.00  0.00    -0.222 NA 
HETATM   20  C   UNL     2     -11.135   4.712  73.238  1.00  0.00    -0.321 C  
HETATM   21  C   UNL     2      -9.697   4.473  71.244  1.00  0.00    -0.182 C  
ENDBRANCH  16  19
ENDBRANCH   3   5
TORSDOF 2
ENDMDL
MODEL       10
REMARK 921   NORMALIZED FREE ENERGY PREDICTED BY IDOCK:   -5.82 KCAL/MOL
REMARK 922        TOTAL FREE ENERGY PREDICTED BY IDOCK:   -6.69 KCAL/MOL
REMARK 923 INTER-LIGAND FREE ENERGY PREDICTED BY IDOCK:   -6.50 KCAL/MOL
REMARK 924 INTRA-LIGAND FREE ENERGY PREDICTED BY IDOCK:   -0.18 KCAL/MOL
REMARK 927      BINDING AFFINITY PREDICTED BY RF-SCORE:    0.00 PKD
ROOT
HETATM    1 CL   UNL     1      -7.872  10.161  68.644  1.00  0.00    -0.093 Cl 
HETATM    2  C   UNL     2     -11.384  11.473  67.154  1.00  0.00    -0.284 C  
HETATM    3  N   UNL     2     -11.167  12.009  65.799  1.00  0.00    -0.329 NA 
HETATM    4  C   UNL     2     -10.292  11.167  64.971  1.00  0.00    -0.301 C  
ENDROOT
BRANCH   3   5
HETATM    5  C   UNL     2     -10.767  13.358  65.755  1.00  0.00    -0.274 A  
HETATM    6  C   UNL     2      -9.691  13.865  66.483  1.00  0.00    -0.303 A  
HETATM    7  C   UNL     2      -9.382  15.236  66.478  1.00  0.00    -0.281 A  
HETATM    8  S   UNL     2      -8.009  15.741  67.497  1.00  0.00    -0.164 SA 
HETATM    9  C   UNL     2      -8.104  17.515  67.351  1.00  0.00    -0.202 A  
HETATM   10  C   UNL     2      -9.030  18.136  66.499  1.00  0.00    -0.275 A  
HETATM   11  N   UNL     2      -9.950  17.510  65.719  1.00  0.00    -0.569 NA 
HETATM   12  C   UNL     2      -8.986  19.521  66.481  1.00  0.00    -0.406 A  
HETATM   13  C   UNL     2      -8.071  20.265  67.259  1.00  0.00    -0.381 A  
HETATM   14  C   UNL     2     -10.128  16.165  65.728  1.00  0.00    -0.363 A  
HETATM   15  C   UNL     2     -11.143  15.635  64.942  1.00  0.00    -0.414 A  
HETATM   16  C   UNL     2      -7.138  19.648  68.098  1.00  0.00    -0.292 A  
HETATM   17  C   UNL     2     -11.468  14.265  64.950  1.00  0.00    -0.378 A  
HETATM   18  C   UNL     2      -7.194  18.252  68.131  1.00  0.00    -0.255 A  
BRANCH  16  19
HETATM   19  N   UNL     2      -6.198  20.358  68.821  1.00  0.00    -0.319 NA 
HETATM   20  C   UNL     2      -5.194  21.192  68.164  1.00  0.00    -0.273 C  
HETATM   21  C   UNL     2      -6.028  20.180  70.257  1.00  0.00    -0.349 C  
ENDBRANCH  16  19
ENDBRANCH   3   5
TORSDOF 2
ENDMDL
MODEL       11
REMARK 921   NORMALIZED FREE ENERGY PREDICTED BY IDOCK:   -5.72 KCAL/MOL
REMARK 922        TOTAL FREE ENERGY PREDICTED BY IDOCK:   -6.59 KCAL/MOL
REMARK 923 INTER-LIGAND FREE ENERGY PREDICTED BY IDOCK:   -6.39 KCAL/MOL
REMARK 924 INTRA-LIGAND FREE ENERGY PREDICTED BY IDOCK:   -0.20 KCAL/MOL
REMARK 927      BINDING AFFINITY PREDICTED BY RF-SCORE:    0.00 PKD
ROOT
HETATM    1 CL   UNL     1     -11.324   5.917  69.827  1.00  0.00    -0.351 Cl 
HETATM    2  C   UNL     2     -11.860   9.222  72.075  1.00  0.00    -0.300 C  
HETATM    3  N   UNL     2     -12.830  10.110  71.411  1.00  0.00    -0.392 NA 
HETATM    4  C   UNL     2     -13.996   9.399  70.869  1.00  0.00     0.225 C  
ENDROOT
BRANCH   3   5
HETATM    5  C   UNL     2     -12.275  10.981  70.454  1.00  0.00    -0.373 A  
HETATM    6  C   UNL     2     -12.061  12.340  70.684  1.00  0.00    -0.330 A  
HETATM    7  C   UNL     2     -11.587  13.190  69.670  1.00  0.00    -0.253 A  
HETATM    8  S   UNL     2     -11.412  14.912  70.099  1.00  0.00    -0.285 SA 
HETATM    9  C   UNL     2     -10.998  15.622  68.517  1.00  0.00    -0.303 A  
HETATM   10  C   UNL     2     -10.795  14.824  67.381  1.00  0.00    -0.300 A  
HETATM   11  N   UNL     2     -10.897  13.470  67.321  1.00  0.00    -0.274 NA 
HETATM   12  C   UNL     2     -10.472  15.511  66.222  1.00  0.00    -0.313 A  
HETATM   13  C   UNL     2     -10.347  16.917  66.179  1.00  0.00    -0.327 A  
HETATM   14  C   UNL     2     -11.288  12.714  68.379  1.00  0.00    -0.290 A  
HETATM   15  C   UNL     2     -11.425  11.346  68.189  1.00  0.00    -0.375 A  
HETATM   16  C   UNL     2     -10.536  17.713  67.312  1.00  0.00    -0.338 A  
HETATM   17  C   UNL     2     -11.910  10.488  69.195  1.00  0.00    -0.218 A  
HETATM   18  C   UNL     2     -10.880  17.023  68.478  1.00  0.00    -0.310 A  
BRANCH  16  19
HETATM   19  N   UNL     2     -10.361  19.085  67.301  1.00  0.00    -0.397 NA 
HETATM   20  C   UNL     2     -10.129  19.819  66.059  1.00  0.00    -0.477 C  
HETATM   21  C   UNL     2     -10.212  19.856  68.527  1.00  0.00    -0.409 C  
ENDBRANCH  16  19
ENDBRANCH   3   5
TORSDOF 2
ENDMDL
MODEL       12
REMARK 921   NORMALIZED FREE ENERGY PREDICTED BY IDOCK:   -5.70 KCAL/MOL
REMARK 922        TOTAL FREE ENERGY PREDICTED BY IDOCK:   -6.56 KCAL/MOL
REMARK 923 INTER-LIGAND FREE ENERGY PREDICTED BY IDOCK:   -6.36 KCAL/MOL
REMARK 924 INTRA-LIGAND FREE ENERGY PREDICTED BY IDOCK:   -0.19 KCAL/MOL
REMARK 927      BINDING AFFINITY PREDICTED BY RF-SCORE:    0.00 PKD
ROOT
HETATM    1 CL   UNL     1     -10.313  11.738  63.351  1.00  0.00    -0.454 Cl 
HETATM    2  C   UNL     2     -12.455  13.987  65.923  1.00  0.00    -0.481 C  
HETATM    3  N   UNL     2     -11.608  14.351  67.073  1.00  0.00    -0.369 NA 
HETATM    4  C   UNL     2     -10.253  14.771  66.690  1.00  0.00    -0.269 C  
ENDROOT
BRANCH   3   5
HETATM    5  C   UNL     2     -11.572  13.395  68.106  1.00  0.00    -0.341 A  
HETATM    6  C   UNL     2     -11.010  12.127  67.961  1.00  0.00    -0.271 A  
HETATM    7  C   UNL     2     -11.076  11.173  68.991  1.00  0.00    -0.242 A  
HETATM    8  S   UNL     2     -10.357   9.580  68.640  1.00  0.00    -0.211 SA 
HETATM    9  C   UNL     2     -10.831   8.659  70.090  1.00  0.00    -0.233 A  
HETATM   10  C   UNL     2     -11.496   9.268  71.166  1.00  0.00    -0.333 A  
HETATM   11  N   UNL     2     -11.869  10.572  71.245  1.00  0.00    -0.295 NA 
HETATM   12  C   UNL     2     -11.796   8.433  72.229  1.00  0.00    -0.456 A  
HETATM   13  C   UNL     2     -11.456   7.062  72.241  1.00  0.00    -0.308 A  
HETATM   14  C   UNL     2     -11.695  11.451  70.225  1.00  0.00    -0.306 A  
HETATM   15  C   UNL     2     -12.175  12.743  70.386  1.00  0.00    -0.371 A  
HETATM   16  C   UNL     2     -10.782   6.455  71.177  1.00  0.00    -0.244 A  
HETATM   17  C   UNL     2     -12.125  13.702  69.356  1.00  0.00    -0.364 A  
HETATM   18  C   UNL     2     -10.494   7.293  70.095  1.00  0.00    -0.229 A  
BRANCH  16  19
HETATM   19  N   UNL     2     -10.390   5.130  71.197  1.00  0.00    -0.221 NA 
HETATM   20  C   UNL     2     -10.224   4.398  72.451  1.00  0.00    -0.190 C  
HETATM   21  C   UNL     2      -9.942   4.436  69.998  1.00  0.00    -0.175 C  
ENDBRANCH  16  19
ENDBRANCH   3   5
TORSDOF 2
ENDMDL
MODEL       13
REMARK 921   NORMALIZED FREE ENERGY PREDICTED BY IDOCK:   -5.67 KCAL/MOL
REMARK 922        TOTAL FREE ENERGY PREDICTED BY IDOCK:   -6.53 KCAL/MOL
REMARK 923 INTER-LIGAND FREE ENERGY PREDICTED BY IDOCK:   -6.33 KCAL/MOL
REMARK 924 INTRA-LIGAND FREE ENERGY PREDICTED BY IDOCK:   -0.20 KCAL/MOL
REMARK 927      BINDING AFFINITY PREDICTED BY RF-SCORE:    0.00 PKD
ROOT
HETATM    1 CL   UNL     1      -7.000  20.377  65.468  1.00  0.00    -0.286 Cl 
HETATM    2  C   UNL     2     -10.761  19.550  66.665  1.00  0.00    -0.445 C  
HETATM    3  N   UNL     2     -10.729  18.452  67.647  1.00  0.00    -0.409 NA 
HETATM    4  C   UNL     2      -9.659  18.593  68.646  1.00  0.00    -0.368 C  
ENDROOT
BRANCH   3   5
HETATM    5  C   UNL     2     -10.737  17.159  67.089  1.00  0.00    -0.177 A  
HETATM    6  C   UNL     2     -10.949  16.000  67.835  1.00  0.00    -0.327 A  
HETATM    7  C   UNL     2     -10.859  14.725  67.251  1.00  0.00    -0.309 A  
HETATM    8  S   UNL     2     -11.106  13.337  68.343  1.00  0.00    -0.287 SA 
HETATM    9  C   UNL     2     -10.715  11.974  67.263  1.00  0.00    -0.232 A  
HETATM   10  C   UNL     2     -10.428  12.169  65.903  1.00  0.00    -0.254 A  
HETATM   11  N   UNL     2     -10.392  13.362  65.253  1.00  0.00    -0.313 NA 
HETATM   12  C   UNL     2     -10.149  11.019  65.183  1.00  0.00    -0.346 A  
HETATM   13  C   UNL     2     -10.156   9.733  65.767  1.00  0.00    -0.308 A  
HETATM   14  C   UNL     2     -10.569  14.550  65.885  1.00  0.00    -0.309 A  
HETATM   15  C   UNL     2     -10.444  15.713  65.137  1.00  0.00    -0.417 A  
HETATM   16  C   UNL     2     -10.454   9.535  67.119  1.00  0.00    -0.253 A  
HETATM   17  C   UNL     2     -10.520  16.995  65.714  1.00  0.00    -0.261 A  
HETATM   18  C   UNL     2     -10.717  10.696  67.851  1.00  0.00    -0.292 A  
BRANCH  16  19
HETATM   19  N   UNL     2     -10.522   8.279  67.693  1.00  0.00    -0.245 NA 
HETATM   20  C   UNL     2     -10.475   8.094  69.142  1.00  0.00    -0.206 C  
HETATM   21  C   UNL     2     -10.459   7.060  66.899  1.00  0.00    -0.286 C  
ENDBRANCH  16  19
ENDBRANCH   3   5
TORSDOF 2
ENDMDL
MODEL       14
REMARK 921   NORMALIZED FREE ENERGY PREDICTED BY IDOCK:   -5.66 KCAL/MOL
REMARK 922        TOTAL FREE ENERGY PREDICTED BY IDOCK:   -6.52 KCAL/MOL
REMARK 923 INTER-LIGAND FREE ENERGY PREDICTED BY IDOCK:   -6.33 KCAL/MOL
REMARK 924 INTRA-LIGAND FREE ENERGY PREDICTED BY IDOCK:   -0.19 KCAL/MOL
REMARK 927      BINDING AFFINITY PREDICTED BY RF-SCORE:    0.00 PKD
ROOT
HETATM    1 CL   UNL     1      -8.038  16.011  69.160  1.00  0.00    -0.233 Cl 
HETATM    2  C   UNL     2     -12.017  15.415  68.886  1.00  0.00    -0.273 C  
HETATM    3  N   UNL     2     -12.561  15.139  70.227  1.00  0.00    -0.345 NA 
HETATM    4  C   UNL     2     -12.026  16.027  71.268  1.00  0.00    -0.424 C  
ENDROOT
BRANCH   3   5
HETATM    5  C   UNL     2     -12.495  13.789  70.624  1.00  0.00    -0.359 A  
HETATM    6  C   UNL     2     -11.683  12.843  70.000  1.00  0.00    -0.284 A  
HETATM    7  C   UNL     2     -11.715  11.488  70.372  1.00  0.00    -0.234 A  
HETATM    8  S   UNL     2     -10.657  10.389  69.449  1.00  0.00    -0.254 SA 
HETATM    9  C   UNL     2     -11.154   8.805  70.097  1.00  0.00    -0.202 A  
HETATM   10  C   UNL     2     -12.076   8.695  71.150  1.00  0.00    -0.260 A  
HETATM   11  N   UNL     2     -12.702   9.724  71.780  1.00  0.00    -0.400 NA 
HETATM   12  C   UNL     2     -12.363   7.403  71.556  1.00  0.00    -0.385 A  
HETATM   13  C   UNL     2     -11.770   6.267  70.962  1.00  0.00    -0.283 A  
HETATM   14  C   UNL     2     -12.551  11.019  71.403  1.00  0.00    -0.393 A  
HETATM   15  C   UNL     2     -13.291  11.985  72.072  1.00  0.00    -0.447 A  
HETATM   16  C   UNL     2     -10.841   6.374  69.922  1.00  0.00    -0.310 A  
HETATM   17  C   UNL     2     -13.275  13.342  71.698  1.00  0.00    -0.449 A  
HETATM   18  C   UNL     2     -10.564   7.677  69.499  1.00  0.00    -0.227 A  
BRANCH  16  19
HETATM   19  N   UNL     2     -10.208   5.277  69.369  1.00  0.00    -0.244 NA 
HETATM   20  C   UNL     2     -10.160   5.066  67.924  1.00  0.00    -0.113 C  
HETATM   21  C   UNL     2      -9.713   4.176  70.184  1.00  0.00    -0.208 C  
ENDBRANCH  16  19
ENDBRANCH   3   5
TORSDOF 2
ENDMDL
MODEL       15
REMARK 921   NORMALIZED FREE ENERGY PREDICTED BY IDOCK:   -5.52 KCAL/MOL
REMARK 922        TOTAL FREE ENERGY PREDICTED BY IDOCK:   -6.36 KCAL/MOL
REMARK 923 INTER-LIGAND FREE ENERGY PREDICTED BY IDOCK:   -6.17 KCAL/MOL
REMARK 924 INTRA-LIGAND FREE ENERGY PREDICTED BY IDOCK:   -0.19 KCAL/MOL
REMARK 927      BINDING AFFINITY PREDICTED BY RF-SCORE:    0.00 PKD
ROOT
HETATM    1 CL   UNL     1      -7.689  15.978  66.931  1.00  0.00    -0.267 Cl 
HETATM    2  C   UNL     2     -11.453  14.716  66.220  1.00  0.00    -0.351 C  
HETATM    3  N   UNL     2     -12.038  14.203  67.471  1.00  0.00    -0.380 NA 
HETATM    4  C   UNL     2     -11.762  15.053  68.637  1.00  0.00    -0.337 C  
ENDROOT
BRANCH   3   5
HETATM    5  C   UNL     2     -11.751  12.851  67.746  1.00  0.00    -0.362 A  
HETATM    6  C   UNL     2     -11.992  12.250  68.981  1.00  0.00    -0.300 A  
HETATM    7  C   UNL     2     -11.607  10.923  69.239  1.00  0.00    -0.318 A  
HETATM    8  S   UNL     2     -11.935  10.310  70.880  1.00  0.00    -0.399 SA 
HETATM    9  C   UNL     2     -11.130   8.721  70.823  1.00  0.00    -0.260 A  
HETATM   10  C   UNL     2     -10.552   8.230  69.642  1.00  0.00    -0.222 A  
HETATM   11  N   UNL     2     -10.508   8.867  68.443  1.00  0.00    -0.207 NA 
HETATM   12  C   UNL     2      -9.968   6.978  69.743  1.00  0.00    -0.179 A  
HETATM   13  C   UNL     2      -9.955   6.236  70.945  1.00  0.00    -0.219 A  
HETATM   14  C   UNL     2     -10.978  10.128  68.263  1.00  0.00    -0.248 A  
HETATM   15  C   UNL     2     -10.822  10.711  67.012  1.00  0.00    -0.298 A  
HETATM   16  C   UNL     2     -10.542   6.717  72.119  1.00  0.00    -0.211 A  
HETATM   17  C   UNL     2     -11.192  12.043  66.748  1.00  0.00    -0.376 A  
HETATM   18  C   UNL     2     -11.116   7.989  72.024  1.00  0.00    -0.353 A  
BRANCH  16  19
HETATM   19  N   UNL     2     -10.590   5.981  73.288  1.00  0.00    -0.242 NA 
HETATM   20  C   UNL     2     -11.275   4.692  73.355  1.00  0.00    -0.338 C  
HETATM   21  C   UNL     2     -10.129   6.518  74.561  1.00  0.00    -0.308 C  
ENDBRANCH  16  19
ENDBRANCH   3   5
TORSDOF 2
ENDMDL
MODEL       16
REMARK 921   NORMALIZED FREE ENERGY PREDICTED BY IDOCK:   -5.50 KCAL/MOL
REMARK 922        TOTAL FREE ENERGY PREDICTED BY IDOCK:   -6.34 KCAL/MOL
REMARK 923 INTER-LIGAND FREE ENERGY PREDICTED BY IDOCK:   -6.14 KCAL/MOL
REMARK 924 INTRA-LIGAND FREE ENERGY PREDICTED BY IDOCK:   -0.19 KCAL/MOL
REMARK 927      BINDING AFFINITY PREDICTED BY RF-SCORE:    0.00 PKD
ROOT
HETATM    1 CL   UNL     1      -9.490   3.451  67.789  1.00  0.00    -0.249 Cl 
HETATM    2  C   UNL     2      -8.089   5.826  70.732  1.00  0.00    -0.118 C  
HETATM    3  N   UNL     2      -9.216   6.290  71.560  1.00  0.00    -0.146 NA 
HETATM    4  C   UNL     2     -10.185   5.231  71.875  1.00  0.00    -0.207 C  
ENDROOT
BRANCH   3   5
HETATM    5  C   UNL     2      -9.863   7.446  71.081  1.00  0.00    -0.174 A  
HETATM    6  C   UNL     2      -9.856   7.832  69.741  1.00  0.00    -0.178 A  
HETATM    7  C   UNL     2     -10.439   9.040  69.322  1.00  0.00    -0.228 A  
HETATM    8  S   UNL     2     -10.307   9.422  67.586  1.00  0.00    -0.261 SA 
HETATM    9  C   UNL     2     -10.976  11.073  67.542  1.00  0.00    -0.281 A  
HETATM   10  C   UNL     2     -11.521  11.678  68.685  1.00  0.00    -0.290 A  
HETATM   11  N   UNL     2     -11.598  11.129  69.926  1.00  0.00    -0.310 NA 
HETATM   12  C   UNL     2     -12.011  12.961  68.502  1.00  0.00    -0.272 A  
HETATM   13  C   UNL     2     -11.973  13.621  67.254  1.00  0.00    -0.420 A  
HETATM   14  C   UNL     2     -11.074   9.913  70.226  1.00  0.00    -0.308 A  
HETATM   15  C   UNL     2     -11.148   9.477  71.542  1.00  0.00    -0.406 A  
HETATM   16  C   UNL     2     -11.442  13.016  66.111  1.00  0.00    -0.340 A  
HETATM   17  C   UNL     2     -10.556   8.274  71.974  1.00  0.00    -0.365 A  
HETATM   18  C   UNL     2     -10.931  11.728  66.298  1.00  0.00    -0.346 A  
BRANCH  16  19
HETATM   19  N   UNL     2     -11.450  13.624  64.870  1.00  0.00    -0.328 NA 
HETATM   20  C   UNL     2     -11.229  15.061  64.718  1.00  0.00    -0.386 C  
HETATM   21  C   UNL     2     -11.857  12.917  63.663  1.00  0.00    -0.532 C  
ENDBRANCH  16  19
ENDBRANCH   3   5
TORSDOF 2
ENDMDL
MODEL       17
REMARK 921   NORMALIZED FREE ENERGY PREDICTED BY IDOCK:   -5.47 KCAL/MOL
REMARK 922        TOTAL FREE ENERGY PREDICTED BY IDOCK:   -6.30 KCAL/MOL
REMARK 923 INTER-LIGAND FREE ENERGY PREDICTED BY IDOCK:   -6.11 KCAL/MOL
REMARK 924 INTRA-LIGAND FREE ENERGY PREDICTED BY IDOCK:   -0.19 KCAL/MOL
REMARK 927      BINDING AFFINITY PREDICTED BY RF-SCORE:    0.00 PKD
ROOT
HETATM    1 CL   UNL     1      -7.626  15.071  67.108  1.00  0.00    -0.222 Cl 
HETATM    2  C   UNL     2     -11.646  14.984  67.422  1.00  0.00    -0.291 C  
HETATM    3  N   UNL     2     -12.025  15.089  68.842  1.00  0.00    -0.286 NA 
HETATM    4  C   UNL     2     -11.257  16.103  69.578  1.00  0.00    -0.337 C  
ENDROOT
BRANCH   3   5
HETATM    5  C   UNL     2     -12.052  13.865  69.538  1.00  0.00    -0.342 A  
HETATM    6  C   UNL     2     -11.297  12.753  69.166  1.00  0.00    -0.337 A  
HETATM    7  C   UNL     2     -11.422  11.524  69.837  1.00  0.00    -0.260 A  
HETATM    8  S   UNL     2     -10.429  10.180  69.215  1.00  0.00    -0.241 SA 
HETATM    9  C   UNL     2     -11.035   8.820  70.194  1.00  0.00    -0.223 A  
HETATM   10  C   UNL     2     -11.973   9.011  71.221  1.00  0.00    -0.312 A  
HETATM   11  N   UNL     2     -12.537  10.193  71.584  1.00  0.00    -0.411 NA 
HETATM   12  C   UNL     2     -12.349   7.866  71.904  1.00  0.00    -0.350 A  
HETATM   13  C   UNL     2     -11.826   6.590  71.599  1.00  0.00    -0.384 A  
HETATM   14  C   UNL     2     -12.298  11.355  70.925  1.00  0.00    -0.381 A  
HETATM   15  C   UNL     2     -12.980  12.492  71.338  1.00  0.00    -0.347 A  
HETATM   16  C   UNL     2     -10.881   6.398  70.586  1.00  0.00    -0.276 A  
HETATM   17  C   UNL     2     -12.871  13.724  70.665  1.00  0.00    -0.262 A  
HETATM   18  C   UNL     2     -10.515   7.550  69.884  1.00  0.00    -0.232 A  
BRANCH  16  19
HETATM   19  N   UNL     2     -10.315   5.167  70.313  1.00  0.00    -0.275 NA 
HETATM   20  C   UNL     2      -9.962   4.232  71.379  1.00  0.00    -0.168 C  
HETATM   21  C   UNL     2      -9.868   4.799  68.977  1.00  0.00    -0.168 C  
ENDBRANCH  16  19
ENDBRANCH   3   5
TORSDOF 2
ENDMDL
MODEL       18
REMARK 921   NORMALIZED FREE ENERGY PREDICTED BY IDOCK:   -5.42 KCAL/MOL
REMARK 922        TOTAL FREE ENERGY PREDICTED BY IDOCK:   -6.24 KCAL/MOL
REMARK 923 INTER-LIGAND FREE ENERGY PREDICTED BY IDOCK:   -6.05 KCAL/MOL
REMARK 924 INTRA-LIGAND FREE ENERGY PREDICTED BY IDOCK:   -0.20 KCAL/MOL
REMARK 927      BINDING AFFINITY PREDICTED BY RF-SCORE:    0.00 PKD
ROOT
HETATM    1 CL   UNL     1      -6.487   5.998  73.385  1.00  0.00    -0.071 Cl 
HETATM    2  C   UNL     2     -10.204   4.782  72.401  1.00  0.00    -0.194 C  
HETATM    3  N   UNL     2     -10.562   5.331  71.082  1.00  0.00    -0.208 NA 
HETATM    4  C   UNL     2      -9.477   5.234  70.095  1.00  0.00    -0.160 C  
ENDROOT
BRANCH   3   5
HETATM    5  C   UNL     2     -11.110   6.629  71.111  1.00  0.00    -0.279 A  
HETATM    6  C   UNL     2     -10.910   7.570  70.101  1.00  0.00    -0.259 A  
HETATM    7  C   UNL     2     -11.401   8.882  70.214  1.00  0.00    -0.159 A  
HETATM    8  S   UNL     2     -11.023   9.986  68.866  1.00  0.00    -0.178 SA 
HETATM    9  C   UNL     2     -11.640  11.532  69.502  1.00  0.00    -0.333 A  
HETATM   10  C   UNL     2     -12.322  11.607  70.726  1.00  0.00    -0.358 A  
HETATM   11  N   UNL     2     -12.581  10.570  71.566  1.00  0.00    -0.410 NA 
HETATM   12  C   UNL     2     -12.751  12.872  71.092  1.00  0.00    -0.366 A  
HETATM   13  C   UNL     2     -12.527  14.014  70.292  1.00  0.00    -0.403 A  
HETATM   14  C   UNL     2     -12.132   9.309  71.338  1.00  0.00    -0.348 A  
HETATM   15  C   UNL     2     -12.396   8.339  72.296  1.00  0.00    -0.410 A  
HETATM   16  C   UNL     2     -11.860  13.941  69.065  1.00  0.00    -0.358 A  
HETATM   17  C   UNL     2     -11.898   7.026  72.198  1.00  0.00    -0.314 A  
HETATM   18  C   UNL     2     -11.410  12.668  68.703  1.00  0.00    -0.331 A  
BRANCH  16  19
HETATM   19  N   UNL     2     -11.683  15.038  68.243  1.00  0.00    -0.330 NA 
HETATM   20  C   UNL     2     -11.718  14.919  66.787  1.00  0.00    -0.233 C  
HETATM   21  C   UNL     2     -11.272  16.336  68.760  1.00  0.00    -0.343 C  
ENDBRANCH  16  19
ENDBRANCH   3   5
TORSDOF 2
ENDMDL
MODEL       19
REMARK 921   NORMALIZED FREE ENERGY PREDICTED BY IDOCK:   -5.41 KCAL/MOL
REMARK 922        TOTAL FREE ENERGY PREDICTED BY IDOCK:   -6.24 KCAL/MOL
REMARK 923 INTER-LIGAND FREE ENERGY PREDICTED BY IDOCK:   -6.06 KCAL/MOL
REMARK 924 INTRA-LIGAND FREE ENERGY PREDICTED BY IDOCK:   -0.18 KCAL/MOL
REMARK 927      BINDING AFFINITY PREDICTED BY RF-SCORE:    0.00 PKD
ROOT
HETATM    1 CL   UNL     1      -6.540   9.551  68.123  1.00  0.00    -0.061 Cl 
HETATM    2  C   UNL     2     -10.515  10.013  67.621  1.00  0.00    -0.246 C  
HETATM    3  N   UNL     2     -10.765  10.755  66.372  1.00  0.00    -0.205 NA 
HETATM    4  C   UNL     2      -9.935  10.300  65.248  1.00  0.00    -0.317 C  
ENDROOT
BRANCH   3   5
HETATM    5  C   UNL     2     -10.726  12.157  66.500  1.00  0.00    -0.255 A  
HETATM    6  C   UNL     2      -9.562  12.871  66.781  1.00  0.00    -0.246 A  
HETATM    7  C   UNL     2      -9.585  14.261  66.988  1.00  0.00    -0.257 A  
HETATM    8  S   UNL     2      -8.026  15.027  67.390  1.00  0.00    -0.206 SA 
HETATM    9  C   UNL     2      -8.544  16.693  67.755  1.00  0.00    -0.192 A  
HETATM   10  C   UNL     2      -9.875  17.106  67.587  1.00  0.00    -0.270 A  
HETATM   11  N   UNL     2     -10.908  16.332  67.161  1.00  0.00    -0.248 NA 
HETATM   12  C   UNL     2     -10.131  18.429  67.903  1.00  0.00    -0.384 A  
HETATM   13  C   UNL     2      -9.128  19.313  68.358  1.00  0.00    -0.408 A  
HETATM   14  C   UNL     2     -10.777  15.005  66.907  1.00  0.00    -0.308 A  
HETATM   15  C   UNL     2     -11.913  14.295  66.543  1.00  0.00    -0.448 A  
HETATM   16  C   UNL     2      -7.798  18.908  68.514  1.00  0.00    -0.337 A  
HETATM   17  C   UNL     2     -11.902  12.901  66.345  1.00  0.00    -0.478 A  
HETATM   18  C   UNL     2      -7.542  17.568  68.213  1.00  0.00    -0.240 A  
BRANCH  16  19
HETATM   19  N   UNL     2      -6.793  19.774  68.902  1.00  0.00    -0.329 NA 
HETATM   20  C   UNL     2      -6.368  19.880  70.296  1.00  0.00    -0.293 C  
HETATM   21  C   UNL     2      -6.225  20.759  67.993  1.00  0.00    -0.328 C  
ENDBRANCH  16  19
ENDBRANCH   3   5
TORSDOF 2
ENDMDL
MODEL       20
REMARK 921   NORMALIZED FREE ENERGY PREDICTED BY IDOCK:   -5.40 KCAL/MOL
REMARK 922        TOTAL FREE ENERGY PREDICTED BY IDOCK:   -6.23 KCAL/MOL
REMARK 923 INTER-LIGAND FREE ENERGY PREDICTED BY IDOCK:   -6.04 KCAL/MOL
REMARK 924 INTRA-LIGAND FREE ENERGY PREDICTED BY IDOCK:   -0.19 KCAL/MOL
REMARK 927      BINDING AFFINITY PREDICTED BY RF-SCORE:    0.00 PKD
ROOT
HETATM    1 CL   UNL     1      -6.347   8.048  68.825  1.00  0.00    -0.043 Cl 
HETATM    2  C   UNL     2     -10.324   8.068  68.157  1.00  0.00    -0.200 C  
HETATM    3  N   UNL     2     -10.635   9.044  67.098  1.00  0.00    -0.261 NA 
HETATM    4  C   UNL     2      -9.704   8.989  65.962  1.00  0.00    -0.269 C  
ENDROOT
BRANCH   3   5
HETATM    5  C   UNL     2     -10.811  10.367  67.547  1.00  0.00    -0.301 A  
HETATM    6  C   UNL     2     -10.582  11.488  66.749  1.00  0.00    -0.289 A  
HETATM    7  C   UNL     2     -10.685  12.791  67.266  1.00  0.00    -0.237 A  
HETATM    8  S   UNL     2     -10.313  14.120  66.139  1.00  0.00    -0.309 SA 
HETATM    9  C   UNL     2     -10.370  15.527  67.232  1.00  0.00    -0.267 A  
HETATM   10  C   UNL     2     -10.750  15.401  68.577  1.00  0.00    -0.256 A  
HETATM   11  N   UNL     2     -11.094  14.248  69.210  1.00  0.00    -0.263 NA 
HETATM   12  C   UNL     2     -10.756  16.578  69.306  1.00  0.00    -0.331 A  
HETATM   13  C   UNL     2     -10.410  17.826  68.742  1.00  0.00    -0.332 A  
HETATM   14  C   UNL     2     -11.041  13.033  68.607  1.00  0.00    -0.269 A  
HETATM   15  C   UNL     2     -11.348  11.913  69.366  1.00  0.00    -0.327 A  
HETATM   16  C   UNL     2     -10.043  17.957  67.399  1.00  0.00    -0.340 A  
HETATM   17  C   UNL     2     -11.236  10.603  68.861  1.00  0.00    -0.333 A  
HETATM   18  C   UNL     2     -10.019  16.767  66.666  1.00  0.00    -0.300 A  
BRANCH  16  19
HETATM   19  N   UNL     2      -9.758  19.178  66.816  1.00  0.00    -0.320 NA 
HETATM   20  C   UNL     2      -8.649  20.009  67.279  1.00  0.00    -0.335 C  
HETATM   21  C   UNL     2     -10.644  19.795  65.839  1.00  0.00    -0.453 C  
ENDBRANCH  16  19
ENDBRANCH   3   5
TORSDOF 2
ENDMDL
MODEL       21
REMARK 921   NORMALIZED FREE ENERGY PREDICTED BY IDOCK:   -5.38 KCAL/MOL
REMARK 922        TOTAL FREE ENERGY PREDICTED BY IDOCK:   -6.20 KCAL/MOL
REMARK 923 INTER-LIGAND FREE ENERGY PREDICTED BY IDOCK:   -6.01 KCAL/MOL
REMARK 924 INTRA-LIGAND FREE ENERGY PREDICTED BY IDOCK:   -0.19 KCAL/MOL
REMARK 927      BINDING AFFINITY PREDICTED BY RF-SCORE:    0.00 PKD
ROOT
HETATM    1 CL   UNL     1      -8.704   8.000  73.991  1.00  0.00    -0.315 Cl 
HETATM    2  C   UNL     2     -11.711   6.701  71.638  1.00  0.00    -0.316 C  
HETATM    3  N   UNL     2     -11.147   6.055  70.440  1.00  0.00    -0.334 NA 
HETATM    4  C   UNL     2     -10.014   5.166  70.734  1.00  0.00    -0.215 C  
ENDROOT
BRANCH   3   5
HETATM    5  C   UNL     2     -10.842   6.934  69.383  1.00  0.00    -0.249 A  
HETATM    6  C   UNL     2     -10.686   8.310  69.548  1.00  0.00    -0.179 A  
HETATM    7  C   UNL     2     -10.471   9.162  68.451  1.00  0.00    -0.199 A  
HETATM    8  S   UNL     2     -10.341  10.902  68.814  1.00  0.00    -0.206 SA 
HETATM    9  C   UNL     2     -10.280  11.594  67.173  1.00  0.00    -0.213 A  
HETATM   10  C   UNL     2     -10.236  10.781  66.030  1.00  0.00    -0.251 A  
HETATM   11  N   UNL     2     -10.251   9.422  66.011  1.00  0.00    -0.226 NA 
HETATM   12  C   UNL     2     -10.184  11.455  64.822  1.00  0.00    -0.338 A  
HETATM   13  C   UNL     2     -10.169  12.865  64.735  1.00  0.00    -0.307 A  
HETATM   14  C   UNL     2     -10.384   8.671  67.134  1.00  0.00    -0.299 A  
HETATM   15  C   UNL     2     -10.457   7.292  66.993  1.00  0.00    -0.398 A  
HETATM   16  C   UNL     2     -10.199  13.678  65.872  1.00  0.00    -0.311 A  
HETATM   17  C   UNL     2     -10.685   6.432  68.085  1.00  0.00    -0.359 A  
HETATM   18  C   UNL     2     -10.271  12.999  67.092  1.00  0.00    -0.243 A  
BRANCH  16  19
HETATM   19  N   UNL     2     -10.127  15.057  65.808  1.00  0.00    -0.316 NA 
HETATM   20  C   UNL     2     -11.029  15.835  64.961  1.00  0.00    -0.417 C  
HETATM   21  C   UNL     2      -9.042  15.805  66.428  1.00  0.00    -0.322 C  
ENDBRANCH  16  19
ENDBRANCH   3   5
TORSDOF 2
ENDMDL
MODEL       22
REMARK 921   NORMALIZED FREE ENERGY PREDICTED BY IDOCK:   -5.37 KCAL/MOL
REMARK 922        TOTAL FREE ENERGY PREDICTED BY IDOCK:   -6.19 KCAL/MOL
REMARK 923 INTER-LIGAND FREE ENERGY PREDICTED BY IDOCK:   -6.00 KCAL/MOL
REMARK 924 INTRA-LIGAND FREE ENERGY PREDICTED BY IDOCK:   -0.20 KCAL/MOL
REMARK 927      BINDING AFFINITY PREDICTED BY RF-SCORE:    0.00 PKD
ROOT
HETATM    1 CL   UNL     1     -11.280  16.411  64.546  1.00  0.00    -0.332 Cl 
HETATM    2  C   UNL     2     -10.075  12.612  63.926  1.00  0.00    -0.221 C  
HETATM    3  N   UNL     2     -11.134  11.688  64.367  1.00  0.00    -0.329 NA 
HETATM    4  C   UNL     2     -12.482  12.103  63.952  1.00  0.00    -0.478 C  
ENDROOT
BRANCH   3   5
HETATM    5  C   UNL     2     -11.101  11.362  65.737  1.00  0.00    -0.153 A  
HETATM    6  C   UNL     2     -10.652  10.135  66.224  1.00  0.00    -0.121 A  
HETATM    7  C   UNL     2     -10.720   9.819  67.592  1.00  0.00    -0.274 A  
HETATM    8  S   UNL     2     -10.154   8.194  68.058  1.00  0.00    -0.205 SA 
HETATM    9  C   UNL     2     -10.597   8.155  69.784  1.00  0.00    -0.231 A  
HETATM   10  C   UNL     2     -11.134   9.277  70.433  1.00  0.00    -0.255 A  
HETATM   11  N   UNL     2     -11.398  10.484  69.866  1.00  0.00    -0.286 NA 
HETATM   12  C   UNL     2     -11.424   9.105  71.776  1.00  0.00    -0.452 A  
HETATM   13  C   UNL     2     -11.193   7.889  72.457  1.00  0.00    -0.436 A  
HETATM   14  C   UNL     2     -11.227  10.727  68.541  1.00  0.00    -0.279 A  
HETATM   15  C   UNL     2     -11.592  11.975  68.054  1.00  0.00    -0.407 A  
HETATM   16  C   UNL     2     -10.644   6.774  71.816  1.00  0.00    -0.213 A  
HETATM   17  C   UNL     2     -11.539  12.296  66.684  1.00  0.00    -0.438 A  
HETATM   18  C   UNL     2     -10.369   6.940  70.456  1.00  0.00    -0.224 A  
BRANCH  16  19
HETATM   19  N   UNL     2     -10.357   5.595  72.480  1.00  0.00    -0.194 NA 
HETATM   20  C   UNL     2      -9.998   4.377  71.758  1.00  0.00    -0.186 C  
HETATM   21  C   UNL     2     -10.571   5.442  73.912  1.00  0.00    -0.285 C  
ENDBRANCH  16  19
ENDBRANCH   3   5
TORSDOF 2
ENDMDL
MODEL       23
REMARK 921   NORMALIZED FREE ENERGY PREDICTED BY IDOCK:   -5.36 KCAL/MOL
REMARK 922        TOTAL FREE ENERGY PREDICTED BY IDOCK:   -6.17 KCAL/MOL
REMARK 923 INTER-LIGAND FREE ENERGY PREDICTED BY IDOCK:   -5.99 KCAL/MOL
REMARK 924 INTRA-LIGAND FREE ENERGY PREDICTED BY IDOCK:   -0.19 KCAL/MOL
REMARK 927      BINDING AFFINITY PREDICTED BY RF-SCORE:    0.00 PKD
ROOT
HETATM    1 CL   UNL     1     -10.378   8.885  71.065  1.00  0.00    -0.293 Cl 
HETATM    2  C   UNL     2     -10.465   7.845  67.169  1.00  0.00    -0.344 C  
HETATM    3  N   UNL     2      -9.302   8.435  66.482  1.00  0.00    -0.186 NA 
HETATM    4  C   UNL     2      -8.051   8.313  67.243  1.00  0.00    -0.109 C  
ENDROOT
BRANCH   3   5
HETATM    5  C   UNL     2      -9.494   9.753  66.024  1.00  0.00    -0.211 A  
HETATM    6  C   UNL     2      -9.190  10.883  66.783  1.00  0.00    -0.174 A  
HETATM    7  C   UNL     2      -9.481  12.178  66.321  1.00  0.00    -0.232 A  
HETATM    8  S   UNL     2      -9.080  13.520  67.425  1.00  0.00    -0.230 SA 
HETATM    9  C   UNL     2      -9.780  14.906  66.551  1.00  0.00    -0.276 A  
HETATM   10  C   UNL     2     -10.348  14.764  65.276  1.00  0.00    -0.398 A  
HETATM   11  N   UNL     2     -10.458  13.608  64.569  1.00  0.00    -0.435 NA 
HETATM   12  C   UNL     2     -10.846  15.928  64.714  1.00  0.00    -0.346 A  
HETATM   13  C   UNL     2     -10.786  17.178  65.369  1.00  0.00    -0.097 A  
HETATM   14  C   UNL     2     -10.076  12.404  65.066  1.00  0.00    -0.247 A  
HETATM   15  C   UNL     2     -10.295  11.277  64.286  1.00  0.00    -0.399 A  
HETATM   16  C   UNL     2     -10.208  17.325  66.633  1.00  0.00    -0.319 A  
HETATM   17  C   UNL     2     -10.019   9.975  64.744  1.00  0.00    -0.248 A  
HETATM   18  C   UNL     2      -9.721  16.148  67.210  1.00  0.00    -0.233 A  
BRANCH  16  19
HETATM   19  N   UNL     2     -10.088  18.550  67.263  1.00  0.00    -0.334 NA 
HETATM   20  C   UNL     2      -9.941  18.656  68.713  1.00  0.00    -0.383 C  
HETATM   21  C   UNL     2     -10.283  19.807  66.555  1.00  0.00    -0.492 C  
ENDBRANCH  16  19
ENDBRANCH   3   5
TORSDOF 2
ENDMDL
MODEL       24
REMARK 921   NORMALIZED FREE ENERGY PREDICTED BY IDOCK:   -5.29 KCAL/MOL
REMARK 922        TOTAL FREE ENERGY PREDICTED BY IDOCK:   -6.10 KCAL/MOL
REMARK 923 INTER-LIGAND FREE ENERGY PREDICTED BY IDOCK:   -5.91 KCAL/MOL
REMARK 924 INTRA-LIGAND FREE ENERGY PREDICTED BY IDOCK:   -0.19 KCAL/MOL
REMARK 927      BINDING AFFINITY PREDICTED BY RF-SCORE:    0.00 PKD
ROOT
HETATM    1 CL   UNL     1      -5.401   8.036  68.054  1.00  0.00    -0.032 Cl 
HETATM    2  C   UNL     2      -8.013   5.262  69.376  1.00  0.00    -0.088 C  
HETATM    3  N   UNL     2      -9.306   5.447  68.694  1.00  0.00    -0.114 NA 
HETATM    4  C   UNL     2      -9.175   5.698  67.252  1.00  0.00    -0.110 C  
ENDROOT
BRANCH   3   5
HETATM    5  C   UNL     2     -10.163   6.387  69.299  1.00  0.00    -0.192 A  
HETATM    6  C   UNL     2     -10.214   7.731  68.929  1.00  0.00    -0.220 A  
HETATM    7  C   UNL     2     -11.020   8.652  69.620  1.00  0.00    -0.091 A  
HETATM    8  S   UNL     2     -10.942  10.344  69.063  1.00  0.00    -0.251 SA 
HETATM    9  C   UNL     2     -11.924  11.162  70.304  1.00  0.00    -0.373 A  
HETATM   10  C   UNL     2     -12.595  10.444  71.305  1.00  0.00    -0.419 A  
HETATM   11  N   UNL     2     -12.579   9.096  71.475  1.00  0.00    -0.328 NA 
HETATM   12  C   UNL     2     -13.327  11.210  72.197  1.00  0.00    -0.270 A  
HETATM   13  C   UNL     2     -13.404  12.617  72.110  1.00  0.00    -0.570 A  
HETATM   14  C   UNL     2     -11.828   8.267  70.706  1.00  0.00    -0.162 A  
HETATM   15  C   UNL     2     -11.832   6.912  71.010  1.00  0.00    -0.411 A  
HETATM   16  C   UNL     2     -12.748  13.335  71.105  1.00  0.00    -0.320 A  
HETATM   17  C   UNL     2     -11.019   5.983  70.332  1.00  0.00    -0.399 A  
HETATM   18  C   UNL     2     -11.994  12.565  70.215  1.00  0.00    -0.364 A  
BRANCH  16  19
HETATM   19  N   UNL     2     -12.859  14.706  70.970  1.00  0.00    -0.331 NA 
HETATM   20  C   UNL     2     -13.992  15.443  71.526  1.00  0.00    -0.501 C  
HETATM   21  C   UNL     2     -11.963  15.476  70.118  1.00  0.00    -0.366 C  
ENDBRANCH  16  19
ENDBRANCH   3   5
TORSDOF 2
ENDMDL
MODEL       25
REMARK 921   NORMALIZED FREE ENERGY PREDICTED BY IDOCK:   -5.28 KCAL/MOL
REMARK 922        TOTAL FREE ENERGY PREDICTED BY IDOCK:   -6.09 KCAL/MOL
REMARK 923 INTER-LIGAND FREE ENERGY PREDICTED BY IDOCK:   -5.91 KCAL/MOL
REMARK 924 INTRA-LIGAND FREE ENERGY PREDICTED BY IDOCK:   -0.18 KCAL/MOL
REMARK 927      BINDING AFFINITY PREDICTED BY RF-SCORE:    0.00 PKD
ROOT
HETATM    1 CL   UNL     1      -7.089   9.290  69.443  1.00  0.00    -0.052 Cl 
HETATM    2  C   UNL     2     -10.364   8.925  67.118  1.00  0.00    -0.281 C  
HETATM    3  N   UNL     2     -10.031   9.326  65.741  1.00  0.00    -0.250 NA 
HETATM    4  C   UNL     2      -8.742   8.796  65.274  1.00  0.00    -0.182 C  
ENDROOT
BRANCH   3   5
HETATM    5  C   UNL     2     -10.136  10.708  65.487  1.00  0.00    -0.280 A  
HETATM    6  C   UNL     2      -9.525  11.683  66.275  1.00  0.00    -0.233 A  
HETATM    7  C   UNL     2      -9.730  13.053  66.037  1.00  0.00    -0.216 A  
HETATM    8  S   UNL     2      -8.924  14.180  67.159  1.00  0.00    -0.232 SA 
HETATM    9  C   UNL     2      -9.600  15.740  66.627  1.00  0.00    -0.247 A  
HETATM   10  C   UNL     2     -10.443  15.836  65.509  1.00  0.00    -0.403 A  
HETATM   11  N   UNL     2     -10.857  14.807  64.724  1.00  0.00    -0.399 NA 
HETATM   12  C   UNL     2     -10.887  17.113  65.208  1.00  0.00    -0.043 A  
HETATM   13  C   UNL     2     -10.519  18.248  65.964  1.00  0.00    -0.380 A  
HETATM   14  C   UNL     2     -10.545  13.512  64.984  1.00  0.00    -0.372 A  
HETATM   15  C   UNL     2     -11.077  12.533  64.157  1.00  0.00    -0.426 A  
HETATM   16  C   UNL     2      -9.669  18.157  67.070  1.00  0.00    -0.307 A  
HETATM   17  C   UNL     2     -10.888  11.158  64.394  1.00  0.00    -0.340 A  
HETATM   18  C   UNL     2      -9.234  16.867  67.387  1.00  0.00    -0.224 A  
BRANCH  16  19
HETATM   19  N   UNL     2      -9.251  19.263  67.786  1.00  0.00    -0.302 NA 
HETATM   20  C   UNL     2      -9.854  19.620  69.068  1.00  0.00    -0.393 C  
HETATM   21  C   UNL     2      -8.324  20.240  67.232  1.00  0.00    -0.347 C  
ENDBRANCH  16  19
ENDBRANCH   3   5
TORSDOF 2
ENDMDL
MODEL       26
REMARK 921   NORMALIZED FREE ENERGY PREDICTED BY IDOCK:   -5.27 KCAL/MOL
REMARK 922        TOTAL FREE ENERGY PREDICTED BY IDOCK:   -6.08 KCAL/MOL
REMARK 923 INTER-LIGAND FREE ENERGY PREDICTED BY IDOCK:   -5.89 KCAL/MOL
REMARK 924 INTRA-LIGAND FREE ENERGY PREDICTED BY IDOCK:   -0.19 KCAL/MOL
REMARK 927      BINDING AFFINITY PREDICTED BY RF-SCORE:    0.00 PKD
ROOT
HETATM    1 CL   UNL     1     -12.805  15.664  70.745  1.00  0.00    -0.503 Cl 
HETATM    2  C   UNL     2     -10.218  14.572  67.850  1.00  0.00    -0.231 C  
HETATM    3  N   UNL     2     -10.899  13.669  66.905  1.00  0.00    -0.282 NA 
HETATM    4  C   UNL     2     -12.253  14.114  66.545  1.00  0.00    -0.433 C  
ENDROOT
BRANCH   3   5
HETATM    5  C   UNL     2     -10.891  12.311  67.276  1.00  0.00    -0.245 A  
HETATM    6  C   UNL     2     -11.137  11.867  68.575  1.00  0.00    -0.290 A  
HETATM    7  C   UNL     2     -11.030  10.509  68.919  1.00  0.00    -0.246 A  
HETATM    8  S   UNL     2     -11.325  10.101  70.630  1.00  0.00    -0.362 SA 
HETATM    9  C   UNL     2     -10.898   8.371  70.652  1.00  0.00    -0.231 A  
HETATM   10  C   UNL     2     -10.558   7.680  69.478  1.00  0.00    -0.227 A  
HETATM   11  N   UNL     2     -10.492   8.207  68.227  1.00  0.00    -0.191 NA 
HETATM   12  C   UNL     2     -10.257   6.339  69.644  1.00  0.00    -0.233 A  
HETATM   13  C   UNL     2     -10.291   5.699  70.903  1.00  0.00    -0.303 A  
HETATM   14  C   UNL     2     -10.688   9.525  67.972  1.00  0.00    -0.212 A  
HETATM   15  C   UNL     2     -10.529   9.969  66.666  1.00  0.00    -0.244 A  
HETATM   16  C   UNL     2     -10.642   6.382  72.072  1.00  0.00    -0.213 A  
HETATM   17  C   UNL     2     -10.621  11.329  66.314  1.00  0.00    -0.315 A  
HETATM   18  C   UNL     2     -10.929   7.740  71.909  1.00  0.00    -0.294 A  
BRANCH  16  19
HETATM   19  N   UNL     2     -10.738   5.758  73.302  1.00  0.00    -0.252 NA 
HETATM   20  C   UNL     2     -10.080   6.299  74.490  1.00  0.00    -0.336 C  
HETATM   21  C   UNL     2     -11.337   4.440  73.458  1.00  0.00    -0.245 C  
ENDBRANCH  16  19
ENDBRANCH   3   5
TORSDOF 2
ENDMDL
MODEL       27
REMARK 921   NORMALIZED FREE ENERGY PREDICTED BY IDOCK:   -5.26 KCAL/MOL
REMARK 922        TOTAL FREE ENERGY PREDICTED BY IDOCK:   -6.07 KCAL/MOL
REMARK 923 INTER-LIGAND FREE ENERGY PREDICTED BY IDOCK:   -5.89 KCAL/MOL
REMARK 924 INTRA-LIGAND FREE ENERGY PREDICTED BY IDOCK:   -0.17 KCAL/MOL
REMARK 927      BINDING AFFINITY PREDICTED BY RF-SCORE:    0.00 PKD
ROOT
HETATM    1 CL   UNL     1      -6.605   4.724  74.395  1.00  0.00    -0.063 Cl 
HETATM    2  C   UNL     2     -10.248   6.453  74.338  1.00  0.00    -0.324 C  
HETATM    3  N   UNL     2     -10.991   5.983  73.156  1.00  0.00    -0.255 NA 
HETATM    4  C   UNL     2     -10.865   4.537  72.924  1.00  0.00    -0.199 C  
ENDROOT
BRANCH   3   5
HETATM    5  C   UNL     2     -10.744   6.711  71.976  1.00  0.00    -0.219 A  
HETATM    6  C   UNL     2     -11.117   8.044  71.803  1.00  0.00    -0.313 A  
HETATM    7  C   UNL     2     -10.931   8.705  70.577  1.00  0.00    -0.238 A  
HETATM    8  S   UNL     2     -11.504  10.392  70.493  1.00  0.00    -0.352 SA 
HETATM    9  C   UNL     2     -11.263  10.753  68.765  1.00  0.00    -0.272 A  
HETATM   10  C   UNL     2     -10.650   9.835  67.898  1.00  0.00    -0.259 A  
HETATM   11  N   UNL     2     -10.194   8.599  68.229  1.00  0.00    -0.193 NA 
HETATM   12  C   UNL     2     -10.522  10.253  66.583  1.00  0.00    -0.260 A  
HETATM   13  C   UNL     2     -10.969  11.517  66.138  1.00  0.00    -0.320 A  
HETATM   14  C   UNL     2     -10.346   8.066  69.468  1.00  0.00    -0.221 A  
HETATM   15  C   UNL     2      -9.903   6.767  69.679  1.00  0.00    -0.173 A  
HETATM   16  C   UNL     2     -11.568  12.439  67.002  1.00  0.00    -0.365 A  
HETATM   17  C   UNL     2     -10.096   6.092  70.900  1.00  0.00    -0.237 A  
HETATM   18  C   UNL     2     -11.714  12.011  68.325  1.00  0.00    -0.396 A  
BRANCH  16  19
HETATM   19  N   UNL     2     -11.958  13.701  66.596  1.00  0.00    -0.402 NA 
HETATM   20  C   UNL     2     -12.701  13.913  65.356  1.00  0.00    -0.490 C  
HETATM   21  C   UNL     2     -11.501  14.908  67.272  1.00  0.00    -0.340 C  
ENDBRANCH  16  19
ENDBRANCH   3   5
TORSDOF 2
ENDMDL
MODEL       28
REMARK 921   NORMALIZED FREE ENERGY PREDICTED BY IDOCK:   -5.26 KCAL/MOL
REMARK 922        TOTAL FREE ENERGY PREDICTED BY IDOCK:   -6.07 KCAL/MOL
REMARK 923 INTER-LIGAND FREE ENERGY PREDICTED BY IDOCK:   -5.88 KCAL/MOL
REMARK 924 INTRA-LIGAND FREE ENERGY PREDICTED BY IDOCK:   -0.18 KCAL/MOL
REMARK 927      BINDING AFFINITY PREDICTED BY RF-SCORE:    0.00 PKD
ROOT
HETATM    1 CL   UNL     1      -9.165   3.707  72.386  1.00  0.00    -0.148 Cl 
HETATM    2  C   UNL     2     -10.637   7.364  73.242  1.00  0.00    -0.392 C  
HETATM    3  N   UNL     2     -11.727   7.681  72.303  1.00  0.00    -0.314 NA 
HETATM    4  C   UNL     2     -12.648   6.558  72.077  1.00  0.00    -0.163 C  
ENDROOT
BRANCH   3   5
HETATM    5  C   UNL     2     -11.311   8.251  71.085  1.00  0.00    -0.263 A  
HETATM    6  C   UNL     2     -11.487   9.597  70.766  1.00  0.00    -0.399 A  
HETATM    7  C   UNL     2     -11.136  10.105  69.503  1.00  0.00    -0.250 A  
HETATM    8  S   UNL     2     -11.467  11.835  69.226  1.00  0.00    -0.325 SA 
HETATM    9  C   UNL     2     -11.071  11.990  67.496  1.00  0.00    -0.275 A  
HETATM   10  C   UNL     2     -10.536  10.919  66.763  1.00  0.00    -0.259 A  
HETATM   11  N   UNL     2     -10.274   9.673  67.236  1.00  0.00    -0.217 NA 
HETATM   12  C   UNL     2     -10.270  11.185  65.430  1.00  0.00    -0.327 A  
HETATM   13  C   UNL     2     -10.512  12.446  64.840  1.00  0.00    -0.327 A  
HETATM   14  C   UNL     2     -10.575   9.289  68.503  1.00  0.00    -0.183 A  
HETATM   15  C   UNL     2     -10.327   7.971  68.862  1.00  0.00    -0.222 A  
HETATM   16  C   UNL     2     -11.033  13.518  65.572  1.00  0.00    -0.288 A  
HETATM   17  C   UNL     2     -10.686   7.450  70.120  1.00  0.00    -0.254 A  
HETATM   18  C   UNL     2     -11.319  13.246  66.912  1.00  0.00    -0.351 A  
BRANCH  16  19
HETATM   19  N   UNL     2     -11.221  14.775  65.026  1.00  0.00    -0.375 NA 
HETATM   20  C   UNL     2     -10.361  15.902  65.381  1.00  0.00    -0.372 C  
HETATM   21  C   UNL     2     -12.386  15.100  64.215  1.00  0.00    -0.178 C  
ENDBRANCH  16  19
ENDBRANCH   3   5
TORSDOF 2
ENDMDL
MODEL       29
REMARK 921   NORMALIZED FREE ENERGY PREDICTED BY IDOCK:   -5.24 KCAL/MOL
REMARK 922        TOTAL FREE ENERGY PREDICTED BY IDOCK:   -6.04 KCAL/MOL
REMARK 923 INTER-LIGAND FREE ENERGY PREDICTED BY IDOCK:   -5.87 KCAL/MOL
REMARK 924 INTRA-LIGAND FREE ENERGY PREDICTED BY IDOCK:   -0.18 KCAL/MOL
REMARK 927      BINDING AFFINITY PREDICTED BY RF-SCORE:    0.00 PKD
ROOT
HETATM    1 CL   UNL     1      -9.495   3.546  68.951  1.00  0.00    -0.233 Cl 
HETATM    2  C   UNL     2      -8.719   6.017  72.043  1.00  0.00    -0.136 C  
HETATM    3  N   UNL     2      -9.990   6.486  72.621  1.00  0.00    -0.170 NA 
HETATM    4  C   UNL     2     -10.991   5.421  72.771  1.00  0.00    -0.277 C  
ENDROOT
BRANCH   3   5
HETATM    5  C   UNL     2     -10.542   7.619  71.993  1.00  0.00    -0.220 A  
HETATM    6  C   UNL     2      -9.944   8.267  70.913  1.00  0.00    -0.223 A  
HETATM    7  C   UNL     2     -10.484   9.447  70.374  1.00  0.00    -0.256 A  
HETATM    8  S   UNL     2      -9.580  10.188  69.028  1.00  0.00    -0.207 SA 
HETATM    9  C   UNL     2     -10.479  11.711  68.804  1.00  0.00    -0.204 A  
HETATM   10  C   UNL     2     -11.644  11.993  69.533  1.00  0.00    -0.321 A  
HETATM   11  N   UNL     2     -12.214  11.198  70.476  1.00  0.00    -0.357 NA 
HETATM   12  C   UNL     2     -12.242  13.210  69.250  1.00  0.00    -0.165 A  
HETATM   13  C   UNL     2     -11.725  14.110  68.292  1.00  0.00    -0.383 A  
HETATM   14  C   UNL     2     -11.662  10.027  70.883  1.00  0.00    -0.374 A  
HETATM   15  C   UNL     2     -12.292   9.326  71.902  1.00  0.00    -0.454 A  
HETATM   16  C   UNL     2     -10.571  13.825  67.554  1.00  0.00    -0.244 A  
HETATM   17  C   UNL     2     -11.753   8.150  72.456  1.00  0.00    -0.457 A  
HETATM   18  C   UNL     2      -9.957  12.605  67.852  1.00  0.00    -0.228 A  
BRANCH  16  19
HETATM   19  N   UNL     2     -10.085  14.667  66.572  1.00  0.00    -0.270 NA 
HETATM   20  C   UNL     2     -10.736  14.783  65.269  1.00  0.00    -0.390 C  
HETATM   21  C   UNL     2      -8.803  15.346  66.700  1.00  0.00    -0.295 C  
ENDBRANCH  16  19
ENDBRANCH   3   5
TORSDOF 2
ENDMDL
MODEL       30
REMARK 921   NORMALIZED FREE ENERGY PREDICTED BY IDOCK:   -5.21 KCAL/MOL
REMARK 922        TOTAL FREE ENERGY PREDICTED BY IDOCK:   -6.02 KCAL/MOL
REMARK 923 INTER-LIGAND FREE ENERGY PREDICTED BY IDOCK:   -5.82 KCAL/MOL
REMARK 924 INTRA-LIGAND FREE ENERGY PREDICTED BY IDOCK:   -0.20 KCAL/MOL
REMARK 927      BINDING AFFINITY PREDICTED BY RF-SCORE:    0.00 PKD
ROOT
HETATM    1 CL   UNL     1     -12.137   8.604  71.591  1.00  0.00    -0.359 Cl 
HETATM    2  C   UNL     2     -10.581   7.277  68.114  1.00  0.00    -0.177 C  
HETATM    3  N   UNL     2      -9.326   7.998  67.837  1.00  0.00    -0.138 NA 
HETATM    4  C   UNL     2      -8.461   8.140  69.017  1.00  0.00    -0.129 C  
ENDROOT
BRANCH   3   5
HETATM    5  C   UNL     2      -9.486   9.229  67.172  1.00  0.00    -0.149 A  
HETATM    6  C   UNL     2      -9.264  10.465  67.778  1.00  0.00    -0.148 A  
HETATM    7  C   UNL     2      -9.522  11.671  67.103  1.00  0.00    -0.176 A  
HETATM    8  S   UNL     2      -9.237  13.170  68.026  1.00  0.00    -0.215 SA 
HETATM    9  C   UNL     2      -9.865  14.396  66.895  1.00  0.00    -0.261 A  
HETATM   10  C   UNL     2     -10.313  14.054  65.610  1.00  0.00    -0.329 A  
HETATM   11  N   UNL     2     -10.346  12.804  65.077  1.00  0.00    -0.300 NA 
HETATM   12  C   UNL     2     -10.767  15.110  64.838  1.00  0.00    -0.421 A  
HETATM   13  C   UNL     2     -10.778  16.444  65.301  1.00  0.00    -0.312 A  
HETATM   14  C   UNL     2     -10.001  11.695  65.780  1.00  0.00    -0.237 A  
HETATM   15  C   UNL     2     -10.138  10.460  65.161  1.00  0.00    -0.379 A  
HETATM   16  C   UNL     2     -10.321  16.790  66.576  1.00  0.00    -0.301 A  
HETATM   17  C   UNL     2      -9.893   9.247  65.832  1.00  0.00    -0.335 A  
HETATM   18  C   UNL     2      -9.879  15.722  67.363  1.00  0.00    -0.233 A  
BRANCH  16  19
HETATM   19  N   UNL     2     -10.270  18.097  67.025  1.00  0.00    -0.348 NA 
HETATM   20  C   UNL     2     -10.383  19.228  66.106  1.00  0.00    -0.494 C  
HETATM   21  C   UNL     2      -9.920  18.431  68.398  1.00  0.00    -0.379 C  
ENDBRANCH  16  19
ENDBRANCH   3   5
TORSDOF 2
ENDMDL
MODEL       31
REMARK 921   NORMALIZED FREE ENERGY PREDICTED BY IDOCK:   -5.21 KCAL/MOL
REMARK 922        TOTAL FREE ENERGY PREDICTED BY IDOCK:   -6.01 KCAL/MOL
REMARK 923 INTER-LIGAND FREE ENERGY PREDICTED BY IDOCK:   -5.82 KCAL/MOL
REMARK 924 INTRA-LIGAND FREE ENERGY PREDICTED BY IDOCK:   -0.19 KCAL/MOL
REMARK 927      BINDING AFFINITY PREDICTED BY RF-SCORE:    0.00 PKD
ROOT
HETATM    1 CL   UNL     1      -6.360  17.994  66.216  1.00  0.00    -0.231 Cl 
HETATM    2  C   UNL     2     -10.381  17.681  66.235  1.00  0.00    -0.342 C  
HETATM    3  N   UNL     2     -10.814  17.051  67.494  1.00  0.00    -0.263 NA 
HETATM    4  C   UNL     2     -10.117  17.573  68.678  1.00  0.00    -0.361 C  
ENDROOT
BRANCH   3   5
HETATM    5  C   UNL     2     -10.811  15.642  67.482  1.00  0.00    -0.316 A  
HETATM    6  C   UNL     2     -11.292  14.863  68.533  1.00  0.00    -0.314 A  
HETATM    7  C   UNL     2     -11.188  13.462  68.516  1.00  0.00    -0.283 A  
HETATM    8  S   UNL     2     -11.802  12.605  69.954  1.00  0.00    -0.231 SA 
HETATM    9  C   UNL     2     -11.300  10.932  69.601  1.00  0.00    -0.292 A  
HETATM   10  C   UNL     2     -10.694  10.585  68.383  1.00  0.00    -0.224 A  
HETATM   11  N   UNL     2     -10.403  11.432  67.361  1.00  0.00    -0.196 NA 
HETATM   12  C   UNL     2     -10.364   9.248  68.243  1.00  0.00    -0.257 A  
HETATM   13  C   UNL     2     -10.620   8.289  69.248  1.00  0.00    -0.191 A  
HETATM   14  C   UNL     2     -10.611  12.772  67.433  1.00  0.00    -0.229 A  
HETATM   15  C   UNL     2     -10.214  13.554  66.357  1.00  0.00    -0.291 A  
HETATM   16  C   UNL     2     -11.235   8.629  70.457  1.00  0.00    -0.241 A  
HETATM   17  C   UNL     2     -10.303  14.959  66.370  1.00  0.00    -0.291 A  
HETATM   18  C   UNL     2     -11.552   9.982  70.608  1.00  0.00    -0.422 A  
BRANCH  16  19
HETATM   19  N   UNL     2     -11.546   7.695  71.428  1.00  0.00    -0.267 NA 
HETATM   20  C   UNL     2     -10.507   6.950  72.136  1.00  0.00    -0.206 C  
HETATM   21  C   UNL     2     -12.914   7.262  71.676  1.00  0.00    -0.372 C  
ENDBRANCH  16  19
ENDBRANCH   3   5
TORSDOF 2
ENDMDL
MODEL       32
REMARK 921   NORMALIZED FREE ENERGY PREDICTED BY IDOCK:   -5.21 KCAL/MOL
REMARK 922        TOTAL FREE ENERGY PREDICTED BY IDOCK:   -6.01 KCAL/MOL
REMARK 923 INTER-LIGAND FREE ENERGY PREDICTED BY IDOCK:   -5.82 KCAL/MOL
REMARK 924 INTRA-LIGAND FREE ENERGY PREDICTED BY IDOCK:   -0.19 KCAL/MOL
REMARK 927      BINDING AFFINITY PREDICTED BY RF-SCORE:    0.00 PKD
ROOT
HETATM    1 CL   UNL     1     -10.897  11.937  63.425  1.00  0.00    -0.467 Cl 
HETATM    2  C   UNL     2     -12.441  13.954  66.558  1.00  0.00    -0.321 C  
HETATM    3  N   UNL     2     -11.437  14.023  67.634  1.00  0.00    -0.315 NA 
HETATM    4  C   UNL     2     -10.087  14.345  67.152  1.00  0.00    -0.253 C  
ENDROOT
BRANCH   3   5
HETATM    5  C   UNL     2     -11.418  12.910  68.497  1.00  0.00    -0.310 A  
HETATM    6  C   UNL     2     -10.738  11.728  68.211  1.00  0.00    -0.246 A  
HETATM    7  C   UNL     2     -10.819  10.610  69.060  1.00  0.00    -0.235 A  
HETATM    8  S   UNL     2      -9.935   9.153  68.536  1.00  0.00    -0.179 SA 
HETATM    9  C   UNL     2     -10.466   7.969  69.758  1.00  0.00    -0.227 A  
HETATM   10  C   UNL     2     -11.281   8.339  70.839  1.00  0.00    -0.265 A  
HETATM   11  N   UNL     2     -11.771   9.582  71.086  1.00  0.00    -0.333 NA 
HETATM   12  C   UNL     2     -11.609   7.317  71.714  1.00  0.00    -0.309 A  
HETATM   13  C   UNL     2     -11.154   5.991  71.542  1.00  0.00    -0.336 A  
HETATM   14  C   UNL     2     -11.576  10.631  70.247  1.00  0.00    -0.336 A  
HETATM   15  C   UNL     2     -12.179  11.841  70.561  1.00  0.00    -0.438 A  
HETATM   16  C   UNL     2     -10.331   5.622  70.473  1.00  0.00    -0.258 A  
HETATM   17  C   UNL     2     -12.113  12.962  69.712  1.00  0.00    -0.312 A  
HETATM   18  C   UNL     2     -10.014   6.649  69.579  1.00  0.00    -0.178 A  
BRANCH  16  19
HETATM   19  N   UNL     2      -9.830   4.342  70.322  1.00  0.00    -0.214 NA 
HETATM   20  C   UNL     2      -9.550   3.779  69.003  1.00  0.00    -0.120 C  
HETATM   21  C   UNL     2      -9.723   3.415  71.440  1.00  0.00    -0.164 C  
ENDBRANCH  16  19
ENDBRANCH   3   5
TORSDOF 2
ENDMDL
MODEL       33
REMARK 921   NORMALIZED FREE ENERGY PREDICTED BY IDOCK:   -5.19 KCAL/MOL
REMARK 922        TOTAL FREE ENERGY PREDICTED BY IDOCK:   -5.99 KCAL/MOL
REMARK 923 INTER-LIGAND FREE ENERGY PREDICTED BY IDOCK:   -5.80 KCAL/MOL
REMARK 924 INTRA-LIGAND FREE ENERGY PREDICTED BY IDOCK:   -0.19 KCAL/MOL
REMARK 927      BINDING AFFINITY PREDICTED BY RF-SCORE:    0.00 PKD
ROOT
HETATM    1 CL   UNL     1     -10.874   3.476  64.232  1.00  0.00    -0.144 Cl 
HETATM    2  C   UNL     2      -8.142   5.473  66.426  1.00  0.00    -0.105 C  
HETATM    3  N   UNL     2      -8.303   5.115  67.847  1.00  0.00    -0.098 NA 
HETATM    4  C   UNL     2      -8.506   3.676  68.066  1.00  0.00    -0.093 C  
ENDROOT
BRANCH   3   5
HETATM    5  C   UNL     2      -9.262   5.877  68.542  1.00  0.00    -0.117 A  
HETATM    6  C   UNL     2      -9.468   7.239  68.324  1.00  0.00    -0.141 A  
HETATM    7  C   UNL     2     -10.374   7.978  69.104  1.00  0.00    -0.220 A  
HETATM    8  S   UNL     2     -10.492   9.720  68.740  1.00  0.00    -0.225 SA 
HETATM    9  C   UNL     2     -11.560  10.276  70.053  1.00  0.00    -0.276 A  
HETATM   10  C   UNL     2     -12.143   9.377  70.960  1.00  0.00    -0.298 A  
HETATM   11  N   UNL     2     -11.971   8.029  70.979  1.00  0.00    -0.280 NA 
HETATM   12  C   UNL     2     -12.957   9.949  71.924  1.00  0.00    -0.545 A  
HETATM   13  C   UNL     2     -13.195  11.340  71.994  1.00  0.00    -0.437 A  
HETATM   14  C   UNL     2     -11.130   7.383  70.131  1.00  0.00    -0.246 A  
HETATM   15  C   UNL     2     -10.978   6.012  70.281  1.00  0.00    -0.412 A  
HETATM   16  C   UNL     2     -12.627  12.236  71.083  1.00  0.00    -0.253 A  
HETATM   17  C   UNL     2     -10.064   5.264  69.514  1.00  0.00    -0.322 A  
HETATM   18  C   UNL     2     -11.791  11.662  70.121  1.00  0.00    -0.428 A  
BRANCH  16  19
HETATM   19  N   UNL     2     -12.896  13.592  71.100  1.00  0.00    -0.331 NA 
HETATM   20  C   UNL     2     -13.894  14.165  72.000  1.00  0.00    -0.485 C  
HETATM   21  C   UNL     2     -12.344  14.503  70.108  1.00  0.00    -0.342 C  
ENDBRANCH  16  19
ENDBRANCH   3   5
TORSDOF 2
ENDMDL
MODEL       34
REMARK 921   NORMALIZED FREE ENERGY PREDICTED BY IDOCK:   -5.18 KCAL/MOL
REMARK 922        TOTAL FREE ENERGY PREDICTED BY IDOCK:   -5.98 KCAL/MOL
REMARK 923 INTER-LIGAND FREE ENERGY PREDICTED BY IDOCK:   -5.79 KCAL/MOL
REMARK 924 INTRA-LIGAND FREE ENERGY PREDICTED BY IDOCK:   -0.19 KCAL/MOL
REMARK 927      BINDING AFFINITY PREDICTED BY RF-SCORE:    0.00 PKD
ROOT
HETATM    1 CL   UNL     1      -7.146   8.470  72.127  1.00  0.00    -0.114 Cl 
HETATM    2  C   UNL     2     -10.986   9.403  71.321  1.00  0.00    -0.370 C  
HETATM    3  N   UNL     2     -11.261   9.146  69.897  1.00  0.00    -0.162 NA 
HETATM    4  C   UNL     2     -10.702   7.875  69.415  1.00  0.00    -0.168 C  
ENDROOT
BRANCH   3   5
HETATM    5  C   UNL     2     -10.933  10.207  69.031  1.00  0.00    -0.226 A  
HETATM    6  C   UNL     2     -10.889  11.542  69.433  1.00  0.00    -0.180 A  
HETATM    7  C   UNL     2     -10.645  12.577  68.515  1.00  0.00    -0.243 A  
HETATM    8  S   UNL     2     -10.670  14.236  69.168  1.00  0.00    -0.180 SA 
HETATM    9  C   UNL     2     -10.523  15.198  67.675  1.00  0.00    -0.253 A  
HETATM   10  C   UNL     2     -10.327  14.593  66.424  1.00  0.00    -0.289 A  
HETATM   11  N   UNL     2     -10.244  13.258  66.181  1.00  0.00    -0.290 NA 
HETATM   12  C   UNL     2     -10.223  15.464  65.352  1.00  0.00    -0.408 A  
HETATM   13  C   UNL     2     -10.301  16.867  65.499  1.00  0.00    -0.196 A  
HETATM   14  C   UNL     2     -10.415  12.322  67.149  1.00  0.00    -0.219 A  
HETATM   15  C   UNL     2     -10.378  10.985  66.779  1.00  0.00    -0.284 A  
HETATM   16  C   UNL     2     -10.483  17.473  66.746  1.00  0.00    -0.270 A  
HETATM   17  C   UNL     2     -10.633   9.941  67.689  1.00  0.00    -0.325 A  
HETATM   18  C   UNL     2     -10.607  16.594  67.826  1.00  0.00    -0.342 A  
BRANCH  16  19
HETATM   19  N   UNL     2     -10.504  18.845  66.915  1.00  0.00    -0.405 NA 
HETATM   20  C   UNL     2     -10.596  19.757  65.777  1.00  0.00    -0.419 C  
HETATM   21  C   UNL     2     -10.252  19.469  68.206  1.00  0.00    -0.443 C  
ENDBRANCH  16  19
ENDBRANCH   3   5
TORSDOF 2
ENDMDL
MODEL       35
REMARK 921   NORMALIZED FREE ENERGY PREDICTED BY IDOCK:   -5.18 KCAL/MOL
REMARK 922        TOTAL FREE ENERGY PREDICTED BY IDOCK:   -5.98 KCAL/MOL
REMARK 923 INTER-LIGAND FREE ENERGY PREDICTED BY IDOCK:   -5.80 KCAL/MOL
REMARK 924 INTRA-LIGAND FREE ENERGY PREDICTED BY IDOCK:   -0.18 KCAL/MOL
REMARK 927      BINDING AFFINITY PREDICTED BY RF-SCORE:    0.00 PKD
ROOT
HETATM    1 CL   UNL     1      -6.459   4.977  71.447  1.00  0.00    -0.030 Cl 
HETATM    2  C   UNL     2     -10.258   4.822  70.101  1.00  0.00    -0.189 C  
HETATM    3  N   UNL     2     -10.280   5.156  68.666  1.00  0.00    -0.154 NA 
HETATM    4  C   UNL     2      -9.207   4.507  67.900  1.00  0.00    -0.131 C  
ENDROOT
BRANCH   3   5
HETATM    5  C   UNL     2     -10.348   6.533  68.381  1.00  0.00    -0.189 A  
HETATM    6  C   UNL     2     -10.596   7.507  69.348  1.00  0.00    -0.225 A  
HETATM    7  C   UNL     2     -10.744   8.862  69.004  1.00  0.00    -0.126 A  
HETATM    8  S   UNL     2     -11.109   9.982  70.343  1.00  0.00    -0.344 SA 
HETATM    9  C   UNL     2     -11.404  11.498  69.454  1.00  0.00    -0.289 A  
HETATM   10  C   UNL     2     -11.222  11.587  68.065  1.00  0.00    -0.269 A  
HETATM   11  N   UNL     2     -10.832  10.579  67.240  1.00  0.00    -0.286 NA 
HETATM   12  C   UNL     2     -11.481  12.828  67.509  1.00  0.00    -0.390 A  
HETATM   13  C   UNL     2     -11.897  13.937  68.280  1.00  0.00    -0.412 A  
HETATM   14  C   UNL     2     -10.633   9.308  67.674  1.00  0.00    -0.261 A  
HETATM   15  C   UNL     2     -10.302   8.342  66.734  1.00  0.00    -0.361 A  
HETATM   16  C   UNL     2     -12.067  13.855  69.665  1.00  0.00    -0.349 A  
HETATM   17  C   UNL     2     -10.164   6.981  67.067  1.00  0.00    -0.330 A  
HETATM   18  C   UNL     2     -11.823  12.598  70.225  1.00  0.00    -0.295 A  
BRANCH  16  19
HETATM   19  N   UNL     2     -12.416  14.944  70.442  1.00  0.00    -0.340 NA 
HETATM   20  C   UNL     2     -11.460  16.006  70.748  1.00  0.00    -0.414 C  
HETATM   21  C   UNL     2     -13.686  15.015  71.151  1.00  0.00    -0.414 C  
ENDBRANCH  16  19
ENDBRANCH   3   5
TORSDOF 2
ENDMDL
MODEL       36
REMARK 921   NORMALIZED FREE ENERGY PREDICTED BY IDOCK:   -5.18 KCAL/MOL
REMARK 922        TOTAL FREE ENERGY PREDICTED BY IDOCK:   -5.98 KCAL/MOL
REMARK 923 INTER-LIGAND FREE ENERGY PREDICTED BY IDOCK:   -5.78 KCAL/MOL
REMARK 924 INTRA-LIGAND FREE ENERGY PREDICTED BY IDOCK:   -0.20 KCAL/MOL
REMARK 927      BINDING AFFINITY PREDICTED BY RF-SCORE:    0.00 PKD
ROOT
HETATM    1 CL   UNL     1      -8.894   7.653  74.132  1.00  0.00    -0.294 Cl 
HETATM    2  C   UNL     2     -11.737   6.344  71.588  1.00  0.00    -0.313 C  
HETATM    3  N   UNL     2     -11.098   5.863  70.350  1.00  0.00    -0.311 NA 
HETATM    4  C   UNL     2      -9.901   5.045  70.591  1.00  0.00    -0.212 C  
ENDROOT
BRANCH   3   5
HETATM    5  C   UNL     2     -10.848   6.861  69.389  1.00  0.00    -0.249 A  
HETATM    6  C   UNL     2     -10.819   8.223  69.684  1.00  0.00    -0.154 A  
HETATM    7  C   UNL     2     -10.654   9.189  68.677  1.00  0.00    -0.174 A  
HETATM    8  S   UNL     2     -10.688  10.893  69.202  1.00  0.00    -0.233 SA 
HETATM    9  C   UNL     2     -10.651  11.739  67.634  1.00  0.00    -0.205 A  
HETATM   10  C   UNL     2     -10.508  11.043  66.424  1.00  0.00    -0.258 A  
HETATM   11  N   UNL     2     -10.402   9.696  66.279  1.00  0.00    -0.208 NA 
HETATM   12  C   UNL     2     -10.487  11.830  65.284  1.00  0.00    -0.320 A  
HETATM   13  C   UNL     2     -10.596  13.238  65.328  1.00  0.00    -0.325 A  
HETATM   14  C   UNL     2     -10.494   8.835  67.324  1.00  0.00    -0.283 A  
HETATM   15  C   UNL     2     -10.440   7.474  67.055  1.00  0.00    -0.409 A  
HETATM   16  C   UNL     2     -10.724  13.935  66.533  1.00  0.00    -0.277 A  
HETATM   17  C   UNL     2     -10.617   6.498  68.055  1.00  0.00    -0.310 A  
HETATM   18  C   UNL     2     -10.764  13.141  67.682  1.00  0.00    -0.250 A  
BRANCH  16  19
HETATM   19  N   UNL     2     -10.773  15.315  66.598  1.00  0.00    -0.306 NA 
HETATM   20  C   UNL     2     -11.129  16.013  67.831  1.00  0.00    -0.307 C  
HETATM   21  C   UNL     2     -10.656  16.151  65.411  1.00  0.00    -0.380 C  
ENDBRANCH  16  19
ENDBRANCH   3   5
TORSDOF 2
ENDMDL
MODEL       37
REMARK 921   NORMALIZED FREE ENERGY PREDICTED BY IDOCK:   -5.17 KCAL/MOL
REMARK 922        TOTAL FREE ENERGY PREDICTED BY IDOCK:   -5.97 KCAL/MOL
REMARK 923 INTER-LIGAND FREE ENERGY PREDICTED BY IDOCK:   -5.78 KCAL/MOL
REMARK 924 INTRA-LIGAND FREE ENERGY PREDICTED BY IDOCK:   -0.19 KCAL/MOL
REMARK 927      BINDING AFFINITY PREDICTED BY RF-SCORE:    0.00 PKD
ROOT
HETATM    1 CL   UNL     1     -11.380  16.288  68.876  1.00  0.00    -0.339 Cl 
HETATM    2  C   UNL     2     -10.030  14.727  65.410  1.00  0.00    -0.334 C  
HETATM    3  N   UNL     2     -10.995  13.728  64.919  1.00  0.00    -0.354 NA 
HETATM    4  C   UNL     2     -12.394  14.165  65.027  1.00  0.00    -0.440 C  
ENDROOT
BRANCH   3   5
HETATM    5  C   UNL     2     -10.823  12.433  65.445  1.00  0.00    -0.285 A  
HETATM    6  C   UNL     2     -11.163  12.082  66.751  1.00  0.00    -0.376 A  
HETATM    7  C   UNL     2     -10.892  10.801  67.261  1.00  0.00    -0.288 A  
HETATM    8  S   UNL     2     -11.339  10.518  68.964  1.00  0.00    -0.240 SA 
HETATM    9  C   UNL     2     -10.654   8.895  69.235  1.00  0.00    -0.207 A  
HETATM   10  C   UNL     2     -10.062   8.161  68.195  1.00  0.00    -0.198 A  
HETATM   11  N   UNL     2      -9.917   8.567  66.907  1.00  0.00    -0.238 NA 
HETATM   12  C   UNL     2      -9.580   6.912  68.549  1.00  0.00    -0.131 A  
HETATM   13  C   UNL     2      -9.677   6.400  69.863  1.00  0.00    -0.185 A  
HETATM   14  C   UNL     2     -10.281   9.803  66.479  1.00  0.00    -0.219 A  
HETATM   15  C   UNL     2     -10.026  10.138  65.157  1.00  0.00    -0.379 A  
HETATM   16  C   UNL     2     -10.278   7.124  70.897  1.00  0.00    -0.197 A  
HETATM   17  C   UNL     2     -10.282  11.422  64.640  1.00  0.00    -0.347 A  
HETATM   18  C   UNL     2     -10.749   8.392  70.546  1.00  0.00    -0.247 A  
BRANCH  16  19
HETATM   19  N   UNL     2     -10.434   6.616  72.173  1.00  0.00    -0.202 NA 
HETATM   20  C   UNL     2     -10.624   5.187  72.412  1.00  0.00    -0.221 C  
HETATM   21  C   UNL     2     -10.603   7.478  73.335  1.00  0.00    -0.354 C  
ENDBRANCH  16  19
ENDBRANCH   3   5
TORSDOF 2
ENDMDL
MODEL       38
REMARK 921   NORMALIZED FREE ENERGY PREDICTED BY IDOCK:   -5.14 KCAL/MOL
REMARK 922        TOTAL FREE ENERGY PREDICTED BY IDOCK:   -5.93 KCAL/MOL
REMARK 923 INTER-LIGAND FREE ENERGY PREDICTED BY IDOCK:   -5.75 KCAL/MOL
REMARK 924 INTRA-LIGAND FREE ENERGY PREDICTED BY IDOCK:   -0.18 KCAL/MOL
REMARK 927      BINDING AFFINITY PREDICTED BY RF-SCORE:    0.00 PKD
ROOT
HETATM    1 CL   UNL     1      -8.106  15.954  69.104  1.00  0.00    -0.228 Cl 
HETATM    2  C   UNL     2     -12.033  15.048  68.948  1.00  0.00    -0.254 C  
HETATM    3  N   UNL     2     -12.471  14.552  70.265  1.00  0.00    -0.347 NA 
HETATM    4  C   UNL     2     -11.948  15.342  71.389  1.00  0.00    -0.378 C  
ENDROOT
BRANCH   3   5
HETATM    5  C   UNL     2     -12.270  13.174  70.474  1.00  0.00    -0.328 A  
HETATM    6  C   UNL     2     -11.422  12.393  69.690  1.00  0.00    -0.264 A  
HETATM    7  C   UNL     2     -11.321  11.004  69.878  1.00  0.00    -0.287 A  
HETATM    8  S   UNL     2     -10.234  10.132  68.766  1.00  0.00    -0.199 SA 
HETATM    9  C   UNL     2     -10.560   8.440  69.218  1.00  0.00    -0.182 A  
HETATM   10  C   UNL     2     -11.406   8.113  70.290  1.00  0.00    -0.132 A  
HETATM   11  N   UNL     2     -12.075   8.991  71.082  1.00  0.00    -0.295 NA 
HETATM   12  C   UNL     2     -11.561   6.758  70.532  1.00  0.00    -0.426 A  
HETATM   13  C   UNL     2     -10.914   5.766  69.763  1.00  0.00    -0.397 A  
HETATM   14  C   UNL     2     -12.054  10.332  70.875  1.00  0.00    -0.368 A  
HETATM   15  C   UNL     2     -12.829  11.134  71.702  1.00  0.00    -0.524 A  
HETATM   16  C   UNL     2     -10.060   6.089  68.703  1.00  0.00    -0.168 A  
HETATM   17  C   UNL     2     -12.947  12.524  71.514  1.00  0.00    -0.379 A  
HETATM   18  C   UNL     2      -9.916   7.456  68.446  1.00  0.00    -0.177 A  
BRANCH  16  19
HETATM   19  N   UNL     2      -9.373   5.134  67.978  1.00  0.00    -0.116 NA 
HETATM   20  C   UNL     2      -8.013   4.733  68.332  1.00  0.00    -0.084 C  
HETATM   21  C   UNL     2      -9.880   4.604  66.720  1.00  0.00    -0.218 C  
ENDBRANCH  16  19
ENDBRANCH   3   5
TORSDOF 2
ENDMDL
MODEL       39
REMARK 921   NORMALIZED FREE ENERGY PREDICTED BY IDOCK:   -5.11 KCAL/MOL
REMARK 922        TOTAL FREE ENERGY PREDICTED BY IDOCK:   -5.90 KCAL/MOL
REMARK 923 INTER-LIGAND FREE ENERGY PREDICTED BY IDOCK:   -5.71 KCAL/MOL
REMARK 924 INTRA-LIGAND FREE ENERGY PREDICTED BY IDOCK:   -0.18 KCAL/MOL
REMARK 927      BINDING AFFINITY PREDICTED BY RF-SCORE:    0.00 PKD
ROOT
HETATM    1 CL   UNL     1     -12.168  15.680  69.595  1.00  0.00    -0.334 Cl 
HETATM    2  C   UNL     2     -10.200  14.267  66.371  1.00  0.00    -0.291 C  
HETATM    3  N   UNL     2     -11.035  13.260  65.694  1.00  0.00    -0.276 NA 
HETATM    4  C   UNL     2     -12.445  13.657  65.573  1.00  0.00    -0.503 C  
ENDROOT
BRANCH   3   5
HETATM    5  C   UNL     2     -10.916  11.954  66.206  1.00  0.00    -0.302 A  
HETATM    6  C   UNL     2     -11.244  11.608  67.516  1.00  0.00    -0.355 A  
HETATM    7  C   UNL     2     -11.025  10.311  68.010  1.00  0.00    -0.289 A  
HETATM    8  S   UNL     2     -11.447  10.034  69.720  1.00  0.00    -0.140 SA 
HETATM    9  C   UNL     2     -10.838   8.378  69.964  1.00  0.00    -0.225 A  
HETATM   10  C   UNL     2     -10.306   7.625  68.905  1.00  0.00    -0.212 A  
HETATM   11  N   UNL     2     -10.169   8.035  67.617  1.00  0.00    -0.211 NA 
HETATM   12  C   UNL     2      -9.877   6.351  69.239  1.00  0.00    -0.167 A  
HETATM   13  C   UNL     2      -9.970   5.833  70.550  1.00  0.00    -0.252 A  
HETATM   14  C   UNL     2     -10.481   9.291  67.207  1.00  0.00    -0.264 A  
HETATM   15  C   UNL     2     -10.239   9.625  65.882  1.00  0.00    -0.219 A  
HETATM   16  C   UNL     2     -10.513   6.576  71.603  1.00  0.00    -0.213 A  
HETATM   17  C   UNL     2     -10.443  10.925  65.381  1.00  0.00    -0.291 A  
HETATM   18  C   UNL     2     -10.929   7.869  71.272  1.00  0.00    -0.266 A  
BRANCH  16  19
HETATM   19  N   UNL     2     -10.665   6.065  72.879  1.00  0.00    -0.234 NA 
HETATM   20  C   UNL     2     -10.104   6.738  74.048  1.00  0.00    -0.359 C  
HETATM   21  C   UNL     2     -11.227   4.743  73.121  1.00  0.00    -0.308 C  
ENDBRANCH  16  19
ENDBRANCH   3   5
TORSDOF 2
ENDMDL
MODEL       40
REMARK 921   NORMALIZED FREE ENERGY PREDICTED BY IDOCK:   -5.10 KCAL/MOL
REMARK 922        TOTAL FREE ENERGY PREDICTED BY IDOCK:   -5.89 KCAL/MOL
REMARK 923 INTER-LIGAND FREE ENERGY PREDICTED BY IDOCK:   -5.71 KCAL/MOL
REMARK 924 INTRA-LIGAND FREE ENERGY PREDICTED BY IDOCK:   -0.19 KCAL/MOL
REMARK 927      BINDING AFFINITY PREDICTED BY RF-SCORE:    0.00 PKD
ROOT
HETATM    1 CL   UNL     1      -8.789   2.528  66.882  1.00  0.00    -0.137 Cl 
HETATM    2  C   UNL     2      -7.584   3.714  70.543  1.00  0.00    -0.041 C  
HETATM    3  N   UNL     2      -8.695   3.552  71.497  1.00  0.00    -0.086 NA 
HETATM    4  C   UNL     2      -9.417   2.281  71.342  1.00  0.00    -0.137 C  
ENDROOT
BRANCH   3   5
HETATM    5  C   UNL     2      -9.587   4.640  71.556  1.00  0.00    -0.163 A  
HETATM    6  C   UNL     2      -9.466   5.777  70.757  1.00  0.00    -0.197 A  
HETATM    7  C   UNL     2     -10.326   6.878  70.911  1.00  0.00    -0.198 A  
HETATM    8  S   UNL     2     -10.016   8.278  69.853  1.00  0.00    -0.193 SA 
HETATM    9  C   UNL     2     -11.168   9.469  70.509  1.00  0.00    -0.287 A  
HETATM   10  C   UNL     2     -12.077   9.135  71.524  1.00  0.00    -0.351 A  
HETATM   11  N   UNL     2     -12.192   7.925  72.133  1.00  0.00    -0.316 NA 
HETATM   12  C   UNL     2     -12.917  10.158  71.931  1.00  0.00    -0.549 A  
HETATM   13  C   UNL     2     -12.873  11.451  71.365  1.00  0.00    -0.502 A  
HETATM   14  C   UNL     2     -11.362   6.885  71.865  1.00  0.00    -0.263 A  
HETATM   15  C   UNL     2     -11.524   5.714  72.594  1.00  0.00    -0.339 A  
HETATM   16  C   UNL     2     -11.978  11.784  70.344  1.00  0.00    -0.332 A  
HETATM   17  C   UNL     2     -10.660   4.612  72.455  1.00  0.00    -0.243 A  
HETATM   18  C   UNL     2     -11.117  10.757  69.945  1.00  0.00    -0.339 A  
BRANCH  16  19
HETATM   19  N   UNL     2     -11.961  13.027  69.739  1.00  0.00    -0.322 NA 
HETATM   20  C   UNL     2     -12.299  14.243  70.475  1.00  0.00    -0.360 C  
HETATM   21  C   UNL     2     -11.789  13.186  68.302  1.00  0.00    -0.349 C  
ENDBRANCH  16  19
ENDBRANCH   3   5
TORSDOF 2
ENDMDL
MODEL       41
REMARK 921   NORMALIZED FREE ENERGY PREDICTED BY IDOCK:   -5.09 KCAL/MOL
REMARK 922        TOTAL FREE ENERGY PREDICTED BY IDOCK:   -5.88 KCAL/MOL
REMARK 923 INTER-LIGAND FREE ENERGY PREDICTED BY IDOCK:   -5.69 KCAL/MOL
REMARK 924 INTRA-LIGAND FREE ENERGY PREDICTED BY IDOCK:   -0.19 KCAL/MOL
REMARK 927      BINDING AFFINITY PREDICTED BY RF-SCORE:    0.00 PKD
ROOT
HETATM    1 CL   UNL     1      -7.873   6.155  63.845  1.00  0.00    -0.110 Cl 
HETATM    2  C   UNL     2      -8.082   8.094  67.375  1.00  0.00    -0.122 C  
HETATM    3  N   UNL     2      -9.420   8.695  67.521  1.00  0.00    -0.146 NA 
HETATM    4  C   UNL     2     -10.510   7.797  67.116  1.00  0.00    -0.343 C  
ENDROOT
BRANCH   3   5
HETATM    5  C   UNL     2      -9.563   9.968  66.935  1.00  0.00    -0.175 A  
HETATM    6  C   UNL     2      -9.295  11.159  67.609  1.00  0.00    -0.169 A  
HETATM    7  C   UNL     2      -9.538  12.409  67.014  1.00  0.00    -0.211 A  
HETATM    8  S   UNL     2      -9.194  13.842  68.018  1.00  0.00    -0.201 SA 
HETATM    9  C   UNL     2      -9.815  15.149  66.978  1.00  0.00    -0.230 A  
HETATM   10  C   UNL     2     -10.299  14.896  65.685  1.00  0.00    -0.349 A  
HETATM   11  N   UNL     2     -10.377  13.682  65.079  1.00  0.00    -0.372 NA 
HETATM   12  C   UNL     2     -10.743  16.008  64.989  1.00  0.00    -0.400 A  
HETATM   13  C   UNL     2     -10.710  17.312  65.531  1.00  0.00    -0.105 A  
HETATM   14  C   UNL     2     -10.045  12.525  65.706  1.00  0.00    -0.262 A  
HETATM   15  C   UNL     2     -10.226  11.333  65.017  1.00  0.00    -0.339 A  
HETATM   16  C   UNL     2     -10.216  17.569  66.814  1.00  0.00    -0.327 A  
HETATM   17  C   UNL     2      -9.998  10.076  65.608  1.00  0.00    -0.355 A  
HETATM   18  C   UNL     2      -9.785  16.445  67.525  1.00  0.00    -0.231 A  
BRANCH  16  19
HETATM   19  N   UNL     2     -10.123  18.844  67.339  1.00  0.00    -0.341 NA 
HETATM   20  C   UNL     2     -10.104  20.027  66.481  1.00  0.00    -0.482 C  
HETATM   21  C   UNL     2      -9.853  19.083  68.750  1.00  0.00    -0.425 C  
ENDBRANCH  16  19
ENDBRANCH   3   5
TORSDOF 2
ENDMDL
MODEL       42
REMARK 921   NORMALIZED FREE ENERGY PREDICTED BY IDOCK:   -5.02 KCAL/MOL
REMARK 922        TOTAL FREE ENERGY PREDICTED BY IDOCK:   -5.80 KCAL/MOL
REMARK 923 INTER-LIGAND FREE ENERGY PREDICTED BY IDOCK:   -5.61 KCAL/MOL
REMARK 924 INTRA-LIGAND FREE ENERGY PREDICTED BY IDOCK:   -0.19 KCAL/MOL
REMARK 927      BINDING AFFINITY PREDICTED BY RF-SCORE:    0.00 PKD
ROOT
HETATM    1 CL   UNL     1      -6.590   5.188  69.717  1.00  0.00    -0.038 Cl 
HETATM    2  C   UNL     2      -9.959   5.568  67.533  1.00  0.00    -0.160 C  
HETATM    3  N   UNL     2      -9.708   6.484  66.407  1.00  0.00    -0.125 NA 
HETATM    4  C   UNL     2      -8.425   6.242  65.733  1.00  0.00    -0.148 C  
ENDROOT
BRANCH   3   5
HETATM    5  C   UNL     2      -9.877   7.849  66.707  1.00  0.00    -0.248 A  
HETATM    6  C   UNL     2     -10.346   8.314  67.935  1.00  0.00    -0.278 A  
HETATM    7  C   UNL     2     -10.584   9.681  68.161  1.00  0.00    -0.226 A  
HETATM    8  S   UNL     2     -11.231  10.117  69.764  1.00  0.00    -0.272 SA 
HETATM    9  C   UNL     2     -11.559  11.854  69.544  1.00  0.00    -0.327 A  
HETATM   10  C   UNL     2     -11.206  12.528  68.364  1.00  0.00    -0.272 A  
HETATM   11  N   UNL     2     -10.612  11.978  67.272  1.00  0.00    -0.217 NA 
HETATM   12  C   UNL     2     -11.514  13.878  68.335  1.00  0.00    -0.346 A  
HETATM   13  C   UNL     2     -12.137  14.542  69.415  1.00  0.00    -0.328 A  
HETATM   14  C   UNL     2     -10.345  10.651  67.170  1.00  0.00    -0.228 A  
HETATM   15  C   UNL     2      -9.798  10.185  65.982  1.00  0.00    -0.308 A  
HETATM   16  C   UNL     2     -12.477  13.876  70.597  1.00  0.00    -0.366 A  
HETATM   17  C   UNL     2      -9.568   8.816  65.742  1.00  0.00    -0.190 A  
HETATM   18  C   UNL     2     -12.183  12.510  70.621  1.00  0.00    -0.365 A  
BRANCH  16  19
HETATM   19  N   UNL     2     -13.033  14.522  71.686  1.00  0.00    -0.319 NA 
HETATM   20  C   UNL     2     -14.013  13.866  72.549  1.00  0.00    -0.460 C  
HETATM   21  C   UNL     2     -12.823  15.941  71.935  1.00  0.00    -0.393 C  
ENDBRANCH  16  19
ENDBRANCH   3   5
TORSDOF 2
ENDMDL
MODEL       43
REMARK 921   NORMALIZED FREE ENERGY PREDICTED BY IDOCK:   -4.99 KCAL/MOL
REMARK 922        TOTAL FREE ENERGY PREDICTED BY IDOCK:   -5.77 KCAL/MOL
REMARK 923 INTER-LIGAND FREE ENERGY PREDICTED BY IDOCK:   -5.59 KCAL/MOL
REMARK 924 INTRA-LIGAND FREE ENERGY PREDICTED BY IDOCK:   -0.17 KCAL/MOL
REMARK 927      BINDING AFFINITY PREDICTED BY RF-SCORE:    0.00 PKD
ROOT
HETATM    1 CL   UNL     1      -8.817   8.102  73.700  1.00  0.00    -0.322 Cl 
HETATM    2  C   UNL     2     -12.068   9.549  71.802  1.00  0.00    -0.384 C  
HETATM    3  N   UNL     2     -11.896   9.385  70.348  1.00  0.00    -0.158 NA 
HETATM    4  C   UNL     2     -11.353   8.073  69.969  1.00  0.00    -0.011 C  
ENDROOT
BRANCH   3   5
HETATM    5  C   UNL     2     -11.194  10.428  69.714  1.00  0.00    -0.293 A  
HETATM    6  C   UNL     2     -11.522  11.776  69.860  1.00  0.00    -0.285 A  
HETATM    7  C   UNL     2     -10.850  12.778  69.139  1.00  0.00    -0.075 A  
HETATM    8  S   UNL     2     -11.416  14.449  69.393  1.00  0.00    -0.304 SA 
HETATM    9  C   UNL     2     -10.457  15.328  68.175  1.00  0.00    -0.246 A  
HETATM   10  C   UNL     2      -9.477  14.684  67.404  1.00  0.00    -0.201 A  
HETATM   11  N   UNL     2      -9.148  13.367  67.459  1.00  0.00    -0.204 NA 
HETATM   12  C   UNL     2      -8.804  15.492  66.502  1.00  0.00    -0.348 A  
HETATM   13  C   UNL     2      -9.076  16.872  66.364  1.00  0.00    -0.315 A  
HETATM   14  C   UNL     2      -9.802  12.478  68.248  1.00  0.00    -0.227 A  
HETATM   15  C   UNL     2      -9.429  11.142  68.177  1.00  0.00    -0.180 A  
HETATM   16  C   UNL     2     -10.043  17.518  67.140  1.00  0.00    -0.321 A  
HETATM   17  C   UNL     2     -10.104  10.130  68.886  1.00  0.00    -0.211 A  
HETATM   18  C   UNL     2     -10.735  16.700  68.038  1.00  0.00    -0.350 A  
BRANCH  16  19
HETATM   19  N   UNL     2     -10.281  18.878  67.060  1.00  0.00    -0.354 NA 
HETATM   20  C   UNL     2     -10.318  19.722  68.251  1.00  0.00    -0.410 C  
HETATM   21  C   UNL     2     -10.689  19.520  65.818  1.00  0.00    -0.393 C  
ENDBRANCH  16  19
ENDBRANCH   3   5
TORSDOF 2
ENDMDL
MODEL       44
REMARK 921   NORMALIZED FREE ENERGY PREDICTED BY IDOCK:   -4.99 KCAL/MOL
REMARK 922        TOTAL FREE ENERGY PREDICTED BY IDOCK:   -5.76 KCAL/MOL
REMARK 923 INTER-LIGAND FREE ENERGY PREDICTED BY IDOCK:   -5.59 KCAL/MOL
REMARK 924 INTRA-LIGAND FREE ENERGY PREDICTED BY IDOCK:   -0.18 KCAL/MOL
REMARK 927      BINDING AFFINITY PREDICTED BY RF-SCORE:    0.00 PKD
ROOT
HETATM    1 CL   UNL     1      -7.033   6.666  74.427  1.00  0.00    -0.091 Cl 
HETATM    2  C   UNL     2     -10.861   7.255  73.303  1.00  0.00    -0.358 C  
HETATM    3  N   UNL     2     -11.143   6.456  72.098  1.00  0.00    -0.249 NA 
HETATM    4  C   UNL     2     -10.603   5.090  72.163  1.00  0.00    -0.193 C  
ENDROOT
BRANCH   3   5
HETATM    5  C   UNL     2     -10.802   7.080  70.882  1.00  0.00    -0.241 A  
HETATM    6  C   UNL     2     -11.006   8.437  70.631  1.00  0.00    -0.266 A  
HETATM    7  C   UNL     2     -10.734   8.999  69.373  1.00  0.00    -0.191 A  
HETATM    8  S   UNL     2     -11.093  10.736  69.188  1.00  0.00    -0.270 SA 
HETATM    9  C   UNL     2     -10.800  10.967  67.446  1.00  0.00    -0.279 A  
HETATM   10  C   UNL     2     -10.301   9.933  66.638  1.00  0.00    -0.205 A  
HETATM   11  N   UNL     2     -10.003   8.670  67.043  1.00  0.00    -0.223 NA 
HETATM   12  C   UNL     2     -10.116  10.257  65.305  1.00  0.00    -0.359 A  
HETATM   13  C   UNL     2     -10.401  11.538  64.784  1.00  0.00    -0.341 A  
HETATM   14  C   UNL     2     -10.227   8.231  68.308  1.00  0.00    -0.208 A  
HETATM   15  C   UNL     2      -9.949   6.902  68.596  1.00  0.00    -0.149 A  
HETATM   16  C   UNL     2     -10.885  12.575  65.589  1.00  0.00    -0.277 A  
HETATM   17  C   UNL     2     -10.230   6.326  69.850  1.00  0.00    -0.232 A  
HETATM   18  C   UNL     2     -11.090  12.244  66.931  1.00  0.00    -0.341 A  
BRANCH  16  19
HETATM   19  N   UNL     2     -11.114  13.851  65.109  1.00  0.00    -0.320 NA 
HETATM   20  C   UNL     2     -12.232  14.145  64.215  1.00  0.00    -0.420 C  
HETATM   21  C   UNL     2     -10.163  14.935  65.309  1.00  0.00    -0.373 C  
ENDBRANCH  16  19
ENDBRANCH   3   5
TORSDOF 2
ENDMDL
MODEL       45
REMARK 921   NORMALIZED FREE ENERGY PREDICTED BY IDOCK:   -4.93 KCAL/MOL
REMARK 922        TOTAL FREE ENERGY PREDICTED BY IDOCK:   -5.70 KCAL/MOL
REMARK 923 INTER-LIGAND FREE ENERGY PREDICTED BY IDOCK:   -5.51 KCAL/MOL
REMARK 924 INTRA-LIGAND FREE ENERGY PREDICTED BY IDOCK:   -0.20 KCAL/MOL
REMARK 927      BINDING AFFINITY PREDICTED BY RF-SCORE:    0.00 PKD
ROOT
HETATM    1 CL   UNL     1      -9.697   1.835  69.506  1.00  0.00    -0.041 Cl 
HETATM    2  C   UNL     2      -8.197   4.378  72.254  1.00  0.00    -0.108 C  
HETATM    3  N   UNL     2      -9.302   4.941  73.050  1.00  0.00    -0.129 NA 
HETATM    4  C   UNL     2     -10.301   3.940  73.450  1.00  0.00    -0.162 C  
ENDROOT
BRANCH   3   5
HETATM    5  C   UNL     2      -9.915   6.078  72.489  1.00  0.00    -0.176 A  
HETATM    6  C   UNL     2      -9.827   6.410  71.137  1.00  0.00    -0.198 A  
HETATM    7  C   UNL     2     -10.380   7.602  70.637  1.00  0.00    -0.205 A  
HETATM    8  S   UNL     2     -10.143   7.914  68.898  1.00  0.00    -0.200 SA 
HETATM    9  C   UNL     2     -10.803   9.563  68.750  1.00  0.00    -0.142 A  
HETATM   10  C   UNL     2     -11.413  10.213  69.833  1.00  0.00    -0.254 A  
HETATM   11  N   UNL     2     -11.565   9.714  71.088  1.00  0.00    -0.349 NA 
HETATM   12  C   UNL     2     -11.886  11.488  69.572  1.00  0.00    -0.419 A  
HETATM   13  C   UNL     2     -11.772  12.099  68.303  1.00  0.00    -0.401 A  
HETATM   14  C   UNL     2     -11.064   8.510  71.466  1.00  0.00    -0.275 A  
HETATM   15  C   UNL     2     -11.217   8.126  72.792  1.00  0.00    -0.407 A  
HETATM   16  C   UNL     2     -11.176  11.448  67.218  1.00  0.00    -0.304 A  
HETATM   17  C   UNL     2     -10.657   6.941  73.305  1.00  0.00    -0.353 A  
HETATM   18  C   UNL     2     -10.682  10.169  67.486  1.00  0.00    -0.347 A  
BRANCH  16  19
HETATM   19  N   UNL     2     -11.108  12.008  65.956  1.00  0.00    -0.308 NA 
HETATM   20  C   UNL     2     -12.135  12.925  65.466  1.00  0.00    -0.458 C  
HETATM   21  C   UNL     2     -10.122  11.582  64.972  1.00  0.00    -0.270 C  
ENDBRANCH  16  19
ENDBRANCH   3   5
TORSDOF 2
ENDMDL
MODEL       46
REMARK 921   NORMALIZED FREE ENERGY PREDICTED BY IDOCK:   -4.92 KCAL/MOL
REMARK 922        TOTAL FREE ENERGY PREDICTED BY IDOCK:   -5.68 KCAL/MOL
REMARK 923 INTER-LIGAND FREE ENERGY PREDICTED BY IDOCK:   -5.49 KCAL/MOL
REMARK 924 INTRA-LIGAND FREE ENERGY PREDICTED BY IDOCK:   -0.19 KCAL/MOL
REMARK 927      BINDING AFFINITY PREDICTED BY RF-SCORE:    0.00 PKD
ROOT
HETATM    1 CL   UNL     1      -6.153  20.955  63.387  1.00  0.00    -0.317 Cl 
HETATM    2  C   UNL     2      -7.716  21.041  67.104  1.00  0.00    -0.088 C  
HETATM    3  N   UNL     2      -7.372  19.791  67.806  1.00  0.00    -0.271 NA 
HETATM    4  C   UNL     2      -5.975  19.378  67.610  1.00  0.00    -0.198 C  
ENDROOT
BRANCH   3   5
HETATM    5  C   UNL     2      -8.257  18.721  67.573  1.00  0.00    -0.260 A  
HETATM    6  C   UNL     2      -8.150  17.483  68.207  1.00  0.00    -0.268 A  
HETATM    7  C   UNL     2      -9.002  16.415  67.879  1.00  0.00    -0.196 A  
HETATM    8  S   UNL     2      -8.711  14.880  68.738  1.00  0.00    -0.181 SA 
HETATM    9  C   UNL     2      -9.842  13.791  67.894  1.00  0.00    -0.232 A  
HETATM   10  C   UNL     2     -10.728  14.265  66.913  1.00  0.00    -0.290 A  
HETATM   11  N   UNL     2     -10.833  15.547  66.478  1.00  0.00    -0.308 NA 
HETATM   12  C   UNL     2     -11.553  13.308  66.347  1.00  0.00    -0.387 A  
HETATM   13  C   UNL     2     -11.518  11.948  66.726  1.00  0.00    -0.384 A  
HETATM   14  C   UNL     2     -10.014  16.541  66.910  1.00  0.00    -0.271 A  
HETATM   15  C   UNL     2     -10.164  17.801  66.348  1.00  0.00    -0.365 A  
HETATM   16  C   UNL     2     -10.645  11.476  67.712  1.00  0.00    -0.192 A  
HETATM   17  C   UNL     2      -9.309  18.875  66.661  1.00  0.00    -0.348 A  
HETATM   18  C   UNL     2      -9.799  12.437  68.272  1.00  0.00    -0.224 A  
BRANCH  16  19
HETATM   19  N   UNL     2     -10.638  10.160  68.137  1.00  0.00    -0.207 NA 
HETATM   20  C   UNL     2     -10.650   9.812  69.556  1.00  0.00    -0.233 C  
HETATM   21  C   UNL     2     -10.432   9.051  67.217  1.00  0.00    -0.273 C  
ENDBRANCH  16  19
ENDBRANCH   3   5
TORSDOF 2
ENDMDL
MODEL       47
REMARK 921   NORMALIZED FREE ENERGY PREDICTED BY IDOCK:   -4.91 KCAL/MOL
REMARK 922        TOTAL FREE ENERGY PREDICTED BY IDOCK:   -5.67 KCAL/MOL
REMARK 923 INTER-LIGAND FREE ENERGY PREDICTED BY IDOCK:   -5.48 KCAL/MOL
REMARK 924 INTRA-LIGAND FREE ENERGY PREDICTED BY IDOCK:   -0.19 KCAL/MOL
REMARK 927      BINDING AFFINITY PREDICTED BY RF-SCORE:    0.00 PKD
ROOT
HETATM    1 CL   UNL     1      -7.188  20.101  65.695  1.00  0.00    -0.322 Cl 
HETATM    2  C   UNL     2     -10.630  18.653  67.219  1.00  0.00    -0.430 C  
HETATM    3  N   UNL     2     -10.369  17.352  67.859  1.00  0.00    -0.352 NA 
HETATM    4  C   UNL     2      -9.146  17.337  68.675  1.00  0.00    -0.260 C  
ENDROOT
BRANCH   3   5
HETATM    5  C   UNL     2     -10.414  16.246  66.989  1.00  0.00    -0.306 A  
HETATM    6  C   UNL     2      -9.985  14.968  67.346  1.00  0.00    -0.226 A  
HETATM    7  C   UNL     2      -9.965  13.914  66.416  1.00  0.00    -0.297 A  
HETATM    8  S   UNL     2      -9.343  12.351  67.007  1.00  0.00    -0.210 SA 
HETATM    9  C   UNL     2      -9.310  11.401  65.500  1.00  0.00    -0.208 A  
HETATM   10  C   UNL     2      -9.807  11.915  64.292  1.00  0.00    -0.191 A  
HETATM   11  N   UNL     2     -10.341  13.151  64.104  1.00  0.00    -0.373 NA 
HETATM   12  C   UNL     2      -9.723  11.063  63.204  1.00  0.00    -0.398 A  
HETATM   13  C   UNL     2      -9.181   9.761  63.294  1.00  0.00    -0.219 A  
HETATM   14  C   UNL     2     -10.392  14.087  65.086  1.00  0.00    -0.400 A  
HETATM   15  C   UNL     2     -10.896  15.341  64.767  1.00  0.00    -0.379 A  
HETATM   16  C   UNL     2      -8.697   9.242  64.498  1.00  0.00    -0.187 A  
HETATM   17  C   UNL     2     -10.908  16.406  65.688  1.00  0.00    -0.185 A  
HETATM   18  C   UNL     2      -8.764  10.107  65.594  1.00  0.00    -0.173 A  
BRANCH  16  19
HETATM   19  N   UNL     2      -8.217   7.951  64.617  1.00  0.00    -0.126 NA 
HETATM   20  C   UNL     2      -7.865   7.152  63.445  1.00  0.00    -0.104 C  
HETATM   21  C   UNL     2      -8.205   7.243  65.890  1.00  0.00    -0.132 C  
ENDBRANCH  16  19
ENDBRANCH   3   5
TORSDOF 2
ENDMDL
MODEL       48
REMARK 921   NORMALIZED FREE ENERGY PREDICTED BY IDOCK:   -4.85 KCAL/MOL
REMARK 922        TOTAL FREE ENERGY PREDICTED BY IDOCK:   -5.61 KCAL/MOL
REMARK 923 INTER-LIGAND FREE ENERGY PREDICTED BY IDOCK:   -5.41 KCAL/MOL
REMARK 924 INTRA-LIGAND FREE ENERGY PREDICTED BY IDOCK:   -0.20 KCAL/MOL
REMARK 927      BINDING AFFINITY PREDICTED BY RF-SCORE:    0.00 PKD
ROOT
HETATM    1 CL   UNL     1     -10.828  17.197  69.978  1.00  0.00     0.154 Cl 
HETATM    2  C   UNL     2     -14.006  14.880  70.871  1.00  0.00    -0.085 C  
HETATM    3  N   UNL     2     -13.626  13.917  71.920  1.00  0.00    -0.401 NA 
HETATM    4  C   UNL     2     -12.832  14.515  73.002  1.00  0.00    -0.453 C  
ENDROOT
BRANCH   3   5
HETATM    5  C   UNL     2     -13.030  12.732  71.446  1.00  0.00    -0.266 A  
HETATM    6  C   UNL     2     -13.169  11.496  72.076  1.00  0.00    -0.443 A  
HETATM    7  C   UNL     2     -12.484  10.357  71.618  1.00  0.00    -0.370 A  
HETATM    8  S   UNL     2     -12.722   8.861  72.558  1.00  0.00    -0.219 SA 
HETATM    9  C   UNL     2     -11.552   7.770  71.772  1.00  0.00    -0.272 A  
HETATM   10  C   UNL     2     -10.822   8.163  70.640  1.00  0.00    -0.233 A  
HETATM   11  N   UNL     2     -10.884   9.373  70.024  1.00  0.00    -0.232 NA 
HETATM   12  C   UNL     2      -9.955   7.211  70.130  1.00  0.00    -0.190 A  
HETATM   13  C   UNL     2      -9.813   5.926  70.701  1.00  0.00    -0.230 A  
HETATM   14  C   UNL     2     -11.639  10.400  70.493  1.00  0.00    -0.344 A  
HETATM   15  C   UNL     2     -11.577  11.615  69.826  1.00  0.00    -0.389 A  
HETATM   16  C   UNL     2     -10.550   5.526  71.820  1.00  0.00    -0.235 A  
HETATM   17  C   UNL     2     -12.249  12.764  70.283  1.00  0.00    -0.351 A  
HETATM   18  C   UNL     2     -11.411   6.493  72.346  1.00  0.00    -0.306 A  
BRANCH  16  19
HETATM   19  N   UNL     2     -10.466   4.255  72.356  1.00  0.00    -0.162 NA 
HETATM   20  C   UNL     2      -9.749   3.180  71.673  1.00  0.00    -0.164 C  
HETATM   21  C   UNL     2     -11.233   3.856  73.528  1.00  0.00    -0.218 C  
ENDBRANCH  16  19
ENDBRANCH   3   5
TORSDOF 2
ENDMDL
MODEL       49
REMARK 921   NORMALIZED FREE ENERGY PREDICTED BY IDOCK:   -4.84 KCAL/MOL
REMARK 922        TOTAL FREE ENERGY PREDICTED BY IDOCK:   -5.60 KCAL/MOL
REMARK 923 INTER-LIGAND FREE ENERGY PREDICTED BY IDOCK:   -5.41 KCAL/MOL
REMARK 924 INTRA-LIGAND FREE ENERGY PREDICTED BY IDOCK:   -0.19 KCAL/MOL
REMARK 927      BINDING AFFINITY PREDICTED BY RF-SCORE:    0.00 PKD
ROOT
HETATM    1 CL   UNL     1      -6.520   7.920  71.222  1.00  0.00    -0.037 Cl 
HETATM    2  C   UNL     2     -10.391   8.031  70.095  1.00  0.00    -0.215 C  
HETATM    3  N   UNL     2     -10.479   7.842  68.636  1.00  0.00    -0.194 NA 
HETATM    4  C   UNL     2      -9.602   6.776  68.132  1.00  0.00    -0.122 C  
ENDROOT
BRANCH   3   5
HETATM    5  C   UNL     2     -10.335   9.020  67.878  1.00  0.00    -0.235 A  
HETATM    6  C   UNL     2     -10.253  10.293  68.443  1.00  0.00    -0.189 A  
HETATM    7  C   UNL     2     -10.200  11.448  67.645  1.00  0.00    -0.180 A  
HETATM    8  S   UNL     2     -10.148  13.006  68.511  1.00  0.00    -0.144 SA 
HETATM    9  C   UNL     2     -10.290  14.158  67.159  1.00  0.00    -0.265 A  
HETATM   10  C   UNL     2     -10.305  13.729  65.822  1.00  0.00    -0.307 A  
HETATM   11  N   UNL     2     -10.235  12.442  65.391  1.00  0.00    -0.276 NA 
HETATM   12  C   UNL     2     -10.413  14.735  64.876  1.00  0.00    -0.398 A  
HETATM   13  C   UNL     2     -10.498  16.102  65.222  1.00  0.00    -0.356 A  
HETATM   14  C   UNL     2     -10.210  11.383  66.239  1.00  0.00    -0.233 A  
HETATM   15  C   UNL     2     -10.206  10.107  65.690  1.00  0.00    -0.288 A  
HETATM   16  C   UNL     2     -10.470  16.533  66.552  1.00  0.00    -0.270 A  
HETATM   17  C   UNL     2     -10.272   8.944  66.481  1.00  0.00    -0.319 A  
HETATM   18  C   UNL     2     -10.379  15.518  67.509  1.00  0.00    -0.271 A  
BRANCH  16  19
HETATM   19  N   UNL     2     -10.493  17.869  66.907  1.00  0.00    -0.351 NA 
HETATM   20  C   UNL     2     -10.547  18.929  65.902  1.00  0.00    -0.373 C  
HETATM   21  C   UNL     2     -10.280  18.310  68.278  1.00  0.00    -0.385 C  
ENDBRANCH  16  19
ENDBRANCH   3   5
TORSDOF 2
ENDMDL
MODEL       50
REMARK 921   NORMALIZED FREE ENERGY PREDICTED BY IDOCK:   -4.83 KCAL/MOL
REMARK 922        TOTAL FREE ENERGY PREDICTED BY IDOCK:   -5.59 KCAL/MOL
REMARK 923 INTER-LIGAND FREE ENERGY PREDICTED BY IDOCK:   -5.40 KCAL/MOL
REMARK 924 INTRA-LIGAND FREE ENERGY PREDICTED BY IDOCK:   -0.18 KCAL/MOL
REMARK 927      BINDING AFFINITY PREDICTED BY RF-SCORE:    0.00 PKD
ROOT
HETATM    1 CL   UNL     1     -13.611   7.236  71.299  1.00  0.00    -0.398 Cl 
HETATM    2  C   UNL     2     -10.498   7.912  68.825  1.00  0.00    -0.176 C  
HETATM    3  N   UNL     2      -9.640   8.962  69.400  1.00  0.00    -0.161 NA 
HETATM    4  C   UNL     2      -9.405   8.800  70.841  1.00  0.00    -0.214 C  
ENDROOT
BRANCH   3   5
HETATM    5  C   UNL     2     -10.032  10.280  69.092  1.00  0.00    -0.222 A  
HETATM    6  C   UNL     2      -9.144  11.266  68.664  1.00  0.00    -0.153 A  
HETATM    7  C   UNL     2      -9.564  12.590  68.454  1.00  0.00    -0.176 A  
HETATM    8  S   UNL     2      -8.305  13.750  67.955  1.00  0.00    -0.184 SA 
HETATM    9  C   UNL     2      -9.210  15.285  68.002  1.00  0.00    -0.188 A  
HETATM   10  C   UNL     2     -10.586  15.321  68.272  1.00  0.00    -0.244 A  
HETATM   11  N   UNL     2     -11.381  14.252  68.540  1.00  0.00    -0.266 NA 
HETATM   12  C   UNL     2     -11.160  16.582  68.269  1.00  0.00    -0.321 A  
HETATM   13  C   UNL     2     -10.419  17.756  68.008  1.00  0.00    -0.399 A  
HETATM   14  C   UNL     2     -10.901  12.987  68.648  1.00  0.00    -0.259 A  
HETATM   15  C   UNL     2     -11.790  11.978  68.992  1.00  0.00    -0.372 A  
HETATM   16  C   UNL     2      -9.050  17.721  67.725  1.00  0.00    -0.249 A  
HETATM   17  C   UNL     2     -11.377  10.651  69.217  1.00  0.00    -0.346 A  
HETATM   18  C   UNL     2      -8.466  16.451  67.746  1.00  0.00    -0.172 A  
BRANCH  16  19
HETATM   19  N   UNL     2      -8.322  18.854  67.410  1.00  0.00    -0.273 NA 
HETATM   20  C   UNL     2      -7.623  19.627  68.435  1.00  0.00    -0.327 C  
HETATM   21  C   UNL     2      -8.354  19.450  66.082  1.00  0.00    -0.300 C  
ENDBRANCH  16  19
ENDBRANCH   3   5
TORSDOF 2
ENDMDL
MODEL       51
REMARK 921   NORMALIZED FREE ENERGY PREDICTED BY IDOCK:   -4.82 KCAL/MOL
REMARK 922        TOTAL FREE ENERGY PREDICTED BY IDOCK:   -5.58 KCAL/MOL
REMARK 923 INTER-LIGAND FREE ENERGY PREDICTED BY IDOCK:   -5.39 KCAL/MOL
REMARK 924 INTRA-LIGAND FREE ENERGY PREDICTED BY IDOCK:   -0.19 KCAL/MOL
REMARK 927      BINDING AFFINITY PREDICTED BY RF-SCORE:    0.00 PKD
ROOT
HETATM    1 CL   UNL     1      -7.831  16.203  66.985  1.00  0.00    -0.234 Cl 
HETATM    2  C   UNL     2     -11.583  14.794  66.536  1.00  0.00    -0.301 C  
HETATM    3  N   UNL     2     -12.174  14.552  67.864  1.00  0.00    -0.211 NA 
HETATM    4  C   UNL     2     -11.910  15.632  68.825  1.00  0.00    -0.321 C  
ENDROOT
BRANCH   3   5
HETATM    5  C   UNL     2     -11.882  13.292  68.420  1.00  0.00    -0.360 A  
HETATM    6  C   UNL     2     -11.360  12.229  67.683  1.00  0.00    -0.374 A  
HETATM    7  C   UNL     2     -11.167  10.962  68.259  1.00  0.00    -0.286 A  
HETATM    8  S   UNL     2     -10.539   9.690  67.179  1.00  0.00    -0.190 SA 
HETATM    9  C   UNL     2     -10.642   8.258  68.235  1.00  0.00    -0.103 A  
HETATM   10  C   UNL     2     -11.034   8.358  69.579  1.00  0.00    -0.040 A  
HETATM   11  N   UNL     2     -11.389   9.498  70.228  1.00  0.00    -0.249 NA 
HETATM   12  C   UNL     2     -11.062   7.165  70.281  1.00  0.00    -0.303 A  
HETATM   13  C   UNL     2     -10.716   5.927  69.695  1.00  0.00    -0.415 A  
HETATM   14  C   UNL     2     -11.474  10.703  69.608  1.00  0.00    -0.291 A  
HETATM   15  C   UNL     2     -11.913  11.790  70.351  1.00  0.00    -0.422 A  
HETATM   16  C   UNL     2     -10.312   5.825  68.360  1.00  0.00    -0.213 A  
HETATM   17  C   UNL     2     -12.121  13.060  69.781  1.00  0.00    -0.325 A  
HETATM   18  C   UNL     2     -10.301   7.026  67.645  1.00  0.00    -0.270 A  
BRANCH  16  19
HETATM   19  N   UNL     2      -9.914   4.632  67.788  1.00  0.00    -0.128 NA 
HETATM   20  C   UNL     2      -9.105   3.661  68.521  1.00  0.00    -0.147 C  
HETATM   21  C   UNL     2     -10.114   4.346  66.374  1.00  0.00    -0.209 C  
ENDBRANCH  16  19
ENDBRANCH   3   5
TORSDOF 2
ENDMDL
MODEL       52
REMARK 921   NORMALIZED FREE ENERGY PREDICTED BY IDOCK:   -4.81 KCAL/MOL
REMARK 922        TOTAL FREE ENERGY PREDICTED BY IDOCK:   -5.57 KCAL/MOL
REMARK 923 INTER-LIGAND FREE ENERGY PREDICTED BY IDOCK:   -5.38 KCAL/MOL
REMARK 924 INTRA-LIGAND FREE ENERGY PREDICTED BY IDOCK:   -0.18 KCAL/MOL
REMARK 927      BINDING AFFINITY PREDICTED BY RF-SCORE:    0.00 PKD
ROOT
HETATM    1 CL   UNL     1      -5.507   2.901  72.749  1.00  0.00     0.000 Cl 
HETATM    2  C   UNL     2      -9.509   3.313  73.033  1.00  0.00    -0.099 C  
HETATM    3  N   UNL     2     -10.084   3.417  71.680  1.00  0.00    -0.106 NA 
HETATM    4  C   UNL     2      -9.515   2.454  70.728  1.00  0.00    -0.136 C  
ENDROOT
BRANCH   3   5
HETATM    5  C   UNL     2     -10.096   4.719  71.142  1.00  0.00    -0.191 A  
HETATM    6  C   UNL     2     -10.601   5.827  71.822  1.00  0.00    -0.293 A  
HETATM    7  C   UNL     2     -10.674   7.091  71.212  1.00  0.00    -0.221 A  
HETATM    8  S   UNL     2     -11.391   8.400  72.189  1.00  0.00    -0.383 SA 
HETATM    9  C   UNL     2     -11.467   9.720  70.994  1.00  0.00    -0.383 A  
HETATM   10  C   UNL     2     -10.930   9.581  69.705  1.00  0.00    -0.223 A  
HETATM   11  N   UNL     2     -10.324   8.473  69.203  1.00  0.00    -0.216 NA 
HETATM   12  C   UNL     2     -11.054  10.691  68.886  1.00  0.00    -0.314 A  
HETATM   13  C   UNL     2     -11.672  11.888  69.312  1.00  0.00    -0.389 A  
HETATM   14  C   UNL     2     -10.227   7.309  69.895  1.00  0.00    -0.205 A  
HETATM   15  C   UNL     2      -9.649   6.218  69.261  1.00  0.00    -0.147 A  
HETATM   16  C   UNL     2     -12.195  12.034  70.600  1.00  0.00    -0.316 A  
HETATM   17  C   UNL     2      -9.583   4.945  69.859  1.00  0.00    -0.252 A  
HETATM   18  C   UNL     2     -12.087  10.909  71.422  1.00  0.00    -0.241 A  
BRANCH  16  19
HETATM   19  N   UNL     2     -12.750  13.217  71.053  1.00  0.00    -0.316 NA 
HETATM   20  C   UNL     2     -12.428  14.501  70.434  1.00  0.00    -0.347 C  
HETATM   21  C   UNL     2     -13.537  13.285  72.276  1.00  0.00    -0.605 C  
ENDBRANCH  16  19
ENDBRANCH   3   5
TORSDOF 2
ENDMDL
MODEL       53
REMARK 921   NORMALIZED FREE ENERGY PREDICTED BY IDOCK:   -4.76 KCAL/MOL
REMARK 922        TOTAL FREE ENERGY PREDICTED BY IDOCK:   -5.51 KCAL/MOL
REMARK 923 INTER-LIGAND FREE ENERGY PREDICTED BY IDOCK:   -5.33 KCAL/MOL
REMARK 924 INTRA-LIGAND FREE ENERGY PREDICTED BY IDOCK:   -0.18 KCAL/MOL
REMARK 927      BINDING AFFINITY PREDICTED BY RF-SCORE:    0.00 PKD
ROOT
HETATM    1 CL   UNL     1     -10.403  17.530  66.359  1.00  0.00    -0.349 Cl 
HETATM    2  C   UNL     2     -10.361  13.765  64.915  1.00  0.00    -0.398 C  
HETATM    3  N   UNL     2     -11.549  13.043  65.405  1.00  0.00    -0.327 NA 
HETATM    4  C   UNL     2     -12.784  13.837  65.337  1.00  0.00    -0.472 C  
ENDROOT
BRANCH   3   5
HETATM    5  C   UNL     2     -11.397  12.445  66.671  1.00  0.00    -0.339 A  
HETATM    6  C   UNL     2     -10.520  11.391  66.923  1.00  0.00    -0.278 A  
HETATM    7  C   UNL     2     -10.465  10.766  68.181  1.00  0.00    -0.185 A  
HETATM    8  S   UNL     2      -9.330   9.400  68.336  1.00  0.00    -0.133 SA 
HETATM    9  C   UNL     2      -9.727   8.805  69.969  1.00  0.00    -0.173 A  
HETATM   10  C   UNL     2     -10.648   9.471  70.793  1.00  0.00    -0.317 A  
HETATM   11  N   UNL     2     -11.345  10.593  70.475  1.00  0.00    -0.311 NA 
HETATM   12  C   UNL     2     -10.853   8.900  72.038  1.00  0.00    -0.404 A  
HETATM   13  C   UNL     2     -10.182   7.731  72.461  1.00  0.00    -0.320 A  
HETATM   14  C   UNL     2     -11.278  11.180  69.253  1.00  0.00    -0.267 A  
HETATM   15  C   UNL     2     -12.084  12.284  69.013  1.00  0.00    -0.197 A  
HETATM   16  C   UNL     2      -9.253   7.074  71.647  1.00  0.00    -0.142 A  
HETATM   17  C   UNL     2     -12.155  12.909  67.753  1.00  0.00    -0.218 A  
HETATM   18  C   UNL     2      -9.059   7.638  70.383  1.00  0.00    -0.152 A  
BRANCH  16  19
HETATM   19  N   UNL     2      -8.545   5.963  72.067  1.00  0.00    -0.136 NA 
HETATM   20  C   UNL     2      -7.747   5.166  71.138  1.00  0.00    -0.096 C  
HETATM   21  C   UNL     2      -8.691   5.412  73.407  1.00  0.00    -0.115 C  
ENDBRANCH  16  19
ENDBRANCH   3   5
TORSDOF 2
ENDMDL
MODEL       54
REMARK 921   NORMALIZED FREE ENERGY PREDICTED BY IDOCK:   -4.74 KCAL/MOL
REMARK 922        TOTAL FREE ENERGY PREDICTED BY IDOCK:   -5.49 KCAL/MOL
REMARK 923 INTER-LIGAND FREE ENERGY PREDICTED BY IDOCK:   -5.30 KCAL/MOL
REMARK 924 INTRA-LIGAND FREE ENERGY PREDICTED BY IDOCK:   -0.18 KCAL/MOL
REMARK 927      BINDING AFFINITY PREDICTED BY RF-SCORE:    0.00 PKD
ROOT
HETATM    1 CL   UNL     1      -8.224  16.215  66.274  1.00  0.00    -0.336 Cl 
HETATM    2  C   UNL     2     -10.421  13.249  64.648  1.00  0.00    -0.402 C  
HETATM    3  N   UNL     2     -11.541  12.924  65.549  1.00  0.00    -0.340 NA 
HETATM    4  C   UNL     2     -12.211  14.110  66.100  1.00  0.00    -0.442 C  
ENDROOT
BRANCH   3   5
HETATM    5  C   UNL     2     -11.234  11.995  66.562  1.00  0.00    -0.334 A  
HETATM    6  C   UNL     2     -10.709  10.728  66.311  1.00  0.00    -0.205 A  
HETATM    7  C   UNL     2     -10.501   9.801  67.346  1.00  0.00    -0.259 A  
HETATM    8  S   UNL     2      -9.872   8.204  66.863  1.00  0.00    -0.272 SA 
HETATM    9  C   UNL     2      -9.954   7.319  68.408  1.00  0.00    -0.161 A  
HETATM   10  C   UNL     2     -10.334   7.951  69.601  1.00  0.00    -0.216 A  
HETATM   11  N   UNL     2     -10.693   9.255  69.741  1.00  0.00    -0.227 NA 
HETATM   12  C   UNL     2     -10.346   7.142  70.726  1.00  0.00    -0.219 A  
HETATM   13  C   UNL     2      -9.995   5.775  70.685  1.00  0.00    -0.251 A  
HETATM   14  C   UNL     2     -10.793  10.107  68.689  1.00  0.00    -0.235 A  
HETATM   15  C   UNL     2     -11.234  11.400  68.935  1.00  0.00    -0.310 A  
HETATM   16  C   UNL     2      -9.603   5.145  69.500  1.00  0.00    -0.161 A  
HETATM   17  C   UNL     2     -11.457  12.332  67.904  1.00  0.00    -0.390 A  
HETATM   18  C   UNL     2      -9.609   5.956  68.361  1.00  0.00    -0.138 A  
BRANCH  16  19
HETATM   19  N   UNL     2      -9.201   3.823  69.452  1.00  0.00    -0.141 NA 
HETATM   20  C   UNL     2      -9.000   3.127  68.183  1.00  0.00    -0.142 C  
HETATM   21  C   UNL     2      -9.132   2.991  70.645  1.00  0.00    -0.122 C  
ENDBRANCH  16  19
ENDBRANCH   3   5
TORSDOF 2
ENDMDL
MODEL       55
REMARK 921   NORMALIZED FREE ENERGY PREDICTED BY IDOCK:   -4.70 KCAL/MOL
REMARK 922        TOTAL FREE ENERGY PREDICTED BY IDOCK:   -5.44 KCAL/MOL
REMARK 923 INTER-LIGAND FREE ENERGY PREDICTED BY IDOCK:   -5.25 KCAL/MOL
REMARK 924 INTRA-LIGAND FREE ENERGY PREDICTED BY IDOCK:   -0.19 KCAL/MOL
REMARK 927      BINDING AFFINITY PREDICTED BY RF-SCORE:    0.00 PKD
ROOT
HETATM    1 CL   UNL     1      -6.391   5.694  64.918  1.00  0.00    -0.036 Cl 
HETATM    2  C   UNL     2      -7.454   4.396  68.586  1.00  0.00    -0.060 C  
HETATM    3  N   UNL     2      -8.922   4.286  68.656  1.00  0.00    -0.106 NA 
HETATM    4  C   UNL     2      -9.519   3.671  67.462  1.00  0.00    -0.191 C  
ENDROOT
BRANCH   3   5
HETATM    5  C   UNL     2      -9.588   5.478  69.002  1.00  0.00    -0.136 A  
HETATM    6  C   UNL     2      -9.763   6.544  68.120  1.00  0.00    -0.126 A  
HETATM    7  C   UNL     2     -10.355   7.749  68.535  1.00  0.00    -0.197 A  
HETATM    8  S   UNL     2     -10.465   9.039  67.308  1.00  0.00    -0.239 SA 
HETATM    9  C   UNL     2     -11.070  10.398  68.290  1.00  0.00    -0.281 A  
HETATM   10  C   UNL     2     -11.418  10.236  69.639  1.00  0.00    -0.235 A  
HETATM   11  N   UNL     2     -11.332   9.086  70.359  1.00  0.00    -0.242 NA 
HETATM   12  C   UNL     2     -11.880  11.377  70.275  1.00  0.00    -0.438 A  
HETATM   13  C   UNL     2     -12.001  12.621  69.618  1.00  0.00    -0.352 A  
HETATM   14  C   UNL     2     -10.816   7.938  69.851  1.00  0.00    -0.221 A  
HETATM   15  C   UNL     2     -10.712   6.840  70.694  1.00  0.00    -0.273 A  
HETATM   16  C   UNL     2     -11.667  12.782  68.269  1.00  0.00    -0.344 A  
HETATM   17  C   UNL     2     -10.110   5.633  70.292  1.00  0.00    -0.287 A  
HETATM   18  C   UNL     2     -11.184  11.637  67.631  1.00  0.00    -0.345 A  
BRANCH  16  19
HETATM   19  N   UNL     2     -11.834  13.977  67.595  1.00  0.00    -0.378 NA 
HETATM   20  C   UNL     2     -11.760  15.264  68.284  1.00  0.00    -0.301 C  
HETATM   21  C   UNL     2     -12.274  14.029  66.207  1.00  0.00    -0.462 C  
ENDBRANCH  16  19
ENDBRANCH   3   5
TORSDOF 2
ENDMDL
MODEL       56
REMARK 921   NORMALIZED FREE ENERGY PREDICTED BY IDOCK:   -4.68 KCAL/MOL
REMARK 922        TOTAL FREE ENERGY PREDICTED BY IDOCK:   -5.42 KCAL/MOL
REMARK 923 INTER-LIGAND FREE ENERGY PREDICTED BY IDOCK:   -5.23 KCAL/MOL
REMARK 924 INTRA-LIGAND FREE ENERGY PREDICTED BY IDOCK:   -0.19 KCAL/MOL
REMARK 927      BINDING AFFINITY PREDICTED BY RF-SCORE:    0.00 PKD
ROOT
HETATM    1 CL   UNL     1      -7.204   6.679  64.319  1.00  0.00    -0.064 Cl 
HETATM    2  C   UNL     2      -8.601   6.029  68.047  1.00  0.00    -0.114 C  
HETATM    3  N   UNL     2     -10.049   6.300  68.077  1.00  0.00    -0.140 NA 
HETATM    4  C   UNL     2     -10.771   5.750  66.921  1.00  0.00    -0.305 C  
ENDROOT
BRANCH   3   5
HETATM    5  C   UNL     2     -10.394   7.648  68.299  1.00  0.00    -0.198 A  
HETATM    6  C   UNL     2     -10.393   8.616  67.295  1.00  0.00    -0.366 A  
HETATM    7  C   UNL     2     -10.657   9.967  67.579  1.00  0.00    -0.275 A  
HETATM    8  S   UNL     2     -10.571  11.095  66.202  1.00  0.00    -0.221 SA 
HETATM    9  C   UNL     2     -10.764  12.663  67.026  1.00  0.00    -0.245 A  
HETATM   10  C   UNL     2     -11.026  12.745  68.403  1.00  0.00    -0.254 A  
HETATM   11  N   UNL     2     -11.146  11.699  69.261  1.00  0.00    -0.244 NA 
HETATM   12  C   UNL     2     -11.160  14.028  68.907  1.00  0.00    -0.296 A  
HETATM   13  C   UNL     2     -11.048  15.181  68.099  1.00  0.00    -0.306 A  
HETATM   14  C   UNL     2     -10.951  10.410  68.882  1.00  0.00    -0.245 A  
HETATM   15  C   UNL     2     -11.031   9.424  69.856  1.00  0.00    -0.251 A  
HETATM   16  C   UNL     2     -10.800  15.102  66.725  1.00  0.00    -0.322 A  
HETATM   17  C   UNL     2     -10.757   8.070  69.584  1.00  0.00    -0.207 A  
HETATM   18  C   UNL     2     -10.646  13.809  66.218  1.00  0.00    -0.289 A  
BRANCH  16  19
HETATM   19  N   UNL     2     -10.745  16.217  65.909  1.00  0.00    -0.292 NA 
HETATM   20  C   UNL     2     -10.369  17.530  66.428  1.00  0.00    -0.334 C  
HETATM   21  C   UNL     2     -11.230  16.196  64.536  1.00  0.00    -0.264 C  
ENDBRANCH  16  19
ENDBRANCH   3   5
TORSDOF 2
ENDMDL
MODEL       57
REMARK 921   NORMALIZED FREE ENERGY PREDICTED BY IDOCK:   -4.67 KCAL/MOL
REMARK 922        TOTAL FREE ENERGY PREDICTED BY IDOCK:   -5.40 KCAL/MOL
REMARK 923 INTER-LIGAND FREE ENERGY PREDICTED BY IDOCK:   -5.22 KCAL/MOL
REMARK 924 INTRA-LIGAND FREE ENERGY PREDICTED BY IDOCK:   -0.18 KCAL/MOL
REMARK 927      BINDING AFFINITY PREDICTED BY RF-SCORE:    0.00 PKD
ROOT
HETATM    1 CL   UNL     1     -10.995   3.004  63.319  1.00  0.00    -0.201 Cl 
HETATM    2  C   UNL     2      -7.971   5.630  63.791  1.00  0.00    -0.120 C  
HETATM    3  N   UNL     2      -7.815   5.941  65.223  1.00  0.00    -0.098 NA 
HETATM    4  C   UNL     2      -7.896   4.757  66.089  1.00  0.00    -0.099 C  
ENDROOT
BRANCH   3   5
HETATM    5  C   UNL     2      -8.646   6.976  65.696  1.00  0.00    -0.111 A  
HETATM    6  C   UNL     2      -8.536   8.302  65.278  1.00  0.00    -0.179 A  
HETATM    7  C   UNL     2      -9.326   9.317  65.843  1.00  0.00    -0.236 A  
HETATM    8  S   UNL     2      -9.037  10.971  65.243  1.00  0.00    -0.157 SA 
HETATM    9  C   UNL     2     -10.072  11.922  66.337  1.00  0.00    -0.214 A  
HETATM   10  C   UNL     2     -10.910  11.307  67.280  1.00  0.00    -0.267 A  
HETATM   11  N   UNL     2     -11.033   9.971  67.495  1.00  0.00    -0.269 NA 
HETATM   12  C   UNL     2     -11.664  12.170  68.058  1.00  0.00    -0.409 A  
HETATM   13  C   UNL     2     -11.604  13.574  67.917  1.00  0.00    -0.377 A  
HETATM   14  C   UNL     2     -10.280   9.049  66.843  1.00  0.00    -0.269 A  
HETATM   15  C   UNL     2     -10.438   7.713  67.189  1.00  0.00    -0.412 A  
HETATM   16  C   UNL     2     -10.780  14.190  66.969  1.00  0.00    -0.285 A  
HETATM   17  C   UNL     2      -9.642   6.691  66.638  1.00  0.00    -0.207 A  
HETATM   18  C   UNL     2     -10.005  13.321  66.196  1.00  0.00    -0.295 A  
BRANCH  16  19
HETATM   19  N   UNL     2     -10.753  15.558  66.778  1.00  0.00    -0.306 NA 
HETATM   20  C   UNL     2     -10.445  16.145  65.475  1.00  0.00    -0.386 C  
HETATM   21  C   UNL     2     -10.845  16.498  67.886  1.00  0.00    -0.326 C  
ENDBRANCH  16  19
ENDBRANCH   3   5
TORSDOF 2
ENDMDL
MODEL       58
REMARK 921   NORMALIZED FREE ENERGY PREDICTED BY IDOCK:   -4.61 KCAL/MOL
REMARK 922        TOTAL FREE ENERGY PREDICTED BY IDOCK:   -5.34 KCAL/MOL
REMARK 923 INTER-LIGAND FREE ENERGY PREDICTED BY IDOCK:   -5.15 KCAL/MOL
REMARK 924 INTRA-LIGAND FREE ENERGY PREDICTED BY IDOCK:   -0.19 KCAL/MOL
REMARK 927      BINDING AFFINITY PREDICTED BY RF-SCORE:    0.00 PKD
ROOT
HETATM    1 CL   UNL     1      -7.971   6.405  72.284  1.00  0.00    -0.103 Cl 
HETATM    2  C   UNL     2     -10.806   6.686  69.430  1.00  0.00    -0.292 C  
HETATM    3  N   UNL     2     -10.412   7.716  68.452  1.00  0.00    -0.191 NA 
HETATM    4  C   UNL     2      -8.995   7.644  68.069  1.00  0.00    -0.126 C  
ENDROOT
BRANCH   3   5
HETATM    5  C   UNL     2     -10.780   9.030  68.797  1.00  0.00    -0.108 A  
HETATM    6  C   UNL     2     -10.448  10.148  68.032  1.00  0.00    -0.249 A  
HETATM    7  C   UNL     2     -10.760  11.450  68.461  1.00  0.00    -0.201 A  
HETATM    8  S   UNL     2     -10.227  12.780  67.401  1.00  0.00    -0.223 SA 
HETATM    9  C   UNL     2     -10.635  14.201  68.396  1.00  0.00    -0.259 A  
HETATM   10  C   UNL     2     -11.311  14.074  69.620  1.00  0.00    -0.214 A  
HETATM   11  N   UNL     2     -11.713  12.913  70.199  1.00  0.00    -0.223 NA 
HETATM   12  C   UNL     2     -11.569  15.263  70.282  1.00  0.00    -0.332 A  
HETATM   13  C   UNL     2     -11.187  16.522  69.767  1.00  0.00    -0.166 A  
HETATM   14  C   UNL     2     -11.436  11.693  69.672  1.00  0.00    -0.288 A  
HETATM   15  C   UNL     2     -11.835  10.568  70.381  1.00  0.00    -0.431 A  
HETATM   16  C   UNL     2     -10.526  16.652  68.542  1.00  0.00    -0.319 A  
HETATM   17  C   UNL     2     -11.517   9.261  69.966  1.00  0.00    -0.077 A  
HETATM   18  C   UNL     2     -10.248  15.452  67.881  1.00  0.00    -0.239 A  
BRANCH  16  19
HETATM   19  N   UNL     2     -10.197  17.878  67.995  1.00  0.00    -0.357 NA 
HETATM   20  C   UNL     2      -9.720  18.984  68.823  1.00  0.00    -0.416 C  
HETATM   21  C   UNL     2     -10.476  18.206  66.604  1.00  0.00    -0.339 C  
ENDBRANCH  16  19
ENDBRANCH   3   5
TORSDOF 2
ENDMDL
MODEL       59
REMARK 921   NORMALIZED FREE ENERGY PREDICTED BY IDOCK:   -4.56 KCAL/MOL
REMARK 922        TOTAL FREE ENERGY PREDICTED BY IDOCK:   -5.28 KCAL/MOL
REMARK 923 INTER-LIGAND FREE ENERGY PREDICTED BY IDOCK:   -5.10 KCAL/MOL
REMARK 924 INTRA-LIGAND FREE ENERGY PREDICTED BY IDOCK:   -0.18 KCAL/MOL
REMARK 927      BINDING AFFINITY PREDICTED BY RF-SCORE:    0.00 PKD
ROOT
HETATM    1 CL   UNL     1     -12.490  12.203  63.401  1.00  0.00    -0.677 Cl 
HETATM    2  C   UNL     2     -10.145  10.223  66.018  1.00  0.00    -0.244 C  
HETATM    3  N   UNL     2     -10.174  10.916  67.318  1.00  0.00    -0.197 NA 
HETATM    4  C   UNL     2     -11.521  11.343  67.722  1.00  0.00    -0.281 C  
ENDROOT
BRANCH   3   5
HETATM    5  C   UNL     2      -9.246  11.968  67.446  1.00  0.00    -0.180 A  
HETATM    6  C   UNL     2      -9.522  13.286  67.083  1.00  0.00    -0.240 A  
HETATM    7  C   UNL     2      -8.537  14.286  67.145  1.00  0.00    -0.216 A  
HETATM    8  S   UNL     2      -9.026  15.912  66.599  1.00  0.00    -0.298 SA 
HETATM    9  C   UNL     2      -7.469  16.778  66.655  1.00  0.00    -0.273 A  
HETATM   10  C   UNL     2      -6.305  16.171  67.151  1.00  0.00    -0.125 A  
HETATM   11  N   UNL     2      -6.198  14.899  67.617  1.00  0.00    -0.282 NA 
HETATM   12  C   UNL     2      -5.170  16.965  67.141  1.00  0.00    -0.181 A  
HETATM   13  C   UNL     2      -5.175  18.297  66.672  1.00  0.00    -0.162 A  
HETATM   14  C   UNL     2      -7.230  14.017  67.592  1.00  0.00    -0.176 A  
HETATM   15  C   UNL     2      -6.993  12.721  68.031  1.00  0.00    -0.107 A  
HETATM   16  C   UNL     2      -6.337  18.909  66.190  1.00  0.00    -0.193 A  
HETATM   17  C   UNL     2      -7.969  11.709  67.961  1.00  0.00    -0.132 A  
HETATM   18  C   UNL     2      -7.479  18.103  66.182  1.00  0.00    -0.297 A  
BRANCH  16  19
HETATM   19  N   UNL     2      -6.373  20.229  65.782  1.00  0.00    -0.211 NA 
HETATM   20  C   UNL     2      -6.314  20.597  64.369  1.00  0.00    -0.307 C  
HETATM   21  C   UNL     2      -6.286  21.334  66.726  1.00  0.00    -0.325 C  
ENDBRANCH  16  19
ENDBRANCH   3   5
TORSDOF 2
ENDMDL
MODEL       60
REMARK 921   NORMALIZED FREE ENERGY PREDICTED BY IDOCK:   -4.55 KCAL/MOL
REMARK 922        TOTAL FREE ENERGY PREDICTED BY IDOCK:   -5.27 KCAL/MOL
REMARK 923 INTER-LIGAND FREE ENERGY PREDICTED BY IDOCK:   -5.08 KCAL/MOL
REMARK 924 INTRA-LIGAND FREE ENERGY PREDICTED BY IDOCK:   -0.19 KCAL/MOL
REMARK 927      BINDING AFFINITY PREDICTED BY RF-SCORE:    0.00 PKD
ROOT
HETATM    1 CL   UNL     1      -7.434   6.276  73.412  1.00  0.00    -0.091 Cl 
HETATM    2  C   UNL     2     -10.503   5.003  71.126  1.00  0.00    -0.135 C  
HETATM    3  N   UNL     2     -10.068   4.938  69.720  1.00  0.00    -0.248 NA 
HETATM    4  C   UNL     2      -8.735   4.344  69.549  1.00  0.00    -0.082 C  
ENDROOT
BRANCH   3   5
HETATM    5  C   UNL     2     -10.181   6.149  69.010  1.00  0.00    -0.191 A  
HETATM    6  C   UNL     2     -10.157   7.403  69.619  1.00  0.00    -0.186 A  
HETATM    7  C   UNL     2     -10.363   8.581  68.882  1.00  0.00    -0.210 A  
HETATM    8  S   UNL     2     -10.353  10.105  69.808  1.00  0.00    -0.251 SA 
HETATM    9  C   UNL     2     -10.838  11.275  68.554  1.00  0.00    -0.205 A  
HETATM   10  C   UNL     2     -11.014  10.891  67.216  1.00  0.00    -0.294 A  
HETATM   11  N   UNL     2     -10.866   9.636  66.714  1.00  0.00    -0.063 NA 
HETATM   12  C   UNL     2     -11.385  11.906  66.350  1.00  0.00    -0.400 A  
HETATM   13  C   UNL     2     -11.569  13.241  66.774  1.00  0.00    -0.408 A  
HETATM   14  C   UNL     2     -10.587   8.560  67.493  1.00  0.00    -0.214 A  
HETATM   15  C   UNL     2     -10.525   7.313  66.886  1.00  0.00    -0.369 A  
HETATM   16  C   UNL     2     -11.381  13.629  68.104  1.00  0.00    -0.288 A  
HETATM   17  C   UNL     2     -10.331   6.126  67.617  1.00  0.00    -0.250 A  
HETATM   18  C   UNL     2     -11.026  12.602  68.983  1.00  0.00    -0.240 A  
BRANCH  16  19
HETATM   19  N   UNL     2     -11.501  14.940  68.525  1.00  0.00    -0.301 NA 
HETATM   20  C   UNL     2     -10.856  16.038  67.808  1.00  0.00    -0.324 C  
HETATM   21  C   UNL     2     -12.114  15.292  69.798  1.00  0.00    -0.328 C  
ENDBRANCH  16  19
ENDBRANCH   3   5
TORSDOF 2
ENDMDL
MODEL       61
REMARK 921   NORMALIZED FREE ENERGY PREDICTED BY IDOCK:   -4.50 KCAL/MOL
REMARK 922        TOTAL FREE ENERGY PREDICTED BY IDOCK:   -5.22 KCAL/MOL
REMARK 923 INTER-LIGAND FREE ENERGY PREDICTED BY IDOCK:   -5.03 KCAL/MOL
REMARK 924 INTRA-LIGAND FREE ENERGY PREDICTED BY IDOCK:   -0.19 KCAL/MOL
REMARK 927      BINDING AFFINITY PREDICTED BY RF-SCORE:    0.00 PKD
ROOT
HETATM    1 CL   UNL     1      -5.666  18.381  64.989  1.00  0.00    -0.225 Cl 
HETATM    2  C   UNL     2      -9.183  19.455  66.644  1.00  0.00    -0.342 C  
HETATM    3  N   UNL     2      -9.222  18.997  68.044  1.00  0.00    -0.300 NA 
HETATM    4  C   UNL     2      -7.968  19.240  68.772  1.00  0.00    -0.357 C  
ENDROOT
BRANCH   3   5
HETATM    5  C   UNL     2      -9.665  17.672  68.221  1.00  0.00    -0.315 A  
HETATM    6  C   UNL     2      -8.929  16.556  67.826  1.00  0.00    -0.202 A  
HETATM    7  C   UNL     2      -9.449  15.255  67.940  1.00  0.00    -0.197 A  
HETATM    8  S   UNL     2      -8.411  13.933  67.346  1.00  0.00    -0.193 SA 
HETATM    9  C   UNL     2      -9.510  12.538  67.492  1.00  0.00    -0.185 A  
HETATM   10  C   UNL     2     -10.784  12.660  68.068  1.00  0.00    -0.226 A  
HETATM   11  N   UNL     2     -11.340  13.800  68.555  1.00  0.00    -0.266 NA 
HETATM   12  C   UNL     2     -11.525  11.492  68.123  1.00  0.00    -0.385 A  
HETATM   13  C   UNL     2     -11.040  10.256  67.640  1.00  0.00    -0.319 A  
HETATM   14  C   UNL     2     -10.729  15.010  68.473  1.00  0.00    -0.244 A  
HETATM   15  C   UNL     2     -11.416  16.122  68.940  1.00  0.00    -0.331 A  
HETATM   16  C   UNL     2      -9.766  10.129  67.078  1.00  0.00    -0.180 A  
HETATM   17  C   UNL     2     -10.909  17.430  68.819  1.00  0.00    -0.081 A  
HETATM   18  C   UNL     2      -9.023  11.311  67.005  1.00  0.00    -0.154 A  
BRANCH  16  19
HETATM   19  N   UNL     2      -9.252   8.918  66.653  1.00  0.00    -0.159 NA 
HETATM   20  C   UNL     2      -8.044   8.841  65.836  1.00  0.00    -0.110 C  
HETATM   21  C   UNL     2      -9.973   7.665  66.834  1.00  0.00    -0.255 C  
ENDBRANCH  16  19
ENDBRANCH   3   5
TORSDOF 2
ENDMDL
MODEL       62
REMARK 921   NORMALIZED FREE ENERGY PREDICTED BY IDOCK:   -4.50 KCAL/MOL
REMARK 922        TOTAL FREE ENERGY PREDICTED BY IDOCK:   -5.22 KCAL/MOL
REMARK 923 INTER-LIGAND FREE ENERGY PREDICTED BY IDOCK:   -5.02 KCAL/MOL
REMARK 924 INTRA-LIGAND FREE ENERGY PREDICTED BY IDOCK:   -0.19 KCAL/MOL
REMARK 927      BINDING AFFINITY PREDICTED BY RF-SCORE:    0.00 PKD
ROOT
HETATM    1 CL   UNL     1      -6.598  16.823  66.805  1.00  0.00    -0.246 Cl 
HETATM    2  C   UNL     2     -10.488  16.089  66.038  1.00  0.00    -0.345 C  
HETATM    3  N   UNL     2     -11.144  15.608  67.266  1.00  0.00    -0.282 NA 
HETATM    4  C   UNL     2     -10.768  16.369  68.465  1.00  0.00    -0.320 C  
ENDROOT
BRANCH   3   5
HETATM    5  C   UNL     2     -11.037  14.221  67.488  1.00  0.00    -0.298 A  
HETATM    6  C   UNL     2     -10.121  13.405  66.826  1.00  0.00    -0.260 A  
HETATM    7  C   UNL     2     -10.109  12.012  67.014  1.00  0.00    -0.203 A  
HETATM    8  S   UNL     2      -8.913  11.096  66.060  1.00  0.00    -0.198 SA 
HETATM    9  C   UNL     2      -9.375   9.419  66.445  1.00  0.00    -0.187 A  
HETATM   10  C   UNL     2     -10.380   9.127  67.381  1.00  0.00    -0.264 A  
HETATM   11  N   UNL     2     -11.116  10.032  68.077  1.00  0.00    -0.245 NA 
HETATM   12  C   UNL     2     -10.628   7.780  67.585  1.00  0.00    -0.283 A  
HETATM   13  C   UNL     2      -9.921   6.762  66.907  1.00  0.00    -0.252 A  
HETATM   14  C   UNL     2     -11.006  11.371  67.888  1.00  0.00    -0.240 A  
HETATM   15  C   UNL     2     -11.856  12.204  68.604  1.00  0.00    -0.358 A  
HETATM   16  C   UNL     2      -8.911   7.050  65.984  1.00  0.00    -0.107 A  
HETATM   17  C   UNL     2     -11.884  13.599  68.414  1.00  0.00    -0.407 A  
HETATM   18  C   UNL     2      -8.672   8.409  65.763  1.00  0.00    -0.199 A  
BRANCH  16  19
HETATM   19  N   UNL     2      -8.170   6.067  65.355  1.00  0.00    -0.135 NA 
HETATM   20  C   UNL     2      -8.785   4.833  64.871  1.00  0.00    -0.148 C  
HETATM   21  C   UNL     2      -6.715   6.111  65.299  1.00  0.00    -0.047 C  
ENDBRANCH  16  19
ENDBRANCH   3   5
TORSDOF 2
ENDMDL
MODEL       63
REMARK 921   NORMALIZED FREE ENERGY PREDICTED BY IDOCK:   -4.50 KCAL/MOL
REMARK 922        TOTAL FREE ENERGY PREDICTED BY IDOCK:   -5.22 KCAL/MOL
REMARK 923 INTER-LIGAND FREE ENERGY PREDICTED BY IDOCK:   -5.02 KCAL/MOL
REMARK 924 INTRA-LIGAND FREE ENERGY PREDICTED BY IDOCK:   -0.19 KCAL/MOL
REMARK 927      BINDING AFFINITY PREDICTED BY RF-SCORE:    0.00 PKD
ROOT
HETATM    1 CL   UNL     1      -6.367  18.129  66.005  1.00  0.00    -0.250 Cl 
HETATM    2  C   UNL     2     -10.383  17.945  66.330  1.00  0.00    -0.364 C  
HETATM    3  N   UNL     2     -10.746  17.708  67.738  1.00  0.00    -0.378 NA 
HETATM    4  C   UNL     2      -9.974  18.523  68.686  1.00  0.00    -0.383 C  
ENDROOT
BRANCH   3   5
HETATM    5  C   UNL     2     -10.760  16.353  68.124  1.00  0.00    -0.336 A  
HETATM    6  C   UNL     2      -9.840  15.413  67.662  1.00  0.00    -0.220 A  
HETATM    7  C   UNL     2      -9.945  14.054  68.004  1.00  0.00    -0.235 A  
HETATM    8  S   UNL     2      -8.726  12.963  67.296  1.00  0.00    -0.210 SA 
HETATM    9  C   UNL     2      -9.341  11.373  67.813  1.00  0.00    -0.162 A  
HETATM   10  C   UNL     2     -10.454  11.253  68.660  1.00  0.00    -0.203 A  
HETATM   11  N   UNL     2     -11.193  12.275  69.166  1.00  0.00    -0.250 NA 
HETATM   12  C   UNL     2     -10.816   9.956  68.985  1.00  0.00    -0.242 A  
HETATM   13  C   UNL     2     -10.117   8.826  68.507  1.00  0.00    -0.210 A  
HETATM   14  C   UNL     2     -10.970  13.574  68.842  1.00  0.00    -0.252 A  
HETATM   15  C   UNL     2     -11.828  14.534  69.362  1.00  0.00    -0.367 A  
HETATM   16  C   UNL     2      -9.000   8.943  67.673  1.00  0.00    -0.134 A  
HETATM   17  C   UNL     2     -11.738  15.895  69.016  1.00  0.00    -0.377 A  
HETATM   18  C   UNL     2      -8.644  10.250  67.329  1.00  0.00    -0.125 A  
BRANCH  16  19
HETATM   19  N   UNL     2      -8.269   7.851  67.243  1.00  0.00    -0.121 NA 
HETATM   20  C   UNL     2      -6.819   7.915  67.079  1.00  0.00    -0.073 C  
HETATM   21  C   UNL     2      -8.907   6.637  66.754  1.00  0.00    -0.130 C  
ENDBRANCH  16  19
ENDBRANCH   3   5
TORSDOF 2
ENDMDL
MODEL       64
REMARK 921   NORMALIZED FREE ENERGY PREDICTED BY IDOCK:   -4.48 KCAL/MOL
REMARK 922        TOTAL FREE ENERGY PREDICTED BY IDOCK:   -5.19 KCAL/MOL
REMARK 923 INTER-LIGAND FREE ENERGY PREDICTED BY IDOCK:   -5.01 KCAL/MOL
REMARK 924 INTRA-LIGAND FREE ENERGY PREDICTED BY IDOCK:   -0.18 KCAL/MOL
REMARK 927      BINDING AFFINITY PREDICTED BY RF-SCORE:    0.00 PKD
ROOT
HETATM    1 CL   UNL     1      -8.136   4.929  66.487  1.00  0.00    -0.107 Cl 
HETATM    2  C   UNL     2      -7.981   6.720  62.877  1.00  0.00    -0.083 C  
HETATM    3  N   UNL     2      -7.253   7.996  62.998  1.00  0.00    -0.087 NA 
HETATM    4  C   UNL     2      -6.038   7.899  63.818  1.00  0.00    -0.058 C  
ENDROOT
BRANCH   3   5
HETATM    5  C   UNL     2      -8.046   9.093  63.390  1.00  0.00    -0.162 A  
HETATM    6  C   UNL     2      -8.041   9.624  64.679  1.00  0.00    -0.141 A  
HETATM    7  C   UNL     2      -8.913  10.661  65.049  1.00  0.00    -0.199 A  
HETATM    8  S   UNL     2      -8.826  11.201  66.746  1.00  0.00    -0.166 SA 
HETATM    9  C   UNL     2     -10.193  12.341  66.818  1.00  0.00    -0.211 A  
HETATM   10  C   UNL     2     -10.939  12.671  65.675  1.00  0.00    -0.280 A  
HETATM   11  N   UNL     2     -10.749  12.181  64.422  1.00  0.00    -0.301 NA 
HETATM   12  C   UNL     2     -11.968  13.575  65.878  1.00  0.00    -0.444 A  
HETATM   13  C   UNL     2     -12.252  14.138  67.142  1.00  0.00    -0.348 A  
HETATM   14  C   UNL     2      -9.823  11.230  64.137  1.00  0.00    -0.279 A  
HETATM   15  C   UNL     2      -9.758  10.750  62.836  1.00  0.00    -0.337 A  
HETATM   16  C   UNL     2     -11.502  13.822  68.279  1.00  0.00    -0.312 A  
HETATM   17  C   UNL     2      -8.896   9.703  62.459  1.00  0.00    -0.257 A  
HETATM   18  C   UNL     2     -10.475  12.895  68.080  1.00  0.00    -0.245 A  
BRANCH  16  19
HETATM   19  N   UNL     2     -11.728  14.407  69.511  1.00  0.00    -0.293 NA 
HETATM   20  C   UNL     2     -11.251  15.753  69.821  1.00  0.00    -0.330 C  
HETATM   21  C   UNL     2     -12.286  13.662  70.631  1.00  0.00    -0.368 C  
ENDBRANCH  16  19
ENDBRANCH   3   5
TORSDOF 2
ENDMDL
MODEL       65
REMARK 921   NORMALIZED FREE ENERGY PREDICTED BY IDOCK:   -4.47 KCAL/MOL
REMARK 922        TOTAL FREE ENERGY PREDICTED BY IDOCK:   -5.18 KCAL/MOL
REMARK 923 INTER-LIGAND FREE ENERGY PREDICTED BY IDOCK:   -5.00 KCAL/MOL
REMARK 924 INTRA-LIGAND FREE ENERGY PREDICTED BY IDOCK:   -0.18 KCAL/MOL
REMARK 927      BINDING AFFINITY PREDICTED BY RF-SCORE:    0.00 PKD
ROOT
HETATM    1 CL   UNL     1     -12.859  11.914  63.212  1.00  0.00    -0.542 Cl 
HETATM    2  C   UNL     2     -12.193  14.063  66.559  1.00  0.00    -0.451 C  
HETATM    3  N   UNL     2     -10.742  14.255  66.733  1.00  0.00    -0.284 NA 
HETATM    4  C   UNL     2     -10.047  14.608  65.488  1.00  0.00    -0.377 C  
ENDROOT
BRANCH   3   5
HETATM    5  C   UNL     2     -10.085  13.206  67.404  1.00  0.00    -0.229 A  
HETATM    6  C   UNL     2     -10.754  12.183  68.076  1.00  0.00    -0.242 A  
HETATM    7  C   UNL     2     -10.057  11.206  68.807  1.00  0.00    -0.201 A  
HETATM    8  S   UNL     2     -11.052   9.993  69.655  1.00  0.00    -0.252 SA 
HETATM    9  C   UNL     2      -9.810   9.113  70.581  1.00  0.00    -0.249 A  
HETATM   10  C   UNL     2      -8.443   9.396  70.436  1.00  0.00    -0.214 A  
HETATM   11  N   UNL     2      -7.900  10.341  69.624  1.00  0.00    -0.166 NA 
HETATM   12  C   UNL     2      -7.591   8.629  71.213  1.00  0.00    -0.129 A  
HETATM   13  C   UNL     2      -8.056   7.625  72.092  1.00  0.00    -0.122 A  
HETATM   14  C   UNL     2      -8.652  11.197  68.887  1.00  0.00    -0.087 A  
HETATM   15  C   UNL     2      -7.995  12.170  68.145  1.00  0.00    -0.151 A  
HETATM   16  C   UNL     2      -9.417   7.333  72.229  1.00  0.00    -0.142 A  
HETATM   17  C   UNL     2      -8.685  13.160  67.419  1.00  0.00    -0.206 A  
HETATM   18  C   UNL     2     -10.279   8.118  71.459  1.00  0.00    -0.261 A  
BRANCH  16  19
HETATM   19  N   UNL     2      -9.885   6.315  73.039  1.00  0.00    -0.166 NA 
HETATM   20  C   UNL     2      -9.964   6.465  74.491  1.00  0.00    -0.351 C  
HETATM   21  C   UNL     2     -10.154   4.979  72.527  1.00  0.00    -0.183 C  
ENDBRANCH  16  19
ENDBRANCH   3   5
TORSDOF 2
ENDMDL
MODEL       66
REMARK 921   NORMALIZED FREE ENERGY PREDICTED BY IDOCK:   -4.47 KCAL/MOL
REMARK 922        TOTAL FREE ENERGY PREDICTED BY IDOCK:   -5.18 KCAL/MOL
REMARK 923 INTER-LIGAND FREE ENERGY PREDICTED BY IDOCK:   -4.98 KCAL/MOL
REMARK 924 INTRA-LIGAND FREE ENERGY PREDICTED BY IDOCK:   -0.20 KCAL/MOL
REMARK 927      BINDING AFFINITY PREDICTED BY RF-SCORE:    0.00 PKD
ROOT
HETATM    1 CL   UNL     1      -6.441  17.608  66.602  1.00  0.00    -0.218 Cl 
HETATM    2  C   UNL     2     -10.265  17.254  65.371  1.00  0.00     0.120 C  
HETATM    3  N   UNL     2     -11.017  16.446  66.347  1.00  0.00    -0.053 NA 
HETATM    4  C   UNL     2     -10.730  16.800  67.744  1.00  0.00    -0.321 C  
ENDROOT
BRANCH   3   5
HETATM    5  C   UNL     2     -10.937  15.054  66.148  1.00  0.00    -0.334 A  
HETATM    6  C   UNL     2     -11.193  14.118  67.149  1.00  0.00    -0.330 A  
HETATM    7  C   UNL     2     -11.014  12.741  66.930  1.00  0.00    -0.260 A  
HETATM    8  S   UNL     2     -11.333  11.671  68.320  1.00  0.00    -0.314 SA 
HETATM    9  C   UNL     2     -10.802  10.097  67.674  1.00  0.00    -0.290 A  
HETATM   10  C   UNL     2     -10.387   9.949  66.342  1.00  0.00    -0.176 A  
HETATM   11  N   UNL     2     -10.316  10.934  65.408  1.00  0.00    -0.272 NA 
HETATM   12  C   UNL     2     -10.008   8.668  65.976  1.00  0.00    -0.090 A  
HETATM   13  C   UNL     2     -10.041   7.578  66.873  1.00  0.00    -0.336 A  
HETATM   14  C   UNL     2     -10.585  12.235  65.689  1.00  0.00    -0.260 A  
HETATM   15  C   UNL     2     -10.415  13.170  64.677  1.00  0.00    -0.411 A  
HETATM   16  C   UNL     2     -10.467   7.720  68.198  1.00  0.00    -0.176 A  
HETATM   17  C   UNL     2     -10.580  14.552  64.890  1.00  0.00    -0.450 A  
HETATM   18  C   UNL     2     -10.832   9.016  68.573  1.00  0.00    -0.061 A  
BRANCH  16  19
HETATM   19  N   UNL     2     -10.560   6.653  69.072  1.00  0.00    -0.219 NA 
HETATM   20  C   UNL     2     -11.437   6.693  70.241  1.00  0.00    -0.391 C  
HETATM   21  C   UNL     2      -9.666   5.506  68.993  1.00  0.00    -0.144 C  
ENDBRANCH  16  19
ENDBRANCH   3   5
TORSDOF 2
ENDMDL
MODEL       67
REMARK 921   NORMALIZED FREE ENERGY PREDICTED BY IDOCK:   -4.45 KCAL/MOL
REMARK 922        TOTAL FREE ENERGY PREDICTED BY IDOCK:   -5.16 KCAL/MOL
REMARK 923 INTER-LIGAND FREE ENERGY PREDICTED BY IDOCK:   -4.96 KCAL/MOL
REMARK 924 INTRA-LIGAND FREE ENERGY PREDICTED BY IDOCK:   -0.20 KCAL/MOL
REMARK 927      BINDING AFFINITY PREDICTED BY RF-SCORE:    0.00 PKD
ROOT
HETATM    1 CL   UNL     1     -10.741   4.258  65.145  1.00  0.00    -0.222 Cl 
HETATM    2  C   UNL     2      -8.704   6.422  67.872  1.00  0.00    -0.115 C  
HETATM    3  N   UNL     2      -9.585   7.468  68.420  1.00  0.00    -0.148 NA 
HETATM    4  C   UNL     2     -10.938   6.986  68.733  1.00  0.00    -0.101 C  
ENDROOT
BRANCH   3   5
HETATM    5  C   UNL     2      -9.629   8.657  67.667  1.00  0.00    -0.155 A  
HETATM    6  C   UNL     2      -9.583   9.929  68.235  1.00  0.00    -0.151 A  
HETATM    7  C   UNL     2      -9.720  11.089  67.452  1.00  0.00    -0.168 A  
HETATM    8  S   UNL     2      -9.692  12.642  68.327  1.00  0.00    -0.192 SA 
HETATM    9  C   UNL     2     -10.088  13.784  67.018  1.00  0.00    -0.256 A  
HETATM   10  C   UNL     2     -10.227  13.361  65.687  1.00  0.00    -0.292 A  
HETATM   11  N   UNL     2     -10.104  12.086  65.232  1.00  0.00    -0.256 NA 
HETATM   12  C   UNL     2     -10.528  14.358  64.774  1.00  0.00    -0.394 A  
HETATM   13  C   UNL     2     -10.682  15.712  65.147  1.00  0.00    -0.463 A  
HETATM   14  C   UNL     2      -9.892  11.028  66.056  1.00  0.00    -0.229 A  
HETATM   15  C   UNL     2      -9.851   9.760  65.494  1.00  0.00    -0.378 A  
HETATM   16  C   UNL     2     -10.530  16.138  66.470  1.00  0.00    -0.297 A  
HETATM   17  C   UNL     2      -9.727   8.592  66.271  1.00  0.00    -0.300 A  
HETATM   18  C   UNL     2     -10.244  15.130  67.395  1.00  0.00    -0.235 A  
BRANCH  16  19
HETATM   19  N   UNL     2     -10.619  17.467  66.843  1.00  0.00    -0.267 NA 
HETATM   20  C   UNL     2     -10.638  17.870  68.247  1.00  0.00    -0.304 C  
HETATM   21  C   UNL     2     -10.884  18.526  65.879  1.00  0.00    -0.035 C  
ENDBRANCH  16  19
ENDBRANCH   3   5
TORSDOF 2
ENDMDL
MODEL       68
REMARK 921   NORMALIZED FREE ENERGY PREDICTED BY IDOCK:   -4.45 KCAL/MOL
REMARK 922        TOTAL FREE ENERGY PREDICTED BY IDOCK:   -5.16 KCAL/MOL
REMARK 923 INTER-LIGAND FREE ENERGY PREDICTED BY IDOCK:   -4.98 KCAL/MOL
REMARK 924 INTRA-LIGAND FREE ENERGY PREDICTED BY IDOCK:   -0.18 KCAL/MOL
REMARK 927      BINDING AFFINITY PREDICTED BY RF-SCORE:    0.00 PKD
ROOT
HETATM    1 CL   UNL     1     -10.876  16.773  68.950  1.00  0.00    -0.320 Cl 
HETATM    2  C   UNL     2     -10.062  14.622  65.637  1.00  0.00    -0.363 C  
HETATM    3  N   UNL     2     -11.117  13.613  65.441  1.00  0.00    -0.294 NA 
HETATM    4  C   UNL     2     -12.473  14.137  65.656  1.00  0.00    -0.469 C  
ENDROOT
BRANCH   3   5
HETATM    5  C   UNL     2     -10.920  12.407  66.142  1.00  0.00    -0.286 A  
HETATM    6  C   UNL     2     -10.221  11.320  65.620  1.00  0.00    -0.304 A  
HETATM    7  C   UNL     2     -10.125  10.105  66.320  1.00  0.00    -0.238 A  
HETATM    8  S   UNL     2      -9.243   8.789  65.503  1.00  0.00    -0.073 SA 
HETATM    9  C   UNL     2      -9.536   7.430  66.618  1.00  0.00    -0.187 A  
HETATM   10  C   UNL     2     -10.215   7.608  67.834  1.00  0.00    -0.198 A  
HETATM   11  N   UNL     2     -10.734   8.773  68.302  1.00  0.00    -0.127 NA 
HETATM   12  C   UNL     2     -10.364   6.466  68.604  1.00  0.00    -0.231 A  
HETATM   13  C   UNL     2      -9.865   5.206  68.204  1.00  0.00    -0.204 A  
HETATM   14  C   UNL     2     -10.713   9.927  67.587  1.00  0.00    -0.281 A  
HETATM   15  C   UNL     2     -11.332  11.044  68.131  1.00  0.00    -0.374 A  
HETATM   16  C   UNL     2      -9.177   5.029  67.000  1.00  0.00    -0.120 A  
HETATM   17  C   UNL     2     -11.444  12.261  67.433  1.00  0.00    -0.422 A  
HETATM   18  C   UNL     2      -9.042   6.177  66.213  1.00  0.00    -0.165 A  
BRANCH  16  19
HETATM   19  N   UNL     2      -8.632   3.817  66.620  1.00  0.00    -0.106 NA 
HETATM   20  C   UNL     2      -9.061   3.129  65.404  1.00  0.00    -0.150 C  
HETATM   21  C   UNL     2      -7.740   3.063  67.490  1.00  0.00    -0.069 C  
ENDBRANCH  16  19
ENDBRANCH   3   5
TORSDOF 2
ENDMDL
MODEL       69
REMARK 921   NORMALIZED FREE ENERGY PREDICTED BY IDOCK:   -4.44 KCAL/MOL
REMARK 922        TOTAL FREE ENERGY PREDICTED BY IDOCK:   -5.15 KCAL/MOL
REMARK 923 INTER-LIGAND FREE ENERGY PREDICTED BY IDOCK:   -4.96 KCAL/MOL
REMARK 924 INTRA-LIGAND FREE ENERGY PREDICTED BY IDOCK:   -0.20 KCAL/MOL
REMARK 927      BINDING AFFINITY PREDICTED BY RF-SCORE:    0.00 PKD
ROOT
HETATM    1 CL   UNL     1      -5.369   4.250  71.991  1.00  0.00    -0.003 Cl 
HETATM    2  C   UNL     2      -9.345   3.949  72.594  1.00  0.00    -0.117 C  
HETATM    3  N   UNL     2     -10.036   3.946  71.292  1.00  0.00    -0.156 NA 
HETATM    4  C   UNL     2      -9.383   3.095  70.288  1.00  0.00    -0.165 C  
ENDROOT
BRANCH   3   5
HETATM    5  C   UNL     2     -10.319   5.223  70.771  1.00  0.00    -0.239 A  
HETATM    6  C   UNL     2     -10.209   5.544  69.419  1.00  0.00    -0.329 A  
HETATM    7  C   UNL     2     -10.416   6.855  68.956  1.00  0.00    -0.208 A  
HETATM    8  S   UNL     2     -10.189   7.121  67.208  1.00  0.00    -0.276 SA 
HETATM    9  C   UNL     2     -10.346   8.893  67.104  1.00  0.00    -0.281 A  
HETATM   10  C   UNL     2     -10.683   9.670  68.223  1.00  0.00    -0.217 A  
HETATM   11  N   UNL     2     -10.908   9.210  69.482  1.00  0.00    -0.215 NA 
HETATM   12  C   UNL     2     -10.777  11.033  67.994  1.00  0.00    -0.260 A  
HETATM   13  C   UNL     2     -10.556  11.610  66.724  1.00  0.00    -0.280 A  
HETATM   14  C   UNL     2     -10.761   7.906  69.826  1.00  0.00    -0.233 A  
HETATM   15  C   UNL     2     -10.950   7.555  71.156  1.00  0.00    -0.264 A  
HETATM   16  C   UNL     2     -10.233  10.837  65.605  1.00  0.00    -0.257 A  
HETATM   17  C   UNL     2     -10.733   6.248  71.632  1.00  0.00    -0.284 A  
HETATM   18  C   UNL     2     -10.120   9.463  65.838  1.00  0.00    -0.243 A  
BRANCH  16  19
HETATM   19  N   UNL     2     -10.071  11.378  64.343  1.00  0.00    -0.270 NA 
HETATM   20  C   UNL     2      -9.139  10.803  63.375  1.00  0.00    -0.235 C  
HETATM   21  C   UNL     2     -10.672  12.649  63.962  1.00  0.00    -0.425 C  
ENDBRANCH  16  19
ENDBRANCH   3   5
TORSDOF 2
ENDMDL
MODEL       70
REMARK 921   NORMALIZED FREE ENERGY PREDICTED BY IDOCK:   -4.44 KCAL/MOL
REMARK 922        TOTAL FREE ENERGY PREDICTED BY IDOCK:   -5.15 KCAL/MOL
REMARK 923 INTER-LIGAND FREE ENERGY PREDICTED BY IDOCK:   -4.97 KCAL/MOL
REMARK 924 INTRA-LIGAND FREE ENERGY PREDICTED BY IDOCK:   -0.18 KCAL/MOL
REMARK 927      BINDING AFFINITY PREDICTED BY RF-SCORE:    0.00 PKD
ROOT
HETATM    1 CL   UNL     1      -9.479   8.369  72.657  1.00  0.00    -0.347 Cl 
HETATM    2  C   UNL     2     -11.984  10.391  70.227  1.00  0.00    -0.302 C  
HETATM    3  N   UNL     2     -11.430  10.405  68.861  1.00  0.00    -0.222 NA 
HETATM    4  C   UNL     2     -10.892   9.105  68.436  1.00  0.00    -0.048 C  
ENDROOT
BRANCH   3   5
HETATM    5  C   UNL     2     -10.515  11.444  68.606  1.00  0.00    -0.201 A  
HETATM    6  C   UNL     2     -10.815  12.794  68.784  1.00  0.00    -0.270 A  
HETATM    7  C   UNL     2      -9.901  13.802  68.432  1.00  0.00    -0.227 A  
HETATM    8  S   UNL     2     -10.446  15.483  68.670  1.00  0.00    -0.245 SA 
HETATM    9  C   UNL     2      -9.104  16.390  67.929  1.00  0.00    -0.201 A  
HETATM   10  C   UNL     2      -7.953  15.745  67.450  1.00  0.00    -0.168 A  
HETATM   11  N   UNL     2      -7.718  14.407  67.464  1.00  0.00    -0.180 NA 
HETATM   12  C   UNL     2      -6.988  16.577  66.906  1.00  0.00    -0.258 A  
HETATM   13  C   UNL     2      -7.140  17.980  66.839  1.00  0.00    -0.216 A  
HETATM   14  C   UNL     2      -8.633  13.504  67.898  1.00  0.00    -0.182 A  
HETATM   15  C   UNL     2      -8.315  12.155  67.806  1.00  0.00    -0.159 A  
HETATM   16  C   UNL     2      -8.279  18.626  67.329  1.00  0.00    -0.252 A  
HETATM   17  C   UNL     2      -9.228  11.139  68.144  1.00  0.00    -0.166 A  
HETATM   18  C   UNL     2      -9.262  17.787  67.861  1.00  0.00    -0.265 A  
BRANCH  16  19
HETATM   19  N   UNL     2      -8.418  20.002  67.325  1.00  0.00    -0.323 NA 
HETATM   20  C   UNL     2      -9.725  20.640  67.180  1.00  0.00    -0.390 C  
HETATM   21  C   UNL     2      -7.270  20.897  67.279  1.00  0.00    -0.350 C  
ENDBRANCH  16  19
ENDBRANCH   3   5
TORSDOF 2
ENDMDL
MODEL       71
REMARK 921   NORMALIZED FREE ENERGY PREDICTED BY IDOCK:   -4.44 KCAL/MOL
REMARK 922        TOTAL FREE ENERGY PREDICTED BY IDOCK:   -5.15 KCAL/MOL
REMARK 923 INTER-LIGAND FREE ENERGY PREDICTED BY IDOCK:   -4.96 KCAL/MOL
REMARK 924 INTRA-LIGAND FREE ENERGY PREDICTED BY IDOCK:   -0.19 KCAL/MOL
REMARK 927      BINDING AFFINITY PREDICTED BY RF-SCORE:    0.00 PKD
ROOT
HETATM    1 CL   UNL     1     -11.389   5.458  72.948  1.00  0.00    -0.365 Cl 
HETATM    2  C   UNL     2      -9.583   3.699  69.800  1.00  0.00    -0.158 C  
HETATM    3  N   UNL     2      -8.352   4.439  69.470  1.00  0.00    -0.063 NA 
HETATM    4  C   UNL     2      -7.561   4.812  70.650  1.00  0.00    -0.058 C  
ENDROOT
BRANCH   3   5
HETATM    5  C   UNL     2      -8.538   5.540  68.611  1.00  0.00    -0.103 A  
HETATM    6  C   UNL     2      -9.113   6.743  69.018  1.00  0.00    -0.137 A  
HETATM    7  C   UNL     2      -9.361   7.783  68.106  1.00  0.00    -0.145 A  
HETATM    8  S   UNL     2     -10.148   9.241  68.764  1.00  0.00    -0.201 SA 
HETATM    9  C   UNL     2     -10.442  10.177  67.276  1.00  0.00    -0.256 A  
HETATM   10  C   UNL     2      -9.979   9.739  66.026  1.00  0.00    -0.272 A  
HETATM   11  N   UNL     2      -9.292   8.593  65.780  1.00  0.00    -0.195 NA 
HETATM   12  C   UNL     2     -10.273  10.571  64.958  1.00  0.00    -0.365 A  
HETATM   13  C   UNL     2     -10.987  11.781  65.107  1.00  0.00    -0.351 A  
HETATM   14  C   UNL     2      -9.026   7.673  66.743  1.00  0.00    -0.144 A  
HETATM   15  C   UNL     2      -8.377   6.505  66.369  1.00  0.00    -0.120 A  
HETATM   16  C   UNL     2     -11.438  12.226  66.354  1.00  0.00    -0.378 A  
HETATM   17  C   UNL     2      -8.136   5.452  67.272  1.00  0.00    -0.101 A  
HETATM   18  C   UNL     2     -11.157  11.379  67.430  1.00  0.00    -0.349 A  
BRANCH  16  19
HETATM   19  N   UNL     2     -12.086  13.435  66.527  1.00  0.00    -0.399 NA 
HETATM   20  C   UNL     2     -12.891  14.033  65.465  1.00  0.00    -0.419 C  
HETATM   21  C   UNL     2     -11.862  14.273  67.697  1.00  0.00    -0.385 C  
ENDBRANCH  16  19
ENDBRANCH   3   5
TORSDOF 2
ENDMDL
MODEL       72
REMARK 921   NORMALIZED FREE ENERGY PREDICTED BY IDOCK:   -4.42 KCAL/MOL
REMARK 922        TOTAL FREE ENERGY PREDICTED BY IDOCK:   -5.13 KCAL/MOL
REMARK 923 INTER-LIGAND FREE ENERGY PREDICTED BY IDOCK:   -4.95 KCAL/MOL
REMARK 924 INTRA-LIGAND FREE ENERGY PREDICTED BY IDOCK:   -0.17 KCAL/MOL
REMARK 927      BINDING AFFINITY PREDICTED BY RF-SCORE:    0.00 PKD
ROOT
HETATM    1 CL   UNL     1     -11.500  16.276  70.369  1.00  0.00    -0.332 Cl 
HETATM    2  C   UNL     2      -9.685  13.407  68.191  1.00  0.00    -0.226 C  
HETATM    3  N   UNL     2     -10.658  12.346  67.877  1.00  0.00    -0.208 NA 
HETATM    4  C   UNL     2     -11.968  12.862  67.457  1.00  0.00    -0.296 C  
ENDROOT
BRANCH   3   5
HETATM    5  C   UNL     2     -10.794  11.357  68.870  1.00  0.00    -0.215 A  
HETATM    6  C   UNL     2      -9.993  10.217  68.935  1.00  0.00    -0.209 A  
HETATM    7  C   UNL     2     -10.223   9.212  69.890  1.00  0.00    -0.205 A  
HETATM    8  S   UNL     2      -9.148   7.791  69.816  1.00  0.00    -0.146 SA 
HETATM    9  C   UNL     2      -9.902   6.724  71.028  1.00  0.00    -0.182 A  
HETATM   10  C   UNL     2     -10.987   7.148  71.811  1.00  0.00    -0.229 A  
HETATM   11  N   UNL     2     -11.598   8.361  71.748  1.00  0.00    -0.287 NA 
HETATM   12  C   UNL     2     -11.466   6.217  72.717  1.00  0.00    -0.220 A  
HETATM   13  C   UNL     2     -10.905   4.928  72.856  1.00  0.00    -0.313 A  
HETATM   14  C   UNL     2     -11.258   9.310  70.839  1.00  0.00    -0.306 A  
HETATM   15  C   UNL     2     -11.993  10.487  70.817  1.00  0.00    -0.472 A  
HETATM   16  C   UNL     2      -9.815   4.508  72.087  1.00  0.00    -0.177 A  
HETATM   17  C   UNL     2     -11.779  11.494  69.857  1.00  0.00    -0.420 A  
HETATM   18  C   UNL     2      -9.342   5.440  71.159  1.00  0.00    -0.186 A  
BRANCH  16  19
HETATM   19  N   UNL     2      -9.216   3.273  72.250  1.00  0.00    -0.101 NA 
HETATM   20  C   UNL     2      -9.702   2.086  71.549  1.00  0.00    -0.149 C  
HETATM   21  C   UNL     2      -8.192   3.036  73.258  1.00  0.00    -0.072 C  
ENDBRANCH  16  19
ENDBRANCH   3   5
TORSDOF 2
ENDMDL
MODEL       73
REMARK 921   NORMALIZED FREE ENERGY PREDICTED BY IDOCK:   -4.42 KCAL/MOL
REMARK 922        TOTAL FREE ENERGY PREDICTED BY IDOCK:   -5.13 KCAL/MOL
REMARK 923 INTER-LIGAND FREE ENERGY PREDICTED BY IDOCK:   -4.94 KCAL/MOL
REMARK 924 INTRA-LIGAND FREE ENERGY PREDICTED BY IDOCK:   -0.18 KCAL/MOL
REMARK 927      BINDING AFFINITY PREDICTED BY RF-SCORE:    0.00 PKD
ROOT
HETATM    1 CL   UNL     1     -12.990  10.641  71.361  1.00  0.00    -0.521 Cl 
HETATM    2  C   UNL     2     -10.653   9.458  68.294  1.00  0.00    -0.210 C  
HETATM    3  N   UNL     2      -9.239   9.676  68.648  1.00  0.00    -0.134 NA 
HETATM    4  C   UNL     2      -8.910   9.261  70.019  1.00  0.00    -0.197 C  
ENDROOT
BRANCH   3   5
HETATM    5  C   UNL     2      -8.755  10.971  68.377  1.00  0.00    -0.150 A  
HETATM    6  C   UNL     2      -9.558  12.111  68.398  1.00  0.00    -0.186 A  
HETATM    7  C   UNL     2      -9.052  13.371  68.034  1.00  0.00    -0.205 A  
HETATM    8  S   UNL     2     -10.211  14.725  68.061  1.00  0.00    -0.228 SA 
HETATM    9  C   UNL     2      -9.227  16.036  67.359  1.00  0.00    -0.208 A  
HETATM   10  C   UNL     2      -7.871  15.854  67.048  1.00  0.00    -0.232 A  
HETATM   11  N   UNL     2      -7.155  14.710  67.212  1.00  0.00    -0.195 NA 
HETATM   12  C   UNL     2      -7.230  16.961  66.516  1.00  0.00    -0.297 A  
HETATM   13  C   UNL     2      -7.886  18.193  66.302  1.00  0.00    -0.280 A  
HETATM   14  C   UNL     2      -7.711  13.551  67.647  1.00  0.00    -0.176 A  
HETATM   15  C   UNL     2      -6.903  12.424  67.713  1.00  0.00    -0.113 A  
HETATM   16  C   UNL     2      -9.234  18.381  66.623  1.00  0.00    -0.304 A  
HETATM   17  C   UNL     2      -7.402  11.155  68.064  1.00  0.00    -0.088 A  
HETATM   18  C   UNL     2      -9.887  17.260  67.144  1.00  0.00    -0.269 A  
BRANCH  16  19
HETATM   19  N   UNL     2      -9.876  19.596  66.475  1.00  0.00    -0.385 NA 
HETATM   20  C   UNL     2      -9.706  20.677  67.444  1.00  0.00    -0.411 C  
HETATM   21  C   UNL     2     -10.896  19.814  65.459  1.00  0.00    -0.151 C  
ENDBRANCH  16  19
ENDBRANCH   3   5
TORSDOF 2
ENDMDL
MODEL       74
REMARK 921   NORMALIZED FREE ENERGY PREDICTED BY IDOCK:   -4.42 KCAL/MOL
REMARK 922        TOTAL FREE ENERGY PREDICTED BY IDOCK:   -5.12 KCAL/MOL
REMARK 923 INTER-LIGAND FREE ENERGY PREDICTED BY IDOCK:   -4.94 KCAL/MOL
REMARK 924 INTRA-LIGAND FREE ENERGY PREDICTED BY IDOCK:   -0.19 KCAL/MOL
REMARK 927      BINDING AFFINITY PREDICTED BY RF-SCORE:    0.00 PKD
ROOT
HETATM    1 CL   UNL     1     -13.232  11.376  71.846  1.00  0.00    -0.563 Cl 
HETATM    2  C   UNL     2     -13.390   7.356  71.559  1.00  0.00    -0.372 C  
HETATM    3  N   UNL     2     -12.049   6.797  71.805  1.00  0.00    -0.337 NA 
HETATM    4  C   UNL     2     -11.356   7.422  72.941  1.00  0.00    -0.273 C  
ENDROOT
BRANCH   3   5
HETATM    5  C   UNL     2     -11.217   6.739  70.670  1.00  0.00    -0.312 A  
HETATM    6  C   UNL     2     -10.974   7.831  69.838  1.00  0.00    -0.194 A  
HETATM    7  C   UNL     2     -10.208   7.704  68.666  1.00  0.00    -0.199 A  
HETATM    8  S   UNL     2     -10.027   9.176  67.677  1.00  0.00    -0.209 SA 
HETATM    9  C   UNL     2      -9.189   8.529  66.244  1.00  0.00    -0.207 A  
HETATM   10  C   UNL     2      -8.767   7.192  66.177  1.00  0.00    -0.151 A  
HETATM   11  N   UNL     2      -8.943   6.246  67.136  1.00  0.00    -0.111 NA 
HETATM   12  C   UNL     2      -8.122   6.830  65.006  1.00  0.00    -0.126 A  
HETATM   13  C   UNL     2      -7.895   7.738  63.948  1.00  0.00    -0.126 A  
HETATM   14  C   UNL     2      -9.633   6.478  68.281  1.00  0.00    -0.131 A  
HETATM   15  C   UNL     2      -9.812   5.420  69.162  1.00  0.00    -0.242 A  
HETATM   16  C   UNL     2      -8.302   9.074  64.017  1.00  0.00    -0.176 A  
HETATM   17  C   UNL     2     -10.588   5.534  70.332  1.00  0.00    -0.350 A  
HETATM   18  C   UNL     2      -8.969   9.437  65.191  1.00  0.00    -0.258 A  
BRANCH  16  19
HETATM   19  N   UNL     2      -8.036   9.990  63.016  1.00  0.00    -0.142 NA 
HETATM   20  C   UNL     2      -6.679  10.223  62.529  1.00  0.00    -0.132 C  
HETATM   21  C   UNL     2      -9.052  10.907  62.516  1.00  0.00    -0.326 C  
ENDBRANCH  16  19
ENDBRANCH   3   5
TORSDOF 2
ENDMDL
MODEL       75
REMARK 921   NORMALIZED FREE ENERGY PREDICTED BY IDOCK:   -4.41 KCAL/MOL
REMARK 922        TOTAL FREE ENERGY PREDICTED BY IDOCK:   -5.12 KCAL/MOL
REMARK 923 INTER-LIGAND FREE ENERGY PREDICTED BY IDOCK:   -4.92 KCAL/MOL
REMARK 924 INTRA-LIGAND FREE ENERGY PREDICTED BY IDOCK:   -0.19 KCAL/MOL
REMARK 927      BINDING AFFINITY PREDICTED BY RF-SCORE:    0.00 PKD
ROOT
HETATM    1 CL   UNL     1      -9.062   3.034  70.701  1.00  0.00    -0.177 Cl 
HETATM    2  C   UNL     2      -9.744   6.291  72.980  1.00  0.00    -0.154 C  
HETATM    3  N   UNL     2     -11.056   6.863  72.630  1.00  0.00    -0.262 NA 
HETATM    4  C   UNL     2     -12.110   5.851  72.469  1.00  0.00    -0.046 C  
ENDROOT
BRANCH   3   5
HETATM    5  C   UNL     2     -11.039   7.759  71.543  1.00  0.00    -0.236 A  
HETATM    6  C   UNL     2     -10.696   7.385  70.245  1.00  0.00    -0.250 A  
HETATM    7  C   UNL     2     -10.606   8.330  69.209  1.00  0.00    -0.181 A  
HETATM    8  S   UNL     2     -10.106   7.710  67.614  1.00  0.00    -0.210 SA 
HETATM    9  C   UNL     2      -9.934   9.226  66.692  1.00  0.00    -0.264 A  
HETATM   10  C   UNL     2     -10.274  10.469  67.246  1.00  0.00    -0.215 A  
HETATM   11  N   UNL     2     -10.742  10.687  68.503  1.00  0.00    -0.201 NA 
HETATM   12  C   UNL     2     -10.096  11.561  66.413  1.00  0.00    -0.250 A  
HETATM   13  C   UNL     2      -9.611  11.441  65.092  1.00  0.00    -0.258 A  
HETATM   14  C   UNL     2     -10.873   9.696  69.422  1.00  0.00    -0.217 A  
HETATM   15  C   UNL     2     -11.296  10.040  70.698  1.00  0.00    -0.425 A  
HETATM   16  C   UNL     2      -9.283  10.202  64.532  1.00  0.00    -0.257 A  
HETATM   17  C   UNL     2     -11.378   9.103  71.746  1.00  0.00    -0.451 A  
HETATM   18  C   UNL     2      -9.445   9.101  65.378  1.00  0.00    -0.231 A  
BRANCH  16  19
HETATM   19  N   UNL     2      -8.862  10.060  63.223  1.00  0.00    -0.214 NA 
HETATM   20  C   UNL     2      -8.423   8.770  62.693  1.00  0.00    -0.183 C  
HETATM   21  C   UNL     2      -8.654  11.205  62.348  1.00  0.00    -0.242 C  
ENDBRANCH  16  19
ENDBRANCH   3   5
TORSDOF 2
ENDMDL
MODEL       76
REMARK 921   NORMALIZED FREE ENERGY PREDICTED BY IDOCK:   -4.40 KCAL/MOL
REMARK 922        TOTAL FREE ENERGY PREDICTED BY IDOCK:   -5.10 KCAL/MOL
REMARK 923 INTER-LIGAND FREE ENERGY PREDICTED BY IDOCK:   -4.91 KCAL/MOL
REMARK 924 INTRA-LIGAND FREE ENERGY PREDICTED BY IDOCK:   -0.20 KCAL/MOL
REMARK 927      BINDING AFFINITY PREDICTED BY RF-SCORE:    0.00 PKD
ROOT
HETATM    1 CL   UNL     1     -11.844   4.822  73.035  1.00  0.00    -0.221 Cl 
HETATM    2  C   UNL     2      -7.988   5.962  72.723  1.00  0.00    -0.104 C  
HETATM    3  N   UNL     2      -7.925   7.426  72.567  1.00  0.00    -0.098 NA 
HETATM    4  C   UNL     2      -8.829   8.149  73.472  1.00  0.00    -0.241 C  
ENDROOT
BRANCH   3   5
HETATM    5  C   UNL     2      -8.056   7.884  71.242  1.00  0.00    -0.097 A  
HETATM    6  C   UNL     2      -8.854   8.969  70.879  1.00  0.00    -0.294 A  
HETATM    7  C   UNL     2      -9.025   9.336  69.533  1.00  0.00    -0.152 A  
HETATM    8  S   UNL     2     -10.115  10.713  69.222  1.00  0.00    -0.172 SA 
HETATM    9  C   UNL     2     -10.193  10.696  67.442  1.00  0.00    -0.204 A  
HETATM   10  C   UNL     2      -9.417   9.811  66.677  1.00  0.00    -0.171 A  
HETATM   11  N   UNL     2      -8.554   8.878  67.159  1.00  0.00    -0.110 NA 
HETATM   12  C   UNL     2      -9.574   9.915  65.305  1.00  0.00    -0.361 A  
HETATM   13  C   UNL     2     -10.450  10.848  64.706  1.00  0.00    -0.373 A  
HETATM   14  C   UNL     2      -8.391   8.642  68.485  1.00  0.00    -0.123 A  
HETATM   15  C   UNL     2      -7.534   7.619  68.866  1.00  0.00    -0.096 A  
HETATM   16  C   UNL     2     -11.214  11.740  65.465  1.00  0.00    -0.258 A  
HETATM   17  C   UNL     2      -7.364   7.235  70.210  1.00  0.00    -0.082 A  
HETATM   18  C   UNL     2     -11.070  11.624  66.850  1.00  0.00    -0.365 A  
BRANCH  16  19
HETATM   19  N   UNL     2     -12.032  12.698  64.894  1.00  0.00    -0.383 NA 
HETATM   20  C   UNL     2     -12.401  12.649  63.481  1.00  0.00    -0.496 C  
HETATM   21  C   UNL     2     -12.423  13.906  65.607  1.00  0.00    -0.505 C  
ENDBRANCH  16  19
ENDBRANCH   3   5
TORSDOF 2
ENDMDL
MODEL       77
REMARK 921   NORMALIZED FREE ENERGY PREDICTED BY IDOCK:   -4.37 KCAL/MOL
REMARK 922        TOTAL FREE ENERGY PREDICTED BY IDOCK:   -5.07 KCAL/MOL
REMARK 923 INTER-LIGAND FREE ENERGY PREDICTED BY IDOCK:   -4.87 KCAL/MOL
REMARK 924 INTRA-LIGAND FREE ENERGY PREDICTED BY IDOCK:   -0.20 KCAL/MOL
REMARK 927      BINDING AFFINITY PREDICTED BY RF-SCORE:    0.00 PKD
ROOT
HETATM    1 CL   UNL     1     -11.975  12.329  63.743  1.00  0.00    -0.560 Cl 
HETATM    2  C   UNL     2     -10.051  13.659  67.029  1.00  0.00    -0.248 C  
HETATM    3  N   UNL     2      -9.173  12.593  67.543  1.00  0.00    -0.183 NA 
HETATM    4  C   UNL     2      -8.422  11.896  66.489  1.00  0.00    -0.097 C  
ENDROOT
BRANCH   3   5
HETATM    5  C   UNL     2      -9.800  11.678  68.411  1.00  0.00    -0.202 A  
HETATM    6  C   UNL     2      -9.112  10.694  69.119  1.00  0.00    -0.152 A  
HETATM    7  C   UNL     2      -9.789   9.746  69.905  1.00  0.00    -0.243 A  
HETATM    8  S   UNL     2      -8.777   8.518  70.710  1.00  0.00    -0.176 SA 
HETATM    9  C   UNL     2     -10.020   7.445  71.402  1.00  0.00    -0.186 A  
HETATM   10  C   UNL     2     -11.388   7.748  71.314  1.00  0.00    -0.264 A  
HETATM   11  N   UNL     2     -11.933   8.835  70.707  1.00  0.00    -0.198 NA 
HETATM   12  C   UNL     2     -12.239   6.827  71.903  1.00  0.00    -0.377 A  
HETATM   13  C   UNL     2     -11.773   5.663  72.553  1.00  0.00    -0.255 A  
HETATM   14  C   UNL     2     -11.191   9.749  70.033  1.00  0.00    -0.251 A  
HETATM   15  C   UNL     2     -11.856  10.786  69.391  1.00  0.00    -0.370 A  
HETATM   16  C   UNL     2     -10.410   5.366  72.653  1.00  0.00    -0.203 A  
HETATM   17  C   UNL     2     -11.188  11.733  68.592  1.00  0.00    -0.312 A  
HETATM   18  C   UNL     2      -9.550   6.284  72.044  1.00  0.00    -0.161 A  
BRANCH  16  19
HETATM   19  N   UNL     2      -9.933   4.262  73.336  1.00  0.00    -0.129 NA 
HETATM   20  C   UNL     2     -10.827   3.209  73.811  1.00  0.00    -0.217 C  
HETATM   21  C   UNL     2      -8.551   4.167  73.784  1.00  0.00    -0.091 C  
ENDBRANCH  16  19
ENDBRANCH   3   5
TORSDOF 2
ENDMDL
MODEL       78
REMARK 921   NORMALIZED FREE ENERGY PREDICTED BY IDOCK:   -4.35 KCAL/MOL
REMARK 922        TOTAL FREE ENERGY PREDICTED BY IDOCK:   -5.05 KCAL/MOL
REMARK 923 INTER-LIGAND FREE ENERGY PREDICTED BY IDOCK:   -4.85 KCAL/MOL
REMARK 924 INTRA-LIGAND FREE ENERGY PREDICTED BY IDOCK:   -0.20 KCAL/MOL
REMARK 927      BINDING AFFINITY PREDICTED BY RF-SCORE:    0.00 PKD
ROOT
HETATM    1 CL   UNL     1     -12.088  12.704  63.279  1.00  0.00    -0.586 Cl 
HETATM    2  C   UNL     2     -12.046  13.938  67.118  1.00  0.00    -0.387 C  
HETATM    3  N   UNL     2     -10.754  13.580  67.730  1.00  0.00    -0.249 NA 
HETATM    4  C   UNL     2      -9.601  13.856  66.861  1.00  0.00    -0.269 C  
ENDROOT
BRANCH   3   5
HETATM    5  C   UNL     2     -10.692  12.277  68.260  1.00  0.00    -0.221 A  
HETATM    6  C   UNL     2     -10.006  11.229  67.647  1.00  0.00    -0.197 A  
HETATM    7  C   UNL     2     -10.046   9.923  68.165  1.00  0.00    -0.165 A  
HETATM    8  S   UNL     2      -9.161   8.680  67.243  1.00  0.00    -0.134 SA 
HETATM    9  C   UNL     2      -9.635   7.200  68.115  1.00  0.00    -0.131 A  
HETATM   10  C   UNL     2     -10.419   7.248  69.278  1.00  0.00    -0.216 A  
HETATM   11  N   UNL     2     -10.916   8.368  69.865  1.00  0.00    -0.212 NA 
HETATM   12  C   UNL     2     -10.704   6.022  69.854  1.00  0.00    -0.393 A  
HETATM   13  C   UNL     2     -10.239   4.800  69.318  1.00  0.00    -0.144 A  
HETATM   14  C   UNL     2     -10.763   9.608  69.334  1.00  0.00    -0.228 A  
HETATM   15  C   UNL     2     -11.370  10.676  69.981  1.00  0.00    -0.400 A  
HETATM   16  C   UNL     2      -9.447   4.750  68.167  1.00  0.00    -0.141 A  
HETATM   17  C   UNL     2     -11.347  11.985  69.463  1.00  0.00    -0.298 A  
HETATM   18  C   UNL     2      -9.173   5.986  67.574  1.00  0.00    -0.111 A  
BRANCH  16  19
HETATM   19  N   UNL     2      -8.935   3.570  67.662  1.00  0.00    -0.127 NA 
HETATM   20  C   UNL     2      -8.476   3.462  66.279  1.00  0.00    -0.110 C  
HETATM   21  C   UNL     2      -8.988   2.320  68.408  1.00  0.00    -0.132 C  
ENDBRANCH  16  19
ENDBRANCH   3   5
TORSDOF 2
ENDMDL
MODEL       79
REMARK 921   NORMALIZED FREE ENERGY PREDICTED BY IDOCK:   -4.34 KCAL/MOL
REMARK 922        TOTAL FREE ENERGY PREDICTED BY IDOCK:   -5.04 KCAL/MOL
REMARK 923 INTER-LIGAND FREE ENERGY PREDICTED BY IDOCK:   -4.85 KCAL/MOL
REMARK 924 INTRA-LIGAND FREE ENERGY PREDICTED BY IDOCK:   -0.18 KCAL/MOL
REMARK 927      BINDING AFFINITY PREDICTED BY RF-SCORE:    0.00 PKD
ROOT
HETATM    1 CL   UNL     1      -7.698   8.061  62.984  1.00  0.00    -0.129 Cl 
HETATM    2  C   UNL     2      -7.219   8.244  66.984  1.00  0.00    -0.083 C  
HETATM    3  N   UNL     2      -8.534   8.121  67.638  1.00  0.00    -0.130 NA 
HETATM    4  C   UNL     2      -9.381   7.073  67.051  1.00  0.00    -0.146 C  
ENDROOT
BRANCH   3   5
HETATM    5  C   UNL     2      -9.241   9.331  67.774  1.00  0.00    -0.129 A  
HETATM    6  C   UNL     2      -8.693  10.580  67.483  1.00  0.00    -0.125 A  
HETATM    7  C   UNL     2      -9.405  11.768  67.718  1.00  0.00    -0.181 A  
HETATM    8  S   UNL     2      -8.553  13.288  67.343  1.00  0.00    -0.213 SA 
HETATM    9  C   UNL     2      -9.709  14.495  67.964  1.00  0.00    -0.218 A  
HETATM   10  C   UNL     2     -10.964  14.122  68.469  1.00  0.00    -0.254 A  
HETATM   11  N   UNL     2     -11.446  12.855  68.569  1.00  0.00    -0.286 NA 
HETATM   12  C   UNL     2     -11.762  15.165  68.909  1.00  0.00    -0.357 A  
HETATM   13  C   UNL     2     -11.351  16.515  68.853  1.00  0.00    -0.206 A  
HETATM   14  C   UNL     2     -10.712  11.761  68.243  1.00  0.00    -0.214 A  
HETATM   15  C   UNL     2     -11.277  10.509  68.448  1.00  0.00    -0.339 A  
HETATM   16  C   UNL     2     -10.107  16.891  68.338  1.00  0.00    -0.304 A  
HETATM   17  C   UNL     2     -10.567   9.314  68.227  1.00  0.00    -0.237 A  
HETATM   18  C   UNL     2      -9.294  15.838  67.910  1.00  0.00    -0.200 A  
BRANCH  16  19
HETATM   19  N   UNL     2      -9.713  18.211  68.221  1.00  0.00    -0.319 NA 
HETATM   20  C   UNL     2     -10.545  19.203  67.544  1.00  0.00    -0.471 C  
HETATM   21  C   UNL     2      -8.378  18.656  68.596  1.00  0.00    -0.313 C  
ENDBRANCH  16  19
ENDBRANCH   3   5
TORSDOF 2
ENDMDL
MODEL       80
REMARK 921   NORMALIZED FREE ENERGY PREDICTED BY IDOCK:   -4.33 KCAL/MOL
REMARK 922        TOTAL FREE ENERGY PREDICTED BY IDOCK:   -5.03 KCAL/MOL
REMARK 923 INTER-LIGAND FREE ENERGY PREDICTED BY IDOCK:   -4.83 KCAL/MOL
REMARK 924 INTRA-LIGAND FREE ENERGY PREDICTED BY IDOCK:   -0.19 KCAL/MOL
REMARK 927      BINDING AFFINITY PREDICTED BY RF-SCORE:    0.00 PKD
ROOT
HETATM    1 CL   UNL     1     -12.405  14.531  71.574  1.00  0.00    -0.410 Cl 
HETATM    2  C   UNL     2      -9.279  15.815  69.373  1.00  0.00    -0.263 C  
HETATM    3  N   UNL     2      -9.766  16.290  68.066  1.00  0.00    -0.228 NA 
HETATM    4  C   UNL     2     -10.980  17.112  68.159  1.00  0.00    -0.231 C  
ENDROOT
BRANCH   3   5
HETATM    5  C   UNL     2      -9.905  15.286  67.088  1.00  0.00    -0.224 A  
HETATM    6  C   UNL     2      -9.361  14.008  67.215  1.00  0.00    -0.230 A  
HETATM    7  C   UNL     2      -9.448  13.067  66.175  1.00  0.00    -0.150 A  
HETATM    8  S   UNL     2      -8.661  11.493  66.465  1.00  0.00    -0.151 SA 
HETATM    9  C   UNL     2      -8.837  10.719  64.870  1.00  0.00    -0.163 A  
HETATM   10  C   UNL     2      -9.555  11.329  63.829  1.00  0.00    -0.259 A  
HETATM   11  N   UNL     2     -10.171  12.539  63.880  1.00  0.00    -0.403 NA 
HETATM   12  C   UNL     2      -9.616  10.609  62.648  1.00  0.00    -0.293 A  
HETATM   13  C   UNL     2      -9.004   9.346  62.492  1.00  0.00    -0.241 A  
HETATM   14  C   UNL     2     -10.101  13.356  64.962  1.00  0.00    -0.239 A  
HETATM   15  C   UNL     2     -10.710  14.600  64.882  1.00  0.00    -0.447 A  
HETATM   16  C   UNL     2      -8.299   8.730  63.530  1.00  0.00    -0.145 A  
HETATM   17  C   UNL     2     -10.618  15.555  65.913  1.00  0.00    -0.350 A  
HETATM   18  C   UNL     2      -8.222   9.463  64.718  1.00  0.00    -0.145 A  
BRANCH  16  19
HETATM   19  N   UNL     2      -7.745   7.469  63.414  1.00  0.00    -0.125 NA 
HETATM   20  C   UNL     2      -8.138   6.553  62.346  1.00  0.00    -0.093 C  
HETATM   21  C   UNL     2      -6.879   6.906  64.441  1.00  0.00    -0.046 C  
ENDBRANCH  16  19
ENDBRANCH   3   5
TORSDOF 2
ENDMDL
MODEL       81
REMARK 921   NORMALIZED FREE ENERGY PREDICTED BY IDOCK:   -4.28 KCAL/MOL
REMARK 922        TOTAL FREE ENERGY PREDICTED BY IDOCK:   -4.98 KCAL/MOL
REMARK 923 INTER-LIGAND FREE ENERGY PREDICTED BY IDOCK:   -4.79 KCAL/MOL
REMARK 924 INTRA-LIGAND FREE ENERGY PREDICTED BY IDOCK:   -0.19 KCAL/MOL
REMARK 927      BINDING AFFINITY PREDICTED BY RF-SCORE:    0.00 PKD
ROOT
HETATM    1 CL   UNL     1     -10.754   8.063  66.884  1.00  0.00    -0.334 Cl 
HETATM    2  C   UNL     2     -11.641  11.861  65.857  1.00  0.00    -0.224 C  
HETATM    3  N   UNL     2     -10.423  12.529  65.366  1.00  0.00    -0.276 NA 
HETATM    4  C   UNL     2      -9.625  11.694  64.457  1.00  0.00    -0.114 C  
ENDROOT
BRANCH   3   5
HETATM    5  C   UNL     2      -9.618  13.102  66.370  1.00  0.00    -0.255 A  
HETATM    6  C   UNL     2      -9.507  14.476  66.576  1.00  0.00    -0.310 A  
HETATM    7  C   UNL     2      -8.623  15.007  67.531  1.00  0.00    -0.180 A  
HETATM    8  S   UNL     2      -8.555  16.785  67.644  1.00  0.00    -0.208 SA 
HETATM    9  C   UNL     2      -7.209  17.007  68.792  1.00  0.00    -0.226 A  
HETATM   10  C   UNL     2      -6.585  15.916  69.416  1.00  0.00    -0.173 A  
HETATM   11  N   UNL     2      -6.888  14.604  69.233  1.00  0.00    -0.133 NA 
HETATM   12  C   UNL     2      -5.559  16.238  70.289  1.00  0.00    -0.174 A  
HETATM   13  C   UNL     2      -5.165  17.571  70.544  1.00  0.00    -0.264 A  
HETATM   14  C   UNL     2      -7.818  14.182  68.339  1.00  0.00    -0.143 A  
HETATM   15  C   UNL     2      -8.000  12.814  68.183  1.00  0.00    -0.156 A  
HETATM   16  C   UNL     2      -5.794  18.660  69.934  1.00  0.00    -0.242 A  
HETATM   17  C   UNL     2      -8.874  12.273  67.220  1.00  0.00    -0.190 A  
HETATM   18  C   UNL     2      -6.817  18.335  69.038  1.00  0.00    -0.264 A  
BRANCH  16  19
HETATM   19  N   UNL     2      -5.460  19.972  70.215  1.00  0.00    -0.241 NA 
HETATM   20  C   UNL     2      -5.244  20.431  71.586  1.00  0.00    -0.343 C  
HETATM   21  C   UNL     2      -5.483  21.012  69.197  1.00  0.00    -0.340 C  
ENDBRANCH  16  19
ENDBRANCH   3   5
TORSDOF 2
ENDMDL
MODEL       82
REMARK 921   NORMALIZED FREE ENERGY PREDICTED BY IDOCK:   -4.27 KCAL/MOL
REMARK 922        TOTAL FREE ENERGY PREDICTED BY IDOCK:   -4.97 KCAL/MOL
REMARK 923 INTER-LIGAND FREE ENERGY PREDICTED BY IDOCK:   -4.77 KCAL/MOL
REMARK 924 INTRA-LIGAND FREE ENERGY PREDICTED BY IDOCK:   -0.19 KCAL/MOL
REMARK 927      BINDING AFFINITY PREDICTED BY RF-SCORE:    0.00 PKD
ROOT
HETATM    1 CL   UNL     1     -11.043   5.842  71.413  1.00  0.00    -0.332 Cl 
HETATM    2  C   UNL     2      -8.608   5.974  68.201  1.00  0.00    -0.114 C  
HETATM    3  N   UNL     2      -7.814   7.215  68.243  1.00  0.00    -0.120 NA 
HETATM    4  C   UNL     2      -7.280   7.521  69.578  1.00  0.00    -0.082 C  
ENDROOT
BRANCH   3   5
HETATM    5  C   UNL     2      -8.445   8.339  67.677  1.00  0.00    -0.130 A  
HETATM    6  C   UNL     2      -8.042   9.652  67.922  1.00  0.00    -0.106 A  
HETATM    7  C   UNL     2      -8.756  10.747  67.407  1.00  0.00    -0.126 A  
HETATM    8  S   UNL     2      -8.148  12.364  67.847  1.00  0.00    -0.174 SA 
HETATM    9  C   UNL     2      -9.426  13.409  67.173  1.00  0.00    -0.244 A  
HETATM   10  C   UNL     2     -10.487  12.883  66.420  1.00  0.00    -0.267 A  
HETATM   11  N   UNL     2     -10.693  11.572  66.127  1.00  0.00    -0.267 NA 
HETATM   12  C   UNL     2     -11.402  13.813  65.953  1.00  0.00    -0.311 A  
HETATM   13  C   UNL     2     -11.281  15.197  66.207  1.00  0.00    -0.273 A  
HETATM   14  C   UNL     2      -9.902  10.579  66.606  1.00  0.00    -0.199 A  
HETATM   15  C   UNL     2     -10.242   9.268  66.301  1.00  0.00    -0.273 A  
HETATM   16  C   UNL     2     -10.217  15.725  66.946  1.00  0.00    -0.280 A  
HETATM   17  C   UNL     2      -9.541   8.164  66.822  1.00  0.00    -0.281 A  
HETATM   18  C   UNL     2      -9.303  14.786  67.433  1.00  0.00    -0.199 A  
BRANCH  16  19
HETATM   19  N   UNL     2     -10.051  17.081  67.154  1.00  0.00    -0.285 NA 
HETATM   20  C   UNL     2      -9.859  17.634  68.493  1.00  0.00    -0.346 C  
HETATM   21  C   UNL     2     -10.239  18.057  66.090  1.00  0.00    -0.363 C  
ENDBRANCH  16  19
ENDBRANCH   3   5
TORSDOF 2
ENDMDL
MODEL       83
REMARK 921   NORMALIZED FREE ENERGY PREDICTED BY IDOCK:   -4.25 KCAL/MOL
REMARK 922        TOTAL FREE ENERGY PREDICTED BY IDOCK:   -4.94 KCAL/MOL
REMARK 923 INTER-LIGAND FREE ENERGY PREDICTED BY IDOCK:   -4.76 KCAL/MOL
REMARK 924 INTRA-LIGAND FREE ENERGY PREDICTED BY IDOCK:   -0.18 KCAL/MOL
REMARK 927      BINDING AFFINITY PREDICTED BY RF-SCORE:    0.00 PKD
ROOT
HETATM    1 CL   UNL     1      -9.233   5.403  73.023  1.00  0.00    -0.134 Cl 
HETATM    2  C   UNL     2     -11.162   6.266  69.588  1.00  0.00    -0.437 C  
HETATM    3  N   UNL     2     -10.177   6.629  68.554  1.00  0.00    -0.160 NA 
HETATM    4  C   UNL     2      -9.004   5.743  68.530  1.00  0.00    -0.112 C  
ENDROOT
BRANCH   3   5
HETATM    5  C   UNL     2      -9.793   7.984  68.554  1.00  0.00    -0.174 A  
HETATM    6  C   UNL     2     -10.545   8.996  67.960  1.00  0.00    -0.242 A  
HETATM    7  C   UNL     2     -10.080  10.321  67.906  1.00  0.00    -0.170 A  
HETATM    8  S   UNL     2     -11.131  11.494  67.069  1.00  0.00    -0.305 SA 
HETATM    9  C   UNL     2     -10.094  12.943  67.062  1.00  0.00    -0.245 A  
HETATM   10  C   UNL     2      -8.851  12.964  67.714  1.00  0.00    -0.188 A  
HETATM   11  N   UNL     2      -8.282  11.933  68.393  1.00  0.00    -0.162 NA 
HETATM   12  C   UNL     2      -8.156  14.160  67.632  1.00  0.00    -0.188 A  
HETATM   13  C   UNL     2      -8.658  15.288  66.946  1.00  0.00    -0.289 A  
HETATM   14  C   UNL     2      -8.843  10.699  68.461  1.00  0.00    -0.148 A  
HETATM   15  C   UNL     2      -8.144   9.699  69.123  1.00  0.00    -0.104 A  
HETATM   16  C   UNL     2      -9.902  15.274  66.307  1.00  0.00    -0.294 A  
HETATM   17  C   UNL     2      -8.595   8.366  69.172  1.00  0.00    -0.134 A  
HETATM   18  C   UNL     2     -10.596  14.063  66.374  1.00  0.00    -0.280 A  
BRANCH  16  19
HETATM   19  N   UNL     2     -10.434  16.386  65.682  1.00  0.00    -0.443 NA 
HETATM   20  C   UNL     2     -10.398  17.708  66.304  1.00  0.00    -0.342 C  
HETATM   21  C   UNL     2     -11.221  16.286  64.461  1.00  0.00    -0.207 C  
ENDBRANCH  16  19
ENDBRANCH   3   5
TORSDOF 2
ENDMDL
MODEL       84
REMARK 921   NORMALIZED FREE ENERGY PREDICTED BY IDOCK:   -4.24 KCAL/MOL
REMARK 922        TOTAL FREE ENERGY PREDICTED BY IDOCK:   -4.92 KCAL/MOL
REMARK 923 INTER-LIGAND FREE ENERGY PREDICTED BY IDOCK:   -4.74 KCAL/MOL
REMARK 924 INTRA-LIGAND FREE ENERGY PREDICTED BY IDOCK:   -0.18 KCAL/MOL
REMARK 927      BINDING AFFINITY PREDICTED BY RF-SCORE:    0.00 PKD
ROOT
HETATM    1 CL   UNL     1      -6.235  20.233  69.211  1.00  0.00    -0.360 Cl 
HETATM    2  C   UNL     2      -9.039  18.952  66.610  1.00  0.00    -0.330 C  
HETATM    3  N   UNL     2      -9.896  17.953  67.272  1.00  0.00    -0.298 NA 
HETATM    4  C   UNL     2     -10.285  18.331  68.638  1.00  0.00    -0.353 C  
ENDROOT
BRANCH   3   5
HETATM    5  C   UNL     2      -9.406  16.633  67.229  1.00  0.00    -0.230 A  
HETATM    6  C   UNL     2     -10.227  15.507  67.266  1.00  0.00    -0.260 A  
HETATM    7  C   UNL     2      -9.690  14.209  67.310  1.00  0.00    -0.236 A  
HETATM    8  S   UNL     2     -10.865  12.871  67.406  1.00  0.00    -0.256 SA 
HETATM    9  C   UNL     2      -9.781  11.475  67.640  1.00  0.00    -0.174 A  
HETATM   10  C   UNL     2      -8.384  11.612  67.605  1.00  0.00    -0.142 A  
HETATM   11  N   UNL     2      -7.695  12.768  67.416  1.00  0.00    -0.170 NA 
HETATM   12  C   UNL     2      -7.668  10.442  67.795  1.00  0.00    -0.089 A  
HETATM   13  C   UNL     2      -8.290   9.192  68.005  1.00  0.00    -0.120 A  
HETATM   14  C   UNL     2      -8.302  13.977  67.303  1.00  0.00    -0.194 A  
HETATM   15  C   UNL     2      -7.498  15.102  67.180  1.00  0.00    -0.176 A  
HETATM   16  C   UNL     2      -9.681   9.050  68.028  1.00  0.00    -0.155 A  
HETATM   17  C   UNL     2      -8.026  16.407  67.147  1.00  0.00    -0.215 A  
HETATM   18  C   UNL     2     -10.406  10.233  67.854  1.00  0.00    -0.234 A  
BRANCH  16  19
HETATM   19  N   UNL     2     -10.306   7.826  68.174  1.00  0.00    -0.202 NA 
HETATM   20  C   UNL     2     -10.880   7.116  67.032  1.00  0.00    -0.312 C  
HETATM   21  C   UNL     2     -10.597   7.256  69.482  1.00  0.00    -0.234 C  
ENDBRANCH  16  19
ENDBRANCH   3   5
TORSDOF 2
ENDMDL
MODEL       85
REMARK 921   NORMALIZED FREE ENERGY PREDICTED BY IDOCK:   -4.13 KCAL/MOL
REMARK 922        TOTAL FREE ENERGY PREDICTED BY IDOCK:   -4.80 KCAL/MOL
REMARK 923 INTER-LIGAND FREE ENERGY PREDICTED BY IDOCK:   -4.61 KCAL/MOL
REMARK 924 INTRA-LIGAND FREE ENERGY PREDICTED BY IDOCK:   -0.19 KCAL/MOL
REMARK 927      BINDING AFFINITY PREDICTED BY RF-SCORE:    0.00 PKD
ROOT
HETATM    1 CL   UNL     1     -10.466  20.186  65.870  1.00  0.00    -0.502 Cl 
HETATM    2  C   UNL     2      -7.859  18.096  68.128  1.00  0.00    -0.280 C  
HETATM    3  N   UNL     2      -7.168  17.106  67.283  1.00  0.00    -0.155 NA 
HETATM    4  C   UNL     2      -6.740  17.646  65.985  1.00  0.00    -0.261 C  
ENDROOT
BRANCH   3   5
HETATM    5  C   UNL     2      -7.849  15.884  67.128  1.00  0.00    -0.214 A  
HETATM    6  C   UNL     2      -7.456  14.700  67.752  1.00  0.00    -0.180 A  
HETATM    7  C   UNL     2      -8.113  13.483  67.498  1.00  0.00    -0.186 A  
HETATM    8  S   UNL     2      -7.465  12.047  68.331  1.00  0.00    -0.115 SA 
HETATM    9  C   UNL     2      -8.433  10.749  67.586  1.00  0.00    -0.119 A  
HETATM   10  C   UNL     2      -9.470  11.028  66.683  1.00  0.00    -0.184 A  
HETATM   11  N   UNL     2      -9.854  12.260  66.256  1.00  0.00    -0.236 NA 
HETATM   12  C   UNL     2     -10.142   9.923  66.189  1.00  0.00    -0.315 A  
HETATM   13  C   UNL     2      -9.817   8.601  66.566  1.00  0.00    -0.348 A  
HETATM   14  C   UNL     2      -9.207  13.398  66.617  1.00  0.00    -0.214 A  
HETATM   15  C   UNL     2      -9.640  14.598  66.068  1.00  0.00    -0.322 A  
HETATM   16  C   UNL     2      -8.793   8.320  67.476  1.00  0.00    -0.135 A  
HETATM   17  C   UNL     2      -8.982  15.819  66.307  1.00  0.00    -0.381 A  
HETATM   18  C   UNL     2      -8.102   9.434  67.961  1.00  0.00    -0.106 A  
BRANCH  16  19
HETATM   19  N   UNL     2      -8.499   7.038  67.900  1.00  0.00    -0.124 NA 
HETATM   20  C   UNL     2      -8.554   5.897  66.989  1.00  0.00    -0.110 C  
HETATM   21  C   UNL     2      -8.299   6.714  69.306  1.00  0.00    -0.124 C  
ENDBRANCH  16  19
ENDBRANCH   3   5
TORSDOF 2
ENDMDL
MODEL       86
REMARK 921   NORMALIZED FREE ENERGY PREDICTED BY IDOCK:   -4.12 KCAL/MOL
REMARK 922        TOTAL FREE ENERGY PREDICTED BY IDOCK:   -4.79 KCAL/MOL
REMARK 923 INTER-LIGAND FREE ENERGY PREDICTED BY IDOCK:   -4.62 KCAL/MOL
REMARK 924 INTRA-LIGAND FREE ENERGY PREDICTED BY IDOCK:   -0.17 KCAL/MOL
REMARK 927      BINDING AFFINITY PREDICTED BY RF-SCORE:    0.00 PKD
ROOT
HETATM    1 CL   UNL     1     -10.541  16.311  65.011  1.00  0.00    -0.338 Cl 
HETATM    2  C   UNL     2      -9.989  12.507  63.790  1.00  0.00    -0.128 C  
HETATM    3  N   UNL     2     -11.091  11.669  64.294  1.00  0.00    -0.343 NA 
HETATM    4  C   UNL     2     -12.413  12.297  64.154  1.00  0.00    -0.434 C  
ENDROOT
BRANCH   3   5
HETATM    5  C   UNL     2     -10.902  11.166  65.596  1.00  0.00    -0.138 A  
HETATM    6  C   UNL     2     -10.201   9.992  65.872  1.00  0.00    -0.275 A  
HETATM    7  C   UNL     2     -10.114   9.480  67.178  1.00  0.00    -0.229 A  
HETATM    8  S   UNL     2      -9.227   7.945  67.367  1.00  0.00    -0.143 SA 
HETATM    9  C   UNL     2      -9.532   7.578  69.084  1.00  0.00    -0.150 A  
HETATM   10  C   UNL     2     -10.220   8.473  69.918  1.00  0.00    -0.204 A  
HETATM   11  N   UNL     2     -10.741   9.673  69.552  1.00  0.00    -0.224 NA 
HETATM   12  C   UNL     2     -10.378   8.060  71.231  1.00  0.00    -0.230 A  
HETATM   13  C   UNL     2      -9.879   6.828  71.708  1.00  0.00    -0.170 A  
HETATM   14  C   UNL     2     -10.712  10.130  68.274  1.00  0.00    -0.238 A  
HETATM   15  C   UNL     2     -11.333  11.340  67.998  1.00  0.00    -0.372 A  
HETATM   16  C   UNL     2      -9.181   5.941  70.883  1.00  0.00    -0.153 A  
HETATM   17  C   UNL     2     -11.437  11.855  66.692  1.00  0.00    -0.382 A  
HETATM   18  C   UNL     2      -9.037   6.347  69.553  1.00  0.00    -0.138 A  
BRANCH  16  19
HETATM   19  N   UNL     2      -8.636   4.758  71.347  1.00  0.00    -0.114 NA 
HETATM   20  C   UNL     2      -7.193   4.590  71.508  1.00  0.00    -0.059 C  
HETATM   21  C   UNL     2      -9.436   3.555  71.528  1.00  0.00    -0.152 C  
ENDBRANCH  16  19
ENDBRANCH   3   5
TORSDOF 2
ENDMDL
MODEL       87
REMARK 921   NORMALIZED FREE ENERGY PREDICTED BY IDOCK:   -4.11 KCAL/MOL
REMARK 922        TOTAL FREE ENERGY PREDICTED BY IDOCK:   -4.78 KCAL/MOL
REMARK 923 INTER-LIGAND FREE ENERGY PREDICTED BY IDOCK:   -4.59 KCAL/MOL
REMARK 924 INTRA-LIGAND FREE ENERGY PREDICTED BY IDOCK:   -0.19 KCAL/MOL
REMARK 927      BINDING AFFINITY PREDICTED BY RF-SCORE:    0.00 PKD
ROOT
HETATM    1 CL   UNL     1     -14.240  15.325  71.817  1.00  0.00    -0.634 Cl 
HETATM    2  C   UNL     2     -10.553  15.242  70.186  1.00  0.00    -0.257 C  
HETATM    3  N   UNL     2     -10.641  14.725  68.809  1.00  0.00    -0.244 NA 
HETATM    4  C   UNL     2     -11.765  15.286  68.046  1.00  0.00    -0.251 C  
ENDROOT
BRANCH   3   5
HETATM    5  C   UNL     2     -10.604  13.321  68.702  1.00  0.00    -0.246 A  
HETATM    6  C   UNL     2      -9.605  12.628  68.018  1.00  0.00    -0.213 A  
HETATM    7  C   UNL     2      -9.656  11.233  67.861  1.00  0.00    -0.178 A  
HETATM    8  S   UNL     2      -8.334  10.495  66.919  1.00  0.00    -0.128 SA 
HETATM    9  C   UNL     2      -8.891   8.806  66.805  1.00  0.00    -0.129 A  
HETATM   10  C   UNL     2     -10.047   8.364  67.468  1.00  0.00    -0.218 A  
HETATM   11  N   UNL     2     -10.872   9.124  68.236  1.00  0.00    -0.115 NA 
HETATM   12  C   UNL     2     -10.356   7.025  67.297  1.00  0.00    -0.331 A  
HETATM   13  C   UNL     2      -9.565   6.154  66.515  1.00  0.00    -0.183 A  
HETATM   14  C   UNL     2     -10.703  10.461  68.398  1.00  0.00    -0.225 A  
HETATM   15  C   UNL     2     -11.644  11.152  69.149  1.00  0.00    -0.393 A  
HETATM   16  C   UNL     2      -8.406   6.588  65.864  1.00  0.00    -0.140 A  
HETATM   17  C   UNL     2     -11.609  12.551  69.301  1.00  0.00    -0.378 A  
HETATM   18  C   UNL     2      -8.103   7.944  66.021  1.00  0.00    -0.112 A  
BRANCH  16  19
HETATM   19  N   UNL     2      -7.590   5.737  65.143  1.00  0.00    -0.082 NA 
HETATM   20  C   UNL     2      -6.133   5.849  65.189  1.00  0.00    -0.026 C  
HETATM   21  C   UNL     2      -8.120   4.804  64.158  1.00  0.00    -0.111 C  
ENDBRANCH  16  19
ENDBRANCH   3   5
TORSDOF 2
ENDMDL
MODEL       88
REMARK 921   NORMALIZED FREE ENERGY PREDICTED BY IDOCK:   -4.08 KCAL/MOL
REMARK 922        TOTAL FREE ENERGY PREDICTED BY IDOCK:   -4.74 KCAL/MOL
REMARK 923 INTER-LIGAND FREE ENERGY PREDICTED BY IDOCK:   -4.55 KCAL/MOL
REMARK 924 INTRA-LIGAND FREE ENERGY PREDICTED BY IDOCK:   -0.19 KCAL/MOL
REMARK 927      BINDING AFFINITY PREDICTED BY RF-SCORE:    0.00 PKD
ROOT
HETATM    1 CL   UNL     1      -6.748   9.058  71.514  1.00  0.00    -0.079 Cl 
HETATM    2  C   UNL     2     -10.067   8.907  69.228  1.00  0.00    -0.203 C  
HETATM    3  N   UNL     2      -9.691   9.078  67.813  1.00  0.00    -0.150 NA 
HETATM    4  C   UNL     2      -8.503   8.303  67.427  1.00  0.00    -0.125 C  
ENDROOT
BRANCH   3   5
HETATM    5  C   UNL     2      -9.588  10.416  67.387  1.00  0.00    -0.154 A  
HETATM    6  C   UNL     2      -8.747  11.352  67.988  1.00  0.00    -0.148 A  
HETATM    7  C   UNL     2      -8.742  12.699  67.587  1.00  0.00    -0.179 A  
HETATM    8  S   UNL     2      -7.650  13.786  68.484  1.00  0.00    -0.131 SA 
HETATM    9  C   UNL     2      -8.104  15.370  67.804  1.00  0.00    -0.140 A  
HETATM   10  C   UNL     2      -9.026  15.484  66.752  1.00  0.00    -0.266 A  
HETATM   11  N   UNL     2      -9.683  14.460  66.145  1.00  0.00    -0.311 NA 
HETATM   12  C   UNL     2      -9.278  16.775  66.319  1.00  0.00    -0.313 A  
HETATM   13  C   UNL     2      -8.651  17.906  66.887  1.00  0.00    -0.259 A  
HETATM   14  C   UNL     2      -9.568  13.170  66.550  1.00  0.00    -0.268 A  
HETATM   15  C   UNL     2     -10.338  12.211  65.904  1.00  0.00    -0.286 A  
HETATM   16  C   UNL     2      -7.721  17.794  67.926  1.00  0.00    -0.225 A  
HETATM   17  C   UNL     2     -10.359  10.862  66.306  1.00  0.00    -0.306 A  
HETATM   18  C   UNL     2      -7.480  16.493  68.376  1.00  0.00    -0.186 A  
BRANCH  16  19
HETATM   19  N   UNL     2      -7.055  18.884  68.454  1.00  0.00    -0.259 NA 
HETATM   20  C   UNL     2      -7.163  20.213  67.856  1.00  0.00    -0.294 C  
HETATM   21  C   UNL     2      -6.067  18.748  69.516  1.00  0.00    -0.268 C  
ENDBRANCH  16  19
ENDBRANCH   3   5
TORSDOF 2
ENDMDL
MODEL       89
REMARK 921   NORMALIZED FREE ENERGY PREDICTED BY IDOCK:   -4.05 KCAL/MOL
REMARK 922        TOTAL FREE ENERGY PREDICTED BY IDOCK:   -4.72 KCAL/MOL
REMARK 923 INTER-LIGAND FREE ENERGY PREDICTED BY IDOCK:   -4.54 KCAL/MOL
REMARK 924 INTRA-LIGAND FREE ENERGY PREDICTED BY IDOCK:   -0.18 KCAL/MOL
REMARK 927      BINDING AFFINITY PREDICTED BY RF-SCORE:    0.00 PKD
ROOT
HETATM    1 CL   UNL     1      -7.560   5.225  71.795  1.00  0.00    -0.104 Cl 
HETATM    2  C   UNL     2     -10.947   7.301  71.098  1.00  0.00    -0.247 C  
HETATM    3  N   UNL     2     -10.989   7.701  69.680  1.00  0.00    -0.190 NA 
HETATM    4  C   UNL     2     -10.587   6.629  68.759  1.00  0.00    -0.236 C  
ENDROOT
BRANCH   3   5
HETATM    5  C   UNL     2     -10.318   8.904  69.386  1.00  0.00    -0.213 A  
HETATM    6  C   UNL     2     -10.952  10.145  69.333  1.00  0.00    -0.285 A  
HETATM    7  C   UNL     2     -10.261  11.307  68.948  1.00  0.00    -0.180 A  
HETATM    8  S   UNL     2     -11.218  12.809  68.879  1.00  0.00    -0.286 SA 
HETATM    9  C   UNL     2     -10.034  13.941  68.176  1.00  0.00    -0.240 A  
HETATM   10  C   UNL     2      -8.705  13.560  67.931  1.00  0.00    -0.183 A  
HETATM   11  N   UNL     2      -8.165  12.336  68.164  1.00  0.00    -0.161 NA 
HETATM   12  C   UNL     2      -7.895  14.545  67.389  1.00  0.00    -0.221 A  
HETATM   13  C   UNL     2      -8.363  15.847  67.105  1.00  0.00    -0.231 A  
HETATM   14  C   UNL     2      -8.894  11.283  68.614  1.00  0.00    -0.141 A  
HETATM   15  C   UNL     2      -8.256  10.058  68.753  1.00  0.00    -0.115 A  
HETATM   16  C   UNL     2      -9.682  16.233  67.361  1.00  0.00    -0.234 A  
HETATM   17  C   UNL     2      -8.942   8.886  69.126  1.00  0.00    -0.140 A  
HETATM   18  C   UNL     2     -10.506  15.235  67.891  1.00  0.00    -0.253 A  
BRANCH  16  19
HETATM   19  N   UNL     2     -10.141  17.519  67.144  1.00  0.00    -0.310 NA 
HETATM   20  C   UNL     2     -10.615  17.953  65.832  1.00  0.00    -0.215 C  
HETATM   21  C   UNL     2     -10.013  18.567  68.147  1.00  0.00    -0.361 C  
ENDBRANCH  16  19
ENDBRANCH   3   5
TORSDOF 2
ENDMDL
MODEL       90
REMARK 921   NORMALIZED FREE ENERGY PREDICTED BY IDOCK:   -4.04 KCAL/MOL
REMARK 922        TOTAL FREE ENERGY PREDICTED BY IDOCK:   -4.70 KCAL/MOL
REMARK 923 INTER-LIGAND FREE ENERGY PREDICTED BY IDOCK:   -4.52 KCAL/MOL
REMARK 924 INTRA-LIGAND FREE ENERGY PREDICTED BY IDOCK:   -0.18 KCAL/MOL
REMARK 927      BINDING AFFINITY PREDICTED BY RF-SCORE:    0.00 PKD
ROOT
HETATM    1 CL   UNL     1      -9.852   4.222  62.548  1.00  0.00    -0.139 Cl 
HETATM    2  C   UNL     2      -6.802   6.217  64.276  1.00  0.00    -0.042 C  
HETATM    3  N   UNL     2      -7.291   6.899  65.486  1.00  0.00    -0.076 NA 
HETATM    4  C   UNL     2      -8.177   6.064  66.310  1.00  0.00    -0.118 C  
ENDROOT
BRANCH   3   5
HETATM    5  C   UNL     2      -7.854   8.170  65.261  1.00  0.00    -0.115 A  
HETATM    6  C   UNL     2      -7.921   9.165  66.235  1.00  0.00    -0.103 A  
HETATM    7  C   UNL     2      -8.572  10.387  65.993  1.00  0.00    -0.151 A  
HETATM    8  S   UNL     2      -8.620  11.540  67.352  1.00  0.00    -0.151 SA 
HETATM    9  C   UNL     2      -9.677  12.813  66.688  1.00  0.00    -0.252 A  
HETATM   10  C   UNL     2     -10.141  12.770  65.364  1.00  0.00    -0.259 A  
HETATM   11  N   UNL     2      -9.881  11.796  64.453  1.00  0.00    -0.231 NA 
HETATM   12  C   UNL     2     -10.947  13.830  64.982  1.00  0.00    -0.359 A  
HETATM   13  C   UNL     2     -11.280  14.888  65.856  1.00  0.00    -0.328 A  
HETATM   14  C   UNL     2      -9.172  10.678  64.753  1.00  0.00    -0.220 A  
HETATM   15  C   UNL     2      -9.024   9.714  63.766  1.00  0.00    -0.251 A  
HETATM   16  C   UNL     2     -10.808  14.941  67.171  1.00  0.00    -0.311 A  
HETATM   17  C   UNL     2      -8.385   8.482  64.002  1.00  0.00    -0.099 A  
HETATM   18  C   UNL     2     -10.010  13.863  67.564  1.00  0.00    -0.240 A  
BRANCH  16  19
HETATM   19  N   UNL     2     -11.076  15.998  68.021  1.00  0.00    -0.346 NA 
HETATM   20  C   UNL     2     -10.419  17.293  67.865  1.00  0.00    -0.382 C  
HETATM   21  C   UNL     2     -11.881  15.839  69.225  1.00  0.00    -0.346 C  
ENDBRANCH  16  19
ENDBRANCH   3   5
TORSDOF 2
ENDMDL
MODEL       91
REMARK 921   NORMALIZED FREE ENERGY PREDICTED BY IDOCK:   -4.03 KCAL/MOL
REMARK 922        TOTAL FREE ENERGY PREDICTED BY IDOCK:   -4.70 KCAL/MOL
REMARK 923 INTER-LIGAND FREE ENERGY PREDICTED BY IDOCK:   -4.51 KCAL/MOL
REMARK 924 INTRA-LIGAND FREE ENERGY PREDICTED BY IDOCK:   -0.19 KCAL/MOL
REMARK 927      BINDING AFFINITY PREDICTED BY RF-SCORE:    0.00 PKD
ROOT
HETATM    1 CL   UNL     1      -5.295   4.185  67.520  1.00  0.00    -0.012 Cl 
HETATM    2  C   UNL     2      -9.269   3.677  67.988  1.00  0.00    -0.171 C  
HETATM    3  N   UNL     2      -9.984   4.495  66.993  1.00  0.00    -0.200 NA 
HETATM    4  C   UNL     2      -9.393   4.429  65.649  1.00  0.00    -0.161 C  
ENDROOT
BRANCH   3   5
HETATM    5  C   UNL     2     -10.217   5.829  67.382  1.00  0.00    -0.200 A  
HETATM    6  C   UNL     2     -10.104   6.914  66.514  1.00  0.00    -0.140 A  
HETATM    7  C   UNL     2     -10.258   8.236  66.967  1.00  0.00    -0.310 A  
HETATM    8  S   UNL     2     -10.034   9.519  65.750  1.00  0.00    -0.140 SA 
HETATM    9  C   UNL     2     -10.116  10.979  66.769  1.00  0.00    -0.220 A  
HETATM   10  C   UNL     2     -10.410  10.907  68.139  1.00  0.00    -0.178 A  
HETATM   11  N   UNL     2     -10.645   9.774  68.852  1.00  0.00    -0.213 NA 
HETATM   12  C   UNL     2     -10.447  12.121  68.804  1.00  0.00    -0.201 A  
HETATM   13  C   UNL     2     -10.212  13.354  68.156  1.00  0.00    -0.246 A  
HETATM   14  C   UNL     2     -10.550   8.532  68.311  1.00  0.00    -0.119 A  
HETATM   15  C   UNL     2     -10.744   7.440  69.146  1.00  0.00    -0.180 A  
HETATM   16  C   UNL     2      -9.932  13.430  66.788  1.00  0.00    -0.264 A  
HETATM   17  C   UNL     2     -10.580   6.113  68.705  1.00  0.00    -0.330 A  
HETATM   18  C   UNL     2      -9.876  12.204  66.119  1.00  0.00    -0.254 A  
BRANCH  16  19
HETATM   19  N   UNL     2      -9.757  14.631  66.125  1.00  0.00    -0.306 NA 
HETATM   20  C   UNL     2     -10.497  14.950  64.907  1.00  0.00    -0.359 C  
HETATM   21  C   UNL     2      -8.702  15.568  66.487  1.00  0.00    -0.305 C  
ENDBRANCH  16  19
ENDBRANCH   3   5
TORSDOF 2
ENDMDL
MODEL       92
REMARK 921   NORMALIZED FREE ENERGY PREDICTED BY IDOCK:   -4.01 KCAL/MOL
REMARK 922        TOTAL FREE ENERGY PREDICTED BY IDOCK:   -4.67 KCAL/MOL
REMARK 923 INTER-LIGAND FREE ENERGY PREDICTED BY IDOCK:   -4.48 KCAL/MOL
REMARK 924 INTRA-LIGAND FREE ENERGY PREDICTED BY IDOCK:   -0.19 KCAL/MOL
REMARK 927      BINDING AFFINITY PREDICTED BY RF-SCORE:    0.00 PKD
ROOT
HETATM    1 CL   UNL     1     -11.748  16.091  71.614  1.00  0.00    -0.547 Cl 
HETATM    2  C   UNL     2      -9.667  15.791  68.172  1.00  0.00    -0.211 C  
HETATM    3  N   UNL     2     -10.259  14.732  67.337  1.00  0.00    -0.236 NA 
HETATM    4  C   UNL     2     -11.728  14.768  67.301  1.00  0.00    -0.347 C  
ENDROOT
BRANCH   3   5
HETATM    5  C   UNL     2      -9.788  13.433  67.610  1.00  0.00    -0.226 A  
HETATM    6  C   UNL     2     -10.562  12.447  68.221  1.00  0.00    -0.236 A  
HETATM    7  C   UNL     2     -10.023  11.192  68.555  1.00  0.00    -0.199 A  
HETATM    8  S   UNL     2     -11.121  10.054  69.378  1.00  0.00    -0.198 SA 
HETATM    9  C   UNL     2     -10.004   8.725  69.779  1.00  0.00    -0.190 A  
HETATM   10  C   UNL     2      -8.667   8.731  69.352  1.00  0.00    -0.142 A  
HETATM   11  N   UNL     2      -8.061   9.706  68.625  1.00  0.00    -0.099 NA 
HETATM   12  C   UNL     2      -7.917   7.630  69.730  1.00  0.00    -0.116 A  
HETATM   13  C   UNL     2      -8.453   6.566  70.490  1.00  0.00    -0.138 A  
HETATM   14  C   UNL     2      -8.685  10.859  68.276  1.00  0.00    -0.140 A  
HETATM   15  C   UNL     2      -7.950  11.818  67.591  1.00  0.00    -0.143 A  
HETATM   16  C   UNL     2      -9.788   6.552  70.907  1.00  0.00    -0.183 A  
HETATM   17  C   UNL     2      -8.477  13.082  67.263  1.00  0.00    -0.199 A  
HETATM   18  C   UNL     2     -10.541   7.671  70.541  1.00  0.00    -0.229 A  
BRANCH  16  19
HETATM   19  N   UNL     2     -10.344   5.493  71.600  1.00  0.00    -0.212 NA 
HETATM   20  C   UNL     2     -11.281   5.705  72.702  1.00  0.00    -0.300 C  
HETATM   21  C   UNL     2      -9.899   4.120  71.405  1.00  0.00    -0.184 C  
ENDBRANCH  16  19
ENDBRANCH   3   5
TORSDOF 2
ENDMDL
MODEL       93
REMARK 921   NORMALIZED FREE ENERGY PREDICTED BY IDOCK:   -4.00 KCAL/MOL
REMARK 922        TOTAL FREE ENERGY PREDICTED BY IDOCK:   -4.67 KCAL/MOL
REMARK 923 INTER-LIGAND FREE ENERGY PREDICTED BY IDOCK:   -4.49 KCAL/MOL
REMARK 924 INTRA-LIGAND FREE ENERGY PREDICTED BY IDOCK:   -0.18 KCAL/MOL
REMARK 927      BINDING AFFINITY PREDICTED BY RF-SCORE:    0.00 PKD
ROOT
HETATM    1 CL   UNL     1     -12.433  10.877  71.383  1.00  0.00    -0.474 Cl 
HETATM    2  C   UNL     2     -11.769  11.272  67.425  1.00  0.00    -0.027 C  
HETATM    3  N   UNL     2     -10.383  10.876  67.122  1.00  0.00    -0.210 NA 
HETATM    4  C   UNL     2      -9.962   9.649  67.814  1.00  0.00    -0.171 C  
ENDROOT
BRANCH   3   5
HETATM    5  C   UNL     2      -9.429  11.900  67.276  1.00  0.00    -0.175 A  
HETATM    6  C   UNL     2      -9.695  13.244  67.016  1.00  0.00    -0.238 A  
HETATM    7  C   UNL     2      -8.688  14.221  67.098  1.00  0.00    -0.227 A  
HETATM    8  S   UNL     2      -9.168  15.888  66.688  1.00  0.00    -0.278 SA 
HETATM    9  C   UNL     2      -7.593  16.721  66.726  1.00  0.00    -0.248 A  
HETATM   10  C   UNL     2      -6.419  16.062  67.121  1.00  0.00    -0.110 A  
HETATM   11  N   UNL     2      -6.316  14.759  67.494  1.00  0.00    -0.320 NA 
HETATM   12  C   UNL     2      -5.270  16.835  67.109  1.00  0.00    -0.168 A  
HETATM   13  C   UNL     2      -5.270  18.196  66.732  1.00  0.00    -0.158 A  
HETATM   14  C   UNL     2      -7.366  13.899  67.460  1.00  0.00    -0.166 A  
HETATM   15  C   UNL     2      -7.135  12.572  67.798  1.00  0.00    -0.126 A  
HETATM   16  C   UNL     2      -6.441  18.860  66.351  1.00  0.00    -0.195 A  
HETATM   17  C   UNL     2      -8.134  11.585  67.708  1.00  0.00    -0.133 A  
HETATM   18  C   UNL     2      -7.598  18.076  66.345  1.00  0.00    -0.297 A  
BRANCH  16  19
HETATM   19  N   UNL     2      -6.469  20.205  66.035  1.00  0.00    -0.203 NA 
HETATM   20  C   UNL     2      -6.747  21.224  67.045  1.00  0.00    -0.263 C  
HETATM   21  C   UNL     2      -6.410  20.680  64.660  1.00  0.00    -0.302 C  
ENDBRANCH  16  19
ENDBRANCH   3   5
TORSDOF 2
ENDMDL
MODEL       94
REMARK 921   NORMALIZED FREE ENERGY PREDICTED BY IDOCK:   -3.94 KCAL/MOL
REMARK 922        TOTAL FREE ENERGY PREDICTED BY IDOCK:   -4.59 KCAL/MOL
REMARK 923 INTER-LIGAND FREE ENERGY PREDICTED BY IDOCK:   -4.40 KCAL/MOL
REMARK 924 INTRA-LIGAND FREE ENERGY PREDICTED BY IDOCK:   -0.19 KCAL/MOL
REMARK 927      BINDING AFFINITY PREDICTED BY RF-SCORE:    0.00 PKD
ROOT
HETATM    1 CL   UNL     1      -6.493  21.126  63.611  1.00  0.00    -0.310 Cl 
HETATM    2  C   UNL     2      -7.341  20.229  67.450  1.00  0.00    -0.306 C  
HETATM    3  N   UNL     2      -6.709  18.945  67.801  1.00  0.00    -0.209 NA 
HETATM    4  C   UNL     2      -5.329  18.821  67.310  1.00  0.00    -0.146 C  
ENDROOT
BRANCH   3   5
HETATM    5  C   UNL     2      -7.469  17.804  67.478  1.00  0.00    -0.203 A  
HETATM    6  C   UNL     2      -7.084  16.505  67.807  1.00  0.00    -0.154 A  
HETATM    7  C   UNL     2      -7.829  15.390  67.387  1.00  0.00    -0.188 A  
HETATM    8  S   UNL     2      -7.184  13.791  67.842  1.00  0.00    -0.173 SA 
HETATM    9  C   UNL     2      -8.291  12.708  66.961  1.00  0.00    -0.130 A  
HETATM   10  C   UNL     2      -9.395  13.203  66.249  1.00  0.00    -0.127 A  
HETATM   11  N   UNL     2      -9.749  14.508  66.120  1.00  0.00    -0.309 NA 
HETATM   12  C   UNL     2     -10.173  12.245  65.618  1.00  0.00    -0.287 A  
HETATM   13  C   UNL     2      -9.887  10.864  65.686  1.00  0.00    -0.292 A  
HETATM   14  C   UNL     2      -9.008  15.525  66.629  1.00  0.00    -0.287 A  
HETATM   15  C   UNL     2      -9.425  16.826  66.381  1.00  0.00    -0.307 A  
HETATM   16  C   UNL     2      -8.795  10.368  66.406  1.00  0.00    -0.147 A  
HETATM   17  C   UNL     2      -8.679  17.949  66.787  1.00  0.00    -0.269 A  
HETATM   18  C   UNL     2      -7.999  11.334  67.027  1.00  0.00    -0.150 A  
BRANCH  16  19
HETATM   19  N   UNL     2      -8.534   9.016  66.531  1.00  0.00    -0.117 NA 
HETATM   20  C   UNL     2      -7.229   8.452  66.193  1.00  0.00    -0.077 C  
HETATM   21  C   UNL     2      -9.582   8.049  66.828  1.00  0.00    -0.216 C  
ENDBRANCH  16  19
ENDBRANCH   3   5
TORSDOF 2
ENDMDL
MODEL       95
REMARK 921   NORMALIZED FREE ENERGY PREDICTED BY IDOCK:   -3.93 KCAL/MOL
REMARK 922        TOTAL FREE ENERGY PREDICTED BY IDOCK:   -4.58 KCAL/MOL
REMARK 923 INTER-LIGAND FREE ENERGY PREDICTED BY IDOCK:   -4.39 KCAL/MOL
REMARK 924 INTRA-LIGAND FREE ENERGY PREDICTED BY IDOCK:   -0.19 KCAL/MOL
REMARK 927      BINDING AFFINITY PREDICTED BY RF-SCORE:    0.00 PKD
ROOT
HETATM    1 CL   UNL     1      -9.656   2.692  64.963  1.00  0.00    -0.063 Cl 
HETATM    2  C   UNL     2      -8.238   5.430  62.363  1.00  0.00    -0.106 C  
HETATM    3  N   UNL     2      -7.292   6.318  63.061  1.00  0.00    -0.057 NA 
HETATM    4  C   UNL     2      -6.362   5.602  63.946  1.00  0.00    -0.025 C  
ENDROOT
BRANCH   3   5
HETATM    5  C   UNL     2      -7.886   7.411  63.722  1.00  0.00    -0.108 A  
HETATM    6  C   UNL     2      -8.225   7.399  65.074  1.00  0.00    -0.101 A  
HETATM    7  C   UNL     2      -8.897   8.479  65.672  1.00  0.00    -0.173 A  
HETATM    8  S   UNL     2      -9.308   8.296  67.398  1.00  0.00    -0.146 SA 
HETATM    9  C   UNL     2     -10.293   9.756  67.674  1.00  0.00    -0.230 A  
HETATM   10  C   UNL     2     -10.469  10.727  66.676  1.00  0.00    -0.246 A  
HETATM   11  N   UNL     2      -9.958  10.687  65.418  1.00  0.00    -0.263 NA 
HETATM   12  C   UNL     2     -11.253  11.811  67.034  1.00  0.00    -0.382 A  
HETATM   13  C   UNL     2     -11.835  11.943  68.314  1.00  0.00    -0.343 A  
HETATM   14  C   UNL     2      -9.247   9.632  64.945  1.00  0.00    -0.246 A  
HETATM   15  C   UNL     2      -8.829   9.666  63.622  1.00  0.00    -0.256 A  
HETATM   16  C   UNL     2     -11.650  10.984  69.315  1.00  0.00    -0.314 A  
HETATM   17  C   UNL     2      -8.166   8.584  63.011  1.00  0.00    -0.165 A  
HETATM   18  C   UNL     2     -10.874   9.880  68.950  1.00  0.00    -0.239 A  
BRANCH  16  19
HETATM   19  N   UNL     2     -12.163  11.124  70.591  1.00  0.00    -0.370 NA 
HETATM   20  C   UNL     2     -12.693   9.984  71.335  1.00  0.00    -0.415 C  
HETATM   21  C   UNL     2     -12.378  12.430  71.199  1.00  0.00    -0.141 C  
ENDBRANCH  16  19
ENDBRANCH   3   5
TORSDOF 2
ENDMDL
MODEL       96
REMARK 921   NORMALIZED FREE ENERGY PREDICTED BY IDOCK:   -3.91 KCAL/MOL
REMARK 922        TOTAL FREE ENERGY PREDICTED BY IDOCK:   -4.56 KCAL/MOL
REMARK 923 INTER-LIGAND FREE ENERGY PREDICTED BY IDOCK:   -4.37 KCAL/MOL
REMARK 924 INTRA-LIGAND FREE ENERGY PREDICTED BY IDOCK:   -0.19 KCAL/MOL
REMARK 927      BINDING AFFINITY PREDICTED BY RF-SCORE:    0.00 PKD
ROOT
HETATM    1 CL   UNL     1      -9.166   9.601  62.530  1.00  0.00    -0.282 Cl 
HETATM    2  C   UNL     2      -8.000   8.521  66.236  1.00  0.00    -0.102 C  
HETATM    3  N   UNL     2      -8.963   9.044  67.221  1.00  0.00    -0.126 NA 
HETATM    4  C   UNL     2     -10.365   8.868  66.817  1.00  0.00    -0.247 C  
ENDROOT
BRANCH   3   5
HETATM    5  C   UNL     2      -8.717  10.364  67.644  1.00  0.00    -0.118 A  
HETATM    6  C   UNL     2      -9.482  11.457  67.239  1.00  0.00    -0.176 A  
HETATM    7  C   UNL     2      -9.146  12.769  67.615  1.00  0.00    -0.193 A  
HETATM    8  S   UNL     2     -10.190  14.066  66.978  1.00  0.00    -0.263 SA 
HETATM    9  C   UNL     2      -9.308  15.517  67.519  1.00  0.00    -0.206 A  
HETATM   10  C   UNL     2      -8.167  15.426  68.332  1.00  0.00    -0.142 A  
HETATM   11  N   UNL     2      -7.592  14.281  68.785  1.00  0.00    -0.129 NA 
HETATM   12  C   UNL     2      -7.589  16.635  68.681  1.00  0.00    -0.214 A  
HETATM   13  C   UNL     2      -8.106  17.879  68.257  1.00  0.00    -0.294 A  
HETATM   14  C   UNL     2      -8.034  13.047  68.432  1.00  0.00    -0.135 A  
HETATM   15  C   UNL     2      -7.331  11.944  68.897  1.00  0.00    -0.080 A  
HETATM   16  C   UNL     2      -9.250  17.973  67.458  1.00  0.00    -0.253 A  
HETATM   17  C   UNL     2      -7.652  10.627  68.516  1.00  0.00    -0.097 A  
HETATM   18  C   UNL     2      -9.824  16.753  67.090  1.00  0.00    -0.259 A  
BRANCH  16  19
HETATM   19  N   UNL     2      -9.803  19.183  67.083  1.00  0.00    -0.325 NA 
HETATM   20  C   UNL     2     -10.565  19.327  65.844  1.00  0.00    -0.435 C  
HETATM   21  C   UNL     2      -9.513  20.421  67.793  1.00  0.00    -0.289 C  
ENDBRANCH  16  19
ENDBRANCH   3   5
TORSDOF 2
ENDMDL
MODEL       97
REMARK 921   NORMALIZED FREE ENERGY PREDICTED BY IDOCK:   -3.86 KCAL/MOL
REMARK 922        TOTAL FREE ENERGY PREDICTED BY IDOCK:   -4.50 KCAL/MOL
REMARK 923 INTER-LIGAND FREE ENERGY PREDICTED BY IDOCK:   -4.33 KCAL/MOL
REMARK 924 INTRA-LIGAND FREE ENERGY PREDICTED BY IDOCK:   -0.18 KCAL/MOL
REMARK 927      BINDING AFFINITY PREDICTED BY RF-SCORE:    0.00 PKD
ROOT
HETATM    1 CL   UNL     1     -10.954  15.717  70.982  1.00  0.00    -0.343 Cl 
HETATM    2  C   UNL     2      -9.749  14.995  67.201  1.00  0.00    -0.226 C  
HETATM    3  N   UNL     2     -10.754  14.158  66.522  1.00  0.00    -0.287 NA 
HETATM    4  C   UNL     2     -12.137  14.581  66.780  1.00  0.00    -0.288 C  
ENDROOT
BRANCH   3   5
HETATM    5  C   UNL     2     -10.600  12.772  66.722  1.00  0.00    -0.252 A  
HETATM    6  C   UNL     2      -9.693  11.989  66.010  1.00  0.00    -0.256 A  
HETATM    7  C   UNL     2      -9.635  10.595  66.179  1.00  0.00    -0.188 A  
HETATM    8  S   UNL     2      -8.460   9.722  65.161  1.00  0.00    -0.161 SA 
HETATM    9  C   UNL     2      -8.860   8.029  65.546  1.00  0.00    -0.061 A  
HETATM   10  C   UNL     2      -9.812   7.699  66.522  1.00  0.00    -0.172 A  
HETATM   11  N   UNL     2     -10.540   8.576  67.263  1.00  0.00    -0.288 NA 
HETATM   12  C   UNL     2     -10.015   6.343  66.721  1.00  0.00    -0.225 A  
HETATM   13  C   UNL     2      -9.313   5.353  65.999  1.00  0.00    -0.167 A  
HETATM   14  C   UNL     2     -10.475   9.920  67.085  1.00  0.00    -0.242 A  
HETATM   15  C   UNL     2     -11.313  10.721  67.849  1.00  0.00    -0.372 A  
HETATM   16  C   UNL     2      -8.354   5.678  65.035  1.00  0.00    -0.146 A  
HETATM   17  C   UNL     2     -11.386  12.117  67.678  1.00  0.00    -0.379 A  
HETATM   18  C   UNL     2      -8.161   7.046  64.820  1.00  0.00    -0.096 A  
BRANCH  16  19
HETATM   19  N   UNL     2      -7.616   4.723  64.361  1.00  0.00    -0.071 NA 
HETATM   20  C   UNL     2      -6.690   3.835  65.060  1.00  0.00    -0.048 C  
HETATM   21  C   UNL     2      -7.573   4.661  62.907  1.00  0.00    -0.061 C  
ENDBRANCH  16  19
ENDBRANCH   3   5
TORSDOF 2
ENDMDL
MODEL       98
REMARK 921   NORMALIZED FREE ENERGY PREDICTED BY IDOCK:   -3.86 KCAL/MOL
REMARK 922        TOTAL FREE ENERGY PREDICTED BY IDOCK:   -4.50 KCAL/MOL
REMARK 923 INTER-LIGAND FREE ENERGY PREDICTED BY IDOCK:   -4.32 KCAL/MOL
REMARK 924 INTRA-LIGAND FREE ENERGY PREDICTED BY IDOCK:   -0.18 KCAL/MOL
REMARK 927      BINDING AFFINITY PREDICTED BY RF-SCORE:    0.00 PKD
ROOT
HETATM    1 CL   UNL     1     -11.761  13.031  63.363  1.00  0.00    -0.541 Cl 
HETATM    2  C   UNL     2     -11.772  13.220  67.392  1.00  0.00    -0.373 C  
HETATM    3  N   UNL     2     -10.414  12.948  67.895  1.00  0.00    -0.219 NA 
HETATM    4  C   UNL     2      -9.361  13.637  67.135  1.00  0.00    -0.240 C  
ENDROOT
BRANCH   3   5
HETATM    5  C   UNL     2     -10.110  11.584  68.066  1.00  0.00    -0.186 A  
HETATM    6  C   UNL     2     -10.697  10.782  69.044  1.00  0.00    -0.265 A  
HETATM    7  C   UNL     2     -10.298   9.448  69.237  1.00  0.00    -0.208 A  
HETATM    8  S   UNL     2     -11.104   8.564  70.559  1.00  0.00    -0.228 SA 
HETATM    9  C   UNL     2     -10.179   7.041  70.571  1.00  0.00    -0.196 A  
HETATM   10  C   UNL     2      -9.189   6.772  69.614  1.00  0.00    -0.145 A  
HETATM   11  N   UNL     2      -8.801   7.596  68.605  1.00  0.00    -0.128 NA 
HETATM   12  C   UNL     2      -8.557   5.546  69.741  1.00  0.00    -0.112 A  
HETATM   13  C   UNL     2      -8.883   4.621  70.758  1.00  0.00    -0.155 A  
HETATM   14  C   UNL     2      -9.300   8.848  68.445  1.00  0.00    -0.136 A  
HETATM   15  C   UNL     2      -8.784   9.631  67.421  1.00  0.00    -0.130 A  
HETATM   16  C   UNL     2      -9.878   4.882  71.705  1.00  0.00    -0.180 A  
HETATM   17  C   UNL     2      -9.169  10.972  67.228  1.00  0.00    -0.156 A  
HETATM   18  C   UNL     2     -10.504   6.126  71.589  1.00  0.00    -0.267 A  
BRANCH  16  19
HETATM   19  N   UNL     2     -10.250   3.965  72.671  1.00  0.00    -0.164 NA 
HETATM   20  C   UNL     2     -11.311   4.252  73.633  1.00  0.00    -0.191 C  
HETATM   21  C   UNL     2      -9.496   2.742  72.909  1.00  0.00    -0.093 C  
ENDBRANCH  16  19
ENDBRANCH   3   5
TORSDOF 2
ENDMDL
MODEL       99
REMARK 921   NORMALIZED FREE ENERGY PREDICTED BY IDOCK:   -3.85 KCAL/MOL
REMARK 922        TOTAL FREE ENERGY PREDICTED BY IDOCK:   -4.50 KCAL/MOL
REMARK 923 INTER-LIGAND FREE ENERGY PREDICTED BY IDOCK:   -4.31 KCAL/MOL
REMARK 924 INTRA-LIGAND FREE ENERGY PREDICTED BY IDOCK:   -0.19 KCAL/MOL
REMARK 927      BINDING AFFINITY PREDICTED BY RF-SCORE:    0.00 PKD
ROOT
HETATM    1 CL   UNL     1     -11.544  15.415  71.248  1.00  0.00    -0.397 Cl 
HETATM    2  C   UNL     2      -8.943  15.165  68.176  1.00  0.00    -0.174 C  
HETATM    3  N   UNL     2      -9.661  14.736  66.963  1.00  0.00    -0.232 NA 
HETATM    4  C   UNL     2     -10.949  15.418  66.776  1.00  0.00    -0.282 C  
ENDROOT
BRANCH   3   5
HETATM    5  C   UNL     2      -9.798  13.341  66.821  1.00  0.00    -0.264 A  
HETATM    6  C   UNL     2      -9.853  12.460  67.900  1.00  0.00    -0.202 A  
HETATM    7  C   UNL     2      -9.900  11.068  67.710  1.00  0.00    -0.173 A  
HETATM    8  S   UNL     2      -9.915  10.068  69.186  1.00  0.00    -0.218 SA 
HETATM    9  C   UNL     2      -9.775   8.431  68.496  1.00  0.00    -0.160 A  
HETATM   10  C   UNL     2      -9.786   8.211  67.110  1.00  0.00    -0.217 A  
HETATM   11  N   UNL     2      -9.883   9.165  66.146  1.00  0.00    -0.287 NA 
HETATM   12  C   UNL     2      -9.677   6.888  66.717  1.00  0.00    -0.232 A  
HETATM   13  C   UNL     2      -9.566   5.825  67.640  1.00  0.00    -0.119 A  
HETATM   14  C   UNL     2      -9.911  10.493  66.425  1.00  0.00    -0.218 A  
HETATM   15  C   UNL     2      -9.942  11.384  65.361  1.00  0.00    -0.289 A  
HETATM   16  C   UNL     2      -9.568   6.039  69.022  1.00  0.00    -0.131 A  
HETATM   17  C   UNL     2      -9.883  12.779  65.541  1.00  0.00    -0.169 A  
HETATM   18  C   UNL     2      -9.660   7.376  69.420  1.00  0.00    -0.155 A  
BRANCH  16  19
HETATM   19  N   UNL     2      -9.519   5.007  69.940  1.00  0.00    -0.145 NA 
HETATM   20  C   UNL     2     -10.370   4.996  71.128  1.00  0.00    -0.184 C  
HETATM   21  C   UNL     2      -8.501   3.967  69.882  1.00  0.00    -0.060 C  
ENDBRANCH  16  19
ENDBRANCH   3   5
TORSDOF 2
ENDMDL
MODEL      100
REMARK 921   NORMALIZED FREE ENERGY PREDICTED BY IDOCK:   -3.82 KCAL/MOL
REMARK 922        TOTAL FREE ENERGY PREDICTED BY IDOCK:   -4.46 KCAL/MOL
REMARK 923 INTER-LIGAND FREE ENERGY PREDICTED BY IDOCK:   -4.27 KCAL/MOL
REMARK 924 INTRA-LIGAND FREE ENERGY PREDICTED BY IDOCK:   -0.19 KCAL/MOL
REMARK 927      BINDING AFFINITY PREDICTED BY RF-SCORE:    0.00 PKD
ROOT
HETATM    1 CL   UNL     1     -12.541  11.820  63.395  1.00  0.00    -0.612 Cl 
HETATM    2  C   UNL     2      -9.179   9.693  64.055  1.00  0.00    -0.148 C  
HETATM    3  N   UNL     2      -8.995   9.512  65.505  1.00  0.00    -0.179 NA 
HETATM    4  C   UNL     2     -10.234   9.156  66.211  1.00  0.00    -0.187 C  
ENDROOT
BRANCH   3   5
HETATM    5  C   UNL     2      -8.325  10.569  66.152  1.00  0.00    -0.155 A  
HETATM    6  C   UNL     2      -8.923  11.795  66.441  1.00  0.00    -0.201 A  
HETATM    7  C   UNL     2      -8.191  12.853  67.007  1.00  0.00    -0.080 A  
HETATM    8  S   UNL     2      -9.079  14.376  67.272  1.00  0.00    -0.224 SA 
HETATM    9  C   UNL     2      -7.762  15.458  67.792  1.00  0.00    -0.145 A  
HETATM   10  C   UNL     2      -6.455  14.987  67.991  1.00  0.00    -0.147 A  
HETATM   11  N   UNL     2      -6.025  13.711  67.807  1.00  0.00    -0.224 NA 
HETATM   12  C   UNL     2      -5.537  15.938  68.402  1.00  0.00    -0.109 A  
HETATM   13  C   UNL     2      -5.883  17.291  68.616  1.00  0.00    -0.157 A  
HETATM   14  C   UNL     2      -6.826  12.726  67.327  1.00  0.00    -0.080 A  
HETATM   15  C   UNL     2      -6.266  11.474  67.113  1.00  0.00    -0.121 A  
HETATM   16  C   UNL     2      -7.187  17.760  68.433  1.00  0.00    -0.250 A  
HETATM   17  C   UNL     2      -6.987  10.412  66.535  1.00  0.00    -0.112 A  
HETATM   18  C   UNL     2      -8.111  16.805  67.999  1.00  0.00    -0.187 A  
BRANCH  16  19
HETATM   19  N   UNL     2      -7.556  19.067  68.693  1.00  0.00    -0.325 NA 
HETATM   20  C   UNL     2      -6.570  20.087  69.044  1.00  0.00    -0.311 C  
HETATM   21  C   UNL     2      -8.950  19.468  68.816  1.00  0.00    -0.315 C  
ENDBRANCH  16  19
ENDBRANCH   3   5
TORSDOF 2
ENDMDL
MODEL      101
REMARK 921   NORMALIZED FREE ENERGY PREDICTED BY IDOCK:   -3.81 KCAL/MOL
REMARK 922        TOTAL FREE ENERGY PREDICTED BY IDOCK:   -4.45 KCAL/MOL
REMARK 923 INTER-LIGAND FREE ENERGY PREDICTED BY IDOCK:   -4.26 KCAL/MOL
REMARK 924 INTRA-LIGAND FREE ENERGY PREDICTED BY IDOCK:   -0.19 KCAL/MOL
REMARK 927      BINDING AFFINITY PREDICTED BY RF-SCORE:    0.00 PKD
ROOT
HETATM    1 CL   UNL     1      -7.327  21.372  63.313  1.00  0.00     0.418 Cl 
HETATM    2  C   UNL     2      -5.945  20.998  67.084  1.00  0.00    -0.281 C  
HETATM    3  N   UNL     2      -5.759  19.570  67.394  1.00  0.00    -0.175 NA 
HETATM    4  C   UNL     2      -5.125  18.813  66.306  1.00  0.00    -0.141 C  
ENDROOT
BRANCH   3   5
HETATM    5  C   UNL     2      -6.913  18.914  67.866  1.00  0.00    -0.229 A  
HETATM    6  C   UNL     2      -6.965  17.546  68.132  1.00  0.00    -0.200 A  
HETATM    7  C   UNL     2      -8.162  16.918  68.516  1.00  0.00    -0.249 A  
HETATM    8  S   UNL     2      -8.084  15.155  68.772  1.00  0.00    -0.178 SA 
HETATM    9  C   UNL     2      -9.803  14.767  69.035  1.00  0.00    -0.206 A  
HETATM   10  C   UNL     2     -10.783  15.768  69.101  1.00  0.00    -0.246 A  
HETATM   11  N   UNL     2     -10.577  17.105  68.965  1.00  0.00    -0.315 NA 
HETATM   12  C   UNL     2     -12.076  15.321  69.318  1.00  0.00    -0.280 A  
HETATM   13  C   UNL     2     -12.396  13.954  69.467  1.00  0.00    -0.275 A  
HETATM   14  C   UNL     2      -9.363  17.635  68.669  1.00  0.00    -0.270 A  
HETATM   15  C   UNL     2      -9.278  19.009  68.484  1.00  0.00    -0.413 A  
HETATM   16  C   UNL     2     -11.419  12.954  69.415  1.00  0.00    -0.260 A  
HETATM   17  C   UNL     2      -8.087  19.645  68.087  1.00  0.00    -0.353 A  
HETATM   18  C   UNL     2     -10.116  13.402  69.178  1.00  0.00     0.224 A  
BRANCH  16  19
HETATM   19  N   UNL     2     -11.705  11.617  69.617  1.00  0.00    -0.323 NA 
HETATM   20  C   UNL     2     -12.677  11.183  70.618  1.00  0.00    -0.263 C  
HETATM   21  C   UNL     2     -10.932  10.556  68.986  1.00  0.00    -0.243 C  
ENDBRANCH  16  19
ENDBRANCH   3   5
TORSDOF 2
ENDMDL
MODEL      102
REMARK 921   NORMALIZED FREE ENERGY PREDICTED BY IDOCK:   -3.81 KCAL/MOL
REMARK 922        TOTAL FREE ENERGY PREDICTED BY IDOCK:   -4.45 KCAL/MOL
REMARK 923 INTER-LIGAND FREE ENERGY PREDICTED BY IDOCK:   -4.25 KCAL/MOL
REMARK 924 INTRA-LIGAND FREE ENERGY PREDICTED BY IDOCK:   -0.20 KCAL/MOL
REMARK 927      BINDING AFFINITY PREDICTED BY RF-SCORE:    0.00 PKD
ROOT
HETATM    1 CL   UNL     1      -7.534  14.136  69.901  1.00  0.00     0.309 Cl 
HETATM    2  C   UNL     2     -10.833  13.057  67.846  1.00  0.00    -0.242 C  
HETATM    3  N   UNL     2     -11.720  12.277  68.726  1.00  0.00    -0.324 NA 
HETATM    4  C   UNL     2     -11.854  12.847  70.074  1.00  0.00    -0.286 C  
ENDROOT
BRANCH   3   5
HETATM    5  C   UNL     2     -11.435  10.899  68.781  1.00  0.00    -0.308 A  
HETATM    6  C   UNL     2     -11.635  10.118  69.919  1.00  0.00    -0.290 A  
HETATM    7  C   UNL     2     -11.252   8.766  69.957  1.00  0.00    -0.106 A  
HETATM    8  S   UNL     2     -11.526   7.910  71.497  1.00  0.00    -0.275 SA 
HETATM    9  C   UNL     2     -10.736   6.347  71.169  1.00  0.00    -0.244 A  
HETATM   10  C   UNL     2     -10.204   6.039  69.907  1.00  0.00    -0.205 A  
HETATM   11  N   UNL     2     -10.199   6.852  68.818  1.00  0.00    -0.167 NA 
HETATM   12  C   UNL     2      -9.627   4.785  69.795  1.00  0.00    -0.249 A  
HETATM   13  C   UNL     2      -9.577   3.869  70.869  1.00  0.00    -0.258 A  
HETATM   14  C   UNL     2     -10.664   8.127  68.849  1.00  0.00    -0.064 A  
HETATM   15  C   UNL     2     -10.548   8.893  67.697  1.00  0.00    -0.292 A  
HETATM   16  C   UNL     2     -10.118   4.168  72.123  1.00  0.00    -0.178 A  
HETATM   17  C   UNL     2     -10.918  10.251  67.652  1.00  0.00    -0.356 A  
HETATM   18  C   UNL     2     -10.684   5.440  72.244  1.00  0.00    -0.287 A  
BRANCH  16  19
HETATM   19  N   UNL     2     -10.130   3.262  73.167  1.00  0.00    -0.133 NA 
HETATM   20  C   UNL     2     -10.000   1.825  72.938  1.00  0.00    -0.103 C  
HETATM   21  C   UNL     2     -10.454   3.657  74.531  1.00  0.00    -0.189 C  
ENDBRANCH  16  19
ENDBRANCH   3   5
TORSDOF 2
ENDMDL
MODEL      103
REMARK 921   NORMALIZED FREE ENERGY PREDICTED BY IDOCK:   -3.80 KCAL/MOL
REMARK 922        TOTAL FREE ENERGY PREDICTED BY IDOCK:   -4.44 KCAL/MOL
REMARK 923 INTER-LIGAND FREE ENERGY PREDICTED BY IDOCK:   -4.25 KCAL/MOL
REMARK 924 INTRA-LIGAND FREE ENERGY PREDICTED BY IDOCK:   -0.18 KCAL/MOL
REMARK 927      BINDING AFFINITY PREDICTED BY RF-SCORE:    0.00 PKD
ROOT
HETATM    1 CL   UNL     1      -5.950   4.231  69.036  1.00  0.00    -0.022 Cl 
HETATM    2  C   UNL     2      -6.144   7.332  71.608  1.00  0.00    -0.037 C  
HETATM    3  N   UNL     2      -7.530   7.482  72.085  1.00  0.00    -0.075 NA 
HETATM    4  C   UNL     2      -8.170   6.205  72.431  1.00  0.00    -0.108 C  
ENDROOT
BRANCH   3   5
HETATM    5  C   UNL     2      -8.360   8.258  71.253  1.00  0.00    -0.131 A  
HETATM    6  C   UNL     2      -7.893   9.314  70.471  1.00  0.00    -0.169 A  
HETATM    7  C   UNL     2      -8.771  10.119  69.724  1.00  0.00    -0.126 A  
HETATM    8  S   UNL     2      -8.032  11.462  68.814  1.00  0.00    -0.086 SA 
HETATM    9  C   UNL     2      -9.479  12.305  68.206  1.00  0.00    -0.209 A  
HETATM   10  C   UNL     2     -10.770  11.796  68.411  1.00  0.00    -0.219 A  
HETATM   11  N   UNL     2     -11.088  10.658  69.083  1.00  0.00    -0.236 NA 
HETATM   12  C   UNL     2     -11.800  12.552  67.876  1.00  0.00    -0.383 A  
HETATM   13  C   UNL     2     -11.575  13.753  67.166  1.00  0.00    -0.392 A  
HETATM   14  C   UNL     2     -10.160   9.892  69.712  1.00  0.00    -0.242 A  
HETATM   15  C   UNL     2     -10.601   8.787  70.427  1.00  0.00    -0.251 A  
HETATM   16  C   UNL     2     -10.289  14.256  66.948  1.00  0.00    -0.268 A  
HETATM   17  C   UNL     2      -9.732   7.982  71.188  1.00  0.00    -0.190 A  
HETATM   18  C   UNL     2      -9.250  13.503  67.503  1.00  0.00    -0.219 A  
BRANCH  16  19
HETATM   19  N   UNL     2     -10.047  15.397  66.207  1.00  0.00    -0.275 NA 
HETATM   20  C   UNL     2      -9.286  16.519  66.751  1.00  0.00    -0.234 C  
HETATM   21  C   UNL     2     -10.684  15.632  64.918  1.00  0.00    -0.382 C  
ENDBRANCH  16  19
ENDBRANCH   3   5
TORSDOF 2
ENDMDL
MODEL      104
REMARK 921   NORMALIZED FREE ENERGY PREDICTED BY IDOCK:   -3.79 KCAL/MOL
REMARK 922        TOTAL FREE ENERGY PREDICTED BY IDOCK:   -4.42 KCAL/MOL
REMARK 923 INTER-LIGAND FREE ENERGY PREDICTED BY IDOCK:   -4.24 KCAL/MOL
REMARK 924 INTRA-LIGAND FREE ENERGY PREDICTED BY IDOCK:   -0.18 KCAL/MOL
REMARK 927      BINDING AFFINITY PREDICTED BY RF-SCORE:    0.00 PKD
ROOT
HETATM    1 CL   UNL     1     -10.201  20.104  69.943  1.00  0.00     0.030 Cl 
HETATM    2  C   UNL     2      -8.351  18.256  66.872  1.00  0.00    -0.245 C  
HETATM    3  N   UNL     2      -9.361  17.626  66.004  1.00  0.00    -0.519 NA 
HETATM    4  C   UNL     2     -10.525  18.484  65.745  1.00  0.00    -0.247 C  
ENDROOT
BRANCH   3   5
HETATM    5  C   UNL     2      -9.759  16.334  66.402  1.00  0.00    -0.288 A  
HETATM    6  C   UNL     2      -8.879  15.258  66.510  1.00  0.00    -0.335 A  
HETATM    7  C   UNL     2      -9.334  13.966  66.824  1.00  0.00    -0.275 A  
HETATM    8  S   UNL     2      -8.098  12.683  66.876  1.00  0.00     0.075 SA 
HETATM    9  C   UNL     2      -9.112  11.234  67.099  1.00  0.00    -0.157 A  
HETATM   10  C   UNL     2     -10.500  11.327  67.283  1.00  0.00    -0.214 A  
HETATM   11  N   UNL     2     -11.234  12.471  67.299  1.00  0.00    -0.278 NA 
HETATM   12  C   UNL     2     -11.160  10.121  67.451  1.00  0.00    -0.219 A  
HETATM   13  C   UNL     2     -10.489   8.878  67.445  1.00  0.00    -0.347 A  
HETATM   14  C   UNL     2     -10.695  13.694  67.062  1.00  0.00    -0.278 A  
HETATM   15  C   UNL     2     -11.547  14.790  67.035  1.00  0.00    -0.352 A  
HETATM   16  C   UNL     2      -9.105   8.783  67.275  1.00  0.00    -0.132 A  
HETATM   17  C   UNL     2     -11.102  16.085  66.709  1.00  0.00    -0.022 A  
HETATM   18  C   UNL     2      -8.440   9.998  67.087  1.00  0.00    -0.125 A  
BRANCH  16  19
HETATM   19  N   UNL     2      -8.425   7.580  67.324  1.00  0.00    -0.118 NA 
HETATM   20  C   UNL     2      -6.983   7.503  67.099  1.00  0.00    -0.083 C  
HETATM   21  C   UNL     2      -9.118   6.303  67.419  1.00  0.00    -0.111 C  
ENDBRANCH  16  19
ENDBRANCH   3   5
TORSDOF 2
ENDMDL
MODEL      105
REMARK 921   NORMALIZED FREE ENERGY PREDICTED BY IDOCK:   -3.77 KCAL/MOL
REMARK 922        TOTAL FREE ENERGY PREDICTED BY IDOCK:   -4.41 KCAL/MOL
REMARK 923 INTER-LIGAND FREE ENERGY PREDICTED BY IDOCK:   -4.22 KCAL/MOL
REMARK 924 INTRA-LIGAND FREE ENERGY PREDICTED BY IDOCK:   -0.18 KCAL/MOL
REMARK 927      BINDING AFFINITY PREDICTED BY RF-SCORE:    0.00 PKD
ROOT
HETATM    1 CL   UNL     1     -10.764   7.120  69.412  1.00  0.00    -0.247 Cl 
HETATM    2  C   UNL     2      -9.614   8.577  65.831  1.00  0.00    -0.094 C  
HETATM    3  N   UNL     2      -8.190   8.949  65.892  1.00  0.00    -0.115 NA 
HETATM    4  C   UNL     2      -7.355   7.953  66.577  1.00  0.00    -0.087 C  
ENDROOT
BRANCH   3   5
HETATM    5  C   UNL     2      -7.939  10.246  66.380  1.00  0.00    -0.121 A  
HETATM    6  C   UNL     2      -8.896  11.261  66.394  1.00  0.00    -0.184 A  
HETATM    7  C   UNL     2      -8.576  12.565  66.807  1.00  0.00    -0.109 A  
HETATM    8  S   UNL     2      -9.892  13.766  66.723  1.00  0.00    -0.282 SA 
HETATM    9  C   UNL     2      -9.018  15.265  67.129  1.00  0.00    -0.209 A  
HETATM   10  C   UNL     2      -7.666  15.252  67.505  1.00  0.00    -0.176 A  
HETATM   11  N   UNL     2      -6.866  14.156  67.590  1.00  0.00    -0.177 NA 
HETATM   12  C   UNL     2      -7.119  16.490  67.800  1.00  0.00    -0.154 A  
HETATM   13  C   UNL     2      -7.864  17.688  67.736  1.00  0.00    -0.211 A  
HETATM   14  C   UNL     2      -7.284  12.912  67.243  1.00  0.00    -0.067 A  
HETATM   15  C   UNL     2      -6.364  11.874  67.304  1.00  0.00    -0.143 A  
HETATM   16  C   UNL     2      -9.215  17.703  67.375  1.00  0.00    -0.247 A  
HETATM   17  C   UNL     2      -6.671  10.567  66.881  1.00  0.00    -0.086 A  
HETATM   18  C   UNL     2      -9.763  16.456  67.059  1.00  0.00    -0.253 A  
BRANCH  16  19
HETATM   19  N   UNL     2      -9.974  18.858  67.364  1.00  0.00    -0.323 NA 
HETATM   20  C   UNL     2     -10.422  19.469  66.115  1.00  0.00    -0.518 C  
HETATM   21  C   UNL     2     -10.218  19.636  68.570  1.00  0.00    -0.421 C  
ENDBRANCH  16  19
ENDBRANCH   3   5
TORSDOF 2
ENDMDL
MODEL      106
REMARK 921   NORMALIZED FREE ENERGY PREDICTED BY IDOCK:   -3.75 KCAL/MOL
REMARK 922        TOTAL FREE ENERGY PREDICTED BY IDOCK:   -4.38 KCAL/MOL
REMARK 923 INTER-LIGAND FREE ENERGY PREDICTED BY IDOCK:   -4.19 KCAL/MOL
REMARK 924 INTRA-LIGAND FREE ENERGY PREDICTED BY IDOCK:   -0.19 KCAL/MOL
REMARK 927      BINDING AFFINITY PREDICTED BY RF-SCORE:    0.00 PKD
ROOT
HETATM    1 CL   UNL     1     -10.701  20.206  65.463  1.00  0.00    -0.365 Cl 
HETATM    2  C   UNL     2      -8.260  18.918  68.404  1.00  0.00    -0.342 C  
HETATM    3  N   UNL     2      -7.666  17.627  68.012  1.00  0.00    -0.225 NA 
HETATM    4  C   UNL     2      -7.208  17.595  66.616  1.00  0.00    -0.229 C  
ENDROOT
BRANCH   3   5
HETATM    5  C   UNL     2      -8.452  16.499  68.317  1.00  0.00    -0.199 A  
HETATM    6  C   UNL     2      -7.963  15.193  68.296  1.00  0.00    -0.129 A  
HETATM    7  C   UNL     2      -8.805  14.091  68.520  1.00  0.00    -0.160 A  
HETATM    8  S   UNL     2      -8.046  12.481  68.412  1.00  0.00    -0.102 SA 
HETATM    9  C   UNL     2      -9.469  11.417  68.555  1.00  0.00    -0.183 A  
HETATM   10  C   UNL     2     -10.751  11.930  68.805  1.00  0.00    -0.224 A  
HETATM   11  N   UNL     2     -11.078  13.242  68.948  1.00  0.00    -0.258 NA 
HETATM   12  C   UNL     2     -11.761  10.987  68.899  1.00  0.00    -0.400 A  
HETATM   13  C   UNL     2     -11.526   9.601  68.760  1.00  0.00     0.209 A  
HETATM   14  C   UNL     2     -10.178  14.246  68.792  1.00  0.00    -0.226 A  
HETATM   15  C   UNL     2     -10.633  15.553  68.893  1.00  0.00    -0.240 A  
HETATM   16  C   UNL     2     -10.247   9.086  68.525  1.00  0.00    -0.200 A  
HETATM   17  C   UNL     2      -9.800  16.664  68.658  1.00  0.00    -0.252 A  
HETATM   18  C   UNL     2      -9.230  10.038  68.411  1.00  0.00    -0.131 A  
BRANCH  16  19
HETATM   19  N   UNL     2      -9.989   7.730  68.444  1.00  0.00    -0.173 NA 
HETATM   20  C   UNL     2      -8.696   7.171  68.829  1.00  0.00    -0.124 C  
HETATM   21  C   UNL     2     -10.912   6.803  67.804  1.00  0.00    -0.241 C  
ENDBRANCH  16  19
ENDBRANCH   3   5
TORSDOF 2
ENDMDL
MODEL      107
REMARK 921   NORMALIZED FREE ENERGY PREDICTED BY IDOCK:   -3.75 KCAL/MOL
REMARK 922        TOTAL FREE ENERGY PREDICTED BY IDOCK:   -4.38 KCAL/MOL
REMARK 923 INTER-LIGAND FREE ENERGY PREDICTED BY IDOCK:   -4.19 KCAL/MOL
REMARK 924 INTRA-LIGAND FREE ENERGY PREDICTED BY IDOCK:   -0.19 KCAL/MOL
REMARK 927      BINDING AFFINITY PREDICTED BY RF-SCORE:    0.00 PKD
ROOT
HETATM    1 CL   UNL     1     -13.362  12.001  72.174  1.00  0.00    -0.545 Cl 
HETATM    2  C   UNL     2     -13.415   8.005  71.632  1.00  0.00    -0.337 C  
HETATM    3  N   UNL     2     -12.032   7.497  71.628  1.00  0.00    -0.290 NA 
HETATM    4  C   UNL     2     -11.194   8.079  72.685  1.00  0.00    -0.397 C  
ENDROOT
BRANCH   3   5
HETATM    5  C   UNL     2     -11.387   7.550  70.378  1.00  0.00    -0.233 A  
HETATM    6  C   UNL     2     -11.257   6.450  69.532  1.00  0.00    -0.477 A  
HETATM    7  C   UNL     2     -10.527   6.527  68.333  1.00  0.00    -0.218 A  
HETATM    8  S   UNL     2     -10.407   5.024  67.382  1.00  0.00    -0.055 SA 
HETATM    9  C   UNL     2      -9.268   5.515  66.102  1.00  0.00    -0.158 A  
HETATM   10  C   UNL     2      -8.803   6.835  65.995  1.00  0.00    -0.135 A  
HETATM   11  N   UNL     2      -9.123   7.868  66.817  1.00  0.00    -0.148 NA 
HETATM   12  C   UNL     2      -7.928   7.073  64.948  1.00  0.00    -0.127 A  
HETATM   13  C   UNL     2      -7.529   6.066  64.042  1.00  0.00    -0.080 A  
HETATM   14  C   UNL     2      -9.905   7.719  67.916  1.00  0.00    -0.160 A  
HETATM   15  C   UNL     2     -10.114   8.828  68.725  1.00  0.00    -0.213 A  
HETATM   16  C   UNL     2      -8.001   4.753  64.139  1.00  0.00    -0.101 A  
HETATM   17  C   UNL     2     -10.833   8.758  69.934  1.00  0.00    -0.211 A  
HETATM   18  C   UNL     2      -8.870   4.506  65.206  1.00  0.00    -0.140 A  
BRANCH  16  19
HETATM   19  N   UNL     2      -7.667   3.769  63.227  1.00  0.00    -0.066 NA 
HETATM   20  C   UNL     2      -8.610   2.717  62.854  1.00  0.00    -0.081 C  
HETATM   21  C   UNL     2      -6.309   3.607  62.724  1.00  0.00    -0.022 C  
ENDBRANCH  16  19
ENDBRANCH   3   5
TORSDOF 2
ENDMDL
MODEL      108
REMARK 921   NORMALIZED FREE ENERGY PREDICTED BY IDOCK:   -3.73 KCAL/MOL
REMARK 922        TOTAL FREE ENERGY PREDICTED BY IDOCK:   -4.36 KCAL/MOL
REMARK 923 INTER-LIGAND FREE ENERGY PREDICTED BY IDOCK:   -4.16 KCAL/MOL
REMARK 924 INTRA-LIGAND FREE ENERGY PREDICTED BY IDOCK:   -0.20 KCAL/MOL
REMARK 927      BINDING AFFINITY PREDICTED BY RF-SCORE:    0.00 PKD
ROOT
HETATM    1 CL   UNL     1     -12.670  15.453  70.357  1.00  0.00    -0.434 Cl 
HETATM    2  C   UNL     2      -9.715  16.071  67.683  1.00  0.00    -0.224 C  
HETATM    3  N   UNL     2      -9.884  15.145  66.549  1.00  0.00    -0.249 NA 
HETATM    4  C   UNL     2     -11.274  15.034  66.088  1.00  0.00    -0.307 C  
ENDROOT
BRANCH   3   5
HETATM    5  C   UNL     2      -9.305  13.874  66.734  1.00  0.00    -0.275 A  
HETATM    6  C   UNL     2      -9.925  12.684  66.352  1.00  0.00    -0.262 A  
HETATM    7  C   UNL     2      -9.351  11.433  66.636  1.00  0.00    -0.185 A  
HETATM    8  S   UNL     2     -10.284  10.001  66.129  1.00  0.00    -0.173 SA 
HETATM    9  C   UNL     2      -9.317   8.687  66.846  1.00  0.00    -0.170 A  
HETATM   10  C   UNL     2      -8.100   8.938  67.498  1.00  0.00    -0.109 A  
HETATM   11  N   UNL     2      -7.524  10.155  67.684  1.00  0.00    -0.089 NA 
HETATM   12  C   UNL     2      -7.453   7.821  68.000  1.00  0.00    -0.108 A  
HETATM   13  C   UNL     2      -7.971   6.514  67.864  1.00  0.00    -0.109 A  
HETATM   14  C   UNL     2      -8.117  11.315  67.304  1.00  0.00    -0.140 A  
HETATM   15  C   UNL     2      -7.472  12.507  67.604  1.00  0.00    -0.139 A  
HETATM   16  C   UNL     2      -9.177   6.259  67.202  1.00  0.00    -0.122 A  
HETATM   17  C   UNL     2      -8.044  13.765  67.334  1.00  0.00    -0.188 A  
HETATM   18  C   UNL     2      -9.840   7.388  66.712  1.00  0.00    -0.290 A  
BRANCH  16  19
HETATM   19  N   UNL     2      -9.669   4.982  67.009  1.00  0.00    -0.152 NA 
HETATM   20  C   UNL     2      -9.217   3.854  67.820  1.00  0.00    -0.166 C  
HETATM   21  C   UNL     2     -10.522   4.644  65.877  1.00  0.00    -0.268 C  
ENDBRANCH  16  19
ENDBRANCH   3   5
TORSDOF 2
ENDMDL
MODEL      109
REMARK 921   NORMALIZED FREE ENERGY PREDICTED BY IDOCK:   -3.71 KCAL/MOL
REMARK 922        TOTAL FREE ENERGY PREDICTED BY IDOCK:   -4.34 KCAL/MOL
REMARK 923 INTER-LIGAND FREE ENERGY PREDICTED BY IDOCK:   -4.15 KCAL/MOL
REMARK 924 INTRA-LIGAND FREE ENERGY PREDICTED BY IDOCK:   -0.19 KCAL/MOL
REMARK 927      BINDING AFFINITY PREDICTED BY RF-SCORE:    0.00 PKD
ROOT
HETATM    1 CL   UNL     1     -10.453  18.952  65.864  1.00  0.00    -0.506 Cl 
HETATM    2  C   UNL     2     -11.293  15.984  68.462  1.00  0.00    -0.382 C  
HETATM    3  N   UNL     2     -10.117  15.106  68.595  1.00  0.00    -0.216 NA 
HETATM    4  C   UNL     2      -8.850  15.841  68.711  1.00  0.00    -0.207 C  
ENDROOT
BRANCH   3   5
HETATM    5  C   UNL     2     -10.028  14.088  67.626  1.00  0.00    -0.237 A  
HETATM    6  C   UNL     2      -9.641  12.780  67.918  1.00  0.00    -0.211 A  
HETATM    7  C   UNL     2      -9.480  11.819  66.905  1.00  0.00    -0.193 A  
HETATM    8  S   UNL     2      -8.932  10.205  67.428  1.00  0.00    -0.134 SA 
HETATM    9  C   UNL     2      -8.677   9.401  65.858  1.00  0.00    -0.154 A  
HETATM   10  C   UNL     2      -9.004  10.030  64.646  1.00  0.00    -0.214 A  
HETATM   11  N   UNL     2      -9.518  11.279  64.502  1.00  0.00    -0.215 NA 
HETATM   12  C   UNL     2      -8.759   9.284  63.505  1.00  0.00    -0.188 A  
HETATM   13  C   UNL     2      -8.222   7.978  63.547  1.00  0.00    -0.038 A  
HETATM   14  C   UNL     2      -9.716  12.119  65.550  1.00  0.00    -0.181 A  
HETATM   15  C   UNL     2     -10.182  13.399  65.284  1.00  0.00    -0.312 A  
HETATM   16  C   UNL     2      -7.908   7.345  64.754  1.00  0.00    -0.126 A  
HETATM   17  C   UNL     2     -10.335  14.372  66.289  1.00  0.00    -0.300 A  
HETATM   18  C   UNL     2      -8.137   8.103  65.905  1.00  0.00    -0.115 A  
BRANCH  16  19
HETATM   19  N   UNL     2      -7.437   6.047  64.817  1.00  0.00    -0.074 NA 
HETATM   20  C   UNL     2      -6.158   5.724  65.447  1.00  0.00    -0.029 C  
HETATM   21  C   UNL     2      -8.084   4.952  64.107  1.00  0.00    -0.115 C  
ENDBRANCH  16  19
ENDBRANCH   3   5
TORSDOF 2
ENDMDL
MODEL      110
REMARK 921   NORMALIZED FREE ENERGY PREDICTED BY IDOCK:   -3.67 KCAL/MOL
REMARK 922        TOTAL FREE ENERGY PREDICTED BY IDOCK:   -4.30 KCAL/MOL
REMARK 923 INTER-LIGAND FREE ENERGY PREDICTED BY IDOCK:   -4.10 KCAL/MOL
REMARK 924 INTRA-LIGAND FREE ENERGY PREDICTED BY IDOCK:   -0.19 KCAL/MOL
REMARK 927      BINDING AFFINITY PREDICTED BY RF-SCORE:    0.00 PKD
ROOT
HETATM    1 CL   UNL     1      -6.327   5.379  73.909  1.00  0.00    -0.062 Cl 
HETATM    2  C   UNL     2     -10.033   4.752  72.445  1.00  0.00    -0.174 C  
HETATM    3  N   UNL     2      -9.933   4.055  71.151  1.00  0.00    -0.167 NA 
HETATM    4  C   UNL     2      -8.954   2.960  71.152  1.00  0.00    -0.096 C  
ENDROOT
BRANCH   3   5
HETATM    5  C   UNL     2      -9.752   4.899  70.038  1.00  0.00    -0.215 A  
HETATM    6  C   UNL     2      -9.908   6.284  70.090  1.00  0.00    -0.201 A  
HETATM    7  C   UNL     2      -9.805   7.078  68.935  1.00  0.00    -0.150 A  
HETATM    8  S   UNL     2     -10.080   8.826  69.150  1.00  0.00    -0.202 SA 
HETATM    9  C   UNL     2     -10.055   9.391  67.460  1.00  0.00    -0.215 A  
HETATM   10  C   UNL     2      -9.756   8.524  66.397  1.00  0.00    -0.258 A  
HETATM   11  N   UNL     2      -9.477   7.198  66.496  1.00  0.00    -0.172 NA 
HETATM   12  C   UNL     2      -9.766   9.102  65.138  1.00  0.00     0.127 A  
HETATM   13  C   UNL     2     -10.050  10.470  64.929  1.00  0.00    -0.403 A  
HETATM   14  C   UNL     2      -9.523   6.522  67.672  1.00  0.00    -0.123 A  
HETATM   15  C   UNL     2      -9.286   5.155  67.650  1.00  0.00    -0.134 A  
HETATM   16  C   UNL     2     -10.334  11.338  65.987  1.00  0.00    -0.252 A  
HETATM   17  C   UNL     2      -9.399   4.349  68.799  1.00  0.00    -0.213 A  
HETATM   18  C   UNL     2     -10.343  10.753  67.256  1.00  0.00    -0.262 A  
BRANCH  16  19
HETATM   19  N   UNL     2     -10.556  12.691  65.806  1.00  0.00    -0.266 NA 
HETATM   20  C   UNL     2     -10.660  13.610  66.937  1.00  0.00    -0.271 C  
HETATM   21  C   UNL     2     -10.882  13.254  64.503  1.00  0.00    -0.394 C  
ENDBRANCH  16  19
ENDBRANCH   3   5
TORSDOF 2
ENDMDL
MODEL      111
REMARK 921   NORMALIZED FREE ENERGY PREDICTED BY IDOCK:   -3.64 KCAL/MOL
REMARK 922        TOTAL FREE ENERGY PREDICTED BY IDOCK:   -4.25 KCAL/MOL
REMARK 923 INTER-LIGAND FREE ENERGY PREDICTED BY IDOCK:   -4.06 KCAL/MOL
REMARK 924 INTRA-LIGAND FREE ENERGY PREDICTED BY IDOCK:   -0.19 KCAL/MOL
REMARK 927      BINDING AFFINITY PREDICTED BY RF-SCORE:    0.00 PKD
ROOT
HETATM    1 CL   UNL     1     -11.859  11.693  69.878  1.00  0.00    -0.409 Cl 
HETATM    2  C   UNL     2     -10.088  13.778  66.915  1.00  0.00    -0.260 C  
HETATM    3  N   UNL     2     -10.774  13.493  65.642  1.00  0.00    -0.277 NA 
HETATM    4  C   UNL     2     -12.239  13.490  65.757  1.00  0.00    -0.461 C  
ENDROOT
BRANCH   3   5
HETATM    5  C   UNL     2     -10.313  12.347  64.966  1.00  0.00    -0.293 A  
HETATM    6  C   UNL     2     -10.065  11.129  65.598  1.00  0.00    -0.304 A  
HETATM    7  C   UNL     2      -9.521  10.037  64.901  1.00  0.00    -0.293 A  
HETATM    8  S   UNL     2      -9.214   8.563  65.855  1.00  0.00    -0.145 SA 
HETATM    9  C   UNL     2      -8.367   7.548  64.660  1.00  0.00     0.022 A  
HETATM   10  C   UNL     2      -8.200   7.959  63.329  1.00  0.00    -0.026 A  
HETATM   11  N   UNL     2      -8.622   9.134  62.792  1.00  0.00    -0.215 NA 
HETATM   12  C   UNL     2      -7.530   7.066  62.510  1.00  0.00    -0.088 A  
HETATM   13  C   UNL     2      -7.047   5.821  62.972  1.00  0.00    -0.049 A  
HETATM   14  C   UNL     2      -9.214  10.109  63.529  1.00  0.00    -0.286 A  
HETATM   15  C   UNL     2      -9.544  11.298  62.894  1.00  0.00    -0.377 A  
HETATM   16  C   UNL     2      -7.223   5.403  64.295  1.00  0.00    -0.055 A  
HETATM   17  C   UNL     2     -10.078  12.402  63.586  1.00  0.00    -0.302 A  
HETATM   18  C   UNL     2      -7.884   6.311  65.127  1.00  0.00    -0.109 A  
BRANCH  16  19
HETATM   19  N   UNL     2      -6.809   4.165  64.750  1.00  0.00    -0.048 NA 
HETATM   20  C   UNL     2      -7.669   3.327  65.583  1.00  0.00    -0.081 C  
HETATM   21  C   UNL     2      -5.439   3.698  64.587  1.00  0.00    -0.010 C  
ENDBRANCH  16  19
ENDBRANCH   3   5
TORSDOF 2
ENDMDL
MODEL      112
REMARK 921   NORMALIZED FREE ENERGY PREDICTED BY IDOCK:   -3.62 KCAL/MOL
REMARK 922        TOTAL FREE ENERGY PREDICTED BY IDOCK:   -4.23 KCAL/MOL
REMARK 923 INTER-LIGAND FREE ENERGY PREDICTED BY IDOCK:   -4.05 KCAL/MOL
REMARK 924 INTRA-LIGAND FREE ENERGY PREDICTED BY IDOCK:   -0.19 KCAL/MOL
REMARK 927      BINDING AFFINITY PREDICTED BY RF-SCORE:    0.00 PKD
ROOT
HETATM    1 CL   UNL     1      -8.806   1.959  64.924  1.00  0.00    -0.113 Cl 
HETATM    2  C   UNL     2      -7.098   4.395  67.648  1.00  0.00    -0.064 C  
HETATM    3  N   UNL     2      -8.145   4.971  68.510  1.00  0.00    -0.085 NA 
HETATM    4  C   UNL     2      -9.154   3.991  68.937  1.00  0.00    -0.133 C  
ENDROOT
BRANCH   3   5
HETATM    5  C   UNL     2      -8.751   6.138  68.004  1.00  0.00    -0.113 A  
HETATM    6  C   UNL     2      -8.159   7.399  68.064  1.00  0.00    -0.124 A  
HETATM    7  C   UNL     2      -8.838   8.549  67.627  1.00  0.00    -0.136 A  
HETATM    8  S   UNL     2      -7.972  10.097  67.814  1.00  0.00    -0.102 SA 
HETATM    9  C   UNL     2      -9.237  11.260  67.341  1.00  0.00    -0.162 A  
HETATM   10  C   UNL     2     -10.486  10.837  66.862  1.00  0.00    -0.252 A  
HETATM   11  N   UNL     2     -10.896   9.549  66.714  1.00  0.00    -0.053 NA 
HETATM   12  C   UNL     2     -11.368  11.850  66.525  1.00  0.00    -0.403 A  
HETATM   13  C   UNL     2     -11.040  13.219  66.647  1.00  0.00    -0.311 A  
HETATM   14  C   UNL     2     -10.139   8.488  67.092  1.00  0.00    -0.262 A  
HETATM   15  C   UNL     2     -10.682   7.218  66.960  1.00  0.00    -0.406 A  
HETATM   16  C   UNL     2      -9.792  13.643  67.112  1.00  0.00    -0.242 A  
HETATM   17  C   UNL     2     -10.015   6.060  67.406  1.00  0.00    -0.165 A  
HETATM   18  C   UNL     2      -8.907  12.622  67.469  1.00  0.00    -0.186 A  
BRANCH  16  19
HETATM   19  N   UNL     2      -9.433  14.977  67.182  1.00  0.00    -0.210 NA 
HETATM   20  C   UNL     2     -10.424  16.045  67.072  1.00  0.00    -0.307 C  
HETATM   21  C   UNL     2      -8.041  15.405  67.185  1.00  0.00    -0.217 C  
ENDBRANCH  16  19
ENDBRANCH   3   5
TORSDOF 2
ENDMDL
MODEL      113
REMARK 921   NORMALIZED FREE ENERGY PREDICTED BY IDOCK:   -3.59 KCAL/MOL
REMARK 922        TOTAL FREE ENERGY PREDICTED BY IDOCK:   -4.20 KCAL/MOL
REMARK 923 INTER-LIGAND FREE ENERGY PREDICTED BY IDOCK:   -4.01 KCAL/MOL
REMARK 924 INTRA-LIGAND FREE ENERGY PREDICTED BY IDOCK:   -0.19 KCAL/MOL
REMARK 927      BINDING AFFINITY PREDICTED BY RF-SCORE:    0.00 PKD
ROOT
HETATM    1 CL   UNL     1     -12.546  11.671  63.367  1.00  0.00    -0.492 Cl 
HETATM    2  C   UNL     2      -8.639  11.009  64.119  1.00  0.00     0.158 C  
HETATM    3  N   UNL     2      -8.282   9.650  63.676  1.00  0.00    -0.149 NA 
HETATM    4  C   UNL     2      -8.843   9.297  62.364  1.00  0.00    -0.233 C  
ENDROOT
BRANCH   3   5
HETATM    5  C   UNL     2      -8.526   8.637  64.623  1.00  0.00    -0.132 A  
HETATM    6  C   UNL     2      -9.160   8.863  65.845  1.00  0.00    -0.271 A  
HETATM    7  C   UNL     2      -9.303   7.840  66.798  1.00  0.00    -0.180 A  
HETATM    8  S   UNL     2     -10.090   8.293  68.332  1.00  0.00    -0.205 SA 
HETATM    9  C   UNL     2      -9.881   6.800  69.282  1.00  0.00    -0.155 A  
HETATM   10  C   UNL     2      -9.319   5.642  68.723  1.00  0.00    -0.123 A  
HETATM   11  N   UNL     2      -8.861   5.506  67.451  1.00  0.00    -0.107 NA 
HETATM   12  C   UNL     2      -9.226   4.555  69.575  1.00  0.00    -0.192 A  
HETATM   13  C   UNL     2      -9.668   4.596  70.916  1.00  0.00    -0.262 A  
HETATM   14  C   UNL     2      -8.832   6.534  66.565  1.00  0.00    -0.138 A  
HETATM   15  C   UNL     2      -8.279   6.302  65.312  1.00  0.00    -0.138 A  
HETATM   16  C   UNL     2     -10.241   5.744  71.472  1.00  0.00    -0.203 A  
HETATM   17  C   UNL     2      -8.120   7.323  64.356  1.00  0.00    -0.065 A  
HETATM   18  C   UNL     2     -10.320   6.848  70.618  1.00  0.00    -0.220 A  
BRANCH  16  19
HETATM   19  N   UNL     2     -10.733   5.784  72.764  1.00  0.00    -0.225 NA 
HETATM   20  C   UNL     2     -10.622   6.984  73.590  1.00  0.00    -0.345 C  
HETATM   21  C   UNL     2     -11.222   4.593  73.444  1.00  0.00    -0.338 C  
ENDBRANCH  16  19
ENDBRANCH   3   5
TORSDOF 2
ENDMDL
MODEL      114
REMARK 921   NORMALIZED FREE ENERGY PREDICTED BY IDOCK:   -3.58 KCAL/MOL
REMARK 922        TOTAL FREE ENERGY PREDICTED BY IDOCK:   -4.20 KCAL/MOL
REMARK 923 INTER-LIGAND FREE ENERGY PREDICTED BY IDOCK:   -4.01 KCAL/MOL
REMARK 924 INTRA-LIGAND FREE ENERGY PREDICTED BY IDOCK:   -0.19 KCAL/MOL
REMARK 927      BINDING AFFINITY PREDICTED BY RF-SCORE:    0.00 PKD
ROOT
HETATM    1 CL   UNL     1     -11.766  15.036  66.972  1.00  0.00    -0.265 Cl 
HETATM    2  C   UNL     2      -9.247  11.987  66.183  1.00  0.00    -0.179 C  
HETATM    3  N   UNL     2     -10.011  10.729  66.117  1.00  0.00    -0.223 NA 
HETATM    4  C   UNL     2     -11.269  10.849  65.367  1.00  0.00     0.282 C  
ENDROOT
BRANCH   3   5
HETATM    5  C   UNL     2     -10.217  10.097  67.359  1.00  0.00    -0.218 A  
HETATM    6  C   UNL     2      -9.690   8.847  67.682  1.00  0.00    -0.202 A  
HETATM    7  C   UNL     2      -9.994   8.215  68.900  1.00  0.00    -0.192 A  
HETATM    8  S   UNL     2      -9.286   6.598  69.149  1.00  0.00    -0.135 SA 
HETATM    9  C   UNL     2     -10.072   6.107  70.672  1.00  0.00    -0.193 A  
HETATM   10  C   UNL     2     -10.909   6.980  71.384  1.00  0.00    -0.229 A  
HETATM   11  N   UNL     2     -11.237   8.249  71.027  1.00  0.00    -0.254 NA 
HETATM   12  C   UNL     2     -11.445   6.467  72.554  1.00  0.00    -0.283 A  
HETATM   13  C   UNL     2     -11.170   5.158  73.009  1.00  0.00    -0.390 A  
HETATM   14  C   UNL     2     -10.831   8.813  69.861  1.00  0.00    -0.206 A  
HETATM   15  C   UNL     2     -11.280  10.092  69.562  1.00  0.00    -0.288 A  
HETATM   16  C   UNL     2     -10.326   4.291  72.309  1.00  0.00    -0.143 A  
HETATM   17  C   UNL     2     -10.991  10.729  68.340  1.00  0.00    -0.299 A  
HETATM   18  C   UNL     2      -9.799   4.801  71.119  1.00  0.00    -0.260 A  
BRANCH  16  19
HETATM   19  N   UNL     2     -10.000   3.029  72.769  1.00  0.00    -0.137 NA 
HETATM   20  C   UNL     2      -8.611   2.585  72.871  1.00  0.00    -0.071 C  
HETATM   21  C   UNL     2     -11.009   2.007  73.006  1.00  0.00    -0.122 C  
ENDBRANCH  16  19
ENDBRANCH   3   5
TORSDOF 2
ENDMDL
MODEL      115
REMARK 921   NORMALIZED FREE ENERGY PREDICTED BY IDOCK:   -3.57 KCAL/MOL
REMARK 922        TOTAL FREE ENERGY PREDICTED BY IDOCK:   -4.17 KCAL/MOL
REMARK 923 INTER-LIGAND FREE ENERGY PREDICTED BY IDOCK:   -3.98 KCAL/MOL
REMARK 924 INTRA-LIGAND FREE ENERGY PREDICTED BY IDOCK:   -0.19 KCAL/MOL
REMARK 927      BINDING AFFINITY PREDICTED BY RF-SCORE:    0.00 PKD
ROOT
HETATM    1 CL   UNL     1      -9.035  17.472  66.022  1.00  0.00    -0.139 Cl 
HETATM    2  C   UNL     2     -10.631  13.987  64.766  1.00  0.00    -0.421 C  
HETATM    3  N   UNL     2     -11.295  13.320  65.900  1.00  0.00    -0.305 NA 
HETATM    4  C   UNL     2     -12.095  14.233  66.727  1.00  0.00    -0.417 C  
ENDROOT
BRANCH   3   5
HETATM    5  C   UNL     2     -10.448  12.523  66.694  1.00  0.00    -0.233 A  
HETATM    6  C   UNL     2     -10.739  11.205  67.045  1.00  0.00    -0.316 A  
HETATM    7  C   UNL     2      -9.908  10.476  67.913  1.00  0.00    -0.160 A  
HETATM    8  S   UNL     2     -10.438   8.820  68.309  1.00  0.00    -0.149 SA 
HETATM    9  C   UNL     2      -9.243   8.362  69.549  1.00  0.00    -0.154 A  
HETATM   10  C   UNL     2      -8.170   9.203  69.886  1.00  0.00    -0.136 A  
HETATM   11  N   UNL     2      -7.913  10.428  69.357  1.00  0.00    -0.156 NA 
HETATM   12  C   UNL     2      -7.316   8.715  70.861  1.00  0.00    -0.077 A  
HETATM   13  C   UNL     2      -7.500   7.457  71.476  1.00  0.00    -0.080 A  
HETATM   14  C   UNL     2      -8.734  11.028  68.458  1.00  0.00    -0.159 A  
HETATM   15  C   UNL     2      -8.412  12.310  68.034  1.00  0.00    -0.171 A  
HETATM   16  C   UNL     2      -8.559   6.611  71.133  1.00  0.00    -0.130 A  
HETATM   17  C   UNL     2      -9.244  13.053  67.175  1.00  0.00    -0.226 A  
HETATM   18  C   UNL     2      -9.433   7.110  70.162  1.00  0.00    -0.161 A  
BRANCH  16  19
HETATM   19  N   UNL     2      -8.721   5.353  71.682  1.00  0.00    -0.134 NA 
HETATM   20  C   UNL     2      -7.606   4.415  71.791  1.00  0.00    -0.071 C  
HETATM   21  C   UNL     2     -10.033   4.815  72.013  1.00  0.00    -0.186 C  
ENDBRANCH  16  19
ENDBRANCH   3   5
TORSDOF 2
ENDMDL
MODEL      116
REMARK 921   NORMALIZED FREE ENERGY PREDICTED BY IDOCK:   -3.54 KCAL/MOL
REMARK 922        TOTAL FREE ENERGY PREDICTED BY IDOCK:   -4.15 KCAL/MOL
REMARK 923 INTER-LIGAND FREE ENERGY PREDICTED BY IDOCK:   -3.96 KCAL/MOL
REMARK 924 INTRA-LIGAND FREE ENERGY PREDICTED BY IDOCK:   -0.18 KCAL/MOL
REMARK 927      BINDING AFFINITY PREDICTED BY RF-SCORE:    0.00 PKD
ROOT
HETATM    1 CL   UNL     1     -10.946  19.595  65.442  1.00  0.00    -0.272 Cl 
HETATM    2  C   UNL     2      -9.100  19.448  69.025  1.00  0.00    -0.248 C  
HETATM    3  N   UNL     2      -7.679  19.113  68.826  1.00  0.00    -0.351 NA 
HETATM    4  C   UNL     2      -7.057  19.844  67.714  1.00  0.00    -0.274 C  
ENDROOT
BRANCH   3   5
HETATM    5  C   UNL     2      -7.403  17.734  68.747  1.00  0.00    -0.271 A  
HETATM    6  C   UNL     2      -8.135  16.847  67.959  1.00  0.00    -0.194 A  
HETATM    7  C   UNL     2      -7.881  15.465  67.980  1.00  0.00    -0.127 A  
HETATM    8  S   UNL     2      -8.933  14.452  66.957  1.00  0.00    -0.241 SA 
HETATM    9  C   UNL     2      -8.408  12.817  67.433  1.00  0.00    -0.189 A  
HETATM   10  C   UNL     2      -7.337  12.615  68.317  1.00  0.00    -0.116 A  
HETATM   11  N   UNL     2      -6.598  13.583  68.919  1.00  0.00    -0.101 NA 
HETATM   12  C   UNL     2      -7.035  11.291  68.591  1.00  0.00    -0.084 A  
HETATM   13  C   UNL     2      -7.746  10.212  68.021  1.00  0.00    -0.089 A  
HETATM   14  C   UNL     2      -6.867  14.907  68.780  1.00  0.00    -0.102 A  
HETATM   15  C   UNL     2      -6.090  15.809  69.494  1.00  0.00    -0.147 A  
HETATM   16  C   UNL     2      -8.805  10.411  67.129  1.00  0.00    -0.136 A  
HETATM   17  C   UNL     2      -6.345  17.194  69.490  1.00  0.00    -0.230 A  
HETATM   18  C   UNL     2      -9.123  11.746  66.866  1.00  0.00    -0.192 A  
BRANCH  16  19
HETATM   19  N   UNL     2      -9.473   9.367  66.517  1.00  0.00    -0.175 NA 
HETATM   20  C   UNL     2     -10.505   8.602  67.215  1.00  0.00    -0.289 C  
HETATM   21  C   UNL     2      -9.072   8.846  65.218  1.00  0.00    -0.136 C  
ENDBRANCH  16  19
ENDBRANCH   3   5
TORSDOF 2
ENDMDL
MODEL      117
REMARK 921   NORMALIZED FREE ENERGY PREDICTED BY IDOCK:   -3.46 KCAL/MOL
REMARK 922        TOTAL FREE ENERGY PREDICTED BY IDOCK:   -4.06 KCAL/MOL
REMARK 923 INTER-LIGAND FREE ENERGY PREDICTED BY IDOCK:   -3.86 KCAL/MOL
REMARK 924 INTRA-LIGAND FREE ENERGY PREDICTED BY IDOCK:   -0.19 KCAL/MOL
REMARK 927      BINDING AFFINITY PREDICTED BY RF-SCORE:    0.00 PKD
ROOT
HETATM    1 CL   UNL     1      -6.527   8.707  73.700  1.00  0.00    -0.108 Cl 
HETATM    2  C   UNL     2     -10.121   6.900  73.981  1.00  0.00    -0.348 C  
HETATM    3  N   UNL     2     -10.027   5.540  73.422  1.00  0.00    -0.169 NA 
HETATM    4  C   UNL     2      -8.814   4.821  73.836  1.00  0.00    -0.104 C  
ENDROOT
BRANCH   3   5
HETATM    5  C   UNL     2     -10.215   5.460  72.028  1.00  0.00    -0.203 A  
HETATM    6  C   UNL     2      -9.637   4.474  71.229  1.00  0.00    -0.240 A  
HETATM    7  C   UNL     2      -9.779   4.485  69.831  1.00  0.00    -0.218 A  
HETATM    8  S   UNL     2      -8.940   3.189  68.941  1.00  0.00    -0.146 SA 
HETATM    9  C   UNL     2      -9.215   3.694  67.254  1.00  0.00    -0.189 A  
HETATM   10  C   UNL     2     -10.020   4.799  66.937  1.00  0.00    -0.217 A  
HETATM   11  N   UNL     2     -10.656   5.610  67.822  1.00  0.00    -0.222 NA 
HETATM   12  C   UNL     2     -10.151   5.071  65.585  1.00  0.00    -0.090 A  
HETATM   13  C   UNL     2      -9.526   4.291  64.586  1.00  0.00    -0.163 A  
HETATM   14  C   UNL     2     -10.524   5.478  69.167  1.00  0.00    -0.244 A  
HETATM   15  C   UNL     2     -11.165   6.403  69.980  1.00  0.00    -0.475 A  
HETATM   16  C   UNL     2      -8.735   3.182  64.898  1.00  0.00    -0.108 A  
HETATM   17  C   UNL     2     -11.018   6.408  71.380  1.00  0.00    -0.316 A  
HETATM   18  C   UNL     2      -8.587   2.917  66.263  1.00  0.00    -0.116 A  
BRANCH  16  19
HETATM   19  N   UNL     2      -8.164   2.374  63.933  1.00  0.00    -0.081 NA 
HETATM   20  C   UNL     2      -6.787   1.897  64.047  1.00  0.00    -0.031 C  
HETATM   21  C   UNL     2      -8.823   2.100  62.664  1.00  0.00    -0.073 C  
ENDBRANCH  16  19
ENDBRANCH   3   5
TORSDOF 2
ENDMDL
MODEL      118
REMARK 921   NORMALIZED FREE ENERGY PREDICTED BY IDOCK:   -3.44 KCAL/MOL
REMARK 922        TOTAL FREE ENERGY PREDICTED BY IDOCK:   -4.03 KCAL/MOL
REMARK 923 INTER-LIGAND FREE ENERGY PREDICTED BY IDOCK:   -3.84 KCAL/MOL
REMARK 924 INTRA-LIGAND FREE ENERGY PREDICTED BY IDOCK:   -0.19 KCAL/MOL
REMARK 927      BINDING AFFINITY PREDICTED BY RF-SCORE:    0.00 PKD
ROOT
HETATM    1 CL   UNL     1     -13.031  11.360  71.095  1.00  0.00    -0.409 Cl 
HETATM    2  C   UNL     2     -10.458  13.279  68.654  1.00  0.00    -0.228 C  
HETATM    3  N   UNL     2     -10.873  13.078  67.254  1.00  0.00    -0.250 NA 
HETATM    4  C   UNL     2     -12.321  13.222  67.048  1.00  0.00    -0.132 C  
ENDROOT
BRANCH   3   5
HETATM    5  C   UNL     2     -10.389  11.896  66.659  1.00  0.00    -0.211 A  
HETATM    6  C   UNL     2     -10.499  10.638  67.249  1.00  0.00    -0.293 A  
HETATM    7  C   UNL     2      -9.923   9.498  66.661  1.00  0.00    -0.247 A  
HETATM    8  S   UNL     2     -10.104   7.968  67.558  1.00  0.00    -0.241 SA 
HETATM    9  C   UNL     2      -9.085   6.875  66.587  1.00  0.00    -0.151 A  
HETATM   10  C   UNL     2      -8.484   7.296  65.390  1.00  0.00    -0.087 A  
HETATM   11  N   UNL     2      -8.573   8.535  64.839  1.00  0.00    -0.149 NA 
HETATM   12  C   UNL     2      -7.727   6.339  64.737  1.00  0.00    -0.101 A  
HETATM   13  C   UNL     2      -7.568   5.025  65.229  1.00  0.00    -0.081 A  
HETATM   14  C   UNL     2      -9.221   9.564  65.442  1.00  0.00    -0.247 A  
HETATM   15  C   UNL     2      -9.192  10.807  64.824  1.00  0.00    -0.245 A  
HETATM   16  C   UNL     2      -8.176   4.598  66.414  1.00  0.00    -0.107 A  
HETATM   17  C   UNL     2      -9.756  11.956  65.411  1.00  0.00    -0.228 A  
HETATM   18  C   UNL     2      -8.926   5.569  67.084  1.00  0.00    -0.112 A  
BRANCH  16  19
HETATM   19  N   UNL     2      -8.080   3.301  66.880  1.00  0.00    -0.083 NA 
HETATM   20  C   UNL     2      -7.112   2.356  66.326  1.00  0.00    -0.056 C  
HETATM   21  C   UNL     2      -9.047   2.739  67.813  1.00  0.00    -0.182 C  
ENDBRANCH  16  19
ENDBRANCH   3   5
TORSDOF 2
ENDMDL
MODEL      119
REMARK 921   NORMALIZED FREE ENERGY PREDICTED BY IDOCK:   -3.44 KCAL/MOL
REMARK 922        TOTAL FREE ENERGY PREDICTED BY IDOCK:   -4.03 KCAL/MOL
REMARK 923 INTER-LIGAND FREE ENERGY PREDICTED BY IDOCK:   -3.84 KCAL/MOL
REMARK 924 INTRA-LIGAND FREE ENERGY PREDICTED BY IDOCK:   -0.20 KCAL/MOL
REMARK 927      BINDING AFFINITY PREDICTED BY RF-SCORE:    0.00 PKD
ROOT
HETATM    1 CL   UNL     1     -10.741  18.042  69.531  1.00  0.00     0.511 Cl 
HETATM    2  C   UNL     2      -7.540  16.621  67.530  1.00  0.00    -0.155 C  
HETATM    3  N   UNL     2      -7.973  15.545  66.622  1.00  0.00    -0.183 NA 
HETATM    4  C   UNL     2      -9.210  15.858  65.893  1.00  0.00    -0.297 C  
ENDROOT
BRANCH   3   5
HETATM    5  C   UNL     2      -8.039  14.267  67.210  1.00  0.00    -0.178 A  
HETATM    6  C   UNL     2      -9.234  13.648  67.573  1.00  0.00    -0.218 A  
HETATM    7  C   UNL     2      -9.248  12.410  68.239  1.00  0.00    -0.189 A  
HETATM    8  S   UNL     2     -10.851  11.769  68.684  1.00  0.00    -0.231 SA 
HETATM    9  C   UNL     2     -10.396  10.342  69.650  1.00  0.00    -0.248 A  
HETATM   10  C   UNL     2      -9.058   9.944  69.793  1.00  0.00    -0.225 A  
HETATM   11  N   UNL     2      -7.973  10.565  69.259  1.00  0.00    -0.154 NA 
HETATM   12  C   UNL     2      -8.853   8.813  70.566  1.00  0.00    -0.200 A  
HETATM   13  C   UNL     2      -9.913   8.099  71.168  1.00  0.00    -0.218 A  
HETATM   14  C   UNL     2      -8.061  11.724  68.558  1.00  0.00    -0.140 A  
HETATM   15  C   UNL     2      -6.883  12.310  68.115  1.00  0.00    -0.078 A  
HETATM   16  C   UNL     2     -11.248   8.485  71.016  1.00  0.00    -0.268 A  
HETATM   17  C   UNL     2      -6.858  13.555  67.459  1.00  0.00    -0.156 A  
HETATM   18  C   UNL     2     -11.455   9.637  70.252  1.00  0.00    -0.288 A  
BRANCH  16  19
HETATM   19  N   UNL     2     -12.301   7.765  71.550  1.00  0.00    -0.311 NA 
HETATM   20  C   UNL     2     -12.119   6.414  72.074  1.00  0.00    -0.303 C  
HETATM   21  C   UNL     2     -13.679   8.226  71.458  1.00  0.00    -0.308 C  
ENDBRANCH  16  19
ENDBRANCH   3   5
TORSDOF 2
ENDMDL
MODEL      120
REMARK 921   NORMALIZED FREE ENERGY PREDICTED BY IDOCK:   -3.41 KCAL/MOL
REMARK 922        TOTAL FREE ENERGY PREDICTED BY IDOCK:   -4.00 KCAL/MOL
REMARK 923 INTER-LIGAND FREE ENERGY PREDICTED BY IDOCK:   -3.82 KCAL/MOL
REMARK 924 INTRA-LIGAND FREE ENERGY PREDICTED BY IDOCK:   -0.19 KCAL/MOL
REMARK 927      BINDING AFFINITY PREDICTED BY RF-SCORE:    0.00 PKD
ROOT
HETATM    1 CL   UNL     1     -11.416  16.122  64.306  1.00  0.00    -0.317 Cl 
HETATM    2  C   UNL     2      -9.521  16.928  67.774  1.00  0.00    -0.237 C  
HETATM    3  N   UNL     2      -8.117  16.494  67.673  1.00  0.00    -0.161 NA 
HETATM    4  C   UNL     2      -7.485  16.853  66.396  1.00  0.00    -0.288 C  
ENDROOT
BRANCH   3   5
HETATM    5  C   UNL     2      -7.893  15.140  67.989  1.00  0.00    -0.130 A  
HETATM    6  C   UNL     2      -8.878  14.156  67.900  1.00  0.00    -0.182 A  
HETATM    7  C   UNL     2      -8.635  12.834  68.310  1.00  0.00    -0.166 A  
HETATM    8  S   UNL     2     -10.006  11.702  68.183  1.00  0.00    -0.200 SA 
HETATM    9  C   UNL     2      -9.332  10.253  68.973  1.00  0.00    -0.189 A  
HETATM   10  C   UNL     2      -7.998  10.201  69.403  1.00  0.00    -0.154 A  
HETATM   11  N   UNL     2      -7.081  11.199  69.302  1.00  0.00    -0.120 NA 
HETATM   12  C   UNL     2      -7.609   9.010  69.993  1.00  0.00    -0.072 A  
HETATM   13  C   UNL     2      -8.487   7.915  70.150  1.00  0.00    -0.129 A  
HETATM   14  C   UNL     2      -7.385  12.430  68.816  1.00  0.00    -0.076 A  
HETATM   15  C   UNL     2      -6.389  13.398  68.820  1.00  0.00    -0.094 A  
HETATM   16  C   UNL     2      -9.814   7.959  69.711  1.00  0.00    -0.179 A  
HETATM   17  C   UNL     2      -6.626  14.728  68.422  1.00  0.00    -0.101 A  
HETATM   18  C   UNL     2     -10.213   9.167  69.132  1.00  0.00    -0.215 A  
BRANCH  16  19
HETATM   19  N   UNL     2     -10.670   6.877  69.804  1.00  0.00    -0.232 NA 
HETATM   20  C   UNL     2     -11.029   6.291  71.093  1.00  0.00    -0.280 C  
HETATM   21  C   UNL     2     -11.119   6.142  68.629  1.00  0.00    -0.294 C  
ENDBRANCH  16  19
ENDBRANCH   3   5
TORSDOF 2
ENDMDL
MODEL      121
REMARK 921   NORMALIZED FREE ENERGY PREDICTED BY IDOCK:   -3.35 KCAL/MOL
REMARK 922        TOTAL FREE ENERGY PREDICTED BY IDOCK:   -3.94 KCAL/MOL
REMARK 923 INTER-LIGAND FREE ENERGY PREDICTED BY IDOCK:   -3.74 KCAL/MOL
REMARK 924 INTRA-LIGAND FREE ENERGY PREDICTED BY IDOCK:   -0.19 KCAL/MOL
REMARK 927      BINDING AFFINITY PREDICTED BY RF-SCORE:    0.00 PKD
ROOT
HETATM    1 CL   UNL     1     -12.764  11.742  63.782  1.00  0.00    -0.481 Cl 
HETATM    2  C   UNL     2     -10.111  12.215  66.783  1.00  0.00    -0.200 C  
HETATM    3  N   UNL     2      -9.062  11.187  66.671  1.00  0.00    -0.166 NA 
HETATM    4  C   UNL     2      -8.582  10.990  65.297  1.00  0.00    -0.046 C  
ENDROOT
BRANCH   3   5
HETATM    5  C   UNL     2      -9.373   9.957  67.283  1.00  0.00    -0.145 A  
HETATM    6  C   UNL     2      -8.901   9.583  68.541  1.00  0.00    -0.124 A  
HETATM    7  C   UNL     2      -9.164   8.309  69.075  1.00  0.00    -0.147 A  
HETATM    8  S   UNL     2      -8.451   7.959  70.671  1.00  0.00    -0.127 SA 
HETATM    9  C   UNL     2      -8.853   6.233  70.857  1.00  0.00    -0.136 A  
HETATM   10  C   UNL     2      -9.644   5.554  69.917  1.00  0.00    -0.164 A  
HETATM   11  N   UNL     2     -10.172   6.081  68.781  1.00  0.00    -0.171 NA 
HETATM   12  C   UNL     2      -9.882   4.218  70.195  1.00  0.00    -0.271 A  
HETATM   13  C   UNL     2      -9.373   3.575  71.345  1.00  0.00    -0.213 A  
HETATM   14  C   UNL     2      -9.929   7.354  68.379  1.00  0.00    -0.164 A  
HETATM   15  C   UNL     2     -10.463   7.770  67.167  1.00  0.00    -0.413 A  
HETATM   16  C   UNL     2      -8.597   4.252  72.291  1.00  0.00    -0.108 A  
HETATM   17  C   UNL     2     -10.196   9.038  66.618  1.00  0.00    -0.333 A  
HETATM   18  C   UNL     2      -8.340   5.596  72.003  1.00  0.00    -0.122 A  
BRANCH  16  19
HETATM   19  N   UNL     2      -8.140   3.655  73.451  1.00  0.00    -0.078 NA 
HETATM   20  C   UNL     2      -7.087   4.260  74.262  1.00  0.00    -0.070 C  
HETATM   21  C   UNL     2      -8.542   2.310  73.839  1.00  0.00    -0.063 C  
ENDBRANCH  16  19
ENDBRANCH   3   5
TORSDOF 2
ENDMDL
MODEL      122
REMARK 921   NORMALIZED FREE ENERGY PREDICTED BY IDOCK:   -3.33 KCAL/MOL
REMARK 922        TOTAL FREE ENERGY PREDICTED BY IDOCK:   -3.91 KCAL/MOL
REMARK 923 INTER-LIGAND FREE ENERGY PREDICTED BY IDOCK:   -3.71 KCAL/MOL
REMARK 924 INTRA-LIGAND FREE ENERGY PREDICTED BY IDOCK:   -0.20 KCAL/MOL
REMARK 927      BINDING AFFINITY PREDICTED BY RF-SCORE:    0.00 PKD
ROOT
HETATM    1 CL   UNL     1      -9.552   1.939  64.385  1.00  0.00    -0.125 Cl 
HETATM    2  C   UNL     2      -6.935   5.006  64.273  1.00  0.00    -0.049 C  
HETATM    3  N   UNL     2      -6.080   4.960  65.472  1.00  0.00    -0.032 NA 
HETATM    4  C   UNL     2      -5.607   3.607  65.799  1.00  0.00    -0.018 C  
ENDROOT
BRANCH   3   5
HETATM    5  C   UNL     2      -6.618   5.600  66.606  1.00  0.00    -0.056 A  
HETATM    6  C   UNL     2      -7.931   5.422  67.039  1.00  0.00    -0.101 A  
HETATM    7  C   UNL     2      -8.451   6.149  68.123  1.00  0.00    -0.116 A  
HETATM    8  S   UNL     2     -10.162   5.850  68.527  1.00  0.00    -0.214 SA 
HETATM    9  C   UNL     2     -10.442   7.086  69.780  1.00  0.00    -0.219 A  
HETATM   10  C   UNL     2      -9.404   7.900  70.259  1.00  0.00    -0.159 A  
HETATM   11  N   UNL     2      -8.109   7.876  69.846  1.00  0.00    -0.116 NA 
HETATM   12  C   UNL     2      -9.765   8.811  71.237  1.00  0.00    -0.335 A  
HETATM   13  C   UNL     2     -11.084   8.918  71.730  1.00  0.00    -0.433 A  
HETATM   14  C   UNL     2      -7.673   7.079  68.837  1.00  0.00    -0.110 A  
HETATM   15  C   UNL     2      -6.344   7.185  68.449  1.00  0.00    -0.036 A  
HETATM   16  C   UNL     2     -12.118   8.099  71.265  1.00  0.00    -0.288 A  
HETATM   17  C   UNL     2      -5.817   6.470  67.357  1.00  0.00    -0.017 A  
HETATM   18  C   UNL     2     -11.759   7.192  70.264  1.00  0.00    -0.226 A  
BRANCH  16  19
HETATM   19  N   UNL     2     -13.401   8.150  71.777  1.00  0.00    -0.341 NA 
HETATM   20  C   UNL     2     -14.384   7.108  71.489  1.00  0.00    -0.338 C  
HETATM   21  C   UNL     2     -13.910   9.322  72.477  1.00  0.00    -0.384 C  
ENDBRANCH  16  19
ENDBRANCH   3   5
TORSDOF 2
ENDMDL
MODEL      123
REMARK 921   NORMALIZED FREE ENERGY PREDICTED BY IDOCK:   -3.33 KCAL/MOL
REMARK 922        TOTAL FREE ENERGY PREDICTED BY IDOCK:   -3.91 KCAL/MOL
REMARK 923 INTER-LIGAND FREE ENERGY PREDICTED BY IDOCK:   -3.71 KCAL/MOL
REMARK 924 INTRA-LIGAND FREE ENERGY PREDICTED BY IDOCK:   -0.19 KCAL/MOL
REMARK 927      BINDING AFFINITY PREDICTED BY RF-SCORE:    0.00 PKD
ROOT
HETATM    1 CL   UNL     1     -11.159   6.276  67.906  1.00  0.00    -0.415 Cl 
HETATM    2  C   UNL     2      -7.917   6.868  65.581  1.00  0.00    -0.120 C  
HETATM    3  N   UNL     2      -6.780   7.271  66.427  1.00  0.00    -0.058 NA 
HETATM    4  C   UNL     2      -6.659   6.479  67.659  1.00  0.00    -0.061 C  
ENDROOT
BRANCH   3   5
HETATM    5  C   UNL     2      -6.705   8.651  66.698  1.00  0.00    -0.068 A  
HETATM    6  C   UNL     2      -7.726   9.369  67.318  1.00  0.00    -0.091 A  
HETATM    7  C   UNL     2      -7.646  10.762  67.488  1.00  0.00    -0.094 A  
HETATM    8  S   UNL     2      -9.052  11.547  68.253  1.00  0.00    -0.187 SA 
HETATM    9  C   UNL     2      -8.619  13.268  68.087  1.00  0.00    -0.177 A  
HETATM   10  C   UNL     2      -7.380  13.670  67.563  1.00  0.00    -0.166 A  
HETATM   11  N   UNL     2      -6.393  12.850  67.115  1.00  0.00    -0.227 NA 
HETATM   12  C   UNL     2      -7.177  15.039  67.500  1.00  0.00    -0.228 A  
HETATM   13  C   UNL     2      -8.143  15.974  67.934  1.00  0.00    -0.149 A  
HETATM   14  C   UNL     2      -6.527  11.500  67.059  1.00  0.00    -0.134 A  
HETATM   15  C   UNL     2      -5.482  10.762  66.520  1.00  0.00    -0.078 A  
HETATM   16  C   UNL     2      -9.372  15.576  68.469  1.00  0.00    -0.197 A  
HETATM   17  C   UNL     2      -5.558   9.369  66.334  1.00  0.00    -0.052 A  
HETATM   18  C   UNL     2      -9.586  14.196  68.517  1.00  0.00    -0.214 A  
BRANCH  16  19
HETATM   19  N   UNL     2     -10.304  16.476  68.953  1.00  0.00    -0.272 NA 
HETATM   20  C   UNL     2     -10.214  17.905  68.662  1.00  0.00    -0.385 C  
HETATM   21  C   UNL     2     -11.319  16.092  69.924  1.00  0.00    -0.340 C  
ENDBRANCH  16  19
ENDBRANCH   3   5
TORSDOF 2
ENDMDL
MODEL      124
REMARK 921   NORMALIZED FREE ENERGY PREDICTED BY IDOCK:   -3.24 KCAL/MOL
REMARK 922        TOTAL FREE ENERGY PREDICTED BY IDOCK:   -3.81 KCAL/MOL
REMARK 923 INTER-LIGAND FREE ENERGY PREDICTED BY IDOCK:   -3.62 KCAL/MOL
REMARK 924 INTRA-LIGAND FREE ENERGY PREDICTED BY IDOCK:   -0.19 KCAL/MOL
REMARK 927      BINDING AFFINITY PREDICTED BY RF-SCORE:    0.00 PKD
ROOT
HETATM    1 CL   UNL     1      -9.430   2.546  68.400  1.00  0.00    -0.257 Cl 
HETATM    2  C   UNL     2      -8.187   4.508  65.103  1.00  0.00    -0.112 C  
HETATM    3  N   UNL     2      -6.950   5.247  65.413  1.00  0.00    -0.063 NA 
HETATM    4  C   UNL     2      -5.988   4.468  66.206  1.00  0.00    -0.027 C  
ENDROOT
BRANCH   3   5
HETATM    5  C   UNL     2      -7.151   6.526  65.968  1.00  0.00    -0.063 A  
HETATM    6  C   UNL     2      -8.243   7.335  65.660  1.00  0.00    -0.138 A  
HETATM    7  C   UNL     2      -8.357   8.640  66.169  1.00  0.00    -0.125 A  
HETATM    8  S   UNL     2      -9.784   9.571  65.645  1.00  0.00    -0.249 SA 
HETATM    9  C   UNL     2      -9.426  11.173  66.340  1.00  0.00    -0.193 A  
HETATM   10  C   UNL     2      -8.307  11.388  67.159  1.00  0.00    -0.155 A  
HETATM   11  N   UNL     2      -7.375  10.462  67.506  1.00  0.00    -0.091 NA 
HETATM   12  C   UNL     2      -8.158  12.680  67.634  1.00  0.00    -0.173 A  
HETATM   13  C   UNL     2      -9.067  13.716  67.327  1.00  0.00    -0.228 A  
HETATM   14  C   UNL     2      -7.386   9.192  67.026  1.00  0.00    -0.090 A  
HETATM   15  C   UNL     2      -6.348   8.346  67.392  1.00  0.00    -0.057 A  
HETATM   16  C   UNL     2     -10.191  13.502  66.523  1.00  0.00    -0.283 A  
HETATM   17  C   UNL     2      -6.219   7.041  66.879  1.00  0.00    -0.041 A  
HETATM   18  C   UNL     2     -10.333  12.202  66.027  1.00  0.00    -0.268 A  
BRANCH  16  19
HETATM   19  N   UNL     2     -11.123  14.488  66.260  1.00  0.00    -0.327 NA 
HETATM   20  C   UNL     2     -10.907  15.875  66.666  1.00  0.00    -0.213 C  
HETATM   21  C   UNL     2     -12.445  14.184  65.732  1.00  0.00    -0.466 C  
ENDBRANCH  16  19
ENDBRANCH   3   5
TORSDOF 2
ENDMDL
MODEL      125
REMARK 921   NORMALIZED FREE ENERGY PREDICTED BY IDOCK:   -3.20 KCAL/MOL
REMARK 922        TOTAL FREE ENERGY PREDICTED BY IDOCK:   -3.77 KCAL/MOL
REMARK 923 INTER-LIGAND FREE ENERGY PREDICTED BY IDOCK:   -3.58 KCAL/MOL
REMARK 924 INTRA-LIGAND FREE ENERGY PREDICTED BY IDOCK:   -0.19 KCAL/MOL
REMARK 927      BINDING AFFINITY PREDICTED BY RF-SCORE:    0.00 PKD
ROOT
HETATM    1 CL   UNL     1      -9.089  17.368  66.578  1.00  0.00    -0.280 Cl 
HETATM    2  C   UNL     2      -7.477  15.022  69.436  1.00  0.00    -0.196 C  
HETATM    3  N   UNL     2      -6.813  13.870  68.802  1.00  0.00    -0.099 NA 
HETATM    4  C   UNL     2      -6.017  14.233  67.620  1.00  0.00    -0.025 C  
ENDROOT
BRANCH   3   5
HETATM    5  C   UNL     2      -7.658  12.777  68.531  1.00  0.00    -0.120 A  
HETATM    6  C   UNL     2      -7.426  11.488  69.010  1.00  0.00    -0.073 A  
HETATM    7  C   UNL     2      -8.247  10.409  68.642  1.00  0.00    -0.121 A  
HETATM    8  S   UNL     2      -7.794   8.812  69.294  1.00  0.00    -0.102 SA 
HETATM    9  C   UNL     2      -8.940   7.751  68.437  1.00  0.00    -0.132 A  
HETATM   10  C   UNL     2      -9.940   8.268  67.598  1.00  0.00    -0.190 A  
HETATM   11  N   UNL     2     -10.154   9.581  67.320  1.00  0.00    -0.200 NA 
HETATM   12  C   UNL     2     -10.763   7.327  67.004  1.00  0.00    -0.406 A  
HETATM   13  C   UNL     2     -10.619   5.939  67.224  1.00  0.00    -0.365 A  
HETATM   14  C   UNL     2      -9.352  10.573  67.786  1.00  0.00    -0.149 A  
HETATM   15  C   UNL     2      -9.622  11.874  67.385  1.00  0.00    -0.176 A  
HETATM   16  C   UNL     2      -9.633   5.421  68.070  1.00  0.00    -0.127 A  
HETATM   17  C   UNL     2      -8.799  12.960  67.739  1.00  0.00    -0.188 A  
HETATM   18  C   UNL     2      -8.789   6.369  68.656  1.00  0.00    -0.120 A  
BRANCH  16  19
HETATM   19  N   UNL     2      -9.515   4.071  68.342  1.00  0.00    -0.158 NA 
HETATM   20  C   UNL     2      -9.465   3.567  69.713  1.00  0.00    -0.171 C  
HETATM   21  C   UNL     2      -9.249   3.091  67.299  1.00  0.00    -0.182 C  
ENDBRANCH  16  19
ENDBRANCH   3   5
TORSDOF 2
ENDMDL
MODEL      126
REMARK 921   NORMALIZED FREE ENERGY PREDICTED BY IDOCK:   -3.12 KCAL/MOL
REMARK 922        TOTAL FREE ENERGY PREDICTED BY IDOCK:   -3.67 KCAL/MOL
REMARK 923 INTER-LIGAND FREE ENERGY PREDICTED BY IDOCK:   -3.49 KCAL/MOL
REMARK 924 INTRA-LIGAND FREE ENERGY PREDICTED BY IDOCK:   -0.18 KCAL/MOL
REMARK 927      BINDING AFFINITY PREDICTED BY RF-SCORE:    0.00 PKD
ROOT
HETATM    1 CL   UNL     1     -10.398   2.970  63.290  1.00  0.00    -0.166 Cl 
HETATM    2  C   UNL     2      -7.317   4.093  65.639  1.00  0.00    -0.076 C  
HETATM    3  N   UNL     2      -7.779   4.187  67.035  1.00  0.00    -0.091 NA 
HETATM    4  C   UNL     2      -8.637   3.066  67.442  1.00  0.00    -0.104 C  
ENDROOT
BRANCH   3   5
HETATM    5  C   UNL     2      -8.356   5.423  67.383  1.00  0.00    -0.103 A  
HETATM    6  C   UNL     2      -8.687   6.407  66.453  1.00  0.00    -0.140 A  
HETATM    7  C   UNL     2      -9.179   7.662  66.854  1.00  0.00    -0.145 A  
HETATM    8  S   UNL     2      -9.509   8.834  65.552  1.00  0.00     0.097 SA 
HETATM    9  C   UNL     2      -9.903  10.295  66.494  1.00  0.00    -0.212 A  
HETATM   10  C   UNL     2      -9.989  10.268  67.895  1.00  0.00    -0.164 A  
HETATM   11  N   UNL     2      -9.778   9.188  68.692  1.00  0.00    -0.152 NA 
HETATM   12  C   UNL     2     -10.311  11.475  68.494  1.00  0.00    -0.224 A  
HETATM   13  C   UNL     2     -10.544  12.655  67.754  1.00  0.00    -0.233 A  
HETATM   14  C   UNL     2      -9.378   7.984  68.209  1.00  0.00    -0.140 A  
HETATM   15  C   UNL     2      -9.125   6.966  69.119  1.00  0.00    -0.136 A  
HETATM   16  C   UNL     2     -10.473  12.682  66.358  1.00  0.00    -0.249 A  
HETATM   17  C   UNL     2      -8.621   5.711  68.728  1.00  0.00    -0.104 A  
HETATM   18  C   UNL     2     -10.130  11.469  65.753  1.00  0.00    -0.278 A  
BRANCH  16  19
HETATM   19  N   UNL     2     -10.755  13.813  65.615  1.00  0.00    -0.282 NA 
HETATM   20  C   UNL     2      -9.759  14.863  65.408  1.00  0.00    -0.176 C  
HETATM   21  C   UNL     2     -12.101  14.119  65.151  1.00  0.00    -0.414 C  
ENDBRANCH  16  19
ENDBRANCH   3   5
TORSDOF 2
ENDMDL
MODEL      127
REMARK 921   NORMALIZED FREE ENERGY PREDICTED BY IDOCK:   -3.08 KCAL/MOL
REMARK 922        TOTAL FREE ENERGY PREDICTED BY IDOCK:   -3.64 KCAL/MOL
REMARK 923 INTER-LIGAND FREE ENERGY PREDICTED BY IDOCK:   -3.45 KCAL/MOL
REMARK 924 INTRA-LIGAND FREE ENERGY PREDICTED BY IDOCK:   -0.19 KCAL/MOL
REMARK 927      BINDING AFFINITY PREDICTED BY RF-SCORE:    0.00 PKD
ROOT
HETATM    1 CL   UNL     1     -10.196  18.201  68.007  1.00  0.00    -0.370 Cl 
HETATM    2  C   UNL     2      -6.357  17.667  69.122  1.00  0.00    -0.232 C  
HETATM    3  N   UNL     2      -5.728  16.670  68.238  1.00  0.00    -0.115 NA 
HETATM    4  C   UNL     2      -6.056  16.859  66.818  1.00  0.00    -0.181 C  
ENDROOT
BRANCH   3   5
HETATM    5  C   UNL     2      -5.916  15.330  68.630  1.00  0.00    -0.091 A  
HETATM    6  C   UNL     2      -6.690  14.420  67.910  1.00  0.00    -0.177 A  
HETATM    7  C   UNL     2      -6.923  13.118  68.386  1.00  0.00    -0.104 A  
HETATM    8  S   UNL     2      -7.974  12.086  67.381  1.00  0.00    -0.174 SA 
HETATM    9  C   UNL     2      -8.154  10.654  68.426  1.00  0.00    -0.123 A  
HETATM   10  C   UNL     2      -7.457  10.534  69.639  1.00  0.00    -0.141 A  
HETATM   11  N   UNL     2      -6.605  11.450  70.170  1.00  0.00    -0.165 NA 
HETATM   12  C   UNL     2      -7.688   9.364  70.344  1.00  0.00    -0.163 A  
HETATM   13  C   UNL     2      -8.559   8.354  69.880  1.00  0.00    -0.131 A  
HETATM   14  C   UNL     2      -6.377  12.660  69.599  1.00  0.00    -0.095 A  
HETATM   15  C   UNL     2      -5.540  13.547  70.262  1.00  0.00    -0.139 A  
HETATM   16  C   UNL     2      -9.244   8.465  68.666  1.00  0.00    -0.143 A  
HETATM   17  C   UNL     2      -5.310  14.858  69.801  1.00  0.00    -0.095 A  
HETATM   18  C   UNL     2      -9.026   9.653  67.962  1.00  0.00    -0.122 A  
BRANCH  16  19
HETATM   19  N   UNL     2     -10.054   7.461  68.169  1.00  0.00    -0.173 NA 
HETATM   20  C   UNL     2     -10.270   7.288  66.734  1.00  0.00    -0.235 C  
HETATM   21  C   UNL     2     -10.883   6.635  69.036  1.00  0.00    -0.277 C  
ENDBRANCH  16  19
ENDBRANCH   3   5
TORSDOF 2
ENDMDL
MODEL      128
REMARK 921   NORMALIZED FREE ENERGY PREDICTED BY IDOCK:   -3.02 KCAL/MOL
REMARK 922        TOTAL FREE ENERGY PREDICTED BY IDOCK:   -3.57 KCAL/MOL
REMARK 923 INTER-LIGAND FREE ENERGY PREDICTED BY IDOCK:   -3.38 KCAL/MOL
REMARK 924 INTRA-LIGAND FREE ENERGY PREDICTED BY IDOCK:   -0.19 KCAL/MOL
REMARK 927      BINDING AFFINITY PREDICTED BY RF-SCORE:    0.00 PKD
ROOT
HETATM    1 CL   UNL     1      -9.031   3.882  68.534  1.00  0.00    -0.150 Cl 
HETATM    2  C   UNL     2      -8.597   5.645  64.933  1.00  0.00    -0.085 C  
HETATM    3  N   UNL     2      -7.298   6.338  64.884  1.00  0.00    -0.070 NA 
HETATM    4  C   UNL     2      -6.194   5.549  65.448  1.00  0.00    -0.034 C  
ENDROOT
BRANCH   3   5
HETATM    5  C   UNL     2      -7.306   7.647  65.404  1.00  0.00    -0.071 A  
HETATM    6  C   UNL     2      -8.342   8.156  66.187  1.00  0.00    -0.126 A  
HETATM    7  C   UNL     2      -8.351   9.496  66.611  1.00  0.00    -0.116 A  
HETATM    8  S   UNL     2      -9.766  10.015  67.563  1.00  0.00    -0.164 SA 
HETATM    9  C   UNL     2      -9.466  11.766  67.704  1.00  0.00    -0.180 A  
HETATM   10  C   UNL     2      -8.288  12.354  67.216  1.00  0.00    -0.184 A  
HETATM   11  N   UNL     2      -7.271  11.710  66.585  1.00  0.00    -0.078 NA 
HETATM   12  C   UNL     2      -8.187  13.722  67.401  1.00  0.00    -0.194 A  
HETATM   13  C   UNL     2      -9.191  14.483  68.040  1.00  0.00    -0.190 A  
HETATM   14  C   UNL     2      -7.312  10.388  66.283  1.00  0.00    -0.128 A  
HETATM   15  C   UNL     2      -6.247   9.846  65.575  1.00  0.00    -0.084 A  
HETATM   16  C   UNL     2     -10.359  13.898  68.539  1.00  0.00    -0.244 A  
HETATM   17  C   UNL     2      -6.235   8.508  65.136  1.00  0.00    -0.052 A  
HETATM   18  C   UNL     2     -10.471  12.519  68.337  1.00  0.00    -0.250 A  
BRANCH  16  19
HETATM   19  N   UNL     2     -11.325  14.617  69.218  1.00  0.00    -0.271 NA 
HETATM   20  C   UNL     2     -12.129  14.011  70.277  1.00  0.00    -0.355 C  
HETATM   21  C   UNL     2     -11.729  15.953  68.804  1.00  0.00    -0.349 C  
ENDBRANCH  16  19
ENDBRANCH   3   5
TORSDOF 2
ENDMDL
MODEL      129
REMARK 921   NORMALIZED FREE ENERGY PREDICTED BY IDOCK:   -2.85 KCAL/MOL
REMARK 922        TOTAL FREE ENERGY PREDICTED BY IDOCK:   -3.38 KCAL/MOL
REMARK 923 INTER-LIGAND FREE ENERGY PREDICTED BY IDOCK:   -3.19 KCAL/MOL
REMARK 924 INTRA-LIGAND FREE ENERGY PREDICTED BY IDOCK:   -0.19 KCAL/MOL
REMARK 927      BINDING AFFINITY PREDICTED BY RF-SCORE:    0.00 PKD
ROOT
HETATM    1 CL   UNL     1      -8.350   2.624  72.022  1.00  0.00    -0.058 Cl 
HETATM    2  C   UNL     2      -8.951   6.295  73.583  1.00  0.00    -0.124 C  
HETATM    3  N   UNL     2     -10.157   6.888  72.979  1.00  0.00    -0.186 NA 
HETATM    4  C   UNL     2     -11.280   5.947  72.874  1.00  0.00    -0.253 C  
ENDROOT
BRANCH   3   5
HETATM    5  C   UNL     2      -9.938   7.559  71.760  1.00  0.00    -0.171 A  
HETATM    6  C   UNL     2      -9.702   6.903  70.553  1.00  0.00    -0.177 A  
HETATM    7  C   UNL     2      -9.401   7.613  69.378  1.00  0.00    -0.152 A  
HETATM    8  S   UNL     2      -9.073   6.634  67.925  1.00  0.00    -0.112 SA 
HETATM    9  C   UNL     2      -8.556   7.890  66.771  1.00  0.00    -0.131 A  
HETATM   10  C   UNL     2      -8.591   9.253  67.101  1.00  0.00    -0.128 A  
HETATM   11  N   UNL     2      -8.985   9.783  68.289  1.00  0.00    -0.119 NA 
HETATM   12  C   UNL     2      -8.168  10.117  66.104  1.00  0.00    -0.125 A  
HETATM   13  C   UNL     2      -7.734   9.667  64.837  1.00  0.00    -0.120 A  
HETATM   14  C   UNL     2      -9.338   9.019  69.354  1.00  0.00    -0.158 A  
HETATM   15  C   UNL     2      -9.658   9.662  70.542  1.00  0.00    -0.261 A  
HETATM   16  C   UNL     2      -7.711   8.309  64.501  1.00  0.00    -0.123 A  
HETATM   17  C   UNL     2      -9.950   8.959  71.726  1.00  0.00    -0.397 A  
HETATM   18  C   UNL     2      -8.121   7.435  65.512  1.00  0.00    -0.131 A  
BRANCH  16  19
HETATM   19  N   UNL     2      -7.346   7.855  63.248  1.00  0.00    -0.101 NA 
HETATM   20  C   UNL     2      -6.294   8.508  62.471  1.00  0.00    -0.091 C  
HETATM   21  C   UNL     2      -8.099   6.824  62.548  1.00  0.00    -0.075 C  
ENDBRANCH  16  19
ENDBRANCH   3   5
TORSDOF 2
ENDMDL
MODEL      130
REMARK 921   NORMALIZED FREE ENERGY PREDICTED BY IDOCK:   -2.72 KCAL/MOL
REMARK 922        TOTAL FREE ENERGY PREDICTED BY IDOCK:   -3.23 KCAL/MOL
REMARK 923 INTER-LIGAND FREE ENERGY PREDICTED BY IDOCK:   -3.04 KCAL/MOL
REMARK 924 INTRA-LIGAND FREE ENERGY PREDICTED BY IDOCK:   -0.19 KCAL/MOL
REMARK 927      BINDING AFFINITY PREDICTED BY RF-SCORE:    0.00 PKD
ROOT
HETATM    1 CL   UNL     1     -11.411  11.378  67.027  1.00  0.00    -0.354 Cl 
HETATM    2  C   UNL     2      -7.757   9.768  66.454  1.00  0.00    -0.102 C  
HETATM    3  N   UNL     2      -7.862   8.652  65.498  1.00  0.00    -0.095 NA 
HETATM    4  C   UNL     2      -8.718   8.952  64.341  1.00  0.00    -0.066 C  
ENDROOT
BRANCH   3   5
HETATM    5  C   UNL     2      -8.201   7.412  66.074  1.00  0.00    -0.130 A  
HETATM    6  C   UNL     2      -8.680   7.274  67.376  1.00  0.00    -0.121 A  
HETATM    7  C   UNL     2      -8.920   6.009  67.940  1.00  0.00    -0.118 A  
HETATM    8  S   UNL     2      -9.483   5.991  69.632  1.00  0.00    -0.146 SA 
HETATM    9  C   UNL     2      -9.462   4.245  69.985  1.00  0.00    -0.184 A  
HETATM   10  C   UNL     2      -9.162   3.296  68.995  1.00  0.00    -0.158 A  
HETATM   11  N   UNL     2      -8.843   3.558  67.700  1.00  0.00    -0.114 NA 
HETATM   12  C   UNL     2      -9.190   1.975  69.410  1.00  0.00    -0.181 A  
HETATM   13  C   UNL     2      -9.504   1.598  70.735  1.00  0.00    -0.187 A  
HETATM   14  C   UNL     2      -8.708   4.820  67.217  1.00  0.00    -0.103 A  
HETATM   15  C   UNL     2      -8.313   4.974  65.896  1.00  0.00    -0.116 A  
HETATM   16  C   UNL     2      -9.817   2.540  71.719  1.00  0.00    -0.156 A  
HETATM   17  C   UNL     2      -8.057   6.236  65.326  1.00  0.00    -0.132 A  
HETATM   18  C   UNL     2      -9.771   3.875  71.307  1.00  0.00    -0.247 A  
BRANCH  16  19
HETATM   19  N   UNL     2     -10.183   2.186  73.005  1.00  0.00    -0.117 NA 
HETATM   20  C   UNL     2     -11.489   2.541  73.555  1.00  0.00    -0.155 C  
HETATM   21  C   UNL     2      -9.237   1.607  73.948  1.00  0.00    -0.061 C  
ENDBRANCH  16  19
ENDBRANCH   3   5
TORSDOF 2
ENDMDL
MODEL      131
REMARK 921   NORMALIZED FREE ENERGY PREDICTED BY IDOCK:   -2.68 KCAL/MOL
REMARK 922        TOTAL FREE ENERGY PREDICTED BY IDOCK:   -3.18 KCAL/MOL
REMARK 923 INTER-LIGAND FREE ENERGY PREDICTED BY IDOCK:   -2.98 KCAL/MOL
REMARK 924 INTRA-LIGAND FREE ENERGY PREDICTED BY IDOCK:   -0.20 KCAL/MOL
REMARK 927      BINDING AFFINITY PREDICTED BY RF-SCORE:    0.00 PKD
ROOT
HETATM    1 CL   UNL     1     -11.234  14.537  71.230  1.00  0.00     0.075 Cl 
HETATM    2  C   UNL     2      -8.041  13.713  68.908  1.00  0.00     0.093 C  
HETATM    3  N   UNL     2      -8.500  13.096  67.651  1.00  0.00    -0.180 NA 
HETATM    4  C   UNL     2      -9.673  13.763  67.069  1.00  0.00    -0.251 C  
ENDROOT
BRANCH   3   5
HETATM    5  C   UNL     2      -8.683  11.701  67.710  1.00  0.00    -0.152 A  
HETATM    6  C   UNL     2      -9.134  11.032  68.847  1.00  0.00    -0.132 A  
HETATM    7  C   UNL     2      -9.217   9.630  68.889  1.00  0.00    -0.147 A  
HETATM    8  S   UNL     2      -9.762   8.916  70.429  1.00  0.00    -0.206 SA 
HETATM    9  C   UNL     2      -9.529   7.179  70.107  1.00  0.00    -0.161 A  
HETATM   10  C   UNL     2      -9.123   6.710  68.848  1.00  0.00    -0.132 A  
HETATM   11  N   UNL     2      -8.846   7.473  67.758  1.00  0.00    -0.132 NA 
HETATM   12  C   UNL     2      -8.989   5.336  68.740  1.00  0.00    -0.125 A  
HETATM   13  C   UNL     2      -9.247   4.457  69.815  1.00  0.00    -0.199 A  
HETATM   14  C   UNL     2      -8.867   8.830  67.785  1.00  0.00    -0.136 A  
HETATM   15  C   UNL     2      -8.501   9.512  66.632  1.00  0.00    -0.136 A  
HETATM   16  C   UNL     2      -9.665   4.920  71.067  1.00  0.00    -0.185 A  
HETATM   17  C   UNL     2      -8.403  10.916  66.584  1.00  0.00    -0.143 A  
HETATM   18  C   UNL     2      -9.783   6.308  71.183  1.00  0.00    -0.194 A  
BRANCH  16  19
HETATM   19  N   UNL     2      -9.978   4.072  72.112  1.00  0.00    -0.167 NA 
HETATM   20  C   UNL     2      -9.539   2.678  72.128  1.00  0.00    -0.125 C  
HETATM   21  C   UNL     2     -10.911   4.451  73.164  1.00  0.00    -0.247 C  
ENDBRANCH  16  19
ENDBRANCH   3   5
TORSDOF 2
ENDMDL
MODEL      132
REMARK 921   NORMALIZED FREE ENERGY PREDICTED BY IDOCK:   -2.65 KCAL/MOL
REMARK 922        TOTAL FREE ENERGY PREDICTED BY IDOCK:   -3.15 KCAL/MOL
REMARK 923 INTER-LIGAND FREE ENERGY PREDICTED BY IDOCK:   -2.96 KCAL/MOL
REMARK 924 INTRA-LIGAND FREE ENERGY PREDICTED BY IDOCK:   -0.19 KCAL/MOL
REMARK 927      BINDING AFFINITY PREDICTED BY RF-SCORE:    0.00 PKD
ROOT
HETATM    1 CL   UNL     1      -7.432   8.894  74.150  1.00  0.00     0.060 Cl 
HETATM    2  C   UNL     2     -10.843   7.136  72.909  1.00  0.00    -0.323 C  
HETATM    3  N   UNL     2     -10.596   5.701  72.682  1.00  0.00    -0.212 NA 
HETATM    4  C   UNL     2      -9.794   5.073  73.742  1.00  0.00    -0.150 C  
ENDROOT
BRANCH   3   5
HETATM    5  C   UNL     2     -10.093   5.383  71.406  1.00  0.00    -0.202 A  
HETATM    6  C   UNL     2      -9.655   6.340  70.491  1.00  0.00    -0.183 A  
HETATM    7  C   UNL     2      -9.244   5.983  69.195  1.00  0.00    -0.126 A  
HETATM    8  S   UNL     2      -8.759   7.322  68.123  1.00  0.00    -0.127 SA 
HETATM    9  C   UNL     2      -8.522   6.462  66.581  1.00  0.00    -0.115 A  
HETATM   10  C   UNL     2      -8.627   5.065  66.492  1.00  0.00    -0.110 A  
HETATM   11  N   UNL     2      -8.927   4.215  67.509  1.00  0.00    -0.117 NA 
HETATM   12  C   UNL     2      -8.411   4.531  65.232  1.00  0.00    -0.121 A  
HETATM   13  C   UNL     2      -8.099   5.329  64.109  1.00  0.00    -0.121 A  
HETATM   14  C   UNL     2      -9.237   4.645  68.759  1.00  0.00    -0.129 A  
HETATM   15  C   UNL     2      -9.594   3.695  69.706  1.00  0.00    -0.228 A  
HETATM   16  C   UNL     2      -7.980   6.720  64.197  1.00  0.00    -0.085 A  
HETATM   17  C   UNL     2     -10.019   4.043  71.003  1.00  0.00    -0.176 A  
HETATM   18  C   UNL     2      -8.216   7.261  65.464  1.00  0.00    -0.139 A  
BRANCH  16  19
HETATM   19  N   UNL     2      -7.618   7.510  63.122  1.00  0.00    -0.108 NA 
HETATM   20  C   UNL     2      -6.409   7.243  62.346  1.00  0.00    -0.061 C  
HETATM   21  C   UNL     2      -8.308   8.753  62.808  1.00  0.00    -0.192 C  
ENDBRANCH  16  19
ENDBRANCH   3   5
TORSDOF 2
ENDMDL
MODEL      133
REMARK 921   NORMALIZED FREE ENERGY PREDICTED BY IDOCK:   -2.50 KCAL/MOL
REMARK 922        TOTAL FREE ENERGY PREDICTED BY IDOCK:   -2.98 KCAL/MOL
REMARK 923 INTER-LIGAND FREE ENERGY PREDICTED BY IDOCK:   -2.80 KCAL/MOL
REMARK 924 INTRA-LIGAND FREE ENERGY PREDICTED BY IDOCK:   -0.18 KCAL/MOL
REMARK 927      BINDING AFFINITY PREDICTED BY RF-SCORE:    0.00 PKD
ROOT
HETATM    1 CL   UNL     1     -12.154   9.477  71.355  1.00  0.00    -0.429 Cl 
HETATM    2  C   UNL     2      -9.515   8.256  68.561  1.00  0.00    -0.146 C  
HETATM    3  N   UNL     2      -8.146   8.398  69.089  1.00  0.00    -0.117 NA 
HETATM    4  C   UNL     2      -8.006   7.936  70.477  1.00  0.00    -0.097 C  
ENDROOT
BRANCH   3   5
HETATM    5  C   UNL     2      -7.576   9.674  68.916  1.00  0.00    -0.076 A  
HETATM    6  C   UNL     2      -8.310  10.858  68.974  1.00  0.00    -0.118 A  
HETATM    7  C   UNL     2      -7.716  12.104  68.707  1.00  0.00    -0.034 A  
HETATM    8  S   UNL     2      -8.793  13.523  68.771  1.00  0.00     0.207 SA 
HETATM    9  C   UNL     2      -7.705  14.809  68.189  1.00  0.00    -0.122 A  
HETATM   10  C   UNL     2      -6.350  14.563  67.921  1.00  0.00    -0.161 A  
HETATM   11  N   UNL     2      -5.710  13.370  68.043  1.00  0.00    -0.110 NA 
HETATM   12  C   UNL     2      -5.622  15.657  67.483  1.00  0.00    -0.068 A  
HETATM   13  C   UNL     2      -6.195  16.938  67.318  1.00  0.00    -0.198 A  
HETATM   14  C   UNL     2      -6.351  12.224  68.385  1.00  0.00    -0.054 A  
HETATM   15  C   UNL     2      -5.615  11.047  68.414  1.00  0.00    -0.043 A  
HETATM   16  C   UNL     2      -7.542  17.189  67.597  1.00  0.00    -0.167 A  
HETATM   17  C   UNL     2      -6.203   9.793  68.668  1.00  0.00    -0.042 A  
HETATM   18  C   UNL     2      -8.282  16.082  68.022  1.00  0.00    -0.151 A  
BRANCH  16  19
HETATM   19  N   UNL     2      -8.105  18.448  67.498  1.00  0.00    -0.245 NA 
HETATM   20  C   UNL     2      -8.988  18.808  66.391  1.00  0.00    -0.292 C  
HETATM   21  C   UNL     2      -7.714  19.542  68.376  1.00  0.00    -0.337 C  
ENDBRANCH  16  19
ENDBRANCH   3   5
TORSDOF 2
ENDMDL
MODEL      134
REMARK 921   NORMALIZED FREE ENERGY PREDICTED BY IDOCK:   -2.44 KCAL/MOL
REMARK 922        TOTAL FREE ENERGY PREDICTED BY IDOCK:   -2.91 KCAL/MOL
REMARK 923 INTER-LIGAND FREE ENERGY PREDICTED BY IDOCK:   -2.72 KCAL/MOL
REMARK 924 INTRA-LIGAND FREE ENERGY PREDICTED BY IDOCK:   -0.19 KCAL/MOL
REMARK 927      BINDING AFFINITY PREDICTED BY RF-SCORE:    0.00 PKD
ROOT
HETATM    1 CL   UNL     1     -12.268  10.984  68.256  1.00  0.00     0.049 Cl 
HETATM    2  C   UNL     2      -8.422   9.948  67.623  1.00  0.00    -0.114 C  
HETATM    3  N   UNL     2      -7.632  10.253  68.828  1.00  0.00    -0.087 NA 
HETATM    4  C   UNL     2      -8.297   9.859  70.078  1.00  0.00    -0.168 C  
ENDROOT
BRANCH   3   5
HETATM    5  C   UNL     2      -7.152  11.575  68.901  1.00  0.00    -0.111 A  
HETATM    6  C   UNL     2      -7.861  12.677  68.425  1.00  0.00    -0.136 A  
HETATM    7  C   UNL     2      -7.305  13.968  68.438  1.00  0.00    -0.113 A  
HETATM    8  S   UNL     2      -8.312  15.269  67.750  1.00  0.00    -0.161 SA 
HETATM    9  C   UNL     2      -7.176  16.641  67.784  1.00  0.00    -0.138 A  
HETATM   10  C   UNL     2      -5.901  16.529  68.361  1.00  0.00    -0.120 A  
HETATM   11  N   UNL     2      -5.372  15.414  68.930  1.00  0.00    -0.098 NA 
HETATM   12  C   UNL     2      -5.128  17.677  68.323  1.00  0.00    -0.144 A  
HETATM   13  C   UNL     2      -5.584  18.885  67.750  1.00  0.00    -0.179 A  
HETATM   14  C   UNL     2      -6.016  14.219  68.944  1.00  0.00    -0.086 A  
HETATM   15  C   UNL     2      -5.356  13.127  69.491  1.00  0.00    -0.079 A  
HETATM   16  C   UNL     2      -6.858  19.004  67.186  1.00  0.00    -0.198 A  
HETATM   17  C   UNL     2      -5.898  11.828  69.473  1.00  0.00    -0.083 A  
HETATM   18  C   UNL     2      -7.633  17.840  67.207  1.00  0.00    -0.217 A  
BRANCH  16  19
HETATM   19  N   UNL     2      -7.342  20.193  66.673  1.00  0.00    -0.259 NA 
HETATM   20  C   UNL     2      -8.679  20.682  67.001  1.00  0.00    -0.167 C  
HETATM   21  C   UNL     2      -6.634  20.935  65.640  1.00  0.00    -0.114 C  
ENDBRANCH  16  19
ENDBRANCH   3   5
TORSDOF 2
ENDMDL
MODEL      135
REMARK 921   NORMALIZED FREE ENERGY PREDICTED BY IDOCK:   -2.40 KCAL/MOL
REMARK 922        TOTAL FREE ENERGY PREDICTED BY IDOCK:   -2.87 KCAL/MOL
REMARK 923 INTER-LIGAND FREE ENERGY PREDICTED BY IDOCK:   -2.68 KCAL/MOL
REMARK 924 INTRA-LIGAND FREE ENERGY PREDICTED BY IDOCK:   -0.19 KCAL/MOL
REMARK 927      BINDING AFFINITY PREDICTED BY RF-SCORE:    0.00 PKD
ROOT
HETATM    1 CL   UNL     1      -9.820  10.044  64.478  1.00  0.00    -0.330 Cl 
HETATM    2  C   UNL     2     -11.797  11.156  67.813  1.00  0.00    -0.015 C  
HETATM    3  N   UNL     2     -12.382  12.492  67.609  1.00  0.00    -0.159 NA 
HETATM    4  C   UNL     2     -13.018  12.656  66.294  1.00  0.00     1.735 C  
ENDROOT
BRANCH   3   5
HETATM    5  C   UNL     2     -11.516  13.566  67.893  1.00  0.00    -0.318 A  
HETATM    6  C   UNL     2     -10.953  14.380  66.911  1.00  0.00    -0.308 A  
HETATM    7  C   UNL     2     -10.023  15.384  67.234  1.00  0.00    -0.226 A  
HETATM    8  S   UNL     2      -9.352  16.309  65.867  1.00  0.00    -0.181 SA 
HETATM    9  C   UNL     2      -8.114  17.294  66.689  1.00  0.00    -0.265 A  
HETATM   10  C   UNL     2      -7.963  17.272  68.084  1.00  0.00    -0.223 A  
HETATM   11  N   UNL     2      -8.686  16.526  68.960  1.00  0.00    -0.243 NA 
HETATM   12  C   UNL     2      -6.966  18.093  68.587  1.00  0.00    -0.262 A  
HETATM   13  C   UNL     2      -6.157  18.903  67.760  1.00  0.00    -0.204 A  
HETATM   14  C   UNL     2      -9.626  15.631  68.562  1.00  0.00    -0.199 A  
HETATM   15  C   UNL     2     -10.258  14.871  69.537  1.00  0.00    -0.143 A  
HETATM   16  C   UNL     2      -6.314  18.936  66.371  1.00  0.00    -0.190 A  
HETATM   17  C   UNL     2     -11.181  13.855  69.222  1.00  0.00    -0.296 A  
HETATM   18  C   UNL     2      -7.307  18.095  65.861  1.00  0.00    -0.240 A  
BRANCH  16  19
HETATM   19  N   UNL     2      -5.571  19.767  65.553  1.00  0.00    -0.160 NA 
HETATM   20  C   UNL     2      -5.172  21.106  65.979  1.00  0.00    -0.211 C  
HETATM   21  C   UNL     2      -5.296  19.439  64.161  1.00  0.00    -0.236 C  
ENDBRANCH  16  19
ENDBRANCH   3   5
TORSDOF 2
ENDMDL
MODEL      136
REMARK 921   NORMALIZED FREE ENERGY PREDICTED BY IDOCK:   -2.36 KCAL/MOL
REMARK 922        TOTAL FREE ENERGY PREDICTED BY IDOCK:   -2.83 KCAL/MOL
REMARK 923 INTER-LIGAND FREE ENERGY PREDICTED BY IDOCK:   -2.64 KCAL/MOL
REMARK 924 INTRA-LIGAND FREE ENERGY PREDICTED BY IDOCK:   -0.19 KCAL/MOL
REMARK 927      BINDING AFFINITY PREDICTED BY RF-SCORE:    0.00 PKD
ROOT
HETATM    1 CL   UNL     1      -9.328  20.920  71.904  1.00  0.00     2.072 Cl 
HETATM    2  C   UNL     2      -5.629  19.742  70.811  1.00  0.00    -0.266 C  
HETATM    3  N   UNL     2      -5.611  19.479  69.361  1.00  0.00    -0.210 NA 
HETATM    4  C   UNL     2      -6.314  20.502  68.574  1.00  0.00    -0.306 C  
ENDROOT
BRANCH   3   5
HETATM    5  C   UNL     2      -6.018  18.183  68.990  1.00  0.00    -0.221 A  
HETATM    6  C   UNL     2      -6.916  17.925  67.956  1.00  0.00    -0.202 A  
HETATM    7  C   UNL     2      -7.363  16.621  67.678  1.00  0.00    -0.143 A  
HETATM    8  S   UNL     2      -8.550  16.456  66.359  1.00  0.00    -0.342 SA 
HETATM    9  C   UNL     2      -8.973  14.730  66.488  1.00  0.00    -0.233 A  
HETATM   10  C   UNL     2      -8.323  13.877  67.395  1.00  0.00    -0.198 A  
HETATM   11  N   UNL     2      -7.344  14.230  68.269  1.00  0.00    -0.112 NA 
HETATM   12  C   UNL     2      -8.750  12.559  67.381  1.00  0.00    -0.189 A  
HETATM   13  C   UNL     2      -9.764  12.094  66.515  1.00  0.00    -0.234 A  
HETATM   14  C   UNL     2      -6.915  15.509  68.416  1.00  0.00    -0.115 A  
HETATM   15  C   UNL     2      -5.958  15.769  69.387  1.00  0.00    -0.129 A  
HETATM   16  C   UNL     2     -10.404  12.938  65.602  1.00  0.00    -0.282 A  
HETATM   17  C   UNL     2      -5.513  17.073  69.680  1.00  0.00    -0.180 A  
HETATM   18  C   UNL     2      -9.987  14.273  65.627  1.00  0.00    -0.346 A  
BRANCH  16  19
HETATM   19  N   UNL     2     -11.356  12.488  64.707  1.00  0.00    -0.303 NA 
HETATM   20  C   UNL     2     -12.757  12.890  64.811  1.00  0.00    -0.370 C  
HETATM   21  C   UNL     2     -11.068  11.452  63.726  1.00  0.00    -0.334 C  
ENDBRANCH  16  19
ENDBRANCH   3   5
TORSDOF 2
ENDMDL
MODEL      137
REMARK 921   NORMALIZED FREE ENERGY PREDICTED BY IDOCK:   -2.30 KCAL/MOL
REMARK 922        TOTAL FREE ENERGY PREDICTED BY IDOCK:   -2.76 KCAL/MOL
REMARK 923 INTER-LIGAND FREE ENERGY PREDICTED BY IDOCK:   -2.56 KCAL/MOL
REMARK 924 INTRA-LIGAND FREE ENERGY PREDICTED BY IDOCK:   -0.20 KCAL/MOL
REMARK 927      BINDING AFFINITY PREDICTED BY RF-SCORE:    0.00 PKD
ROOT
HETATM    1 CL   UNL     1     -12.677  14.690  66.419  1.00  0.00     0.144 Cl 
HETATM    2  C   UNL     2      -9.704  12.709  64.548  1.00  0.00     0.090 C  
HETATM    3  N   UNL     2     -10.131  11.323  64.289  1.00  0.00    -0.285 NA 
HETATM    4  C   UNL     2     -11.507  11.221  63.784  1.00  0.00     0.035 C  
ENDROOT
BRANCH   3   5
HETATM    5  C   UNL     2      -9.911  10.428  65.355  1.00  0.00    -0.295 A  
HETATM    6  C   UNL     2      -9.159   9.261  65.236  1.00  0.00    -0.271 A  
HETATM    7  C   UNL     2      -9.040   8.352  66.302  1.00  0.00    -0.194 A  
HETATM    8  S   UNL     2      -8.087   6.880  65.984  1.00  0.00    -0.126 SA 
HETATM    9  C   UNL     2      -8.364   5.957  67.483  1.00  0.00    -0.105 A  
HETATM   10  C   UNL     2      -9.085   6.498  68.559  1.00  0.00    -0.127 A  
HETATM   11  N   UNL     2      -9.659   7.729  68.604  1.00  0.00    -0.152 NA 
HETATM   12  C   UNL     2      -9.216   5.671  69.662  1.00  0.00    -0.163 A  
HETATM   13  C   UNL     2      -8.661   4.373  69.713  1.00  0.00    -0.111 A  
HETATM   14  C   UNL     2      -9.658   8.580  67.546  1.00  0.00    -0.154 A  
HETATM   15  C   UNL     2     -10.334   9.786  67.677  1.00  0.00    -0.281 A  
HETATM   16  C   UNL     2      -7.931   3.836  68.647  1.00  0.00    -0.066 A  
HETATM   17  C   UNL     2     -10.468  10.696  66.612  1.00  0.00    -0.296 A  
HETATM   18  C   UNL     2      -7.814   4.663  67.526  1.00  0.00    -0.090 A  
BRANCH  16  19
HETATM   19  N   UNL     2      -7.332   2.592  68.702  1.00  0.00    -0.047 NA 
HETATM   20  C   UNL     2      -6.355   2.166  67.703  1.00  0.00    -0.028 C  
HETATM   21  C   UNL     2      -7.765   1.565  69.639  1.00  0.00    -0.042 C  
ENDBRANCH  16  19
ENDBRANCH   3   5
TORSDOF 2
ENDMDL
MODEL      138
REMARK 921   NORMALIZED FREE ENERGY PREDICTED BY IDOCK:   -2.26 KCAL/MOL
REMARK 922        TOTAL FREE ENERGY PREDICTED BY IDOCK:   -2.72 KCAL/MOL
REMARK 923 INTER-LIGAND FREE ENERGY PREDICTED BY IDOCK:   -2.52 KCAL/MOL
REMARK 924 INTRA-LIGAND FREE ENERGY PREDICTED BY IDOCK:   -0.20 KCAL/MOL
REMARK 927      BINDING AFFINITY PREDICTED BY RF-SCORE:    0.00 PKD
ROOT
HETATM    1 CL   UNL     1      -9.251  14.749  66.522  1.00  0.00    -0.299 Cl 
HETATM    2  C   UNL     2      -6.873  12.996  69.266  1.00  0.00    -0.019 C  
HETATM    3  N   UNL     2      -6.032  11.983  68.605  1.00  0.00    -0.053 NA 
HETATM    4  C   UNL     2      -5.461  12.439  67.330  1.00  0.00    -0.117 C  
ENDROOT
BRANCH   3   5
HETATM    5  C   UNL     2      -6.630  10.715  68.471  1.00  0.00    -0.055 A  
HETATM    6  C   UNL     2      -6.531   9.936  67.318  1.00  0.00    -0.069 A  
HETATM    7  C   UNL     2      -7.218   8.717  67.195  1.00  0.00    -0.076 A  
HETATM    8  S   UNL     2      -7.034   7.859  65.643  1.00  0.00    -0.053 SA 
HETATM    9  C   UNL     2      -8.195   6.522  65.847  1.00  0.00    -0.131 A  
HETATM   10  C   UNL     2      -8.882   6.319  67.054  1.00  0.00    -0.108 A  
HETATM   11  N   UNL     2      -8.781   7.083  68.174  1.00  0.00    -0.127 NA 
HETATM   12  C   UNL     2      -9.747   5.238  67.071  1.00  0.00    -0.167 A  
HETATM   13  C   UNL     2      -9.927   4.387  65.958  1.00  0.00    -0.256 A  
HETATM   14  C   UNL     2      -8.026   8.210  68.230  1.00  0.00    -0.123 A  
HETATM   15  C   UNL     2      -8.048   8.953  69.403  1.00  0.00    -0.105 A  
HETATM   16  C   UNL     2      -9.233   4.578  64.759  1.00  0.00    -0.152 A  
HETATM   17  C   UNL     2      -7.373  10.181  69.532  1.00  0.00    -0.123 A  
HETATM   18  C   UNL     2      -8.374   5.680  64.734  1.00  0.00    -0.128 A  
BRANCH  16  19
HETATM   19  N   UNL     2      -9.354   3.721  63.681  1.00  0.00    -0.124 NA 
HETATM   20  C   UNL     2      -9.953   2.396  63.816  1.00  0.00    -0.142 C  
HETATM   21  C   UNL     2      -8.732   4.004  62.394  1.00  0.00    -0.090 C  
ENDBRANCH  16  19
ENDBRANCH   3   5
TORSDOF 2
ENDMDL
MODEL      139
REMARK 921   NORMALIZED FREE ENERGY PREDICTED BY IDOCK:   -2.19 KCAL/MOL
REMARK 922        TOTAL FREE ENERGY PREDICTED BY IDOCK:   -2.64 KCAL/MOL
REMARK 923 INTER-LIGAND FREE ENERGY PREDICTED BY IDOCK:   -2.45 KCAL/MOL
REMARK 924 INTRA-LIGAND FREE ENERGY PREDICTED BY IDOCK:   -0.19 KCAL/MOL
REMARK 927      BINDING AFFINITY PREDICTED BY RF-SCORE:    0.00 PKD
ROOT
HETATM    1 CL   UNL     1      -9.707  15.272  65.704  1.00  0.00    -0.377 Cl 
HETATM    2  C   UNL     2      -7.822  15.608  69.253  1.00  0.00    -0.230 C  
HETATM    3  N   UNL     2      -6.468  15.038  69.141  1.00  0.00    -0.109 NA 
HETATM    4  C   UNL     2      -5.772  15.425  67.905  1.00  0.00    -0.143 C  
ENDROOT
BRANCH   3   5
HETATM    5  C   UNL     2      -6.392  13.648  69.353  1.00  0.00    -0.108 A  
HETATM    6  C   UNL     2      -6.844  12.704  68.432  1.00  0.00    -0.090 A  
HETATM    7  C   UNL     2      -6.831  11.329  68.724  1.00  0.00    -0.082 A  
HETATM    8  S   UNL     2      -7.487  10.248  67.467  1.00  0.00    -0.090 SA 
HETATM    9  C   UNL     2      -7.462   8.679  68.313  1.00  0.00    -0.095 A  
HETATM   10  C   UNL     2      -6.911   8.542  69.597  1.00  0.00    -0.047 A  
HETATM   11  N   UNL     2      -6.363   9.535  70.346  1.00  0.00    -0.063 NA 
HETATM   12  C   UNL     2      -6.954   7.264  70.129  1.00  0.00    -0.060 A  
HETATM   13  C   UNL     2      -7.508   6.166  69.433  1.00  0.00    -0.093 A  
HETATM   14  C   UNL     2      -6.347  10.833  69.949  1.00  0.00    -0.118 A  
HETATM   15  C   UNL     2      -5.823  11.776  70.822  1.00  0.00    -0.004 A  
HETATM   16  C   UNL     2      -8.046   6.297  68.149  1.00  0.00    -0.115 A  
HETATM   17  C   UNL     2      -5.843  13.156  70.545  1.00  0.00    -0.150 A  
HETATM   18  C   UNL     2      -8.019   7.590  67.618  1.00  0.00    -0.117 A  
BRANCH  16  19
HETATM   19  N   UNL     2      -8.538   5.224  67.431  1.00  0.00    -0.106 NA 
HETATM   20  C   UNL     2      -9.556   5.395  66.396  1.00  0.00    -0.159 C  
HETATM   21  C   UNL     2      -8.217   3.847  67.778  1.00  0.00    -0.093 C  
ENDBRANCH  16  19
ENDBRANCH   3   5
TORSDOF 2
ENDMDL
MODEL      140
REMARK 921   NORMALIZED FREE ENERGY PREDICTED BY IDOCK:   -2.07 KCAL/MOL
REMARK 922        TOTAL FREE ENERGY PREDICTED BY IDOCK:   -2.51 KCAL/MOL
REMARK 923 INTER-LIGAND FREE ENERGY PREDICTED BY IDOCK:   -2.32 KCAL/MOL
REMARK 924 INTRA-LIGAND FREE ENERGY PREDICTED BY IDOCK:   -0.18 KCAL/MOL
REMARK 927      BINDING AFFINITY PREDICTED BY RF-SCORE:    0.00 PKD
ROOT
HETATM    1 CL   UNL     1      -8.435  10.373  63.352  1.00  0.00    -0.172 Cl 
HETATM    2  C   UNL     2      -6.514   9.089  66.658  1.00  0.00    -0.067 C  
HETATM    3  N   UNL     2      -7.317   9.423  67.847  1.00  0.00    -0.083 NA 
HETATM    4  C   UNL     2      -8.750   9.145  67.682  1.00  0.00    -0.120 C  
ENDROOT
BRANCH   3   5
HETATM    5  C   UNL     2      -7.105  10.719  68.358  1.00  0.00    -0.075 A  
HETATM    6  C   UNL     2      -7.777  11.848  67.891  1.00  0.00    -0.131 A  
HETATM    7  C   UNL     2      -7.469  13.134  68.368  1.00  0.00    -0.124 A  
HETATM    8  S   UNL     2      -8.377  14.485  67.640  1.00  0.00    -0.194 SA 
HETATM    9  C   UNL     2      -7.551  15.888  68.365  1.00  0.00    -0.132 A  
HETATM   10  C   UNL     2      -6.545  15.733  69.331  1.00  0.00    -0.174 A  
HETATM   11  N   UNL     2      -6.069  14.555  69.814  1.00  0.00    -0.120 NA 
HETATM   12  C   UNL     2      -5.995  16.910  69.812  1.00  0.00    -0.232 A  
HETATM   13  C   UNL     2      -6.416  18.184  69.370  1.00  0.00    -0.236 A  
HETATM   14  C   UNL     2      -6.482  13.348  69.349  1.00  0.00    -0.100 A  
HETATM   15  C   UNL     2      -5.881  12.208  69.865  1.00  0.00    -0.140 A  
HETATM   16  C   UNL     2      -7.427  18.342  68.418  1.00  0.00    -0.281 A  
HETATM   17  C   UNL     2      -6.174  10.917  69.385  1.00  0.00    -0.063 A  
HETATM   18  C   UNL     2      -7.970  17.154  67.918  1.00  0.00    -0.193 A  
BRANCH  16  19
HETATM   19  N   UNL     2      -7.892  19.581  68.017  1.00  0.00    -0.297 NA 
HETATM   20  C   UNL     2      -8.373  20.568  68.981  1.00  0.00     0.932 C  
HETATM   21  C   UNL     2      -8.104  19.912  66.615  1.00  0.00    -0.319 C  
ENDBRANCH  16  19
ENDBRANCH   3   5
TORSDOF 2
ENDMDL
MODEL      141
REMARK 921   NORMALIZED FREE ENERGY PREDICTED BY IDOCK:   -2.04 KCAL/MOL
REMARK 922        TOTAL FREE ENERGY PREDICTED BY IDOCK:   -2.48 KCAL/MOL
REMARK 923 INTER-LIGAND FREE ENERGY PREDICTED BY IDOCK:   -2.29 KCAL/MOL
REMARK 924 INTRA-LIGAND FREE ENERGY PREDICTED BY IDOCK:   -0.19 KCAL/MOL
REMARK 927      BINDING AFFINITY PREDICTED BY RF-SCORE:    0.00 PKD
ROOT
HETATM    1 CL   UNL     1      -6.020  10.989  70.687  1.00  0.00    -0.118 Cl 
HETATM    2  C   UNL     2      -8.459   8.505  72.724  1.00  0.00    -0.087 C  
HETATM    3  N   UNL     2      -7.923   7.135  72.658  1.00  0.00    -0.098 NA 
HETATM    4  C   UNL     2      -6.470   7.066  72.868  1.00  0.00    -0.061 C  
ENDROOT
BRANCH   3   5
HETATM    5  C   UNL     2      -8.308   6.404  71.517  1.00  0.00    -0.125 A  
HETATM    6  C   UNL     2      -7.466   6.178  70.428  1.00  0.00    -0.090 A  
HETATM    7  C   UNL     2      -7.921   5.520  69.273  1.00  0.00    -0.095 A  
HETATM    8  S   UNL     2      -6.744   5.350  67.945  1.00  0.00    -0.056 SA 
HETATM    9  C   UNL     2      -7.770   4.667  66.658  1.00  0.00    -0.091 A  
HETATM   10  C   UNL     2      -9.110   4.319  66.890  1.00  0.00    -0.135 A  
HETATM   11  N   UNL     2      -9.786   4.461  68.061  1.00  0.00    -0.148 NA 
HETATM   12  C   UNL     2      -9.785   3.793  65.801  1.00  0.00    -0.140 A  
HETATM   13  C   UNL     2      -9.174   3.610  64.541  1.00  0.00    -0.141 A  
HETATM   14  C   UNL     2      -9.240   5.041  69.160  1.00  0.00    -0.110 A  
HETATM   15  C   UNL     2     -10.041   5.197  70.282  1.00  0.00    -0.338 A  
HETATM   16  C   UNL     2      -7.836   3.944  64.310  1.00  0.00    -0.085 A  
HETATM   17  C   UNL     2      -9.599   5.866  71.440  1.00  0.00    -0.189 A  
HETATM   18  C   UNL     2      -7.159   4.492  65.403  1.00  0.00    -0.067 A  
BRANCH  16  19
HETATM   19  N   UNL     2      -7.206   3.718  63.100  1.00  0.00    -0.048 NA 
HETATM   20  C   UNL     2      -6.493   4.781  62.396  1.00  0.00    -0.025 C  
HETATM   21  C   UNL     2      -7.365   2.471  62.365  1.00  0.00    -0.040 C  
ENDBRANCH  16  19
ENDBRANCH   3   5
TORSDOF 2
ENDMDL
MODEL      142
REMARK 921   NORMALIZED FREE ENERGY PREDICTED BY IDOCK:   -2.01 KCAL/MOL
REMARK 922        TOTAL FREE ENERGY PREDICTED BY IDOCK:   -2.44 KCAL/MOL
REMARK 923 INTER-LIGAND FREE ENERGY PREDICTED BY IDOCK:   -2.26 KCAL/MOL
REMARK 924 INTRA-LIGAND FREE ENERGY PREDICTED BY IDOCK:   -0.18 KCAL/MOL
REMARK 927      BINDING AFFINITY PREDICTED BY RF-SCORE:    0.00 PKD
ROOT
HETATM    1 CL   UNL     1     -10.243  11.711  66.143  1.00  0.00    -0.253 Cl 
HETATM    2  C   UNL     2      -7.005  12.938  68.212  1.00  0.00    -0.099 C  
HETATM    3  N   UNL     2      -5.954  11.909  68.125  1.00  0.00    -0.050 NA 
HETATM    4  C   UNL     2      -5.790  11.354  66.774  1.00  0.00    -0.135 C  
ENDROOT
BRANCH   3   5
HETATM    5  C   UNL     2      -6.049  10.885  69.088  1.00  0.00    -0.044 A  
HETATM    6  C   UNL     2      -6.850   9.755  68.933  1.00  0.00    -0.054 A  
HETATM    7  C   UNL     2      -6.983   8.803  69.958  1.00  0.00    -0.043 A  
HETATM    8  S   UNL     2      -8.082   7.437  69.631  1.00  0.00    -0.130 SA 
HETATM    9  C   UNL     2      -8.103   6.622  71.215  1.00  0.00    -0.112 A  
HETATM   10  C   UNL     2      -7.289   7.051  72.276  1.00  0.00    -0.085 A  
HETATM   11  N   UNL     2      -6.429   8.103  72.254  1.00  0.00    -0.063 NA 
HETATM   12  C   UNL     2      -7.403   6.319  73.446  1.00  0.00    -0.087 A  
HETATM   13  C   UNL     2      -8.272   5.213  73.572  1.00  0.00    -0.110 A  
HETATM   14  C   UNL     2      -6.305   8.930  71.185  1.00  0.00    -0.060 A  
HETATM   15  C   UNL     2      -5.446  10.015  71.294  1.00  0.00    -0.075 A  
HETATM   16  C   UNL     2      -9.074   4.775  72.514  1.00  0.00    -0.128 A  
HETATM   17  C   UNL     2      -5.315  10.981  70.278  1.00  0.00    -0.077 A  
HETATM   18  C   UNL     2      -8.973   5.524  71.337  1.00  0.00    -0.150 A  
BRANCH  16  19
HETATM   19  N   UNL     2      -9.886   3.660  72.601  1.00  0.00    -0.144 NA 
HETATM   20  C   UNL     2     -10.734   3.418  73.766  1.00  0.00    -0.215 C  
HETATM   21  C   UNL     2      -9.814   2.572  71.636  1.00  0.00    -0.146 C  
ENDBRANCH  16  19
ENDBRANCH   3   5
TORSDOF 2
ENDMDL
MODEL      143
REMARK 921   NORMALIZED FREE ENERGY PREDICTED BY IDOCK:   -1.96 KCAL/MOL
REMARK 922        TOTAL FREE ENERGY PREDICTED BY IDOCK:   -2.38 KCAL/MOL
REMARK 923 INTER-LIGAND FREE ENERGY PREDICTED BY IDOCK:   -2.19 KCAL/MOL
REMARK 924 INTRA-LIGAND FREE ENERGY PREDICTED BY IDOCK:   -0.19 KCAL/MOL
REMARK 927      BINDING AFFINITY PREDICTED BY RF-SCORE:    0.00 PKD
ROOT
HETATM    1 CL   UNL     1      -5.762  19.098  71.517  1.00  0.00    -0.150 Cl 
HETATM    2  C   UNL     2      -6.249  18.304  67.593  1.00  0.00    -0.185 C  
HETATM    3  N   UNL     2      -7.386  17.383  67.420  1.00  0.00    -0.165 NA 
HETATM    4  C   UNL     2      -8.551  17.733  68.244  1.00  0.00    -0.277 C  
ENDROOT
BRANCH   3   5
HETATM    5  C   UNL     2      -7.064  16.018  67.547  1.00  0.00    -0.171 A  
HETATM    6  C   UNL     2      -7.999  15.034  67.870  1.00  0.00    -0.146 A  
HETATM    7  C   UNL     2      -7.616  13.697  68.074  1.00  0.00    -0.139 A  
HETATM    8  S   UNL     2      -8.915  12.565  68.530  1.00  0.00     0.022 SA 
HETATM    9  C   UNL     2      -7.980  11.087  68.874  1.00  0.00    -0.138 A  
HETATM   10  C   UNL     2      -6.595  11.023  68.656  1.00  0.00    -0.058 A  
HETATM   11  N   UNL     2      -5.808  12.029  68.194  1.00  0.00    -0.051 NA 
HETATM   12  C   UNL     2      -6.001   9.809  68.960  1.00  0.00    -0.034 A  
HETATM   13  C   UNL     2      -6.731   8.704  69.450  1.00  0.00    -0.049 A  
HETATM   14  C   UNL     2      -6.279  13.278  67.947  1.00  0.00    -0.144 A  
HETATM   15  C   UNL     2      -5.373  14.250  67.542  1.00  0.00     0.213 A  
HETATM   16  C   UNL     2      -8.113   8.760  69.656  1.00  0.00    -0.101 A  
HETATM   17  C   UNL     2      -5.744  15.594  67.348  1.00  0.00    -0.006 A  
HETATM   18  C   UNL     2      -8.712   9.990  69.367  1.00  0.00    -0.195 A  
BRANCH  16  19
HETATM   19  N   UNL     2      -8.852   7.672  70.079  1.00  0.00    -0.142 NA 
HETATM   20  C   UNL     2      -9.792   6.990  69.192  1.00  0.00    -0.158 C  
HETATM   21  C   UNL     2      -8.882   7.251  71.473  1.00  0.00    -0.122 C  
ENDBRANCH  16  19
ENDBRANCH   3   5
TORSDOF 2
ENDMDL
MODEL      144
REMARK 921   NORMALIZED FREE ENERGY PREDICTED BY IDOCK:   -1.91 KCAL/MOL
REMARK 922        TOTAL FREE ENERGY PREDICTED BY IDOCK:   -2.33 KCAL/MOL
REMARK 923 INTER-LIGAND FREE ENERGY PREDICTED BY IDOCK:   -2.14 KCAL/MOL
REMARK 924 INTRA-LIGAND FREE ENERGY PREDICTED BY IDOCK:   -0.18 KCAL/MOL
REMARK 927      BINDING AFFINITY PREDICTED BY RF-SCORE:    0.00 PKD
ROOT
HETATM    1 CL   UNL     1      -8.468  15.799  66.575  1.00  0.00    -0.325 Cl 
HETATM    2  C   UNL     2     -11.994  13.845  66.457  1.00  0.00    -0.439 C  
HETATM    3  N   UNL     2     -12.524  13.716  67.825  1.00  0.00     0.045 NA 
HETATM    4  C   UNL     2     -12.398  14.946  68.619  1.00  0.00     0.058 C  
ENDROOT
BRANCH   3   5
HETATM    5  C   UNL     2     -12.051  12.598  68.539  1.00  0.00    -0.085 A  
HETATM    6  C   UNL     2     -10.761  12.087  68.399  1.00  0.00    -0.255 A  
HETATM    7  C   UNL     2     -10.359  10.916  69.065  1.00  0.00    -0.211 A  
HETATM    8  S   UNL     2      -8.696  10.357  68.748  1.00  0.00    -0.153 SA 
HETATM    9  C   UNL     2      -8.688   8.793  69.602  1.00  0.00    -0.136 A  
HETATM   10  C   UNL     2      -9.784   8.364  70.367  1.00  0.00    -0.173 A  
HETATM   11  N   UNL     2     -10.953   9.035  70.541  1.00  0.00    -0.242 NA 
HETATM   12  C   UNL     2      -9.636   7.132  70.981  1.00  0.00    -0.158 A  
HETATM   13  C   UNL     2      -8.463   6.355  70.857  1.00  0.00    -0.131 A  
HETATM   14  C   UNL     2     -11.229  10.209  69.917  1.00  0.00    -0.287 A  
HETATM   15  C   UNL     2     -12.481  10.775  70.113  1.00  0.00    -0.357 A  
HETATM   16  C   UNL     2      -7.364   6.785  70.107  1.00  0.00    -0.085 A  
HETATM   17  C   UNL     2     -12.897  11.941  69.442  1.00  0.00     0.939 A  
HETATM   18  C   UNL     2      -7.520   8.020  69.472  1.00  0.00    -0.092 A  
BRANCH  16  19
HETATM   19  N   UNL     2      -6.187   6.065  70.023  1.00  0.00    -0.026 NA 
HETATM   20  C   UNL     2      -5.195   6.086  71.096  1.00  0.00    -0.017 C  
HETATM   21  C   UNL     2      -5.776   5.393  68.798  1.00  0.00    -0.015 C  
ENDBRANCH  16  19
ENDBRANCH   3   5
TORSDOF 2
ENDMDL
MODEL      145
REMARK 921   NORMALIZED FREE ENERGY PREDICTED BY IDOCK:   -1.83 KCAL/MOL
REMARK 922        TOTAL FREE ENERGY PREDICTED BY IDOCK:   -2.23 KCAL/MOL
REMARK 923 INTER-LIGAND FREE ENERGY PREDICTED BY IDOCK:   -2.05 KCAL/MOL
REMARK 924 INTRA-LIGAND FREE ENERGY PREDICTED BY IDOCK:   -0.18 KCAL/MOL
REMARK 927      BINDING AFFINITY PREDICTED BY RF-SCORE:    0.00 PKD
ROOT
HETATM    1 CL   UNL     1      -9.393  15.083  66.617  1.00  0.00    -0.270 Cl 
HETATM    2  C   UNL     2      -7.013  13.987  69.683  1.00  0.00     0.036 C  
HETATM    3  N   UNL     2      -6.368  12.701  69.362  1.00  0.00    -0.110 NA 
HETATM    4  C   UNL     2      -5.863  12.629  67.984  1.00  0.00    -0.091 C  
ENDROOT
BRANCH   3   5
HETATM    5  C   UNL     2      -7.130  11.561  69.686  1.00  0.00     0.084 A  
HETATM    6  C   UNL     2      -6.700  10.577  70.575  1.00  0.00     0.024 A  
HETATM    7  C   UNL     2      -7.454   9.412  70.801  1.00  0.00    -0.112 A  
HETATM    8  S   UNL     2      -6.751   8.221  71.926  1.00  0.00    -0.082 SA 
HETATM    9  C   UNL     2      -7.899   6.868  71.759  1.00  0.00    -0.099 A  
HETATM   10  C   UNL     2      -9.058   6.977  70.976  1.00  0.00    -0.151 A  
HETATM   11  N   UNL     2      -9.443   8.064  70.257  1.00  0.00    -0.166 NA 
HETATM   12  C   UNL     2      -9.862   5.850  70.944  1.00  0.00    -0.224 A  
HETATM   13  C   UNL     2      -9.548   4.669  71.652  1.00  0.00    -0.221 A  
HETATM   14  C   UNL     2      -8.685   9.186  70.157  1.00  0.00    -0.181 A  
HETATM   15  C   UNL     2      -9.141  10.212  69.340  1.00  0.00    -0.217 A  
HETATM   16  C   UNL     2      -8.400   4.562  72.444  1.00  0.00    -0.110 A  
HETATM   17  C   UNL     2      -8.388  11.377  69.098  1.00  0.00     0.126 A  
HETATM   18  C   UNL     2      -7.579   5.693  72.462  1.00  0.00    -0.098 A  
BRANCH  16  19
HETATM   19  N   UNL     2      -8.108   3.435  73.189  1.00  0.00    -0.073 NA 
HETATM   20  C   UNL     2      -7.484   2.258  72.588  1.00  0.00    -0.039 C  
HETATM   21  C   UNL     2      -8.563   3.276  74.563  1.00  0.00    -0.076 C  
ENDBRANCH  16  19
ENDBRANCH   3   5
TORSDOF 2
ENDMDL
MODEL      146
REMARK 921   NORMALIZED FREE ENERGY PREDICTED BY IDOCK:   -1.64 KCAL/MOL
REMARK 922        TOTAL FREE ENERGY PREDICTED BY IDOCK:   -2.02 KCAL/MOL
REMARK 923 INTER-LIGAND FREE ENERGY PREDICTED BY IDOCK:   -1.83 KCAL/MOL
REMARK 924 INTRA-LIGAND FREE ENERGY PREDICTED BY IDOCK:   -0.19 KCAL/MOL
REMARK 927      BINDING AFFINITY PREDICTED BY RF-SCORE:    0.00 PKD
ROOT
HETATM    1 CL   UNL     1      -9.626  21.120  71.938  1.00  0.00     2.551 Cl 
HETATM    2  C   UNL     2      -6.939  19.796  69.237  1.00  0.00    -0.314 C  
HETATM    3  N   UNL     2      -7.518  19.896  67.886  1.00  0.00    -0.287 NA 
HETATM    4  C   UNL     2      -8.230  21.160  67.648  1.00  0.00     0.283 C  
ENDROOT
BRANCH   3   5
HETATM    5  C   UNL     2      -8.297  18.791  67.493  1.00  0.00    -0.265 A  
HETATM    6  C   UNL     2      -8.363  17.601  68.217  1.00  0.00    -0.274 A  
HETATM    7  C   UNL     2      -9.083  16.491  67.741  1.00  0.00    -0.204 A  
HETATM    8  S   UNL     2      -9.032  15.024  68.752  1.00  0.00    -0.202 SA 
HETATM    9  C   UNL     2      -9.877  13.854  67.706  1.00  0.00    -0.237 A  
HETATM   10  C   UNL     2     -10.459  14.240  66.489  1.00  0.00    -0.287 A  
HETATM   11  N   UNL     2     -10.448  15.488  65.952  1.00  0.00    -0.322 NA 
HETATM   12  C   UNL     2     -11.089  13.227  65.784  1.00  0.00    -0.296 A  
HETATM   13  C   UNL     2     -11.152  11.896  66.252  1.00  0.00    -0.364 A  
HETATM   14  C   UNL     2      -9.788  16.528  66.523  1.00  0.00    -0.278 A  
HETATM   15  C   UNL     2      -9.784  17.745  65.856  1.00  0.00    -0.035 A  
HETATM   16  C   UNL     2     -10.584  11.512  67.471  1.00  0.00    -0.206 A  
HETATM   17  C   UNL     2      -9.055  18.858  66.317  1.00  0.00    -0.269 A  
HETATM   18  C   UNL     2      -9.932  12.529  68.175  1.00  0.00    -0.224 A  
BRANCH  16  19
HETATM   19  N   UNL     2     -10.686  10.228  67.972  1.00  0.00    -0.235 NA 
HETATM   20  C   UNL     2     -10.603   9.954  69.405  1.00  0.00    -0.229 C  
HETATM   21  C   UNL     2     -10.697   9.057  67.106  1.00  0.00    -0.136 C  
ENDBRANCH  16  19
ENDBRANCH   3   5
TORSDOF 2
ENDMDL
MODEL      147
REMARK 921   NORMALIZED FREE ENERGY PREDICTED BY IDOCK:   -1.55 KCAL/MOL
REMARK 922        TOTAL FREE ENERGY PREDICTED BY IDOCK:   -1.93 KCAL/MOL
REMARK 923 INTER-LIGAND FREE ENERGY PREDICTED BY IDOCK:   -1.73 KCAL/MOL
REMARK 924 INTRA-LIGAND FREE ENERGY PREDICTED BY IDOCK:   -0.20 KCAL/MOL
REMARK 927      BINDING AFFINITY PREDICTED BY RF-SCORE:    0.00 PKD
ROOT
HETATM    1 CL   UNL     1      -8.686  17.829  68.173  1.00  0.00    -0.259 Cl 
HETATM    2  C   UNL     2      -6.942  15.019  70.481  1.00  0.00     0.345 C  
HETATM    3  N   UNL     2      -6.004  14.230  69.663  1.00  0.00    -0.105 NA 
HETATM    4  C   UNL     2      -5.181  15.051  68.764  1.00  0.00    -0.089 C  
ENDROOT
BRANCH   3   5
HETATM    5  C   UNL     2      -6.588  13.149  68.974  1.00  0.00    -0.105 A  
HETATM    6  C   UNL     2      -6.259  11.816  69.216  1.00  0.00    -0.092 A  
HETATM    7  C   UNL     2      -6.800  10.774  68.443  1.00  0.00    -0.068 A  
HETATM    8  S   UNL     2      -6.246   9.126  68.838  1.00  0.00    -0.044 SA 
HETATM    9  C   UNL     2      -7.002   8.184  67.528  1.00  0.00    -0.075 A  
HETATM   10  C   UNL     2      -7.871   8.777  66.599  1.00  0.00    -0.100 A  
HETATM   11  N   UNL     2      -8.229  10.088  66.557  1.00  0.00    -0.118 NA 
HETATM   12  C   UNL     2      -8.390   7.923  65.641  1.00  0.00    -0.146 A  
HETATM   13  C   UNL     2      -8.076   6.547  65.595  1.00  0.00    -0.128 A  
HETATM   14  C   UNL     2      -7.712  11.019  67.399  1.00  0.00    -0.114 A  
HETATM   15  C   UNL     2      -8.095  12.342  67.225  1.00  0.00    -0.182 A  
HETATM   16  C   UNL     2      -7.220   5.950  66.527  1.00  0.00    -0.074 A  
HETATM   17  C   UNL     2      -7.550  13.393  67.985  1.00  0.00    -0.143 A  
HETATM   18  C   UNL     2      -6.682   6.815  67.484  1.00  0.00    -0.070 A  
BRANCH  16  19
HETATM   19  N   UNL     2      -6.948   4.595  66.532  1.00  0.00    -0.065 NA 
HETATM   20  C   UNL     2      -5.825   4.041  67.285  1.00  0.00    -0.023 C  
HETATM   21  C   UNL     2      -7.640   3.662  65.653  1.00  0.00    -0.078 C  
ENDBRANCH  16  19
ENDBRANCH   3   5
TORSDOF 2
ENDMDL
MODEL      148
REMARK 921   NORMALIZED FREE ENERGY PREDICTED BY IDOCK:   -1.51 KCAL/MOL
REMARK 922        TOTAL FREE ENERGY PREDICTED BY IDOCK:   -1.88 KCAL/MOL
REMARK 923 INTER-LIGAND FREE ENERGY PREDICTED BY IDOCK:   -1.70 KCAL/MOL
REMARK 924 INTRA-LIGAND FREE ENERGY PREDICTED BY IDOCK:   -0.18 KCAL/MOL
REMARK 927      BINDING AFFINITY PREDICTED BY RF-SCORE:    0.00 PKD
ROOT
HETATM    1 CL   UNL     1      -9.866  15.723  66.791  1.00  0.00    -0.245 Cl 
HETATM    2  C   UNL     2      -7.465  14.148  69.623  1.00  0.00     0.250 C  
HETATM    3  N   UNL     2      -6.609  13.115  69.014  1.00  0.00    -0.101 NA 
HETATM    4  C   UNL     2      -6.044  13.513  67.717  1.00  0.00    -0.143 C  
ENDROOT
BRANCH   3   5
HETATM    5  C   UNL     2      -7.189  11.833  68.946  1.00  0.00    -0.107 A  
HETATM    6  C   UNL     2      -6.612  10.696  69.510  1.00  0.00    -0.091 A  
HETATM    7  C   UNL     2      -7.181   9.423  69.341  1.00  0.00    -0.066 A  
HETATM    8  S   UNL     2      -6.302   8.059  70.079  1.00  0.00    -0.033 SA 
HETATM    9  C   UNL     2      -7.235   6.671  69.463  1.00  0.00    -0.082 A  
HETATM   10  C   UNL     2      -8.402   6.846  68.703  1.00  0.00    -0.121 A  
HETATM   11  N   UNL     2      -8.949   8.034  68.333  1.00  0.00    -0.133 NA 
HETATM   12  C   UNL     2      -9.028   5.679  68.298  1.00  0.00    -0.114 A  
HETATM   13  C   UNL     2      -8.537   4.396  68.626  1.00  0.00    -0.108 A  
HETATM   14  C   UNL     2      -8.368   9.229  68.609  1.00  0.00    -0.118 A  
HETATM   15  C   UNL     2      -8.977  10.379  68.125  1.00  0.00    -0.132 A  
HETATM   16  C   UNL     2      -7.382   4.219  69.394  1.00  0.00    -0.051 A  
HETATM   17  C   UNL     2      -8.409  11.658  68.279  1.00  0.00    -0.159 A  
HETATM   18  C   UNL     2      -6.739   5.396  69.788  1.00  0.00    -0.054 A  
BRANCH  16  19
HETATM   19  N   UNL     2      -6.919   2.972  69.773  1.00  0.00    -0.034 NA 
HETATM   20  C   UNL     2      -6.141   2.134  68.865  1.00  0.00    -0.025 C  
HETATM   21  C   UNL     2      -7.328   2.342  71.020  1.00  0.00    -0.033 C  
ENDBRANCH  16  19
ENDBRANCH   3   5
TORSDOF 2
ENDMDL
MODEL      149
REMARK 921   NORMALIZED FREE ENERGY PREDICTED BY IDOCK:   -1.11 KCAL/MOL
REMARK 922        TOTAL FREE ENERGY PREDICTED BY IDOCK:   -1.44 KCAL/MOL
REMARK 923 INTER-LIGAND FREE ENERGY PREDICTED BY IDOCK:   -1.24 KCAL/MOL
REMARK 924 INTRA-LIGAND FREE ENERGY PREDICTED BY IDOCK:   -0.20 KCAL/MOL
REMARK 927      BINDING AFFINITY PREDICTED BY RF-SCORE:    0.00 PKD
ROOT
HETATM    1 CL   UNL     1      -9.278  20.810  71.879  1.00  0.00     1.922 Cl 
HETATM    2  C   UNL     2      -5.513  19.656  71.011  1.00  0.00    -0.270 C  
HETATM    3  N   UNL     2      -5.383  19.474  69.554  1.00  0.00    -0.192 NA 
HETATM    4  C   UNL     2      -6.017  20.546  68.774  1.00  0.00    -0.337 C  
ENDROOT
BRANCH   3   5
HETATM    5  C   UNL     2      -5.767  18.204  69.081  1.00  0.00    -0.211 A  
HETATM    6  C   UNL     2      -5.778  17.059  69.876  1.00  0.00    -0.222 A  
HETATM    7  C   UNL     2      -6.083  15.796  69.340  1.00  0.00    -0.138 A  
HETATM    8  S   UNL     2      -6.006  14.418  70.469  1.00  0.00    -0.183 SA 
HETATM    9  C   UNL     2      -6.254  13.047  69.358  1.00  0.00    -0.113 A  
HETATM   10  C   UNL     2      -6.540  13.242  67.998  1.00  0.00    -0.129 A  
HETATM   11  N   UNL     2      -6.645  14.438  67.363  1.00  0.00    -0.294 NA 
HETATM   12  C   UNL     2      -6.717  12.086  67.256  1.00  0.00    -0.144 A  
HETATM   13  C   UNL     2      -6.623  10.794  67.821  1.00  0.00    -0.064 A  
HETATM   14  C   UNL     2      -6.409  15.623  67.982  1.00  0.00    -0.134 A  
HETATM   15  C   UNL     2      -6.478  16.783  67.221  1.00  0.00    -0.208 A  
HETATM   16  C   UNL     2      -6.352  10.597  69.178  1.00  0.00    -0.053 A  
HETATM   17  C   UNL     2      -6.162  18.050  67.746  1.00  0.00    -0.176 A  
HETATM   18  C   UNL     2      -6.155  11.763  69.925  1.00  0.00    -0.151 A  
BRANCH  16  19
HETATM   19  N   UNL     2      -6.314   9.344  69.760  1.00  0.00    -0.039 NA 
HETATM   20  C   UNL     2      -6.153   9.171  71.202  1.00  0.00    -0.067 C  
HETATM   21  C   UNL     2      -6.247   8.124  68.967  1.00  0.00    -0.040 C  
ENDBRANCH  16  19
ENDBRANCH   3   5
TORSDOF 2
ENDMDL
MODEL      150
REMARK 921   NORMALIZED FREE ENERGY PREDICTED BY IDOCK:   -0.97 KCAL/MOL
REMARK 922        TOTAL FREE ENERGY PREDICTED BY IDOCK:   -1.28 KCAL/MOL
REMARK 923 INTER-LIGAND FREE ENERGY PREDICTED BY IDOCK:   -1.10 KCAL/MOL
REMARK 924 INTRA-LIGAND FREE ENERGY PREDICTED BY IDOCK:   -0.18 KCAL/MOL
REMARK 927      BINDING AFFINITY PREDICTED BY RF-SCORE:    0.00 PKD
ROOT
HETATM    1 CL   UNL     1      -9.816  11.041  64.532  1.00  0.00    -0.314 Cl 
HETATM    2  C   UNL     2     -10.610  11.552  68.453  1.00  0.00    -0.201 C  
HETATM    3  N   UNL     2      -9.381  11.979  69.146  1.00  0.00     0.345 NA 
HETATM    4  C   UNL     2      -8.624  13.004  68.415  1.00  0.00    -0.116 C  
ENDROOT
BRANCH   3   5
HETATM    5  C   UNL     2      -8.543  10.926  69.563  1.00  0.00     0.236 A  
HETATM    6  C   UNL     2      -8.983   9.614  69.735  1.00  0.00    -0.226 A  
HETATM    7  C   UNL     2      -8.133   8.615  70.237  1.00  0.00    -0.109 A  
HETATM    8  S   UNL     2      -8.853   6.998  70.449  1.00  0.00    -0.155 SA 
HETATM    9  C   UNL     2      -7.527   6.134  71.269  1.00  0.00    -0.093 A  
HETATM   10  C   UNL     2      -6.277   6.734  71.484  1.00  0.00    -0.041 A  
HETATM   11  N   UNL     2      -5.923   7.999  71.134  1.00  0.00    -0.034 NA 
HETATM   12  C   UNL     2      -5.340   5.943  72.126  1.00  0.00    -0.022 A  
HETATM   13  C   UNL     2      -5.611   4.618  72.535  1.00  0.00    -0.008 A  
HETATM   14  C   UNL     2      -6.793   8.879  70.577  1.00  0.00    -0.054 A  
HETATM   15  C   UNL     2      -6.344  10.168  70.321  1.00  0.00    -0.117 A  
HETATM   16  C   UNL     2      -6.851   4.012  72.310  1.00  0.00    -0.045 A  
HETATM   17  C   UNL     2      -7.191  11.179  69.830  1.00  0.00     0.053 A  
HETATM   18  C   UNL     2      -7.804   4.816  71.678  1.00  0.00    -0.098 A  
BRANCH  16  19
HETATM   19  N   UNL     2      -7.115   2.699  72.650  1.00  0.00    -0.031 NA 
HETATM   20  C   UNL     2      -7.350   1.675  71.635  1.00  0.00    -0.035 C  
HETATM   21  C   UNL     2      -7.357   2.289  74.027  1.00  0.00    -0.033 C  
ENDBRANCH  16  19
ENDBRANCH   3   5
TORSDOF 2
ENDMDL
MODEL      151
REMARK 921   NORMALIZED FREE ENERGY PREDICTED BY IDOCK:   -0.97 KCAL/MOL
REMARK 922        TOTAL FREE ENERGY PREDICTED BY IDOCK:   -1.27 KCAL/MOL
REMARK 923 INTER-LIGAND FREE ENERGY PREDICTED BY IDOCK:   -1.09 KCAL/MOL
REMARK 924 INTRA-LIGAND FREE ENERGY PREDICTED BY IDOCK:   -0.18 KCAL/MOL
REMARK 927      BINDING AFFINITY PREDICTED BY RF-SCORE:    0.00 PKD
ROOT
HETATM    1 CL   UNL     1      -9.536   7.033  73.560  1.00  0.00    -0.202 Cl 
HETATM    2  C   UNL     2      -8.580   5.826  69.832  1.00  0.00    -0.127 C  
HETATM    3  N   UNL     2      -7.344   6.505  69.403  1.00  0.00    -0.089 NA 
HETATM    4  C   UNL     2      -6.309   6.546  70.445  1.00  0.00    -0.043 C  
ENDROOT
BRANCH   3   5
HETATM    5  C   UNL     2      -7.538   7.775  68.826  1.00  0.00    -0.101 A  
HETATM    6  C   UNL     2      -6.970   8.944  69.332  1.00  0.00    -0.053 A  
HETATM    7  C   UNL     2      -7.262  10.201  68.778  1.00  0.00    -0.081 A  
HETATM    8  S   UNL     2      -6.501  11.608  69.564  1.00  0.00    -0.112 SA 
HETATM    9  C   UNL     2      -7.281  12.955  68.696  1.00  0.00    -0.098 A  
HETATM   10  C   UNL     2      -8.154  12.731  67.620  1.00  0.00    -0.175 A  
HETATM   11  N   UNL     2      -8.523  11.521  67.123  1.00  0.00    -0.152 NA 
HETATM   12  C   UNL     2      -8.681  13.870  67.035  1.00  0.00    -0.215 A  
HETATM   13  C   UNL     2      -8.365  15.173  67.481  1.00  0.00    -0.188 A  
HETATM   14  C   UNL     2      -8.127  10.347  67.677  1.00  0.00    -0.107 A  
HETATM   15  C   UNL     2      -8.618   9.168  67.130  1.00  0.00    -0.122 A  
HETATM   16  C   UNL     2      -7.486  15.399  68.544  1.00  0.00    -0.117 A  
HETATM   17  C   UNL     2      -8.341   7.905  67.686  1.00  0.00    -0.124 A  
HETATM   18  C   UNL     2      -6.967  14.250  69.147  1.00  0.00    -0.118 A  
BRANCH  16  19
HETATM   19  N   UNL     2      -7.120  16.667  68.956  1.00  0.00    -0.206 NA 
HETATM   20  C   UNL     2      -5.791  17.210  68.680  1.00  0.00    -0.144 C  
HETATM   21  C   UNL     2      -7.956  17.466  69.840  1.00  0.00     1.487 C  
ENDBRANCH  16  19
ENDBRANCH   3   5
TORSDOF 2
ENDMDL
MODEL      152
REMARK 921   NORMALIZED FREE ENERGY PREDICTED BY IDOCK:   -0.67 KCAL/MOL
REMARK 922        TOTAL FREE ENERGY PREDICTED BY IDOCK:   -0.94 KCAL/MOL
REMARK 923 INTER-LIGAND FREE ENERGY PREDICTED BY IDOCK:   -0.75 KCAL/MOL
REMARK 924 INTRA-LIGAND FREE ENERGY PREDICTED BY IDOCK:   -0.19 KCAL/MOL
REMARK 927      BINDING AFFINITY PREDICTED BY RF-SCORE:    0.00 PKD
ROOT
HETATM    1 CL   UNL     1      -7.456   8.947  74.109  1.00  0.00     0.060 Cl 
HETATM    2  C   UNL     2     -11.160   8.043  72.793  1.00  0.00    -0.381 C  
HETATM    3  N   UNL     2     -11.135   6.723  72.138  1.00  0.00    -0.241 NA 
HETATM    4  C   UNL     2     -10.358   5.719  72.879  1.00  0.00    -0.199 C  
ENDROOT
BRANCH   3   5
HETATM    5  C   UNL     2     -10.772   6.746  70.777  1.00  0.00    -0.233 A  
HETATM    6  C   UNL     2      -9.648   7.413  70.292  1.00  0.00    -0.165 A  
HETATM    7  C   UNL     2      -9.374   7.483  68.915  1.00  0.00    -0.142 A  
HETATM    8  S   UNL     2      -7.928   8.414  68.444  1.00  0.00    -0.120 SA 
HETATM    9  C   UNL     2      -8.078   8.409  66.668  1.00  0.00    -0.101 A  
HETATM   10  C   UNL     2      -9.091   7.690  66.015  1.00  0.00    -0.105 A  
HETATM   11  N   UNL     2     -10.061   6.948  66.611  1.00  0.00    -0.174 NA 
HETATM   12  C   UNL     2      -9.081   7.772  64.633  1.00  0.00     0.875 A  
HETATM   13  C   UNL     2      -8.119   8.520  63.919  1.00  0.00    -0.155 A  
HETATM   14  C   UNL     2     -10.206   6.872  67.959  1.00  0.00    -0.176 A  
HETATM   15  C   UNL     2     -11.274   6.141  68.461  1.00  0.00    -0.241 A  
HETATM   16  C   UNL     2      -7.101   9.227  64.566  1.00  0.00    -0.093 A  
HETATM   17  C   UNL     2     -11.564   6.074  69.837  1.00  0.00    -0.047 A  
HETATM   18  C   UNL     2      -7.120   9.161  65.962  1.00  0.00    -0.090 A  
BRANCH  16  19
HETATM   19  N   UNL     2      -6.117   9.916  63.882  1.00  0.00    -0.115 NA 
HETATM   20  C   UNL     2      -5.327   9.283  62.829  1.00  0.00    -0.076 C  
HETATM   21  C   UNL     2      -5.681  11.246  64.285  1.00  0.00     1.165 C  
ENDBRANCH  16  19
ENDBRANCH   3   5
TORSDOF 2
ENDMDL
MODEL      153
REMARK 921   NORMALIZED FREE ENERGY PREDICTED BY IDOCK:   -0.27 KCAL/MOL
REMARK 922        TOTAL FREE ENERGY PREDICTED BY IDOCK:   -0.49 KCAL/MOL
REMARK 923 INTER-LIGAND FREE ENERGY PREDICTED BY IDOCK:   -0.31 KCAL/MOL
REMARK 924 INTRA-LIGAND FREE ENERGY PREDICTED BY IDOCK:   -0.18 KCAL/MOL
REMARK 927      BINDING AFFINITY PREDICTED BY RF-SCORE:    0.00 PKD
ROOT
HETATM    1 CL   UNL     1     -11.800  10.846  66.387  1.00  0.00     0.973 Cl 
HETATM    2  C   UNL     2      -7.977  10.834  65.101  1.00  0.00     0.040 C  
HETATM    3  N   UNL     2      -7.613   9.472  64.672  1.00  0.00    -0.108 NA 
HETATM    4  C   UNL     2      -8.654   8.814  63.871  1.00  0.00    -0.043 C  
ENDROOT
BRANCH   3   5
HETATM    5  C   UNL     2      -7.156   8.630  65.704  1.00  0.00    -0.083 A  
HETATM    6  C   UNL     2      -7.980   8.136  66.715  1.00  0.00    -0.103 A  
HETATM    7  C   UNL     2      -7.463   7.372  67.775  1.00  0.00    -0.101 A  
HETATM    8  S   UNL     2      -8.631   6.854  69.019  1.00  0.00    -0.128 SA 
HETATM    9  C   UNL     2      -7.547   6.117  70.226  1.00  0.00    -0.096 A  
HETATM   10  C   UNL     2      -6.169   5.980  69.994  1.00  0.00    -0.027 A  
HETATM   11  N   UNL     2      -5.498   6.383  68.883  1.00  0.00    -0.015 NA 
HETATM   12  C   UNL     2      -5.451   5.383  71.016  1.00  0.00    -0.009 A  
HETATM   13  C   UNL     2      -6.054   4.934  72.212  1.00  0.00    -0.025 A  
HETATM   14  C   UNL     2      -6.095   7.051  67.864  1.00  0.00    -0.033 A  
HETATM   15  C   UNL     2      -5.302   7.477  66.807  1.00  0.00    -0.024 A  
HETATM   16  C   UNL     2      -7.428   5.057  72.440  1.00  0.00    -0.094 A  
HETATM   17  C   UNL     2      -5.807   8.253  65.748  1.00  0.00    -0.041 A  
HETATM   18  C   UNL     2      -8.152   5.677  71.417  1.00  0.00    -0.118 A  
BRANCH  16  19
HETATM   19  N   UNL     2      -8.044   4.572  73.579  1.00  0.00    -0.094 NA 
HETATM   20  C   UNL     2      -8.071   3.144  73.887  1.00  0.00    -0.070 C  
HETATM   21  C   UNL     2      -8.857   5.419  74.441  1.00  0.00    -0.117 C  
ENDBRANCH  16  19
ENDBRANCH   3   5
TORSDOF 2
ENDMDL
MODEL      154
REMARK 921   NORMALIZED FREE ENERGY PREDICTED BY IDOCK:    9.60 KCAL/MOL
REMARK 922        TOTAL FREE ENERGY PREDICTED BY IDOCK:   10.53 KCAL/MOL
REMARK 923 INTER-LIGAND FREE ENERGY PREDICTED BY IDOCK:   10.72 KCAL/MOL
REMARK 924 INTRA-LIGAND FREE ENERGY PREDICTED BY IDOCK:   -0.19 KCAL/MOL
REMARK 927      BINDING AFFINITY PREDICTED BY RF-SCORE:    0.00 PKD
ROOT
HETATM    1 CL   UNL     1      -9.235  21.340  72.044  1.00  0.00     2.668 Cl 
HETATM    2  C   UNL     2      -6.777  18.248  72.855  1.00  0.00     5.688 C  
HETATM    3  N   UNL     2      -5.800  18.103  71.761  1.00  0.00     0.736 NA 
HETATM    4  C   UNL     2      -5.238  19.382  71.307  1.00  0.00    -0.306 C  
ENDROOT
BRANCH   3   5
HETATM    5  C   UNL     2      -6.244  17.326  70.673  1.00  0.00     0.824 A  
HETATM    6  C   UNL     2      -7.386  17.624  69.930  1.00  0.00     0.949 A  
HETATM    7  C   UNL     2      -7.840  16.772  68.910  1.00  0.00    -0.244 A  
HETATM    8  S   UNL     2      -9.343  17.260  68.083  1.00  0.00    -0.283 SA 
HETATM    9  C   UNL     2      -9.645  15.841  67.048  1.00  0.00    -0.226 A  
HETATM   10  C   UNL     2      -8.734  14.775  66.973  1.00  0.00    -0.235 A  
HETATM   11  N   UNL     2      -7.564  14.669  67.655  1.00  0.00    -0.164 NA 
HETATM   12  C   UNL     2      -9.096  13.743  66.123  1.00  0.00     0.079 A  
HETATM   13  C   UNL     2     -10.293  13.755  65.374  1.00  0.00    -0.347 A  
HETATM   14  C   UNL     2      -7.161  15.586  68.572  1.00  0.00    -0.119 A  
HETATM   15  C   UNL     2      -5.980  15.345  69.262  1.00  0.00    -0.110 A  
HETATM   16  C   UNL     2     -11.196  14.822  65.436  1.00  0.00    -0.347 A  
HETATM   17  C   UNL     2      -5.523  16.186  70.294  1.00  0.00    -0.175 A  
HETATM   18  C   UNL     2     -10.841  15.856  66.308  1.00  0.00    -0.200 A  
BRANCH  16  19
HETATM   19  N   UNL     2     -12.343  14.877  64.667  1.00  0.00    -0.385 NA 
HETATM   20  C   UNL     2     -12.514  14.039  63.482  1.00  0.00     0.215 C  
HETATM   21  C   UNL     2     -13.366  15.892  64.875  1.00  0.00     2.701 C  
ENDBRANCH  16  19
ENDBRANCH   3   5
TORSDOF 2
ENDMDL
MODEL      155
REMARK 921   NORMALIZED FREE ENERGY PREDICTED BY IDOCK:    9.93 KCAL/MOL
REMARK 922        TOTAL FREE ENERGY PREDICTED BY IDOCK:   10.89 KCAL/MOL
REMARK 923 INTER-LIGAND FREE ENERGY PREDICTED BY IDOCK:   11.09 KCAL/MOL
REMARK 924 INTRA-LIGAND FREE ENERGY PREDICTED BY IDOCK:   -0.20 KCAL/MOL
REMARK 927      BINDING AFFINITY PREDICTED BY RF-SCORE:    0.00 PKD
ROOT
HETATM    1 CL   UNL     1      -7.940  18.094  70.801  1.00  0.00     4.329 Cl 
HETATM    2  C   UNL     2      -5.530  16.294  68.114  1.00  0.00    -0.104 C  
HETATM    3  N   UNL     2      -6.353  15.553  67.142  1.00  0.00    -0.293 NA 
HETATM    4  C   UNL     2      -7.528  16.304  66.680  1.00  0.00    -0.203 C  
ENDROOT
BRANCH   3   5
HETATM    5  C   UNL     2      -6.705  14.249  67.540  1.00  0.00    -0.105 A  
HETATM    6  C   UNL     2      -7.392  13.354  66.720  1.00  0.00     0.848 A  
HETATM    7  C   UNL     2      -7.801  12.094  67.189  1.00  0.00    -0.160 A  
HETATM    8  S   UNL     2      -8.714  11.081  66.040  1.00  0.00    -0.180 SA 
HETATM    9  C   UNL     2      -9.188   9.716  67.083  1.00  0.00    -0.134 A  
HETATM   10  C   UNL     2      -8.743   9.613  68.410  1.00  0.00    -0.120 A  
HETATM   11  N   UNL     2      -7.945  10.499  69.061  1.00  0.00    -0.126 NA 
HETATM   12  C   UNL     2      -9.185   8.496  69.100  1.00  0.00    -0.150 A  
HETATM   13  C   UNL     2     -10.021   7.520  68.516  1.00  0.00    -0.177 A  
HETATM   14  C   UNL     2      -7.527  11.663  68.501  1.00  0.00    -0.113 A  
HETATM   15  C   UNL     2      -6.771  12.529  69.279  1.00  0.00    -0.060 A  
HETATM   16  C   UNL     2     -10.455   7.613  67.190  1.00  0.00    -0.342 A  
HETATM   17  C   UNL     2      -6.366  13.798  68.822  1.00  0.00    -0.092 A  
HETATM   18  C   UNL     2     -10.025   8.749  66.498  1.00  0.00    -0.360 A  
BRANCH  16  19
HETATM   19  N   UNL     2     -11.226   6.638  66.584  1.00  0.00    -0.055 NA 
HETATM   20  C   UNL     2     -12.016   5.689  67.365  1.00  0.00     3.780 C  
HETATM   21  C   UNL     2     -11.158   6.375  65.153  1.00  0.00     4.907 C  
ENDBRANCH  16  19
ENDBRANCH   3   5
TORSDOF 2
ENDMDL
MODEL      156
REMARK 921   NORMALIZED FREE ENERGY PREDICTED BY IDOCK:   15.85 KCAL/MOL
REMARK 922        TOTAL FREE ENERGY PREDICTED BY IDOCK:   17.52 KCAL/MOL
REMARK 923 INTER-LIGAND FREE ENERGY PREDICTED BY IDOCK:   17.70 KCAL/MOL
REMARK 924 INTRA-LIGAND FREE ENERGY PREDICTED BY IDOCK:   -0.18 KCAL/MOL
REMARK 927      BINDING AFFINITY PREDICTED BY RF-SCORE:    0.00 PKD
ROOT
HETATM    1 CL   UNL     1      -7.865  15.085  66.756  1.00  0.00    -0.048 Cl 
HETATM    2  C   UNL     2     -10.699  14.417  69.546  1.00  0.00    -0.107 C  
HETATM    3  N   UNL     2     -10.084  13.770  70.719  1.00  0.00     3.225 NA 
HETATM    4  C   UNL     2      -8.801  14.370  71.111  1.00  0.00     4.484 C  
ENDROOT
BRANCH   3   5
HETATM    5  C   UNL     2      -9.987  12.367  70.636  1.00  0.00     5.709 A  
HETATM    6  C   UNL     2      -8.829  11.699  70.238  1.00  0.00     3.677 A  
HETATM    7  C   UNL     2      -8.804  10.303  70.084  1.00  0.00     0.302 A  
HETATM    8  S   UNL     2      -7.267   9.597  69.520  1.00  0.00    -0.091 SA 
HETATM    9  C   UNL     2      -7.736   7.894  69.279  1.00  0.00    -0.099 A  
HETATM   10  C   UNL     2      -9.013   7.425  69.625  1.00  0.00    -0.141 A  
HETATM   11  N   UNL     2     -10.026   8.164  70.147  1.00  0.00    -0.185 NA 
HETATM   12  C   UNL     2      -9.235   6.078  69.389  1.00  0.00    -0.140 A  
HETATM   13  C   UNL     2      -8.249   5.226  68.845  1.00  0.00    -0.089 A  
HETATM   14  C   UNL     2      -9.936   9.505  70.338  1.00  0.00    -0.267 A  
HETATM   15  C   UNL     2     -11.056  10.174  70.814  1.00  0.00    -0.372 A  
HETATM   16  C   UNL     2      -6.972   5.688  68.512  1.00  0.00    -0.064 A  
HETATM   17  C   UNL     2     -11.095  11.574  70.960  1.00  0.00     2.012 A  
HETATM   18  C   UNL     2      -6.752   7.051  68.732  1.00  0.00    -0.060 A  
BRANCH  16  19
HETATM   19  N   UNL     2      -5.976   4.857  68.033  1.00  0.00    -0.025 NA 
HETATM   20  C   UNL     2      -5.200   3.997  68.923  1.00  0.00    -0.011 C  
HETATM   21  C   UNL     2      -5.515   4.917  66.653  1.00  0.00    -0.013 C  
ENDBRANCH  16  19
ENDBRANCH   3   5
TORSDOF 2
ENDMDL
MODEL      157
REMARK 921   NORMALIZED FREE ENERGY PREDICTED BY IDOCK:   19.54 KCAL/MOL
REMARK 922        TOTAL FREE ENERGY PREDICTED BY IDOCK:   21.63 KCAL/MOL
REMARK 923 INTER-LIGAND FREE ENERGY PREDICTED BY IDOCK:   21.81 KCAL/MOL
REMARK 924 INTRA-LIGAND FREE ENERGY PREDICTED BY IDOCK:   -0.18 KCAL/MOL
REMARK 927      BINDING AFFINITY PREDICTED BY RF-SCORE:    0.00 PKD
ROOT
HETATM    1 CL   UNL     1      -8.290   2.813  70.141  1.00  0.00    -0.069 Cl 
HETATM    2  C   UNL     2     -11.325   4.276  72.358  1.00  0.00     0.493 C  
HETATM    3  N   UNL     2     -12.334   4.875  71.466  1.00  0.00     2.832 NA 
HETATM    4  C   UNL     2     -12.624   4.058  70.279  1.00  0.00    16.170 C  
ENDROOT
BRANCH   3   5
HETATM    5  C   UNL     2     -12.087   6.216  71.113  1.00  0.00     0.169 A  
HETATM    6  C   UNL     2     -11.260   6.593  70.056  1.00  0.00    -0.425 A  
HETATM    7  C   UNL     2     -10.971   7.944  69.795  1.00  0.00    -0.148 A  
HETATM    8  S   UNL     2      -9.857   8.267  68.441  1.00  0.00    -0.177 SA 
HETATM    9  C   UNL     2      -9.624  10.027  68.598  1.00  0.00    -0.155 A  
HETATM   10  C   UNL     2     -10.332  10.784  69.545  1.00  0.00    -0.144 A  
HETATM   11  N   UNL     2     -11.234  10.306  70.442  1.00  0.00    -0.315 NA 
HETATM   12  C   UNL     2     -10.055  12.141  69.549  1.00  0.00     0.786 A  
HETATM   13  C   UNL     2      -9.130  12.733  68.661  1.00  0.00     0.044 A  
HETATM   14  C   UNL     2     -11.512   8.984  70.573  1.00  0.00    -0.212 A  
HETATM   15  C   UNL     2     -12.401   8.600  71.569  1.00  0.00    -0.370 A  
HETATM   16  C   UNL     2      -8.433  11.984  67.707  1.00  0.00    -0.157 A  
HETATM   17  C   UNL     2     -12.687   7.249  71.845  1.00  0.00    -0.312 A  
HETATM   18  C   UNL     2      -8.698  10.612  67.715  1.00  0.00    -0.129 A  
BRANCH  16  19
HETATM   19  N   UNL     2      -7.568  12.556  66.793  1.00  0.00     0.099 NA 
HETATM   20  C   UNL     2      -8.005  12.916  65.445  1.00  0.00     3.621 C  
HETATM   21  C   UNL     2      -6.138  12.666  67.043  1.00  0.00     0.208 C  
ENDBRANCH  16  19
ENDBRANCH   3   5
TORSDOF 2
ENDMDL
MODEL      158
REMARK 921   NORMALIZED FREE ENERGY PREDICTED BY IDOCK:   20.63 KCAL/MOL
REMARK 922        TOTAL FREE ENERGY PREDICTED BY IDOCK:   22.85 KCAL/MOL
REMARK 923 INTER-LIGAND FREE ENERGY PREDICTED BY IDOCK:   23.05 KCAL/MOL
REMARK 924 INTRA-LIGAND FREE ENERGY PREDICTED BY IDOCK:   -0.20 KCAL/MOL
REMARK 927      BINDING AFFINITY PREDICTED BY RF-SCORE:    0.00 PKD
ROOT
HETATM    1 CL   UNL     1      -5.414  14.404  66.071  1.00  0.00     5.837 Cl 
HETATM    2  C   UNL     2      -7.202  17.955  65.396  1.00  0.00     0.487 C  
HETATM    3  N   UNL     2      -6.850  18.891  66.478  1.00  0.00    -0.197 NA 
HETATM    4  C   UNL     2      -5.428  18.848  66.847  1.00  0.00    -0.144 C  
ENDROOT
BRANCH   3   5
HETATM    5  C   UNL     2      -7.674  18.813  67.618  1.00  0.00    -0.235 A  
HETATM    6  C   UNL     2      -8.130  17.610  68.156  1.00  0.00    -0.252 A  
HETATM    7  C   UNL     2      -9.023  17.584  69.241  1.00  0.00     0.231 A  
HETATM    8  S   UNL     2      -9.557  15.972  69.787  1.00  0.00     0.141 SA 
HETATM    9  C   UNL     2     -10.790  16.408  70.998  1.00  0.00     0.389 A  
HETATM   10  C   UNL     2     -11.031  17.743  71.358  1.00  0.00     2.419 A  
HETATM   11  N   UNL     2     -10.406  18.837  70.850  1.00  0.00     1.974 NA 
HETATM   12  C   UNL     2     -12.012  17.932  72.316  1.00  0.00     4.211 A  
HETATM   13  C   UNL     2     -12.723  16.861  72.902  1.00  0.00     1.035 A  
HETATM   14  C   UNL     2      -9.490  18.764  69.850  1.00  0.00     0.948 A  
HETATM   15  C   UNL     2      -8.963  19.951  69.358  1.00  0.00     0.302 A  
HETATM   16  C   UNL     2     -12.476  15.529  72.555  1.00  0.00    -0.409 A  
HETATM   17  C   UNL     2      -8.078  19.988  68.265  1.00  0.00    -0.194 A  
HETATM   18  C   UNL     2     -11.499  15.338  71.574  1.00  0.00    -0.457 A  
BRANCH  16  19
HETATM   19  N   UNL     2     -13.121  14.466  73.159  1.00  0.00    -0.585 NA 
HETATM   20  C   UNL     2     -12.676  13.088  72.965  1.00  0.00     1.587 C  
HETATM   21  C   UNL     2     -14.381  14.629  73.871  1.00  0.00     5.960 C  
ENDBRANCH  16  19
ENDBRANCH   3   5
TORSDOF 2
ENDMDL
MODEL      159
REMARK 921   NORMALIZED FREE ENERGY PREDICTED BY IDOCK:   22.12 KCAL/MOL
REMARK 922        TOTAL FREE ENERGY PREDICTED BY IDOCK:   24.52 KCAL/MOL
REMARK 923 INTER-LIGAND FREE ENERGY PREDICTED BY IDOCK:   24.70 KCAL/MOL
REMARK 924 INTRA-LIGAND FREE ENERGY PREDICTED BY IDOCK:   -0.18 KCAL/MOL
REMARK 927      BINDING AFFINITY PREDICTED BY RF-SCORE:    0.00 PKD
ROOT
HETATM    1 CL   UNL     1      -7.087  17.938  73.273  1.00  0.00     7.828 Cl 
HETATM    2  C   UNL     2      -9.630  19.229  70.421  1.00  0.00     1.378 C  
HETATM    3  N   UNL     2     -10.610  18.168  70.127  1.00  0.00     1.125 NA 
HETATM    4  C   UNL     2     -11.136  17.510  71.331  1.00  0.00     1.944 C  
ENDROOT
BRANCH   3   5
HETATM    5  C   UNL     2     -10.188  17.222  69.173  1.00  0.00    -0.283 A  
HETATM    6  C   UNL     2     -10.921  16.082  68.844  1.00  0.00    -0.309 A  
HETATM    7  C   UNL     2     -10.420  15.120  67.951  1.00  0.00    -0.245 A  
HETATM    8  S   UNL     2     -11.450  13.692  67.669  1.00  0.00    -0.346 SA 
HETATM    9  C   UNL     2     -10.373  12.681  66.672  1.00  0.00    -0.236 A  
HETATM   10  C   UNL     2      -9.121  13.143  66.237  1.00  0.00     0.025 A  
HETATM   11  N   UNL     2      -8.571  14.354  66.514  1.00  0.00    -0.020 NA 
HETATM   12  C   UNL     2      -8.395  12.253  65.463  1.00  0.00     1.243 A  
HETATM   13  C   UNL     2      -8.875  10.969  65.124  1.00  0.00    -0.116 A  
HETATM   14  C   UNL     2      -9.165  15.263  67.330  1.00  0.00    -0.195 A  
HETATM   15  C   UNL     2      -8.484  16.442  67.600  1.00  0.00    -0.178 A  
HETATM   16  C   UNL     2     -10.128  10.511  65.544  1.00  0.00    -0.283 A  
HETATM   17  C   UNL     2      -8.972  17.406  68.503  1.00  0.00    -0.276 A  
HETATM   18  C   UNL     2     -10.854  11.401  66.341  1.00  0.00    -0.323 A  
BRANCH  16  19
HETATM   19  N   UNL     2     -10.638   9.281  65.173  1.00  0.00     1.676 NA 
HETATM   20  C   UNL     2     -11.393   9.105  63.935  1.00  0.00    10.821 C  
HETATM   21  C   UNL     2     -10.617   8.132  66.069  1.00  0.00     1.467 C  
ENDBRANCH  16  19
ENDBRANCH   3   5
TORSDOF 2
ENDMDL
MODEL      160
REMARK 921   NORMALIZED FREE ENERGY PREDICTED BY IDOCK:   37.25 KCAL/MOL
REMARK 922        TOTAL FREE ENERGY PREDICTED BY IDOCK:   41.41 KCAL/MOL
REMARK 923 INTER-LIGAND FREE ENERGY PREDICTED BY IDOCK:   41.59 KCAL/MOL
REMARK 924 INTRA-LIGAND FREE ENERGY PREDICTED BY IDOCK:   -0.17 KCAL/MOL
REMARK 927      BINDING AFFINITY PREDICTED BY RF-SCORE:    0.00 PKD
ROOT
HETATM    1 CL   UNL     1      -8.888  21.103  72.753  1.00  0.00     3.650 Cl 
HETATM    2  C   UNL     2      -7.351  17.724  74.331  1.00  0.00    11.267 C  
HETATM    3  N   UNL     2      -6.163  17.323  73.558  1.00  0.00     4.612 NA 
HETATM    4  C   UNL     2      -5.274  18.446  73.230  1.00  0.00     6.752 C  
ENDROOT
BRANCH   3   5
HETATM    5  C   UNL     2      -6.436  16.540  72.419  1.00  0.00     4.672 A  
HETATM    6  C   UNL     2      -6.584  15.154  72.457  1.00  0.00     2.232 A  
HETATM    7  C   UNL     2      -6.767  14.403  71.283  1.00  0.00     0.904 A  
HETATM    8  S   UNL     2      -6.889  12.636  71.485  1.00  0.00     5.250 SA 
HETATM    9  C   UNL     2      -6.907  12.094  69.788  1.00  0.00     0.201 A  
HETATM   10  C   UNL     2      -6.933  13.007  68.722  1.00  0.00    -0.103 A  
HETATM   11  N   UNL     2      -6.929  14.362  68.825  1.00  0.00    -0.094 NA 
HETATM   12  C   UNL     2      -6.953  12.444  67.457  1.00  0.00    -0.142 A  
HETATM   13  C   UNL     2      -6.953  11.048  67.243  1.00  0.00    -0.096 A  
HETATM   14  C   UNL     2      -6.828  15.009  70.014  1.00  0.00    -0.126 A  
HETATM   15  C   UNL     2      -6.765  16.396  69.999  1.00  0.00     0.223 A  
HETATM   16  C   UNL     2      -6.941  10.135  68.303  1.00  0.00    -0.070 A  
HETATM   17  C   UNL     2      -6.569  17.156  71.168  1.00  0.00     2.818 A  
HETATM   18  C   UNL     2      -6.902  10.702  69.580  1.00  0.00    -0.124 A  
BRANCH  16  19
HETATM   19  N   UNL     2      -6.999   8.767  68.114  1.00  0.00    -0.073 NA 
HETATM   20  C   UNL     2      -5.846   8.009  67.636  1.00  0.00    -0.042 C  
HETATM   21  C   UNL     2      -8.250   8.027  68.199  1.00  0.00    -0.126 C  
ENDBRANCH  16  19
ENDBRANCH   3   5
TORSDOF 2
ENDMDL
