MODEL        1
REMARK 921   NORMALIZED FREE ENERGY PREDICTED BY IDOCK:   -5.84 KCAL/MOL
REMARK 922        TOTAL FREE ENERGY PREDICTED BY IDOCK:   -6.75 KCAL/MOL
REMARK 923 INTER-LIGAND FREE ENERGY PREDICTED BY IDOCK:   -6.52 KCAL/MOL
REMARK 924 INTRA-LIGAND FREE ENERGY PREDICTED BY IDOCK:   -0.23 KCAL/MOL
REMARK 927      BINDING AFFINITY PREDICTED BY RF-SCORE:    0.00 PKD
ROOT
HETATM    1  C   UNL     1     -11.678  11.090  68.705  1.00  0.00    -0.314 C  
HETATM    2  N   UNL     1     -11.830  12.157  67.733  1.00  0.00    -0.514 NA 
HETATM    3  N   UNL     1     -11.768  11.762  66.401  1.00  0.00    -0.503 NA 
HETATM    4  C   UNL     1     -11.956  12.811  65.645  1.00  0.00    -0.452 C  
HETATM    5  S   UNL     1     -12.213  14.341  66.446  1.00  0.00    -0.320 SA 
HETATM    6  C   UNL     1     -12.061  13.498  68.004  1.00  0.00    -0.262 C  
ENDROOT
BRANCH   4   7
HETATM    7  S   UNL     1     -11.955  12.676  63.872  1.00  0.00    -0.525 S  
HETATM    8  O   UNL     1     -13.070  11.824  63.525  1.00  0.00    -0.617 OA 
HETATM    9  N   UNL     1     -12.303  14.201  63.227  1.00  0.00    -1.133 N  
HETATM   10  O   UNL     1     -10.592  12.376  63.487  1.00  0.00    -0.438 OA 
HETATM   11  H1  UNL     1     -12.302  14.124  62.210  1.00  0.00     0.000 HD 
HETATM   12  H2  UNL     1     -12.483  15.050  63.762  1.00  0.00     0.000 HD 
ENDBRANCH   4   7
BRANCH   6  13
HETATM   13  N   UNL     1     -12.203  14.306  68.982  1.00  0.00    -0.533 N  
HETATM   14  H   UNL     1     -13.156  14.479  69.306  1.00  0.00     0.000 HD 
HETATM   15  C   UNL     1     -11.203  14.958  69.630  1.00  0.00    -0.275 C  
HETATM   16  C   UNL     1     -11.731  15.819  70.756  1.00  0.00    -0.430 C  
HETATM   17  O   UNL     1     -10.005  14.913  69.377  1.00  0.00    -0.204 OA 
ENDBRANCH   6  13
TORSDOF 2
ENDMDL
MODEL        2
REMARK 921   NORMALIZED FREE ENERGY PREDICTED BY IDOCK:   -5.53 KCAL/MOL
REMARK 922        TOTAL FREE ENERGY PREDICTED BY IDOCK:   -6.41 KCAL/MOL
REMARK 923 INTER-LIGAND FREE ENERGY PREDICTED BY IDOCK:   -6.16 KCAL/MOL
REMARK 924 INTRA-LIGAND FREE ENERGY PREDICTED BY IDOCK:   -0.24 KCAL/MOL
REMARK 927      BINDING AFFINITY PREDICTED BY RF-SCORE:    0.00 PKD
ROOT
HETATM    1  C   UNL     1     -11.862  15.469  69.221  1.00  0.00    -0.353 C  
HETATM    2  N   UNL     1     -11.330  15.393  67.873  1.00  0.00    -0.334 NA 
HETATM    3  N   UNL     1     -11.895  14.413  67.065  1.00  0.00    -0.406 NA 
HETATM    4  C   UNL     1     -11.350  14.484  65.879  1.00  0.00    -0.341 C  
HETATM    5  S   UNL     1     -10.127  15.706  65.631  1.00  0.00    -0.368 SA 
HETATM    6  C   UNL     1     -10.356  16.212  67.321  1.00  0.00    -0.287 C  
ENDROOT
BRANCH   4   7
HETATM    7  S   UNL     1     -11.843  13.381  64.574  1.00  0.00    -0.420 S  
HETATM    8  O   UNL     1     -12.969  12.627  65.079  1.00  0.00    -0.812 OA 
HETATM    9  N   UNL     1     -12.432  14.312  63.291  1.00  0.00    -1.068 N  
HETATM   10  O   UNL     1     -10.632  12.751  64.095  1.00  0.00    -0.371 OA 
HETATM   11  H1  UNL     1     -12.715  13.680  62.542  1.00  0.00     0.000 HD 
HETATM   12  H2  UNL     1     -12.494  15.330  63.269  1.00  0.00     0.000 HD 
ENDBRANCH   4   7
BRANCH   6  13
HETATM   13  N   UNL     1      -9.593  17.191  67.616  1.00  0.00    -0.251 N  
HETATM   14  H   UNL     1      -8.643  16.966  67.913  1.00  0.00     0.000 HD 
HETATM   15  C   UNL     1      -9.929  18.507  67.569  1.00  0.00    -0.332 C  
HETATM   16  C   UNL     1      -8.771  19.397  67.962  1.00  0.00    -0.362 C  
HETATM   17  O   UNL     1     -11.018  18.982  67.270  1.00  0.00    -0.459 OA 
ENDBRANCH   6  13
TORSDOF 2
ENDMDL
MODEL        3
REMARK 921   NORMALIZED FREE ENERGY PREDICTED BY IDOCK:   -5.44 KCAL/MOL
REMARK 922        TOTAL FREE ENERGY PREDICTED BY IDOCK:   -6.31 KCAL/MOL
REMARK 923 INTER-LIGAND FREE ENERGY PREDICTED BY IDOCK:   -6.13 KCAL/MOL
REMARK 924 INTRA-LIGAND FREE ENERGY PREDICTED BY IDOCK:   -0.19 KCAL/MOL
REMARK 927      BINDING AFFINITY PREDICTED BY RF-SCORE:    0.00 PKD
ROOT
HETATM    1  C   UNL     1     -10.309  17.365  68.403  1.00  0.00    -0.379 C  
HETATM    2  N   UNL     1     -10.911  16.046  68.331  1.00  0.00    -0.315 NA 
HETATM    3  N   UNL     1     -11.129  15.560  67.047  1.00  0.00    -0.284 NA 
HETATM    4  C   UNL     1     -11.637  14.360  67.135  1.00  0.00    -0.386 C  
HETATM    5  S   UNL     1     -11.903  13.717  68.737  1.00  0.00    -0.365 SA 
HETATM    6  C   UNL     1     -11.251  15.232  69.402  1.00  0.00    -0.285 C  
ENDROOT
BRANCH   4   7
HETATM    7  S   UNL     1     -12.034  13.421  65.678  1.00  0.00    -0.428 S  
HETATM    8  O   UNL     1     -13.284  13.950  65.178  1.00  0.00    -0.768 OA 
HETATM    9  N   UNL     1     -10.869  13.760  64.499  1.00  0.00    -0.487 N  
HETATM   10  O   UNL     1     -11.860  12.028  66.031  1.00  0.00    -0.522 OA 
HETATM   11  H1  UNL     1     -11.097  13.221  63.663  1.00  0.00     0.000 HD 
HETATM   12  H2  UNL     1     -10.076  14.392  64.605  1.00  0.00     0.000 HD 
ENDBRANCH   4   7
BRANCH   6  13
HETATM   13  N   UNL     1     -11.242  15.209  70.678  1.00  0.00    -0.376 N  
HETATM   14  H   UNL     1     -10.364  14.956  71.132  1.00  0.00     0.000 HD 
HETATM   15  C   UNL     1     -12.296  15.492  71.488  1.00  0.00    -0.401 C  
HETATM   16  C   UNL     1     -11.924  15.390  72.951  1.00  0.00    -0.556 C  
HETATM   17  O   UNL     1     -13.435  15.785  71.144  1.00  0.00    -0.575 OA 
ENDBRANCH   6  13
TORSDOF 2
ENDMDL
MODEL        4
REMARK 921   NORMALIZED FREE ENERGY PREDICTED BY IDOCK:   -5.36 KCAL/MOL
REMARK 922        TOTAL FREE ENERGY PREDICTED BY IDOCK:   -6.21 KCAL/MOL
REMARK 923 INTER-LIGAND FREE ENERGY PREDICTED BY IDOCK:   -5.98 KCAL/MOL
REMARK 924 INTRA-LIGAND FREE ENERGY PREDICTED BY IDOCK:   -0.23 KCAL/MOL
REMARK 927      BINDING AFFINITY PREDICTED BY RF-SCORE:    0.00 PKD
ROOT
HETATM    1  C   UNL     1     -11.987  15.197  69.409  1.00  0.00    -0.307 C  
HETATM    2  N   UNL     1     -11.470  15.266  68.054  1.00  0.00    -0.345 NA 
HETATM    3  N   UNL     1     -12.089  14.425  67.136  1.00  0.00    -0.394 NA 
HETATM    4  C   UNL     1     -11.551  14.620  65.962  1.00  0.00    -0.328 C  
HETATM    5  S   UNL     1     -10.271  15.803  65.852  1.00  0.00    -0.380 SA 
HETATM    6  C   UNL     1     -10.461  16.101  67.595  1.00  0.00    -0.292 C  
ENDROOT
BRANCH   4   7
HETATM    7  S   UNL     1     -12.109  13.716  64.535  1.00  0.00    -0.419 S  
HETATM    8  O   UNL     1     -12.612  14.698  63.600  1.00  0.00    -0.773 OA 
HETATM    9  N   UNL     1     -10.760  13.007  63.800  1.00  0.00    -0.517 N  
HETATM   10  O   UNL     1     -12.918  12.625  65.036  1.00  0.00    -0.812 OA 
HETATM   11  H1  UNL     1     -11.080  12.489  62.981  1.00  0.00     0.000 HD 
HETATM   12  H2  UNL     1      -9.795  13.084  64.119  1.00  0.00     0.000 HD 
ENDBRANCH   4   7
BRANCH   6  13
HETATM   13  N   UNL     1      -9.648  16.997  68.001  1.00  0.00    -0.254 N  
HETATM   14  H   UNL     1      -8.742  16.679  68.348  1.00  0.00     0.000 HD 
HETATM   15  C   UNL     1      -9.877  18.337  68.012  1.00  0.00    -0.330 C  
HETATM   16  C   UNL     1      -8.685  19.106  68.536  1.00  0.00    -0.401 C  
HETATM   17  O   UNL     1     -10.902  18.914  67.670  1.00  0.00    -0.428 OA 
ENDBRANCH   6  13
TORSDOF 2
ENDMDL
MODEL        5
REMARK 921   NORMALIZED FREE ENERGY PREDICTED BY IDOCK:   -5.33 KCAL/MOL
REMARK 922        TOTAL FREE ENERGY PREDICTED BY IDOCK:   -6.19 KCAL/MOL
REMARK 923 INTER-LIGAND FREE ENERGY PREDICTED BY IDOCK:   -6.01 KCAL/MOL
REMARK 924 INTRA-LIGAND FREE ENERGY PREDICTED BY IDOCK:   -0.18 KCAL/MOL
REMARK 927      BINDING AFFINITY PREDICTED BY RF-SCORE:    0.00 PKD
ROOT
HETATM    1  C   UNL     1     -12.010  11.409  69.906  1.00  0.00    -0.359 C  
HETATM    2  N   UNL     1     -11.809  12.570  69.059  1.00  0.00    -0.307 NA 
HETATM    3  N   UNL     1     -11.868  12.327  67.691  1.00  0.00    -0.496 NA 
HETATM    4  C   UNL     1     -11.707  13.459  67.059  1.00  0.00    -0.381 C  
HETATM    5  S   UNL     1     -11.468  14.892  68.027  1.00  0.00    -0.344 SA 
HETATM    6  C   UNL     1     -11.601  13.875  69.480  1.00  0.00    -0.301 C  
ENDROOT
BRANCH   4   7
HETATM    7  S   UNL     1     -11.739  13.530  65.282  1.00  0.00    -0.339 S  
HETATM    8  O   UNL     1     -13.128  13.422  64.892  1.00  0.00    -0.723 OA 
HETATM    9  N   UNL     1     -11.231  15.072  64.807  1.00  0.00    -0.521 N  
HETATM   10  O   UNL     1     -10.724  12.608  64.820  1.00  0.00    -0.283 OA 
HETATM   11  H1  UNL     1     -11.248  15.113  63.788  1.00  0.00     0.000 HD 
HETATM   12  H2  UNL     1     -10.953  15.830  65.431  1.00  0.00     0.000 HD 
ENDBRANCH   4   7
BRANCH   6  13
HETATM   13  N   UNL     1     -11.484  14.573  70.543  1.00  0.00    -0.453 N  
HETATM   14  H   UNL     1     -10.579  14.553  71.014  1.00  0.00     0.000 HD 
HETATM   15  C   UNL     1     -12.455  15.339  71.105  1.00  0.00    -0.375 C  
HETATM   16  C   UNL     1     -11.962  16.049  72.346  1.00  0.00    -0.644 C  
HETATM   17  O   UNL     1     -13.609  15.473  70.716  1.00  0.00    -0.487 OA 
ENDBRANCH   6  13
TORSDOF 2
ENDMDL
MODEL        6
REMARK 921   NORMALIZED FREE ENERGY PREDICTED BY IDOCK:   -5.26 KCAL/MOL
REMARK 922        TOTAL FREE ENERGY PREDICTED BY IDOCK:   -6.11 KCAL/MOL
REMARK 923 INTER-LIGAND FREE ENERGY PREDICTED BY IDOCK:   -5.90 KCAL/MOL
REMARK 924 INTRA-LIGAND FREE ENERGY PREDICTED BY IDOCK:   -0.21 KCAL/MOL
REMARK 927      BINDING AFFINITY PREDICTED BY RF-SCORE:    0.00 PKD
ROOT
HETATM    1  C   UNL     1     -10.277  16.810  66.420  1.00  0.00    -0.323 C  
HETATM    2  N   UNL     1     -10.836  15.712  67.187  1.00  0.00    -0.312 NA 
HETATM    3  N   UNL     1     -11.195  16.020  68.494  1.00  0.00    -0.358 NA 
HETATM    4  C   UNL     1     -11.712  14.955  69.047  1.00  0.00    -0.319 C  
HETATM    5  S   UNL     1     -11.808  13.510  68.071  1.00  0.00    -0.350 SA 
HETATM    6  C   UNL     1     -11.070  14.422  66.734  1.00  0.00    -0.323 C  
ENDROOT
BRANCH   4   7
HETATM    7  S   UNL     1     -12.299  14.986  70.726  1.00  0.00    -0.377 S  
HETATM    8  O   UNL     1     -11.533  16.005  71.409  1.00  0.00    -0.408 OA 
HETATM    9  N   UNL     1     -13.903  15.524  70.714  1.00  0.00    -0.865 N  
HETATM   10  O   UNL     1     -12.337  13.608  71.168  1.00  0.00    -0.355 OA 
HETATM   11  H1  UNL     1     -14.240  15.541  71.677  1.00  0.00     0.000 HD 
HETATM   12  H2  UNL     1     -14.441  15.786  69.888  1.00  0.00     0.000 HD 
ENDBRANCH   4   7
BRANCH   6  13
HETATM   13  N   UNL     1     -10.939  13.691  65.695  1.00  0.00    -0.288 N  
HETATM   14  H   UNL     1     -10.035  13.237  65.557  1.00  0.00     0.000 HD 
HETATM   15  C   UNL     1     -11.895  13.461  64.756  1.00  0.00    -0.380 C  
HETATM   16  C   UNL     1     -11.405  12.526  63.674  1.00  0.00    -0.555 C  
HETATM   17  O   UNL     1     -13.025  13.932  64.722  1.00  0.00    -0.686 OA 
ENDBRANCH   6  13
TORSDOF 2
ENDMDL
MODEL        7
REMARK 921   NORMALIZED FREE ENERGY PREDICTED BY IDOCK:   -5.25 KCAL/MOL
REMARK 922        TOTAL FREE ENERGY PREDICTED BY IDOCK:   -6.09 KCAL/MOL
REMARK 923 INTER-LIGAND FREE ENERGY PREDICTED BY IDOCK:   -5.85 KCAL/MOL
REMARK 924 INTRA-LIGAND FREE ENERGY PREDICTED BY IDOCK:   -0.24 KCAL/MOL
REMARK 927      BINDING AFFINITY PREDICTED BY RF-SCORE:    0.00 PKD
ROOT
HETATM    1  C   UNL     1     -11.910  14.121  68.832  1.00  0.00    -0.347 C  
HETATM    2  N   UNL     1     -11.678  13.139  67.789  1.00  0.00    -0.343 NA 
HETATM    3  N   UNL     1     -12.013  13.545  66.502  1.00  0.00    -0.400 NA 
HETATM    4  C   UNL     1     -11.719  12.582  65.670  1.00  0.00    -0.423 C  
HETATM    5  S   UNL     1     -11.032  11.123  66.341  1.00  0.00    -0.123 SA 
HETATM    6  C   UNL     1     -11.133  11.873  67.951  1.00  0.00    -0.242 C  
ENDROOT
BRANCH   4   7
HETATM    7  S   UNL     1     -12.003  12.760  63.923  1.00  0.00    -0.521 S  
HETATM    8  O   UNL     1     -13.182  11.979  63.619  1.00  0.00    -0.737 OA 
HETATM    9  N   UNL     1     -12.410  14.373  63.616  1.00  0.00    -1.106 N  
HETATM   10  O   UNL     1     -10.728  12.533  63.278  1.00  0.00    -0.385 OA 
HETATM   11  H1  UNL     1     -12.573  14.475  62.614  1.00  0.00     0.000 HD 
HETATM   12  H2  UNL     1     -12.479  15.116  64.312  1.00  0.00     0.000 HD 
ENDBRANCH   4   7
BRANCH   6  13
HETATM   13  N   UNL     1     -10.684  11.089  68.853  1.00  0.00    -0.199 N  
HETATM   14  H   UNL     1      -9.700  10.826  68.791  1.00  0.00     0.000 HD 
HETATM   15  C   UNL     1     -11.397  10.572  69.888  1.00  0.00    -0.309 C  
HETATM   16  C   UNL     1     -10.541   9.700  70.779  1.00  0.00    -0.392 C  
HETATM   17  O   UNL     1     -12.588  10.738  70.121  1.00  0.00    -0.327 OA 
ENDBRANCH   6  13
TORSDOF 2
ENDMDL
MODEL        8
REMARK 921   NORMALIZED FREE ENERGY PREDICTED BY IDOCK:   -5.20 KCAL/MOL
REMARK 922        TOTAL FREE ENERGY PREDICTED BY IDOCK:   -6.04 KCAL/MOL
REMARK 923 INTER-LIGAND FREE ENERGY PREDICTED BY IDOCK:   -5.82 KCAL/MOL
REMARK 924 INTRA-LIGAND FREE ENERGY PREDICTED BY IDOCK:   -0.22 KCAL/MOL
REMARK 927      BINDING AFFINITY PREDICTED BY RF-SCORE:    0.00 PKD
ROOT
HETATM    1  C   UNL     1     -10.604  19.559  65.589  1.00  0.00    -0.341 C  
HETATM    2  N   UNL     1     -10.251  18.180  65.872  1.00  0.00    -0.596 NA 
HETATM    3  N   UNL     1     -11.035  17.222  65.239  1.00  0.00    -0.428 NA 
HETATM    4  C   UNL     1     -10.585  16.038  65.554  1.00  0.00    -0.398 C  
HETATM    5  S   UNL     1      -9.207  15.963  66.626  1.00  0.00    -0.278 SA 
HETATM    6  C   UNL     1      -9.206  17.741  66.672  1.00  0.00    -0.269 C  
ENDROOT
BRANCH   4   7
HETATM    7  S   UNL     1     -11.344  14.565  64.910  1.00  0.00    -0.404 S  
HETATM    8  O   UNL     1     -12.215  14.064  65.950  1.00  0.00    -0.408 OA 
HETATM    9  N   UNL     1     -12.348  15.008  63.622  1.00  0.00    -0.986 N  
HETATM   10  O   UNL     1     -10.276  13.774  64.337  1.00  0.00    -0.367 OA 
HETATM   11  H1  UNL     1     -12.783  14.163  63.252  1.00  0.00     0.000 HD 
HETATM   12  H2  UNL     1     -12.492  15.957  63.275  1.00  0.00     0.000 HD 
ENDBRANCH   4   7
BRANCH   6  13
HETATM   13  N   UNL     1      -8.261  18.182  67.408  1.00  0.00    -0.233 N  
HETATM   14  H   UNL     1      -7.311  17.899  67.162  1.00  0.00     0.000 HD 
HETATM   15  C   UNL     1      -8.403  18.994  68.488  1.00  0.00    -0.352 C  
HETATM   16  C   UNL     1      -7.068  19.340  69.110  1.00  0.00    -0.370 C  
HETATM   17  O   UNL     1      -9.450  19.418  68.961  1.00  0.00    -0.391 OA 
ENDBRANCH   6  13
TORSDOF 2
ENDMDL
MODEL        9
REMARK 921   NORMALIZED FREE ENERGY PREDICTED BY IDOCK:   -5.13 KCAL/MOL
REMARK 922        TOTAL FREE ENERGY PREDICTED BY IDOCK:   -5.96 KCAL/MOL
REMARK 923 INTER-LIGAND FREE ENERGY PREDICTED BY IDOCK:   -5.71 KCAL/MOL
REMARK 924 INTRA-LIGAND FREE ENERGY PREDICTED BY IDOCK:   -0.25 KCAL/MOL
REMARK 927      BINDING AFFINITY PREDICTED BY RF-SCORE:    0.00 PKD
ROOT
HETATM    1  C   UNL     1      -8.494  15.279  67.139  1.00  0.00    -0.209 C  
HETATM    2  N   UNL     1      -9.569  15.377  66.169  1.00  0.00    -0.304 NA 
HETATM    3  N   UNL     1     -10.045  14.165  65.682  1.00  0.00    -0.326 NA 
HETATM    4  C   UNL     1     -11.027  14.404  64.854  1.00  0.00    -0.406 C  
HETATM    5  S   UNL     1     -11.459  16.074  64.582  1.00  0.00    -0.119 SA 
HETATM    6  C   UNL     1     -10.175  16.542  65.721  1.00  0.00    -0.329 C  
ENDROOT
BRANCH   4   7
HETATM    7  S   UNL     1     -11.888  13.075  64.044  1.00  0.00    -0.479 S  
HETATM    8  O   UNL     1     -12.659  13.677  62.978  1.00  0.00    -0.729 OA 
HETATM    9  N   UNL     1     -10.741  12.080  63.298  1.00  0.00    -0.644 N  
HETATM   10  O   UNL     1     -12.491  12.282  65.094  1.00  0.00    -0.563 OA 
HETATM   11  H1  UNL     1     -11.235  11.318  62.834  1.00  0.00     0.000 HD 
HETATM   12  H2  UNL     1      -9.731  12.218  63.310  1.00  0.00     0.000 HD 
ENDBRANCH   4   7
BRANCH   6  13
HETATM   13  N   UNL     1     -10.121  17.810  65.858  1.00  0.00    -0.231 N  
HETATM   14  H   UNL     1      -9.818  18.352  65.047  1.00  0.00     0.000 HD 
HETATM   15  C   UNL     1     -10.430  18.505  66.984  1.00  0.00    -0.402 C  
HETATM   16  C   UNL     1     -10.277  19.996  66.784  1.00  0.00    -0.592 C  
HETATM   17  O   UNL     1     -10.781  18.044  68.063  1.00  0.00    -0.376 OA 
ENDBRANCH   6  13
TORSDOF 2
ENDMDL
MODEL       10
REMARK 921   NORMALIZED FREE ENERGY PREDICTED BY IDOCK:   -5.11 KCAL/MOL
REMARK 922        TOTAL FREE ENERGY PREDICTED BY IDOCK:   -5.94 KCAL/MOL
REMARK 923 INTER-LIGAND FREE ENERGY PREDICTED BY IDOCK:   -5.69 KCAL/MOL
REMARK 924 INTRA-LIGAND FREE ENERGY PREDICTED BY IDOCK:   -0.25 KCAL/MOL
REMARK 927      BINDING AFFINITY PREDICTED BY RF-SCORE:    0.00 PKD
ROOT
HETATM    1  C   UNL     1     -10.311  16.497  65.928  1.00  0.00    -0.350 C  
HETATM    2  N   UNL     1     -10.832  15.145  66.009  1.00  0.00    -0.329 NA 
HETATM    3  N   UNL     1     -10.504  14.315  64.943  1.00  0.00    -0.429 NA 
HETATM    4  C   UNL     1     -11.005  13.129  65.167  1.00  0.00    -0.298 C  
HETATM    5  S   UNL     1     -11.905  12.905  66.647  1.00  0.00    -0.366 SA 
HETATM    6  C   UNL     1     -11.581  14.608  67.046  1.00  0.00    -0.371 C  
ENDROOT
BRANCH   4   7
HETATM    7  S   UNL     1     -10.770  11.800  64.009  1.00  0.00    -0.419 S  
HETATM    8  O   UNL     1     -10.639  10.592  64.794  1.00  0.00    -0.291 OA 
HETATM    9  N   UNL     1     -12.191  11.629  63.108  1.00  0.00    -0.966 N  
HETATM   10  O   UNL     1      -9.752  12.244  63.081  1.00  0.00    -0.334 OA 
HETATM   11  H1  UNL     1     -12.057  10.866  62.443  1.00  0.00     0.000 HD 
HETATM   12  H2  UNL     1     -13.037  12.190  63.210  1.00  0.00     0.000 HD 
ENDBRANCH   4   7
BRANCH   6  13
HETATM   13  N   UNL     1     -12.097  14.923  68.171  1.00  0.00    -0.562 N  
HETATM   14  H   UNL     1     -13.106  15.074  68.192  1.00  0.00     0.000 HD 
HETATM   15  C   UNL     1     -11.425  15.077  69.342  1.00  0.00    -0.300 C  
HETATM   16  C   UNL     1     -12.355  15.430  70.481  1.00  0.00    -0.452 C  
HETATM   17  O   UNL     1     -10.218  14.972  69.520  1.00  0.00    -0.225 OA 
ENDBRANCH   6  13
TORSDOF 2
ENDMDL
MODEL       11
REMARK 921   NORMALIZED FREE ENERGY PREDICTED BY IDOCK:   -5.05 KCAL/MOL
REMARK 922        TOTAL FREE ENERGY PREDICTED BY IDOCK:   -5.87 KCAL/MOL
REMARK 923 INTER-LIGAND FREE ENERGY PREDICTED BY IDOCK:   -5.63 KCAL/MOL
REMARK 924 INTRA-LIGAND FREE ENERGY PREDICTED BY IDOCK:   -0.24 KCAL/MOL
REMARK 927      BINDING AFFINITY PREDICTED BY RF-SCORE:    0.00 PKD
ROOT
HETATM    1  C   UNL     1     -11.825  14.383  69.009  1.00  0.00    -0.323 C  
HETATM    2  N   UNL     1     -11.285  15.266  67.991  1.00  0.00    -0.315 NA 
HETATM    3  N   UNL     1     -11.000  16.559  68.414  1.00  0.00    -0.344 NA 
HETATM    4  C   UNL     1     -10.491  17.224  67.412  1.00  0.00    -0.338 C  
HETATM    5  S   UNL     1     -10.317  16.378  65.894  1.00  0.00    -0.341 SA 
HETATM    6  C   UNL     1     -11.003  14.935  66.674  1.00  0.00    -0.325 C  
ENDROOT
BRANCH   4   7
HETATM    7  S   UNL     1      -9.992  18.921  67.595  1.00  0.00    -0.370 S  
HETATM    8  O   UNL     1     -10.892  19.703  66.776  1.00  0.00    -0.474 OA 
HETATM    9  N   UNL     1     -10.280  19.387  69.196  1.00  0.00    -0.592 N  
HETATM   10  O   UNL     1      -8.555  18.944  67.418  1.00  0.00    -0.270 OA 
HETATM   11  H1  UNL     1      -9.993  20.360  69.301  1.00  0.00     0.000 HD 
HETATM   12  H2  UNL     1     -10.671  18.796  69.929  1.00  0.00     0.000 HD 
ENDBRANCH   4   7
BRANCH   6  13
HETATM   13  N   UNL     1     -11.066  13.955  65.857  1.00  0.00    -0.290 N  
HETATM   14  H   UNL     1     -10.196  13.457  65.664  1.00  0.00     0.000 HD 
HETATM   15  C   UNL     1     -12.184  13.517  65.222  1.00  0.00    -0.441 C  
HETATM   16  C   UNL     1     -11.897  12.318  64.345  1.00  0.00    -0.464 C  
HETATM   17  O   UNL     1     -13.310  13.993  65.293  1.00  0.00    -0.741 OA 
ENDBRANCH   6  13
TORSDOF 2
ENDMDL
MODEL       12
REMARK 921   NORMALIZED FREE ENERGY PREDICTED BY IDOCK:   -5.04 KCAL/MOL
REMARK 922        TOTAL FREE ENERGY PREDICTED BY IDOCK:   -5.86 KCAL/MOL
REMARK 923 INTER-LIGAND FREE ENERGY PREDICTED BY IDOCK:   -5.62 KCAL/MOL
REMARK 924 INTRA-LIGAND FREE ENERGY PREDICTED BY IDOCK:   -0.25 KCAL/MOL
REMARK 927      BINDING AFFINITY PREDICTED BY RF-SCORE:    0.00 PKD
ROOT
HETATM    1  C   UNL     1     -11.508  10.774  68.857  1.00  0.00    -0.293 C  
HETATM    2  N   UNL     1     -11.714  12.193  69.076  1.00  0.00    -0.306 NA 
HETATM    3  N   UNL     1     -12.274  12.532  70.303  1.00  0.00    -0.310 NA 
HETATM    4  C   UNL     1     -12.367  13.833  70.375  1.00  0.00    -0.353 C  
HETATM    5  S   UNL     1     -11.808  14.755  69.001  1.00  0.00    -0.285 SA 
HETATM    6  C   UNL     1     -11.380  13.222  68.207  1.00  0.00    -0.300 C  
ENDROOT
BRANCH   4   7
HETATM    7  S   UNL     1     -13.031  14.628  71.821  1.00  0.00    -0.359 S  
HETATM    8  O   UNL     1     -11.978  15.469  72.346  1.00  0.00    -0.370 OA 
HETATM    9  N   UNL     1     -14.270  15.669  71.329  1.00  0.00    -0.679 N  
HETATM   10  O   UNL     1     -13.663  13.586  72.603  1.00  0.00    -0.681 OA 
HETATM   11  H1  UNL     1     -14.651  16.124  72.158  1.00  0.00     0.000 HD 
HETATM   12  H2  UNL     1     -14.583  15.815  70.369  1.00  0.00     0.000 HD 
ENDBRANCH   4   7
BRANCH   6  13
HETATM   13  N   UNL     1     -10.872  13.426  67.054  1.00  0.00    -0.271 N  
HETATM   14  H   UNL     1      -9.974  13.912  67.022  1.00  0.00     0.000 HD 
HETATM   15  C   UNL     1     -11.416  13.057  65.865  1.00  0.00    -0.337 C  
HETATM   16  C   UNL     1     -10.530  13.437  64.699  1.00  0.00    -0.428 C  
HETATM   17  O   UNL     1     -12.490  12.497  65.686  1.00  0.00    -0.648 OA 
ENDBRANCH   6  13
TORSDOF 2
ENDMDL
MODEL       13
REMARK 921   NORMALIZED FREE ENERGY PREDICTED BY IDOCK:   -5.03 KCAL/MOL
REMARK 922        TOTAL FREE ENERGY PREDICTED BY IDOCK:   -5.85 KCAL/MOL
REMARK 923 INTER-LIGAND FREE ENERGY PREDICTED BY IDOCK:   -5.60 KCAL/MOL
REMARK 924 INTRA-LIGAND FREE ENERGY PREDICTED BY IDOCK:   -0.25 KCAL/MOL
REMARK 927      BINDING AFFINITY PREDICTED BY RF-SCORE:    0.00 PKD
ROOT
HETATM    1  C   UNL     1     -12.146  14.253  69.653  1.00  0.00    -0.346 C  
HETATM    2  N   UNL     1     -11.862  13.386  68.525  1.00  0.00    -0.353 NA 
HETATM    3  N   UNL     1     -12.159  13.918  67.275  1.00  0.00    -0.400 NA 
HETATM    4  C   UNL     1     -11.821  13.050  66.359  1.00  0.00    -0.405 C  
HETATM    5  S   UNL     1     -11.136  11.538  66.902  1.00  0.00    -0.293 SA 
HETATM    6  C   UNL     1     -11.304  12.117  68.576  1.00  0.00    -0.275 C  
ENDROOT
BRANCH   4   7
HETATM    7  S   UNL     1     -12.047  13.402  64.631  1.00  0.00    -0.423 S  
HETATM    8  O   UNL     1     -12.580  14.744  64.553  1.00  0.00    -0.574 OA 
HETATM    9  N   UNL     1     -10.523  13.452  63.899  1.00  0.00    -0.466 N  
HETATM   10  O   UNL     1     -12.730  12.256  64.068  1.00  0.00    -0.635 OA 
HETATM   11  H1  UNL     1     -10.653  13.654  62.907  1.00  0.00     0.000 HD 
HETATM   12  H2  UNL     1      -9.629  13.306  64.367  1.00  0.00     0.000 HD 
ENDBRANCH   4   7
BRANCH   6  13
HETATM   13  N   UNL     1     -10.875  11.250  69.409  1.00  0.00    -0.365 N  
HETATM   14  H   UNL     1      -9.866  11.095  69.438  1.00  0.00     0.000 HD 
HETATM   15  C   UNL     1     -11.637  10.515  70.260  1.00  0.00    -0.332 C  
HETATM   16  C   UNL     1     -10.795   9.601  71.122  1.00  0.00    -0.404 C  
HETATM   17  O   UNL     1     -12.858  10.528  70.358  1.00  0.00    -0.331 OA 
ENDBRANCH   6  13
TORSDOF 2
ENDMDL
MODEL       14
REMARK 921   NORMALIZED FREE ENERGY PREDICTED BY IDOCK:   -5.03 KCAL/MOL
REMARK 922        TOTAL FREE ENERGY PREDICTED BY IDOCK:   -5.85 KCAL/MOL
REMARK 923 INTER-LIGAND FREE ENERGY PREDICTED BY IDOCK:   -5.61 KCAL/MOL
REMARK 924 INTRA-LIGAND FREE ENERGY PREDICTED BY IDOCK:   -0.24 KCAL/MOL
REMARK 927      BINDING AFFINITY PREDICTED BY RF-SCORE:    0.00 PKD
ROOT
HETATM    1  C   UNL     1     -11.924  13.208  69.058  1.00  0.00    -0.285 C  
HETATM    2  N   UNL     1     -11.370  14.521  68.780  1.00  0.00    -0.260 NA 
HETATM    3  N   UNL     1     -11.038  14.759  67.451  1.00  0.00    -0.314 NA 
HETATM    4  C   UNL     1     -10.590  15.981  67.344  1.00  0.00    -0.316 C  
HETATM    5  S   UNL     1     -10.519  16.939  68.803  1.00  0.00    -0.353 SA 
HETATM    6  C   UNL     1     -11.177  15.547  69.693  1.00  0.00    -0.300 C  
ENDROOT
BRANCH   4   7
HETATM    7  S   UNL     1     -10.080  16.638  65.772  1.00  0.00    -0.228 S  
HETATM    8  O   UNL     1      -8.664  16.368  65.656  1.00  0.00    -0.372 OA 
HETATM    9  N   UNL     1     -10.837  15.740  64.555  1.00  0.00    -0.611 N  
HETATM   10  O   UNL     1     -10.631  17.974  65.692  1.00  0.00    -0.599 OA 
HETATM   11  H1  UNL     1     -10.544  16.117  63.653  1.00  0.00     0.000 HD 
HETATM   12  H2  UNL     1     -11.475  14.957  64.697  1.00  0.00     0.000 HD 
ENDBRANCH   4   7
BRANCH   6  13
HETATM   13  N   UNL     1     -11.320  15.819  70.932  1.00  0.00    -0.362 N  
HETATM   14  H   UNL     1     -10.471  16.012  71.466  1.00  0.00     0.000 HD 
HETATM   15  C   UNL     1     -12.498  15.876  71.606  1.00  0.00    -0.446 C  
HETATM   16  C   UNL     1     -12.297  16.250  73.058  1.00  0.00    -0.581 C  
HETATM   17  O   UNL     1     -13.616  15.649  71.160  1.00  0.00    -0.582 OA 
ENDBRANCH   6  13
TORSDOF 2
ENDMDL
MODEL       15
REMARK 921   NORMALIZED FREE ENERGY PREDICTED BY IDOCK:   -5.01 KCAL/MOL
REMARK 922        TOTAL FREE ENERGY PREDICTED BY IDOCK:   -5.83 KCAL/MOL
REMARK 923 INTER-LIGAND FREE ENERGY PREDICTED BY IDOCK:   -5.59 KCAL/MOL
REMARK 924 INTRA-LIGAND FREE ENERGY PREDICTED BY IDOCK:   -0.24 KCAL/MOL
REMARK 927      BINDING AFFINITY PREDICTED BY RF-SCORE:    0.00 PKD
ROOT
HETATM    1  C   UNL     1     -11.265  10.483  68.282  1.00  0.00    -0.291 C  
HETATM    2  N   UNL     1     -11.516  11.903  68.441  1.00  0.00    -0.273 NA 
HETATM    3  N   UNL     1     -11.939  12.296  69.706  1.00  0.00    -0.313 NA 
HETATM    4  C   UNL     1     -12.090  13.593  69.713  1.00  0.00    -0.334 C  
HETATM    5  S   UNL     1     -11.753  14.447  68.227  1.00  0.00    -0.336 SA 
HETATM    6  C   UNL     1     -11.346  12.887  67.477  1.00  0.00    -0.308 C  
ENDROOT
BRANCH   4   7
HETATM    7  S   UNL     1     -12.613  14.449  71.181  1.00  0.00    -0.376 S  
HETATM    8  O   UNL     1     -11.518  15.313  71.563  1.00  0.00    -0.355 OA 
HETATM    9  N   UNL     1     -13.900  15.466  70.769  1.00  0.00    -0.860 N  
HETATM   10  O   UNL     1     -13.160  13.442  72.066  1.00  0.00    -0.373 OA 
HETATM   11  H1  UNL     1     -14.200  15.957  71.611  1.00  0.00     0.000 HD 
HETATM   12  H2  UNL     1     -14.306  15.571  69.839  1.00  0.00     0.000 HD 
ENDBRANCH   4   7
BRANCH   6  13
HETATM   13  N   UNL     1     -10.994  13.039  66.260  1.00  0.00    -0.281 N  
HETATM   14  H   UNL     1     -10.012  13.255  66.084  1.00  0.00     0.000 HD 
HETATM   15  C   UNL     1     -11.807  12.939  65.176  1.00  0.00    -0.380 C  
HETATM   16  C   UNL     1     -11.050  13.154  63.884  1.00  0.00    -0.345 C  
HETATM   17  O   UNL     1     -13.012  12.719  65.174  1.00  0.00    -0.768 OA 
ENDBRANCH   6  13
TORSDOF 2
ENDMDL
MODEL       16
REMARK 921   NORMALIZED FREE ENERGY PREDICTED BY IDOCK:   -4.99 KCAL/MOL
REMARK 922        TOTAL FREE ENERGY PREDICTED BY IDOCK:   -5.81 KCAL/MOL
REMARK 923 INTER-LIGAND FREE ENERGY PREDICTED BY IDOCK:   -5.56 KCAL/MOL
REMARK 924 INTRA-LIGAND FREE ENERGY PREDICTED BY IDOCK:   -0.25 KCAL/MOL
REMARK 927      BINDING AFFINITY PREDICTED BY RF-SCORE:    0.00 PKD
ROOT
HETATM    1  C   UNL     1     -13.065   9.480  71.658  1.00  0.00    -0.401 C  
HETATM    2  N   UNL     1     -12.709  10.745  71.042  1.00  0.00    -0.390 NA 
HETATM    3  N   UNL     1     -12.989  11.876  71.801  1.00  0.00    -0.399 NA 
HETATM    4  C   UNL     1     -12.586  12.931  71.143  1.00  0.00    -0.281 C  
HETATM    5  S   UNL     1     -11.853  12.669  69.580  1.00  0.00    -0.277 SA 
HETATM    6  C   UNL     1     -12.099  10.923  69.809  1.00  0.00    -0.338 C  
ENDROOT
BRANCH   4   7
HETATM    7  S   UNL     1     -12.773  14.564  71.823  1.00  0.00    -0.360 S  
HETATM    8  O   UNL     1     -11.442  15.122  71.920  1.00  0.00    -0.408 OA 
HETATM    9  N   UNL     1     -13.604  15.512  70.695  1.00  0.00    -0.849 N  
HETATM   10  O   UNL     1     -13.650  14.431  72.966  1.00  0.00    -0.619 OA 
HETATM   11  H1  UNL     1     -13.712  16.449  71.085  1.00  0.00     0.000 HD 
HETATM   12  H2  UNL     1     -13.941  15.201  69.784  1.00  0.00     0.000 HD 
ENDBRANCH   4   7
BRANCH   6  13
HETATM   13  N   UNL     1     -11.659  10.260  68.811  1.00  0.00    -0.512 N  
HETATM   14  H   UNL     1     -12.194  10.318  67.943  1.00  0.00     0.000 HD 
HETATM   15  C   UNL     1     -10.542   9.486  68.797  1.00  0.00    -0.214 C  
HETATM   16  C   UNL     1     -10.306   8.866  67.437  1.00  0.00    -0.337 C  
HETATM   17  O   UNL     1      -9.786   9.263  69.734  1.00  0.00    -0.171 OA 
ENDBRANCH   6  13
TORSDOF 2
ENDMDL
MODEL       17
REMARK 921   NORMALIZED FREE ENERGY PREDICTED BY IDOCK:   -4.98 KCAL/MOL
REMARK 922        TOTAL FREE ENERGY PREDICTED BY IDOCK:   -5.80 KCAL/MOL
REMARK 923 INTER-LIGAND FREE ENERGY PREDICTED BY IDOCK:   -5.55 KCAL/MOL
REMARK 924 INTRA-LIGAND FREE ENERGY PREDICTED BY IDOCK:   -0.25 KCAL/MOL
REMARK 927      BINDING AFFINITY PREDICTED BY RF-SCORE:    0.00 PKD
ROOT
HETATM    1  C   UNL     1     -10.653  19.237  65.582  1.00  0.00    -0.258 C  
HETATM    2  N   UNL     1     -10.212  17.869  65.778  1.00  0.00    -0.608 NA 
HETATM    3  N   UNL     1     -11.028  16.893  65.217  1.00  0.00    -0.407 NA 
HETATM    4  C   UNL     1     -10.493  15.722  65.438  1.00  0.00    -0.414 C  
HETATM    5  S   UNL     1      -8.992  15.682  66.330  1.00  0.00    -0.323 SA 
HETATM    6  C   UNL     1      -9.058  17.457  66.429  1.00  0.00    -0.248 C  
ENDROOT
BRANCH   4   7
HETATM    7  S   UNL     1     -11.265  14.233  64.848  1.00  0.00    -0.395 S  
HETATM    8  O   UNL     1     -12.078  13.734  65.935  1.00  0.00    -0.381 OA 
HETATM    9  N   UNL     1     -12.335  14.650  63.606  1.00  0.00    -1.089 N  
HETATM   10  O   UNL     1     -10.216  13.448  64.232  1.00  0.00    -0.387 OA 
HETATM   11  H1  UNL     1     -12.778  13.796  63.267  1.00  0.00     0.000 HD 
HETATM   12  H2  UNL     1     -12.508  15.593  63.256  1.00  0.00     0.000 HD 
ENDBRANCH   4   7
BRANCH   6  13
HETATM   13  N   UNL     1      -8.048  17.921  67.056  1.00  0.00    -0.215 N  
HETATM   14  H   UNL     1      -8.007  17.751  68.062  1.00  0.00     0.000 HD 
HETATM   15  C   UNL     1      -7.021  18.622  66.507  1.00  0.00    -0.215 C  
HETATM   16  C   UNL     1      -5.981  18.996  67.539  1.00  0.00    -0.186 C  
HETATM   17  O   UNL     1      -6.898  18.956  65.335  1.00  0.00    -0.424 OA 
ENDBRANCH   6  13
TORSDOF 2
ENDMDL
MODEL       18
REMARK 921   NORMALIZED FREE ENERGY PREDICTED BY IDOCK:   -4.94 KCAL/MOL
REMARK 922        TOTAL FREE ENERGY PREDICTED BY IDOCK:   -5.75 KCAL/MOL
REMARK 923 INTER-LIGAND FREE ENERGY PREDICTED BY IDOCK:   -5.51 KCAL/MOL
REMARK 924 INTRA-LIGAND FREE ENERGY PREDICTED BY IDOCK:   -0.24 KCAL/MOL
REMARK 927      BINDING AFFINITY PREDICTED BY RF-SCORE:    0.00 PKD
ROOT
HETATM    1  C   UNL     1     -11.165  11.110  68.327  1.00  0.00    -0.279 C  
HETATM    2  N   UNL     1     -11.815  11.405  69.591  1.00  0.00    -0.331 NA 
HETATM    3  N   UNL     1     -11.881  12.752  69.928  1.00  0.00    -0.326 NA 
HETATM    4  C   UNL     1     -12.519  12.869  71.061  1.00  0.00    -0.283 C  
HETATM    5  S   UNL     1     -13.083  11.400  71.819  1.00  0.00    -0.299 SA 
HETATM    6  C   UNL     1     -12.394  10.488  70.457  1.00  0.00    -0.343 C  
ENDROOT
BRANCH   4   7
HETATM    7  S   UNL     1     -12.804  14.464  71.795  1.00  0.00    -0.366 S  
HETATM    8  O   UNL     1     -11.511  15.105  71.896  1.00  0.00    -0.408 OA 
HETATM    9  N   UNL     1     -13.709  15.391  70.707  1.00  0.00    -0.845 N  
HETATM   10  O   UNL     1     -13.656  14.238  72.942  1.00  0.00    -0.624 OA 
HETATM   11  H1  UNL     1     -13.873  16.306  71.128  1.00  0.00     0.000 HD 
HETATM   12  H2  UNL     1     -14.036  15.088  69.790  1.00  0.00     0.000 HD 
ENDBRANCH   4   7
BRANCH   6  13
HETATM   13  N   UNL     1     -12.596   9.235  70.592  1.00  0.00    -0.496 N  
HETATM   14  H   UNL     1     -13.526   8.887  70.354  1.00  0.00     0.000 HD 
HETATM   15  C   UNL     1     -11.687   8.322  71.024  1.00  0.00    -0.270 C  
HETATM   16  C   UNL     1     -12.261   6.923  71.039  1.00  0.00    -0.427 C  
HETATM   17  O   UNL     1     -10.537   8.538  71.385  1.00  0.00    -0.215 OA 
ENDBRANCH   6  13
TORSDOF 2
ENDMDL
MODEL       19
REMARK 921   NORMALIZED FREE ENERGY PREDICTED BY IDOCK:   -4.82 KCAL/MOL
REMARK 922        TOTAL FREE ENERGY PREDICTED BY IDOCK:   -5.61 KCAL/MOL
REMARK 923 INTER-LIGAND FREE ENERGY PREDICTED BY IDOCK:   -5.38 KCAL/MOL
REMARK 924 INTRA-LIGAND FREE ENERGY PREDICTED BY IDOCK:   -0.23 KCAL/MOL
REMARK 927      BINDING AFFINITY PREDICTED BY RF-SCORE:    0.00 PKD
ROOT
HETATM    1  C   UNL     1     -11.048  11.948  68.812  1.00  0.00    -0.245 C  
HETATM    2  N   UNL     1     -11.439  13.199  69.433  1.00  0.00    -0.272 NA 
HETATM    3  N   UNL     1     -12.257  13.080  70.551  1.00  0.00    -0.354 NA 
HETATM    4  C   UNL     1     -12.497  14.273  71.024  1.00  0.00    -0.362 C  
HETATM    5  S   UNL     1     -11.782  15.627  70.183  1.00  0.00    -0.378 SA 
HETATM    6  C   UNL     1     -11.052  14.474  69.044  1.00  0.00    -0.262 C  
ENDROOT
BRANCH   4   7
HETATM    7  S   UNL     1     -13.507  14.503  72.470  1.00  0.00    -0.510 S  
HETATM    8  O   UNL     1     -14.103  13.217  72.761  1.00  0.00    -0.691 OA 
HETATM    9  N   UNL     1     -12.490  14.861  73.773  1.00  0.00    -0.500 N  
HETATM   10  O   UNL     1     -14.295  15.693  72.231  1.00  0.00    -0.539 OA 
HETATM   11  H1  UNL     1     -13.069  14.993  74.602  1.00  0.00     0.000 HD 
HETATM   12  H2  UNL     1     -11.473  14.934  73.736  1.00  0.00     0.000 HD 
ENDBRANCH   4   7
BRANCH   6  13
HETATM   13  N   UNL     1     -10.355  15.077  68.161  1.00  0.00    -0.237 N  
HETATM   14  H   UNL     1      -9.575  15.646  68.494  1.00  0.00     0.000 HD 
HETATM   15  C   UNL     1     -10.555  15.031  66.818  1.00  0.00    -0.301 C  
HETATM   16  C   UNL     1      -9.525  15.847  66.069  1.00  0.00    -0.389 C  
HETATM   17  O   UNL     1     -11.445  14.437  66.223  1.00  0.00    -0.342 OA 
ENDBRANCH   6  13
TORSDOF 2
ENDMDL
MODEL       20
REMARK 921   NORMALIZED FREE ENERGY PREDICTED BY IDOCK:   -4.82 KCAL/MOL
REMARK 922        TOTAL FREE ENERGY PREDICTED BY IDOCK:   -5.61 KCAL/MOL
REMARK 923 INTER-LIGAND FREE ENERGY PREDICTED BY IDOCK:   -5.39 KCAL/MOL
REMARK 924 INTRA-LIGAND FREE ENERGY PREDICTED BY IDOCK:   -0.22 KCAL/MOL
REMARK 927      BINDING AFFINITY PREDICTED BY RF-SCORE:    0.00 PKD
ROOT
HETATM    1  C   UNL     1     -12.025  11.049  69.300  1.00  0.00    -0.339 C  
HETATM    2  N   UNL     1     -11.539  11.157  67.938  1.00  0.00    -0.540 NA 
HETATM    3  N   UNL     1     -12.145  12.141  67.165  1.00  0.00    -0.532 NA 
HETATM    4  C   UNL     1     -11.587  12.148  65.984  1.00  0.00    -0.358 C  
HETATM    5  S   UNL     1     -10.311  10.991  65.693  1.00  0.00    -0.234 SA 
HETATM    6  C   UNL     1     -10.525  10.408  67.359  1.00  0.00    -0.249 C  
ENDROOT
BRANCH   4   7
HETATM    7  S   UNL     1     -12.106  13.296  64.729  1.00  0.00    -0.433 S  
HETATM    8  O   UNL     1     -13.241  14.010  65.272  1.00  0.00    -0.782 OA 
HETATM    9  N   UNL     1     -10.879  14.442  64.522  1.00  0.00    -0.614 N  
HETATM   10  O   UNL     1     -12.173  12.546  63.493  1.00  0.00    -0.504 OA 
HETATM   11  H1  UNL     1     -11.176  15.101  63.802  1.00  0.00     0.000 HD 
HETATM   12  H2  UNL     1      -9.994  14.469  65.028  1.00  0.00     0.000 HD 
ENDBRANCH   4   7
BRANCH   6  13
HETATM   13  N   UNL     1      -9.707   9.464  67.625  1.00  0.00    -0.150 N  
HETATM   14  H   UNL     1      -8.814   9.727  68.044  1.00  0.00     0.000 HD 
HETATM   15  C   UNL     1      -9.917   8.140  67.402  1.00  0.00    -0.209 C  
HETATM   16  C   UNL     1      -8.746   7.300  67.861  1.00  0.00    -0.123 C  
HETATM   17  O   UNL     1     -10.901   7.625  66.885  1.00  0.00    -0.328 OA 
ENDBRANCH   6  13
TORSDOF 2
ENDMDL
MODEL       21
REMARK 921   NORMALIZED FREE ENERGY PREDICTED BY IDOCK:   -4.80 KCAL/MOL
REMARK 922        TOTAL FREE ENERGY PREDICTED BY IDOCK:   -5.59 KCAL/MOL
REMARK 923 INTER-LIGAND FREE ENERGY PREDICTED BY IDOCK:   -5.36 KCAL/MOL
REMARK 924 INTRA-LIGAND FREE ENERGY PREDICTED BY IDOCK:   -0.23 KCAL/MOL
REMARK 927      BINDING AFFINITY PREDICTED BY RF-SCORE:    0.00 PKD
ROOT
HETATM    1  C   UNL     1     -12.212  12.527  63.635  1.00  0.00    -0.550 C  
HETATM    2  N   UNL     1     -11.318  13.173  64.578  1.00  0.00    -0.334 NA 
HETATM    3  N   UNL     1     -11.281  14.561  64.510  1.00  0.00    -0.334 NA 
HETATM    4  C   UNL     1     -10.470  15.004  65.433  1.00  0.00    -0.384 C  
HETATM    5  S   UNL     1      -9.683  13.818  66.445  1.00  0.00    -0.281 SA 
HETATM    6  C   UNL     1     -10.539  12.548  65.541  1.00  0.00    -0.275 C  
ENDROOT
BRANCH   4   7
HETATM    7  S   UNL     1     -10.187  16.747  65.648  1.00  0.00    -0.166 S  
HETATM    8  O   UNL     1     -10.945  17.415  64.614  1.00  0.00    -0.959 OA 
HETATM    9  N   UNL     1     -10.876  17.215  67.120  1.00  0.00    -0.161 N  
HETATM   10  O   UNL     1      -8.757  16.911  65.799  1.00  0.00    -0.512 OA 
HETATM   11  H1  UNL     1     -10.714  18.214  67.244  1.00  0.00     0.000 HD 
HETATM   12  H2  UNL     1     -11.368  16.604  67.772  1.00  0.00     0.000 HD 
ENDBRANCH   4   7
BRANCH   6  13
HETATM   13  N   UNL     1     -10.247  11.388  65.987  1.00  0.00    -0.236 N  
HETATM   14  H   UNL     1      -9.472  10.899  65.537  1.00  0.00     0.000 HD 
HETATM   15  C   UNL     1     -10.872  10.745  67.008  1.00  0.00    -0.252 C  
HETATM   16  C   UNL     1     -10.248   9.396  67.288  1.00  0.00    -0.308 C  
HETATM   17  O   UNL     1     -11.833  11.143  67.654  1.00  0.00    -0.612 OA 
ENDBRANCH   6  13
TORSDOF 2
ENDMDL
MODEL       22
REMARK 921   NORMALIZED FREE ENERGY PREDICTED BY IDOCK:   -4.79 KCAL/MOL
REMARK 922        TOTAL FREE ENERGY PREDICTED BY IDOCK:   -5.58 KCAL/MOL
REMARK 923 INTER-LIGAND FREE ENERGY PREDICTED BY IDOCK:   -5.34 KCAL/MOL
REMARK 924 INTRA-LIGAND FREE ENERGY PREDICTED BY IDOCK:   -0.24 KCAL/MOL
REMARK 927      BINDING AFFINITY PREDICTED BY RF-SCORE:    0.00 PKD
ROOT
HETATM    1  C   UNL     1     -11.782  14.762  68.083  1.00  0.00    -0.325 C  
HETATM    2  N   UNL     1     -11.761  13.331  68.320  1.00  0.00    -0.333 NA 
HETATM    3  N   UNL     1     -12.115  12.934  69.605  1.00  0.00    -0.266 NA 
HETATM    4  C   UNL     1     -12.088  11.630  69.663  1.00  0.00    -0.280 C  
HETATM    5  S   UNL     1     -11.637  10.772  68.209  1.00  0.00    -0.124 SA 
HETATM    6  C   UNL     1     -11.460  12.343  67.394  1.00  0.00    -0.352 C  
ENDROOT
BRANCH   4   7
HETATM    7  S   UNL     1     -12.501  10.768  71.162  1.00  0.00    -0.422 S  
HETATM    8  O   UNL     1     -13.160  11.728  72.018  1.00  0.00    -0.467 OA 
HETATM    9  N   UNL     1     -13.656   9.589  70.792  1.00  0.00    -0.568 N  
HETATM   10  O   UNL     1     -11.307  10.053  71.563  1.00  0.00    -0.301 OA 
HETATM   11  H1  UNL     1     -13.893   9.094  71.652  1.00  0.00     0.000 HD 
HETATM   12  H2  UNL     1     -14.048   9.404  69.869  1.00  0.00     0.000 HD 
ENDBRANCH   4   7
BRANCH   6  13
HETATM   13  N   UNL     1     -11.113  12.192  66.174  1.00  0.00    -0.298 N  
HETATM   14  H   UNL     1     -10.206  11.758  66.000  1.00  0.00     0.000 HD 
HETATM   15  C   UNL     1     -11.842  12.557  65.087  1.00  0.00    -0.405 C  
HETATM   16  C   UNL     1     -11.136  12.207  63.796  1.00  0.00    -0.505 C  
HETATM   17  O   UNL     1     -12.932  13.115  65.081  1.00  0.00    -0.695 OA 
ENDBRANCH   6  13
TORSDOF 2
ENDMDL
MODEL       23
REMARK 921   NORMALIZED FREE ENERGY PREDICTED BY IDOCK:   -4.75 KCAL/MOL
REMARK 922        TOTAL FREE ENERGY PREDICTED BY IDOCK:   -5.54 KCAL/MOL
REMARK 923 INTER-LIGAND FREE ENERGY PREDICTED BY IDOCK:   -5.30 KCAL/MOL
REMARK 924 INTRA-LIGAND FREE ENERGY PREDICTED BY IDOCK:   -0.24 KCAL/MOL
REMARK 927      BINDING AFFINITY PREDICTED BY RF-SCORE:    0.00 PKD
ROOT
HETATM    1  C   UNL     1      -9.190  13.385  67.155  1.00  0.00    -0.240 C  
HETATM    2  N   UNL     1      -9.769  14.536  66.488  1.00  0.00    -0.273 NA 
HETATM    3  N   UNL     1      -9.509  15.764  67.086  1.00  0.00    -0.211 NA 
HETATM    4  C   UNL     1     -10.056  16.705  66.364  1.00  0.00    -0.315 C  
HETATM    5  S   UNL     1     -10.925  16.213  64.930  1.00  0.00    -0.218 SA 
HETATM    6  C   UNL     1     -10.513  14.527  65.317  1.00  0.00    -0.390 C  
ENDROOT
BRANCH   4   7
HETATM    7  S   UNL     1      -9.914  18.417  66.825  1.00  0.00    -0.383 S  
HETATM    8  O   UNL     1     -10.104  18.473  68.257  1.00  0.00    -0.354 OA 
HETATM    9  N   UNL     1      -8.321  18.909  66.538  1.00  0.00    -0.294 N  
HETATM   10  O   UNL     1     -10.740  19.158  65.896  1.00  0.00    -0.454 OA 
HETATM   11  H1  UNL     1      -8.239  19.891  66.802  1.00  0.00     0.000 HD 
HETATM   12  H2  UNL     1      -7.572  18.326  66.165  1.00  0.00     0.000 HD 
ENDBRANCH   4   7
BRANCH   6  13
HETATM   13  N   UNL     1     -10.984  13.725  64.442  1.00  0.00    -0.542 N  
HETATM   14  H   UNL     1     -10.637  13.826  63.487  1.00  0.00     0.000 HD 
HETATM   15  C   UNL     1     -11.903  12.750  64.665  1.00  0.00    -0.374 C  
HETATM   16  C   UNL     1     -12.214  11.973  63.405  1.00  0.00    -0.627 C  
HETATM   17  O   UNL     1     -12.461  12.489  65.723  1.00  0.00    -0.626 OA 
ENDBRANCH   6  13
TORSDOF 2
ENDMDL
MODEL       24
REMARK 921   NORMALIZED FREE ENERGY PREDICTED BY IDOCK:   -4.74 KCAL/MOL
REMARK 922        TOTAL FREE ENERGY PREDICTED BY IDOCK:   -5.53 KCAL/MOL
REMARK 923 INTER-LIGAND FREE ENERGY PREDICTED BY IDOCK:   -5.31 KCAL/MOL
REMARK 924 INTRA-LIGAND FREE ENERGY PREDICTED BY IDOCK:   -0.22 KCAL/MOL
REMARK 927      BINDING AFFINITY PREDICTED BY RF-SCORE:    0.00 PKD
ROOT
HETATM    1  C   UNL     1     -12.714  13.757  70.991  1.00  0.00    -0.343 C  
HETATM    2  N   UNL     1     -12.336  12.371  70.783  1.00  0.00    -0.356 NA 
HETATM    3  N   UNL     1     -12.942  11.454  71.634  1.00  0.00    -0.453 NA 
HETATM    4  C   UNL     1     -12.540  10.254  71.309  1.00  0.00    -0.418 C  
HETATM    5  S   UNL     1     -11.413  10.117  69.982  1.00  0.00    -0.270 SA 
HETATM    6  C   UNL     1     -11.472  11.887  69.811  1.00  0.00    -0.229 C  
ENDROOT
BRANCH   4   7
HETATM    7  S   UNL     1     -13.126   8.821  72.185  1.00  0.00    -0.422 S  
HETATM    8  O   UNL     1     -14.278   9.249  72.946  1.00  0.00    -0.465 OA 
HETATM    9  N   UNL     1     -13.694   7.704  71.048  1.00  0.00    -0.616 N  
HETATM   10  O   UNL     1     -11.963   8.217  72.800  1.00  0.00    -0.365 OA 
HETATM   11  H1  UNL     1     -14.030   6.882  71.550  1.00  0.00     0.000 HD 
HETATM   12  H2  UNL     1     -13.700   7.830  70.036  1.00  0.00     0.000 HD 
ENDBRANCH   4   7
BRANCH   6  13
HETATM   13  N   UNL     1     -10.727  12.282  68.853  1.00  0.00    -0.344 N  
HETATM   14  H   UNL     1      -9.780  12.576  69.092  1.00  0.00     0.000 HD 
HETATM   15  C   UNL     1     -11.081  12.346  67.543  1.00  0.00    -0.266 C  
HETATM   16  C   UNL     1      -9.942  12.838  66.677  1.00  0.00    -0.246 C  
HETATM   17  O   UNL     1     -12.171  12.070  67.057  1.00  0.00    -0.516 OA 
ENDBRANCH   6  13
TORSDOF 2
ENDMDL
MODEL       25
REMARK 921   NORMALIZED FREE ENERGY PREDICTED BY IDOCK:   -4.72 KCAL/MOL
REMARK 922        TOTAL FREE ENERGY PREDICTED BY IDOCK:   -5.50 KCAL/MOL
REMARK 923 INTER-LIGAND FREE ENERGY PREDICTED BY IDOCK:   -5.26 KCAL/MOL
REMARK 924 INTRA-LIGAND FREE ENERGY PREDICTED BY IDOCK:   -0.24 KCAL/MOL
REMARK 927      BINDING AFFINITY PREDICTED BY RF-SCORE:    0.00 PKD
ROOT
HETATM    1  C   UNL     1      -8.879  10.206  69.047  1.00  0.00    -0.166 C  
HETATM    2  N   UNL     1     -10.172  10.266  69.702  1.00  0.00    -0.238 NA 
HETATM    3  N   UNL     1     -10.508   9.150  70.461  1.00  0.00    -0.218 NA 
HETATM    4  C   UNL     1     -11.671   9.357  71.018  1.00  0.00    -0.323 C  
HETATM    5  S   UNL     1     -12.461  10.878  70.682  1.00  0.00    -0.373 SA 
HETATM    6  C   UNL     1     -11.069  11.324  69.668  1.00  0.00    -0.206 C  
ENDROOT
BRANCH   4   7
HETATM    7  S   UNL     1     -12.413   8.137  72.078  1.00  0.00    -0.334 S  
HETATM    8  O   UNL     1     -11.405   7.772  73.049  1.00  0.00    -0.399 OA 
HETATM    9  N   UNL     1     -13.661   8.879  72.944  1.00  0.00    -0.906 N  
HETATM   10  O   UNL     1     -13.044   7.170  71.205  1.00  0.00    -0.384 OA 
HETATM   11  H1  UNL     1     -14.087   8.179  73.552  1.00  0.00     0.000 HD 
HETATM   12  H2  UNL     1     -13.941   9.858  72.872  1.00  0.00     0.000 HD 
ENDBRANCH   4   7
BRANCH   6  13
HETATM   13  N   UNL     1     -11.219  12.488  69.167  1.00  0.00    -0.338 N  
HETATM   14  H   UNL     1     -10.969  13.283  69.757  1.00  0.00     0.000 HD 
HETATM   15  C   UNL     1     -11.679  12.766  67.919  1.00  0.00    -0.357 C  
HETATM   16  C   UNL     1     -11.703  14.254  67.648  1.00  0.00    -0.421 C  
HETATM   17  O   UNL     1     -12.056  11.964  67.075  1.00  0.00    -0.600 OA 
ENDBRANCH   6  13
TORSDOF 2
ENDMDL
MODEL       26
REMARK 921   NORMALIZED FREE ENERGY PREDICTED BY IDOCK:   -4.71 KCAL/MOL
REMARK 922        TOTAL FREE ENERGY PREDICTED BY IDOCK:   -5.49 KCAL/MOL
REMARK 923 INTER-LIGAND FREE ENERGY PREDICTED BY IDOCK:   -5.25 KCAL/MOL
REMARK 924 INTRA-LIGAND FREE ENERGY PREDICTED BY IDOCK:   -0.24 KCAL/MOL
REMARK 927      BINDING AFFINITY PREDICTED BY RF-SCORE:    0.00 PKD
ROOT
HETATM    1  C   UNL     1     -10.759  12.580  67.675  1.00  0.00    -0.218 C  
HETATM    2  N   UNL     1     -11.421  12.338  68.943  1.00  0.00    -0.280 NA 
HETATM    3  N   UNL     1     -11.858  13.475  69.614  1.00  0.00    -0.319 NA 
HETATM    4  C   UNL     1     -12.463  13.107  70.711  1.00  0.00    -0.308 C  
HETATM    5  S   UNL     1     -12.556  11.394  71.039  1.00  0.00    -0.335 SA 
HETATM    6  C   UNL     1     -11.682  11.103  69.518  1.00  0.00    -0.335 C  
ENDROOT
BRANCH   4   7
HETATM    7  S   UNL     1     -13.167  14.306  71.819  1.00  0.00    -0.394 S  
HETATM    8  O   UNL     1     -12.066  15.106  72.310  1.00  0.00    -0.347 OA 
HETATM    9  N   UNL     1     -14.146  15.349  70.916  1.00  0.00    -0.864 N  
HETATM   10  O   UNL     1     -14.055  13.576  72.698  1.00  0.00    -0.762 OA 
HETATM   11  H1  UNL     1     -14.550  16.037  71.551  1.00  0.00     0.000 HD 
HETATM   12  H2  UNL     1     -14.305  15.299  69.909  1.00  0.00     0.000 HD 
ENDBRANCH   4   7
BRANCH   6  13
HETATM   13  N   UNL     1     -11.512   9.854  69.316  1.00  0.00    -0.452 N  
HETATM   14  H   UNL     1     -12.303   9.333  68.935  1.00  0.00     0.000 HD 
HETATM   15  C   UNL     1     -10.374   9.153  69.562  1.00  0.00    -0.215 C  
HETATM   16  C   UNL     1     -10.518   7.696  69.182  1.00  0.00    -0.220 C  
HETATM   17  O   UNL     1      -9.333   9.581  70.043  1.00  0.00    -0.201 OA 
ENDBRANCH   6  13
TORSDOF 2
ENDMDL
MODEL       27
REMARK 921   NORMALIZED FREE ENERGY PREDICTED BY IDOCK:   -4.70 KCAL/MOL
REMARK 922        TOTAL FREE ENERGY PREDICTED BY IDOCK:   -5.48 KCAL/MOL
REMARK 923 INTER-LIGAND FREE ENERGY PREDICTED BY IDOCK:   -5.24 KCAL/MOL
REMARK 924 INTRA-LIGAND FREE ENERGY PREDICTED BY IDOCK:   -0.24 KCAL/MOL
REMARK 927      BINDING AFFINITY PREDICTED BY RF-SCORE:    0.00 PKD
ROOT
HETATM    1  C   UNL     1     -10.057  10.005  67.229  1.00  0.00    -0.209 C  
HETATM    2  N   UNL     1     -10.338  10.706  65.990  1.00  0.00    -0.245 NA 
HETATM    3  N   UNL     1     -11.010  11.915  66.128  1.00  0.00    -0.297 NA 
HETATM    4  C   UNL     1     -11.161  12.447  64.945  1.00  0.00    -0.303 C  
HETATM    5  S   UNL     1     -10.529  11.560  63.580  1.00  0.00    -0.440 SA 
HETATM    6  C   UNL     1      -9.975  10.305  64.712  1.00  0.00    -0.321 C  
ENDROOT
BRANCH   4   7
HETATM    7  S   UNL     1     -11.973  14.016  64.740  1.00  0.00    -0.440 S  
HETATM    8  O   UNL     1     -10.984  15.030  65.030  1.00  0.00    -0.373 OA 
HETATM    9  N   UNL     1     -12.372  14.195  63.105  1.00  0.00    -1.046 N  
HETATM   10  O   UNL     1     -13.228  13.921  65.455  1.00  0.00    -0.750 OA 
HETATM   11  H1  UNL     1     -12.838  15.094  62.988  1.00  0.00     0.000 HD 
HETATM   12  H2  UNL     1     -12.180  13.519  62.365  1.00  0.00     0.000 HD 
ENDBRANCH   4   7
BRANCH   6  13
HETATM   13  N   UNL     1      -9.383   9.357  64.095  1.00  0.00    -0.398 N  
HETATM   14  H   UNL     1      -9.972   8.646  63.661  1.00  0.00     0.000 HD 
HETATM   15  C   UNL     1      -8.038   9.208  63.965  1.00  0.00    -0.151 C  
HETATM   16  C   UNL     1      -7.686   7.984  63.150  1.00  0.00    -0.139 C  
HETATM   17  O   UNL     1      -7.166   9.929  64.434  1.00  0.00    -0.125 OA 
ENDBRANCH   6  13
TORSDOF 2
ENDMDL
MODEL       28
REMARK 921   NORMALIZED FREE ENERGY PREDICTED BY IDOCK:   -4.70 KCAL/MOL
REMARK 922        TOTAL FREE ENERGY PREDICTED BY IDOCK:   -5.48 KCAL/MOL
REMARK 923 INTER-LIGAND FREE ENERGY PREDICTED BY IDOCK:   -5.23 KCAL/MOL
REMARK 924 INTRA-LIGAND FREE ENERGY PREDICTED BY IDOCK:   -0.25 KCAL/MOL
REMARK 927      BINDING AFFINITY PREDICTED BY RF-SCORE:    0.00 PKD
ROOT
HETATM    1  C   UNL     1     -10.271  10.083  66.206  1.00  0.00    -0.215 C  
HETATM    2  N   UNL     1     -10.928  10.838  67.257  1.00  0.00    -0.303 NA 
HETATM    3  N   UNL     1     -11.132  10.149  68.447  1.00  0.00    -0.243 NA 
HETATM    4  C   UNL     1     -11.695  10.957  69.307  1.00  0.00    -0.324 C  
HETATM    5  S   UNL     1     -12.032  12.585  68.774  1.00  0.00    -0.151 SA 
HETATM    6  C   UNL     1     -11.332  12.164  67.194  1.00  0.00    -0.331 C  
ENDROOT
BRANCH   4   7
HETATM    7  S   UNL     1     -12.093  10.413  70.953  1.00  0.00    -0.400 S  
HETATM    8  O   UNL     1     -12.672  11.552  71.631  1.00  0.00    -0.353 OA 
HETATM    9  N   UNL     1     -13.318   9.252  70.843  1.00  0.00    -0.564 N  
HETATM   10  O   UNL     1     -10.922   9.721  71.447  1.00  0.00    -0.342 OA 
HETATM   11  H1  UNL     1     -13.547   8.941  71.787  1.00  0.00     0.000 HD 
HETATM   12  H2  UNL     1     -13.754   8.921  69.982  1.00  0.00     0.000 HD 
ENDBRANCH   4   7
BRANCH   6  13
HETATM   13  N   UNL     1     -11.360  13.161  66.398  1.00  0.00    -0.305 N  
HETATM   14  H   UNL     1     -10.731  13.938  66.605  1.00  0.00     0.000 HD 
HETATM   15  C   UNL     1     -12.149  13.282  65.298  1.00  0.00    -0.418 C  
HETATM   16  C   UNL     1     -11.903  14.585  64.571  1.00  0.00    -0.459 C  
HETATM   17  O   UNL     1     -12.985  12.482  64.897  1.00  0.00    -0.821 OA 
ENDBRANCH   6  13
TORSDOF 2
ENDMDL
MODEL       29
REMARK 921   NORMALIZED FREE ENERGY PREDICTED BY IDOCK:   -4.69 KCAL/MOL
REMARK 922        TOTAL FREE ENERGY PREDICTED BY IDOCK:   -5.47 KCAL/MOL
REMARK 923 INTER-LIGAND FREE ENERGY PREDICTED BY IDOCK:   -5.25 KCAL/MOL
REMARK 924 INTRA-LIGAND FREE ENERGY PREDICTED BY IDOCK:   -0.22 KCAL/MOL
REMARK 927      BINDING AFFINITY PREDICTED BY RF-SCORE:    0.00 PKD
ROOT
HETATM    1  C   UNL     1     -13.885  13.591  72.270  1.00  0.00    -0.581 C  
HETATM    2  N   UNL     1     -13.107  12.646  71.490  1.00  0.00    -0.342 NA 
HETATM    3  N   UNL     1     -13.122  11.336  71.954  1.00  0.00    -0.477 NA 
HETATM    4  C   UNL     1     -12.416  10.596  71.140  1.00  0.00    -0.418 C  
HETATM    5  S   UNL     1     -11.677  11.391  69.772  1.00  0.00    -0.367 SA 
HETATM    6  C   UNL     1     -12.394  12.919  70.332  1.00  0.00    -0.258 C  
ENDROOT
BRANCH   4   7
HETATM    7  S   UNL     1     -12.226   8.850  71.418  1.00  0.00    -0.324 S  
HETATM    8  O   UNL     1     -13.560   8.308  71.549  1.00  0.00    -0.340 OA 
HETATM    9  N   UNL     1     -11.569   8.162  70.019  1.00  0.00    -0.456 N  
HETATM   10  O   UNL     1     -11.220   8.710  72.449  1.00  0.00    -0.357 OA 
HETATM   11  H1  UNL     1     -11.459   7.160  70.178  1.00  0.00     0.000 HD 
HETATM   12  H2  UNL     1     -11.324   8.662  69.164  1.00  0.00     0.000 HD 
ENDBRANCH   4   7
BRANCH   6  13
HETATM   13  N   UNL     1     -12.097  13.882  69.548  1.00  0.00    -0.338 N  
HETATM   14  H   UNL     1     -12.354  13.777  68.566  1.00  0.00     0.000 HD 
HETATM   15  C   UNL     1     -11.469  15.034  69.902  1.00  0.00    -0.289 C  
HETATM   16  C   UNL     1     -11.297  15.965  68.723  1.00  0.00    -0.378 C  
HETATM   17  O   UNL     1     -11.054  15.337  71.013  1.00  0.00    -0.330 OA 
ENDBRANCH   6  13
TORSDOF 2
ENDMDL
MODEL       30
REMARK 921   NORMALIZED FREE ENERGY PREDICTED BY IDOCK:   -4.63 KCAL/MOL
REMARK 922        TOTAL FREE ENERGY PREDICTED BY IDOCK:   -5.40 KCAL/MOL
REMARK 923 INTER-LIGAND FREE ENERGY PREDICTED BY IDOCK:   -5.42 KCAL/MOL
REMARK 924 INTRA-LIGAND FREE ENERGY PREDICTED BY IDOCK:    0.02 KCAL/MOL
REMARK 927      BINDING AFFINITY PREDICTED BY RF-SCORE:    0.00 PKD
ROOT
HETATM    1  C   UNL     1     -12.236  13.715  67.077  1.00  0.00    -0.329 C  
HETATM    2  N   UNL     1     -11.734  14.747  67.964  1.00  0.00    -0.342 NA 
HETATM    3  N   UNL     1     -11.112  15.821  67.338  1.00  0.00    -0.281 NA 
HETATM    4  C   UNL     1     -10.746  16.683  68.249  1.00  0.00    -0.351 C  
HETATM    5  S   UNL     1     -11.102  16.289  69.913  1.00  0.00    -0.305 SA 
HETATM    6  C   UNL     1     -11.846  14.776  69.347  1.00  0.00    -0.323 C  
ENDROOT
BRANCH   4   7
HETATM    7  S   UNL     1      -9.925  18.197  67.805  1.00  0.00    -0.345 S  
HETATM    8  O   UNL     1     -10.655  18.745  66.683  1.00  0.00    -0.403 OA 
HETATM    9  N   UNL     1     -10.117  19.294  69.078  1.00  0.00    -0.564 N  
HETATM   10  O   UNL     1      -8.512  17.890  67.743  1.00  0.00    -0.235 OA 
HETATM   11  H1  UNL     1      -9.646  20.162  68.824  1.00  0.00     0.000 HD 
HETATM   12  H2  UNL     1     -10.617  19.118  69.950  1.00  0.00     0.000 HD 
ENDBRANCH   4   7
BRANCH   6  13
HETATM   13  N   UNL     1     -12.302  14.094  70.324  1.00  0.00    -0.340 N  
HETATM   14  H   UNL     1     -11.872  13.185  70.497  1.00  0.00     0.000 HD 
HETATM   15  C   UNL     1     -13.309  14.467  71.156  1.00  0.00    -0.354 C  
HETATM   16  C   UNL     1     -13.575  13.425  72.220  1.00  0.00    -0.703 C  
HETATM   17  O   UNL     1     -13.971  15.497  71.100  1.00  0.00    -0.547 OA 
ENDBRANCH   6  13
TORSDOF 2
ENDMDL
MODEL       31
REMARK 921   NORMALIZED FREE ENERGY PREDICTED BY IDOCK:   -4.63 KCAL/MOL
REMARK 922        TOTAL FREE ENERGY PREDICTED BY IDOCK:   -5.40 KCAL/MOL
REMARK 923 INTER-LIGAND FREE ENERGY PREDICTED BY IDOCK:   -5.16 KCAL/MOL
REMARK 924 INTRA-LIGAND FREE ENERGY PREDICTED BY IDOCK:   -0.23 KCAL/MOL
REMARK 927      BINDING AFFINITY PREDICTED BY RF-SCORE:    0.00 PKD
ROOT
HETATM    1  C   UNL     1     -12.115  15.008  64.082  1.00  0.00    -0.223 C  
HETATM    2  N   UNL     1     -10.988  15.281  64.955  1.00  0.00    -0.428 NA 
HETATM    3  N   UNL     1     -10.735  16.627  65.197  1.00  0.00    -0.646 NA 
HETATM    4  C   UNL     1      -9.725  16.721  66.021  1.00  0.00    -0.259 C  
HETATM    5  S   UNL     1      -8.993  15.231  66.565  1.00  0.00    -0.301 SA 
HETATM    6  C   UNL     1     -10.180  14.344  65.581  1.00  0.00    -0.350 C  
ENDROOT
BRANCH   4   7
HETATM    7  S   UNL     1      -9.128  18.305  66.566  1.00  0.00    -0.258 S  
HETATM    8  O   UNL     1     -10.222  19.235  66.396  1.00  0.00    -0.379 OA 
HETATM    9  N   UNL     1      -8.835  18.214  68.230  1.00  0.00    -0.277 N  
HETATM   10  O   UNL     1      -7.838  18.492  65.937  1.00  0.00    -0.474 OA 
HETATM   11  H1  UNL     1      -8.493  19.123  68.542  1.00  0.00     0.000 HD 
HETATM   12  H2  UNL     1      -8.976  17.393  68.818  1.00  0.00     0.000 HD 
ENDBRANCH   4   7
BRANCH   6  13
HETATM   13  N   UNL     1     -10.015  13.082  65.687  1.00  0.00    -0.378 N  
HETATM   14  H   UNL     1      -9.123  12.702  65.369  1.00  0.00     0.000 HD 
HETATM   15  C   UNL     1     -10.919  12.199  66.186  1.00  0.00    -0.298 C  
HETATM   16  C   UNL     1     -10.382  10.785  66.186  1.00  0.00    -0.300 C  
HETATM   17  O   UNL     1     -12.049  12.446  66.588  1.00  0.00    -0.592 OA 
ENDBRANCH   6  13
TORSDOF 2
ENDMDL
MODEL       32
REMARK 921   NORMALIZED FREE ENERGY PREDICTED BY IDOCK:   -4.61 KCAL/MOL
REMARK 922        TOTAL FREE ENERGY PREDICTED BY IDOCK:   -5.38 KCAL/MOL
REMARK 923 INTER-LIGAND FREE ENERGY PREDICTED BY IDOCK:   -5.14 KCAL/MOL
REMARK 924 INTRA-LIGAND FREE ENERGY PREDICTED BY IDOCK:   -0.24 KCAL/MOL
REMARK 927      BINDING AFFINITY PREDICTED BY RF-SCORE:    0.00 PKD
ROOT
HETATM    1  C   UNL     1      -9.983  17.485  66.013  1.00  0.00    -0.218 C  
HETATM    2  N   UNL     1     -10.028  16.036  66.065  1.00  0.00    -0.316 NA 
HETATM    3  N   UNL     1     -10.970  15.439  65.236  1.00  0.00    -0.374 NA 
HETATM    4  C   UNL     1     -10.873  14.142  65.358  1.00  0.00    -0.337 C  
HETATM    5  S   UNL     1      -9.668  13.529  66.464  1.00  0.00    -0.282 SA 
HETATM    6  C   UNL     1      -9.211  15.209  66.824  1.00  0.00    -0.254 C  
ENDROOT
BRANCH   4   7
HETATM    7  S   UNL     1     -11.924  13.050  64.427  1.00  0.00    -0.426 S  
HETATM    8  O   UNL     1     -13.135  12.890  65.201  1.00  0.00    -0.753 OA 
HETATM    9  N   UNL     1     -12.373  13.840  63.000  1.00  0.00    -1.030 N  
HETATM   10  O   UNL     1     -11.097  11.931  64.028  1.00  0.00    -0.333 OA 
HETATM   11  H1  UNL     1     -12.976  13.214  62.466  1.00  0.00     0.000 HD 
HETATM   12  H2  UNL     1     -12.090  14.779  62.721  1.00  0.00     0.000 HD 
ENDBRANCH   4   7
BRANCH   6  13
HETATM   13  N   UNL     1      -8.257  15.256  67.670  1.00  0.00    -0.150 N  
HETATM   14  H   UNL     1      -7.325  15.009  67.333  1.00  0.00     0.000 HD 
HETATM   15  C   UNL     1      -8.367  15.605  68.979  1.00  0.00    -0.235 C  
HETATM   16  C   UNL     1      -7.029  15.575  69.683  1.00  0.00    -0.173 C  
HETATM   17  O   UNL     1      -9.392  15.903  69.580  1.00  0.00    -0.257 OA 
ENDBRANCH   6  13
TORSDOF 2
ENDMDL
MODEL       33
REMARK 921   NORMALIZED FREE ENERGY PREDICTED BY IDOCK:   -4.60 KCAL/MOL
REMARK 922        TOTAL FREE ENERGY PREDICTED BY IDOCK:   -5.37 KCAL/MOL
REMARK 923 INTER-LIGAND FREE ENERGY PREDICTED BY IDOCK:   -5.14 KCAL/MOL
REMARK 924 INTRA-LIGAND FREE ENERGY PREDICTED BY IDOCK:   -0.24 KCAL/MOL
REMARK 927      BINDING AFFINITY PREDICTED BY RF-SCORE:    0.00 PKD
ROOT
HETATM    1  C   UNL     1     -12.136  11.254  69.183  1.00  0.00    -0.279 C  
HETATM    2  N   UNL     1     -11.615  11.281  67.829  1.00  0.00    -0.531 NA 
HETATM    3  N   UNL     1     -12.002  12.374  67.063  1.00  0.00    -0.565 NA 
HETATM    4  C   UNL     1     -11.434  12.286  65.890  1.00  0.00    -0.376 C  
HETATM    5  S   UNL     1     -10.407  10.904  65.599  1.00  0.00    -0.217 SA 
HETATM    6  C   UNL     1     -10.758  10.354  67.253  1.00  0.00    -0.273 C  
ENDROOT
BRANCH   4   7
HETATM    7  S   UNL     1     -11.697  13.530  64.646  1.00  0.00    -0.401 S  
HETATM    8  O   UNL     1     -10.592  14.457  64.755  1.00  0.00    -0.421 OA 
HETATM    9  N   UNL     1     -11.554  12.797  63.128  1.00  0.00    -0.817 N  
HETATM   10  O   UNL     1     -13.079  13.943  64.769  1.00  0.00    -0.640 OA 
HETATM   11  H1  UNL     1     -11.705  13.510  62.415  1.00  0.00     0.000 HD 
HETATM   12  H2  UNL     1     -11.353  11.812  62.956  1.00  0.00     0.000 HD 
ENDBRANCH   4   7
BRANCH   6  13
HETATM   13  N   UNL     1     -10.147   9.264  67.515  1.00  0.00    -0.203 N  
HETATM   14  H   UNL     1     -10.383   8.451  66.945  1.00  0.00     0.000 HD 
HETATM   15  C   UNL     1      -9.210   9.088  68.484  1.00  0.00    -0.136 C  
HETATM   16  C   UNL     1      -8.677   7.673  68.498  1.00  0.00    -0.128 C  
HETATM   17  O   UNL     1      -8.812   9.922  69.287  1.00  0.00    -0.149 OA 
ENDBRANCH   6  13
TORSDOF 2
ENDMDL
MODEL       34
REMARK 921   NORMALIZED FREE ENERGY PREDICTED BY IDOCK:   -4.60 KCAL/MOL
REMARK 922        TOTAL FREE ENERGY PREDICTED BY IDOCK:   -5.37 KCAL/MOL
REMARK 923 INTER-LIGAND FREE ENERGY PREDICTED BY IDOCK:   -5.12 KCAL/MOL
REMARK 924 INTRA-LIGAND FREE ENERGY PREDICTED BY IDOCK:   -0.25 KCAL/MOL
REMARK 927      BINDING AFFINITY PREDICTED BY RF-SCORE:    0.00 PKD
ROOT
HETATM    1  C   UNL     1     -10.778  14.840  65.274  1.00  0.00    -0.390 C  
HETATM    2  N   UNL     1     -10.437  15.849  66.259  1.00  0.00    -0.309 NA 
HETATM    3  N   UNL     1      -9.670  16.909  65.786  1.00  0.00    -0.548 NA 
HETATM    4  C   UNL     1      -9.472  17.751  66.764  1.00  0.00    -0.285 C  
HETATM    5  S   UNL     1     -10.169  17.356  68.317  1.00  0.00    -0.384 SA 
HETATM    6  C   UNL     1     -10.826  15.871  67.591  1.00  0.00    -0.312 C  
ENDROOT
BRANCH   4   7
HETATM    7  S   UNL     1      -8.536  19.242  66.517  1.00  0.00    -0.335 S  
HETATM    8  O   UNL     1      -7.547  18.942  65.505  1.00  0.00    -0.466 OA 
HETATM    9  N   UNL     1      -9.564  20.406  65.845  1.00  0.00    -0.640 N  
HETATM   10  O   UNL     1      -8.183  19.725  67.835  1.00  0.00    -0.295 OA 
HETATM   11  H1  UNL     1      -9.027  21.262  65.703  1.00  0.00     0.000 HD 
HETATM   12  H2  UNL     1     -10.551  20.276  65.622  1.00  0.00     0.000 HD 
ENDBRANCH   4   7
BRANCH   6  13
HETATM   13  N   UNL     1     -11.490  15.195  68.446  1.00  0.00    -0.319 N  
HETATM   14  H   UNL     1     -12.347  15.617  68.807  1.00  0.00     0.000 HD 
HETATM   15  C   UNL     1     -11.161  13.965  68.920  1.00  0.00    -0.271 C  
HETATM   16  C   UNL     1     -12.188  13.450  69.905  1.00  0.00    -0.337 C  
HETATM   17  O   UNL     1     -10.168  13.306  68.641  1.00  0.00    -0.232 OA 
ENDBRANCH   6  13
TORSDOF 2
ENDMDL
MODEL       35
REMARK 921   NORMALIZED FREE ENERGY PREDICTED BY IDOCK:   -4.60 KCAL/MOL
REMARK 922        TOTAL FREE ENERGY PREDICTED BY IDOCK:   -5.37 KCAL/MOL
REMARK 923 INTER-LIGAND FREE ENERGY PREDICTED BY IDOCK:   -5.12 KCAL/MOL
REMARK 924 INTRA-LIGAND FREE ENERGY PREDICTED BY IDOCK:   -0.25 KCAL/MOL
REMARK 927      BINDING AFFINITY PREDICTED BY RF-SCORE:    0.00 PKD
ROOT
HETATM    1  C   UNL     1     -11.656  15.897  64.219  1.00  0.00    -0.178 C  
HETATM    2  N   UNL     1     -10.621  16.217  65.184  1.00  0.00    -0.609 NA 
HETATM    3  N   UNL     1     -10.549  17.554  65.559  1.00  0.00    -0.610 NA 
HETATM    4  C   UNL     1      -9.605  17.687  66.452  1.00  0.00    -0.274 C  
HETATM    5  S   UNL     1      -8.727  16.249  66.912  1.00  0.00    -0.231 SA 
HETATM    6  C   UNL     1      -9.740  15.325  65.778  1.00  0.00    -0.350 C  
ENDROOT
BRANCH   4   7
HETATM    7  S   UNL     1      -9.239  19.272  67.171  1.00  0.00    -0.312 S  
HETATM    8  O   UNL     1      -8.034  19.098  67.953  1.00  0.00    -0.270 OA 
HETATM    9  N   UNL     1      -8.844  20.340  65.920  1.00  0.00    -0.555 N  
HETATM   10  O   UNL     1     -10.478  19.756  67.741  1.00  0.00    -0.426 OA 
HETATM   11  H1  UNL     1      -8.633  21.249  66.333  1.00  0.00     0.000 HD 
HETATM   12  H2  UNL     1      -8.820  20.115  64.926  1.00  0.00     0.000 HD 
ENDBRANCH   4   7
BRANCH   6  13
HETATM   13  N   UNL     1      -9.428  14.088  65.786  1.00  0.00    -0.521 N  
HETATM   14  H   UNL     1      -8.605  13.814  65.248  1.00  0.00     0.000 HD 
HETATM   15  C   UNL     1     -10.091  13.101  66.444  1.00  0.00    -0.281 C  
HETATM   16  C   UNL     1      -9.429  11.755  66.253  1.00  0.00    -0.238 C  
HETATM   17  O   UNL     1     -11.110  13.216  67.114  1.00  0.00    -0.267 OA 
ENDBRANCH   6  13
TORSDOF 2
ENDMDL
MODEL       36
REMARK 921   NORMALIZED FREE ENERGY PREDICTED BY IDOCK:   -4.55 KCAL/MOL
REMARK 922        TOTAL FREE ENERGY PREDICTED BY IDOCK:   -5.31 KCAL/MOL
REMARK 923 INTER-LIGAND FREE ENERGY PREDICTED BY IDOCK:   -5.08 KCAL/MOL
REMARK 924 INTRA-LIGAND FREE ENERGY PREDICTED BY IDOCK:   -0.24 KCAL/MOL
REMARK 927      BINDING AFFINITY PREDICTED BY RF-SCORE:    0.00 PKD
ROOT
HETATM    1  C   UNL     1     -10.906  15.508  65.394  1.00  0.00    -0.390 C  
HETATM    2  N   UNL     1     -11.103  15.175  66.793  1.00  0.00    -0.323 NA 
HETATM    3  N   UNL     1     -11.280  13.823  67.064  1.00  0.00    -0.302 NA 
HETATM    4  C   UNL     1     -11.407  13.668  68.355  1.00  0.00    -0.295 C  
HETATM    5  S   UNL     1     -11.334  15.104  69.345  1.00  0.00    -0.317 SA 
HETATM    6  C   UNL     1     -11.095  16.058  67.863  1.00  0.00    -0.307 C  
ENDROOT
BRANCH   4   7
HETATM    7  S   UNL     1     -11.639  12.056  69.068  1.00  0.00    -0.334 S  
HETATM    8  O   UNL     1     -12.238  11.235  68.039  1.00  0.00    -0.621 OA 
HETATM    9  N   UNL     1     -10.114  11.392  69.379  1.00  0.00    -0.424 N  
HETATM   10  O   UNL     1     -12.259  12.267  70.359  1.00  0.00    -0.342 OA 
HETATM   11  H1  UNL     1     -10.247  10.467  69.788  1.00  0.00     0.000 HD 
HETATM   12  H2  UNL     1      -9.217  11.838  69.190  1.00  0.00     0.000 HD 
ENDBRANCH   4   7
BRANCH   6  13
HETATM   13  N   UNL     1     -10.970  17.300  68.129  1.00  0.00    -0.288 N  
HETATM   14  H   UNL     1     -11.826  17.852  68.184  1.00  0.00     0.000 HD 
HETATM   15  C   UNL     1      -9.799  17.954  68.347  1.00  0.00    -0.355 C  
HETATM   16  C   UNL     1     -10.023  19.417  68.660  1.00  0.00    -0.527 C  
HETATM   17  O   UNL     1      -8.669  17.485  68.297  1.00  0.00    -0.254 OA 
ENDBRANCH   6  13
TORSDOF 2
ENDMDL
MODEL       37
REMARK 921   NORMALIZED FREE ENERGY PREDICTED BY IDOCK:   -4.55 KCAL/MOL
REMARK 922        TOTAL FREE ENERGY PREDICTED BY IDOCK:   -5.31 KCAL/MOL
REMARK 923 INTER-LIGAND FREE ENERGY PREDICTED BY IDOCK:   -5.12 KCAL/MOL
REMARK 924 INTRA-LIGAND FREE ENERGY PREDICTED BY IDOCK:   -0.19 KCAL/MOL
REMARK 927      BINDING AFFINITY PREDICTED BY RF-SCORE:    0.00 PKD
ROOT
HETATM    1  C   UNL     1     -10.284   8.750  66.961  1.00  0.00    -0.281 C  
HETATM    2  N   UNL     1     -10.730  10.129  66.890  1.00  0.00    -0.200 NA 
HETATM    3  N   UNL     1     -10.394  10.805  65.722  1.00  0.00    -0.248 NA 
HETATM    4  C   UNL     1     -10.887  12.013  65.780  1.00  0.00    -0.287 C  
HETATM    5  S   UNL     1     -11.779  12.446  67.219  1.00  0.00    -0.296 SA 
HETATM    6  C   UNL     1     -11.474  10.809  67.844  1.00  0.00    -0.227 C  
ENDROOT
BRANCH   4   7
HETATM    7  S   UNL     1     -10.662  13.163  64.443  1.00  0.00    -0.408 S  
HETATM    8  O   UNL     1      -9.917  12.462  63.421  1.00  0.00    -0.398 OA 
HETATM    9  N   UNL     1     -12.180  13.502  63.777  1.00  0.00    -0.748 N  
HETATM   10  O   UNL     1     -10.198  14.396  65.041  1.00  0.00    -0.409 OA 
HETATM   11  H1  UNL     1     -12.050  14.162  63.010  1.00  0.00     0.000 HD 
HETATM   12  H2  UNL     1     -13.070  13.114  64.088  1.00  0.00     0.000 HD 
ENDBRANCH   4   7
BRANCH   6  13
HETATM   13  N   UNL     1     -12.006  10.648  68.993  1.00  0.00    -0.527 N  
HETATM   14  H   UNL     1     -13.002  10.854  69.076  1.00  0.00     0.000 HD 
HETATM   15  C   UNL     1     -11.367  10.228  70.116  1.00  0.00    -0.316 C  
HETATM   16  C   UNL     1     -12.310  10.127  71.294  1.00  0.00    -0.501 C  
HETATM   17  O   UNL     1     -10.177   9.961  70.233  1.00  0.00    -0.267 OA 
ENDBRANCH   6  13
TORSDOF 2
ENDMDL
MODEL       38
REMARK 921   NORMALIZED FREE ENERGY PREDICTED BY IDOCK:   -4.52 KCAL/MOL
REMARK 922        TOTAL FREE ENERGY PREDICTED BY IDOCK:   -5.28 KCAL/MOL
REMARK 923 INTER-LIGAND FREE ENERGY PREDICTED BY IDOCK:   -5.03 KCAL/MOL
REMARK 924 INTRA-LIGAND FREE ENERGY PREDICTED BY IDOCK:   -0.25 KCAL/MOL
REMARK 927      BINDING AFFINITY PREDICTED BY RF-SCORE:    0.00 PKD
ROOT
HETATM    1  C   UNL     1      -8.395  12.217  67.522  1.00  0.00    -0.170 C  
HETATM    2  N   UNL     1      -9.297  13.350  67.608  1.00  0.00    -0.208 NA 
HETATM    3  N   UNL     1      -9.032  14.392  66.726  1.00  0.00    -0.248 NA 
HETATM    4  C   UNL     1      -9.938  15.319  66.889  1.00  0.00    -0.239 C  
HETATM    5  S   UNL     1     -11.166  15.037  68.098  1.00  0.00    -0.320 SA 
HETATM    6  C   UNL     1     -10.395  13.472  68.448  1.00  0.00    -0.248 C  
ENDROOT
BRANCH   4   7
HETATM    7  S   UNL     1      -9.919  16.803  65.910  1.00  0.00    -0.230 S  
HETATM    8  O   UNL     1     -10.835  16.583  64.813  1.00  0.00    -0.720 OA 
HETATM    9  N   UNL     1     -10.580  18.055  66.837  1.00  0.00    -0.323 N  
HETATM   10  O   UNL     1      -8.526  17.140  65.709  1.00  0.00    -0.522 OA 
HETATM   11  H1  UNL     1     -10.569  18.907  66.276  1.00  0.00     0.000 HD 
HETATM   12  H2  UNL     1     -10.930  17.972  67.792  1.00  0.00     0.000 HD 
ENDBRANCH   4   7
BRANCH   6  13
HETATM   13  N   UNL     1     -11.025  12.843  69.363  1.00  0.00    -0.456 N  
HETATM   14  H   UNL     1     -10.860  13.136  70.326  1.00  0.00     0.000 HD 
HETATM   15  C   UNL     1     -11.896  11.817  69.171  1.00  0.00    -0.326 C  
HETATM   16  C   UNL     1     -12.477  11.323  70.477  1.00  0.00    -0.398 C  
HETATM   17  O   UNL     1     -12.205  11.300  68.105  1.00  0.00    -0.622 OA 
ENDBRANCH   6  13
TORSDOF 2
ENDMDL
MODEL       39
REMARK 921   NORMALIZED FREE ENERGY PREDICTED BY IDOCK:   -4.52 KCAL/MOL
REMARK 922        TOTAL FREE ENERGY PREDICTED BY IDOCK:   -5.28 KCAL/MOL
REMARK 923 INTER-LIGAND FREE ENERGY PREDICTED BY IDOCK:   -5.12 KCAL/MOL
REMARK 924 INTRA-LIGAND FREE ENERGY PREDICTED BY IDOCK:   -0.15 KCAL/MOL
REMARK 927      BINDING AFFINITY PREDICTED BY RF-SCORE:    0.00 PKD
ROOT
HETATM    1  C   UNL     1     -12.213  14.019  69.123  1.00  0.00    -0.262 C  
HETATM    2  N   UNL     1     -11.542  13.853  67.847  1.00  0.00    -0.322 NA 
HETATM    3  N   UNL     1     -12.371  13.558  66.771  1.00  0.00    -0.330 NA 
HETATM    4  C   UNL     1     -11.641  13.473  65.691  1.00  0.00    -0.325 C  
HETATM    5  S   UNL     1      -9.922  13.727  65.864  1.00  0.00    -0.267 SA 
HETATM    6  C   UNL     1     -10.183  13.991  67.603  1.00  0.00    -0.241 C  
ENDROOT
BRANCH   4   7
HETATM    7  S   UNL     1     -12.376  13.119  64.111  1.00  0.00    -0.321 S  
HETATM    8  O   UNL     1     -12.673  14.396  63.501  1.00  0.00    -0.742 OA 
HETATM    9  N   UNL     1     -11.203  12.388  63.135  1.00  0.00    -0.709 N  
HETATM   10  O   UNL     1     -13.388  12.112  64.350  1.00  0.00    -0.740 OA 
HETATM   11  H1  UNL     1     -11.624  12.184  62.229  1.00  0.00     0.000 HD 
HETATM   12  H2  UNL     1     -10.240  12.186  63.406  1.00  0.00     0.000 HD 
ENDBRANCH   4   7
BRANCH   6  13
HETATM   13  N   UNL     1      -9.084  14.247  68.200  1.00  0.00    -0.187 N  
HETATM   14  H   UNL     1      -8.321  13.582  68.073  1.00  0.00     0.000 HD 
HETATM   15  C   UNL     1      -8.838  15.326  68.989  1.00  0.00    -0.226 C  
HETATM   16  C   UNL     1      -7.420  15.324  69.515  1.00  0.00    -0.214 C  
HETATM   17  O   UNL     1      -9.623  16.216  69.290  1.00  0.00    -0.238 OA 
ENDBRANCH   6  13
TORSDOF 2
ENDMDL
MODEL       40
REMARK 921   NORMALIZED FREE ENERGY PREDICTED BY IDOCK:   -4.51 KCAL/MOL
REMARK 922        TOTAL FREE ENERGY PREDICTED BY IDOCK:   -5.27 KCAL/MOL
REMARK 923 INTER-LIGAND FREE ENERGY PREDICTED BY IDOCK:   -5.04 KCAL/MOL
REMARK 924 INTRA-LIGAND FREE ENERGY PREDICTED BY IDOCK:   -0.23 KCAL/MOL
REMARK 927      BINDING AFFINITY PREDICTED BY RF-SCORE:    0.00 PKD
ROOT
HETATM    1  C   UNL     1     -12.774  14.061  65.206  1.00  0.00    -0.439 C  
HETATM    2  N   UNL     1     -12.066  13.787  66.443  1.00  0.00    -0.431 NA 
HETATM    3  N   UNL     1     -12.113  12.466  66.875  1.00  0.00    -0.547 NA 
HETATM    4  C   UNL     1     -11.409  12.360  67.971  1.00  0.00    -0.287 C  
HETATM    5  S   UNL     1     -10.646  13.809  68.578  1.00  0.00    -0.255 SA 
HETATM    6  C   UNL     1     -11.337  14.694  67.198  1.00  0.00    -0.356 C  
ENDROOT
BRANCH   4   7
HETATM    7  S   UNL     1     -11.234  10.797  68.802  1.00  0.00    -0.292 S  
HETATM    8  O   UNL     1     -11.143   9.791  67.768  1.00  0.00    -0.245 OA 
HETATM    9  N   UNL     1      -9.745  10.791  69.605  1.00  0.00    -0.432 N  
HETATM   10  O   UNL     1     -12.250  10.769  69.833  1.00  0.00    -0.318 OA 
HETATM   11  H1  UNL     1      -9.645   9.895  70.082  1.00  0.00     0.000 HD 
HETATM   12  H2  UNL     1      -9.065  11.551  69.612  1.00  0.00     0.000 HD 
ENDBRANCH   4   7
BRANCH   6  13
HETATM   13  N   UNL     1     -11.000  15.925  67.225  1.00  0.00    -0.281 N  
HETATM   14  H   UNL     1     -11.302  16.471  68.033  1.00  0.00     0.000 HD 
HETATM   15  C   UNL     1     -10.276  16.575  66.276  1.00  0.00    -0.332 C  
HETATM   16  C   UNL     1     -10.041  18.023  66.644  1.00  0.00    -0.372 C  
HETATM   17  O   UNL     1      -9.850  16.111  65.226  1.00  0.00    -0.452 OA 
ENDBRANCH   6  13
TORSDOF 2
ENDMDL
MODEL       41
REMARK 921   NORMALIZED FREE ENERGY PREDICTED BY IDOCK:   -4.49 KCAL/MOL
REMARK 922        TOTAL FREE ENERGY PREDICTED BY IDOCK:   -5.25 KCAL/MOL
REMARK 923 INTER-LIGAND FREE ENERGY PREDICTED BY IDOCK:   -5.02 KCAL/MOL
REMARK 924 INTRA-LIGAND FREE ENERGY PREDICTED BY IDOCK:   -0.23 KCAL/MOL
REMARK 927      BINDING AFFINITY PREDICTED BY RF-SCORE:    0.00 PKD
ROOT
HETATM    1  C   UNL     1      -8.957  10.211  63.040  1.00  0.00    -0.250 C  
HETATM    2  N   UNL     1      -9.620  11.009  64.055  1.00  0.00    -0.251 NA 
HETATM    3  N   UNL     1     -10.450  12.015  63.573  1.00  0.00    -0.441 NA 
HETATM    4  C   UNL     1     -11.003  12.623  64.589  1.00  0.00    -0.313 C  
HETATM    5  S   UNL     1     -10.582  12.059  66.187  1.00  0.00    -0.274 SA 
HETATM    6  C   UNL     1      -9.529  10.842  65.429  1.00  0.00    -0.214 C  
ENDROOT
BRANCH   4   7
HETATM    7  S   UNL     1     -12.144  13.965  64.346  1.00  0.00    -0.426 S  
HETATM    8  O   UNL     1     -13.008  13.983  65.505  1.00  0.00    -0.681 OA 
HETATM    9  N   UNL     1     -11.269  15.413  64.383  1.00  0.00    -0.714 N  
HETATM   10  O   UNL     1     -12.648  13.831  62.996  1.00  0.00    -0.721 OA 
HETATM   11  H1  UNL     1     -11.923  16.183  64.243  1.00  0.00     0.000 HD 
HETATM   12  H2  UNL     1     -10.263  15.501  64.520  1.00  0.00     0.000 HD 
ENDBRANCH   4   7
BRANCH   6  13
HETATM   13  N   UNL     1      -8.958  10.114  66.309  1.00  0.00    -0.146 N  
HETATM   14  H   UNL     1      -8.038  10.413  66.632  1.00  0.00     0.000 HD 
HETATM   15  C   UNL     1      -9.465   8.978  66.856  1.00  0.00    -0.167 C  
HETATM   16  C   UNL     1      -8.529   8.385  67.886  1.00  0.00    -0.131 C  
HETATM   17  O   UNL     1     -10.530   8.438  66.584  1.00  0.00    -0.294 OA 
ENDBRANCH   6  13
TORSDOF 2
ENDMDL
MODEL       42
REMARK 921   NORMALIZED FREE ENERGY PREDICTED BY IDOCK:   -4.49 KCAL/MOL
REMARK 922        TOTAL FREE ENERGY PREDICTED BY IDOCK:   -5.24 KCAL/MOL
REMARK 923 INTER-LIGAND FREE ENERGY PREDICTED BY IDOCK:   -5.02 KCAL/MOL
REMARK 924 INTRA-LIGAND FREE ENERGY PREDICTED BY IDOCK:   -0.23 KCAL/MOL
REMARK 927      BINDING AFFINITY PREDICTED BY RF-SCORE:    0.00 PKD
ROOT
HETATM    1  C   UNL     1      -8.290  12.538  67.515  1.00  0.00    -0.175 C  
HETATM    2  N   UNL     1      -9.253  12.371  66.442  1.00  0.00    -0.221 NA 
HETATM    3  N   UNL     1     -10.088  13.458  66.215  1.00  0.00    -0.293 NA 
HETATM    4  C   UNL     1     -10.871  13.183  65.206  1.00  0.00    -0.297 C  
HETATM    5  S   UNL     1     -10.685  11.618  64.453  1.00  0.00    -0.352 SA 
HETATM    6  C   UNL     1      -9.389  11.262  65.618  1.00  0.00    -0.224 C  
ENDROOT
BRANCH   4   7
HETATM    7  S   UNL     1     -12.069  14.360  64.625  1.00  0.00    -0.469 S  
HETATM    8  O   UNL     1     -11.389  15.634  64.548  1.00  0.00    -0.419 OA 
HETATM    9  N   UNL     1     -12.487  13.948  63.038  1.00  0.00    -1.009 N  
HETATM   10  O   UNL     1     -13.260  14.157  65.423  1.00  0.00    -0.741 OA 
HETATM   11  H1  UNL     1     -13.175  14.623  62.704  1.00  0.00     0.000 HD 
HETATM   12  H2  UNL     1     -12.116  13.160  62.507  1.00  0.00     0.000 HD 
ENDBRANCH   4   7
BRANCH   6  13
HETATM   13  N   UNL     1      -8.898  10.101  65.420  1.00  0.00    -0.163 N  
HETATM   14  H   UNL     1      -8.104  10.035  64.783  1.00  0.00     0.000 HD 
HETATM   15  C   UNL     1      -9.336   8.944  65.982  1.00  0.00    -0.242 C  
HETATM   16  C   UNL     1      -8.505   7.758  65.544  1.00  0.00    -0.146 C  
HETATM   17  O   UNL     1     -10.285   8.804  66.743  1.00  0.00    -0.266 OA 
ENDBRANCH   6  13
TORSDOF 2
ENDMDL
MODEL       43
REMARK 921   NORMALIZED FREE ENERGY PREDICTED BY IDOCK:   -4.48 KCAL/MOL
REMARK 922        TOTAL FREE ENERGY PREDICTED BY IDOCK:   -5.24 KCAL/MOL
REMARK 923 INTER-LIGAND FREE ENERGY PREDICTED BY IDOCK:   -5.01 KCAL/MOL
REMARK 924 INTRA-LIGAND FREE ENERGY PREDICTED BY IDOCK:   -0.23 KCAL/MOL
REMARK 927      BINDING AFFINITY PREDICTED BY RF-SCORE:    0.00 PKD
ROOT
HETATM    1  C   UNL     1     -11.986  11.536  70.210  1.00  0.00    -0.368 C  
HETATM    2  N   UNL     1     -11.782  12.779  69.489  1.00  0.00    -0.316 NA 
HETATM    3  N   UNL     1     -10.998  12.683  68.345  1.00  0.00    -0.244 NA 
HETATM    4  C   UNL     1     -10.931  13.861  67.784  1.00  0.00    -0.256 C  
HETATM    5  S   UNL     1     -11.781  15.171  68.566  1.00  0.00    -0.295 SA 
HETATM    6  C   UNL     1     -12.314  14.019  69.812  1.00  0.00    -0.291 C  
ENDROOT
BRANCH   4   7
HETATM    7  S   UNL     1     -10.014  14.111  66.281  1.00  0.00    -0.313 S  
HETATM    8  O   UNL     1      -9.127  15.227  66.523  1.00  0.00    -0.258 OA 
HETATM    9  N   UNL     1      -9.023  12.762  66.037  1.00  0.00    -0.409 N  
HETATM   10  O   UNL     1     -10.984  14.101  65.207  1.00  0.00    -0.307 OA 
HETATM   11  H1  UNL     1      -8.497  12.905  65.174  1.00  0.00     0.000 HD 
HETATM   12  H2  UNL     1      -8.962  11.945  66.646  1.00  0.00     0.000 HD 
ENDBRANCH   4   7
BRANCH   6  13
HETATM   13  N   UNL     1     -13.049  14.592  70.684  1.00  0.00    -0.517 N  
HETATM   14  H   UNL     1     -14.048  14.649  70.484  1.00  0.00     0.000 HD 
HETATM   15  C   UNL     1     -12.623  15.133  71.855  1.00  0.00    -0.344 C  
HETATM   16  C   UNL     1     -13.769  15.708  72.658  1.00  0.00    -0.666 C  
HETATM   17  O   UNL     1     -11.470  15.195  72.265  1.00  0.00    -0.425 OA 
ENDBRANCH   6  13
TORSDOF 2
ENDMDL
MODEL       44
REMARK 921   NORMALIZED FREE ENERGY PREDICTED BY IDOCK:   -4.48 KCAL/MOL
REMARK 922        TOTAL FREE ENERGY PREDICTED BY IDOCK:   -5.23 KCAL/MOL
REMARK 923 INTER-LIGAND FREE ENERGY PREDICTED BY IDOCK:   -4.99 KCAL/MOL
REMARK 924 INTRA-LIGAND FREE ENERGY PREDICTED BY IDOCK:   -0.24 KCAL/MOL
REMARK 927      BINDING AFFINITY PREDICTED BY RF-SCORE:    0.00 PKD
ROOT
HETATM    1  C   UNL     1     -11.563  14.176  66.253  1.00  0.00    -0.370 C  
HETATM    2  N   UNL     1     -11.707  13.487  67.522  1.00  0.00    -0.345 NA 
HETATM    3  N   UNL     1     -12.127  14.279  68.585  1.00  0.00    -0.302 NA 
HETATM    4  C   UNL     1     -12.248  13.526  69.645  1.00  0.00    -0.247 C  
HETATM    5  S   UNL     1     -11.870  11.830  69.471  1.00  0.00    -0.333 SA 
HETATM    6  C   UNL     1     -11.503  12.136  67.758  1.00  0.00    -0.332 C  
ENDROOT
BRANCH   4   7
HETATM    7  S   UNL     1     -12.783  14.206  71.199  1.00  0.00    -0.379 S  
HETATM    8  O   UNL     1     -11.626  14.846  71.785  1.00  0.00    -0.368 OA 
HETATM    9  N   UNL     1     -13.897  15.438  70.880  1.00  0.00    -0.844 N  
HETATM   10  O   UNL     1     -13.520  13.157  71.870  1.00  0.00    -0.435 OA 
HETATM   11  H1  UNL     1     -14.204  15.828  71.771  1.00  0.00     0.000 HD 
HETATM   12  H2  UNL     1     -14.209  15.739  69.957  1.00  0.00     0.000 HD 
ENDBRANCH   4   7
BRANCH   6  13
HETATM   13  N   UNL     1     -11.152  11.062  67.163  1.00  0.00    -0.289 N  
HETATM   14  H   UNL     1     -11.851  10.320  67.095  1.00  0.00     0.000 HD 
HETATM   15  C   UNL     1      -9.935  10.816  66.612  1.00  0.00    -0.206 C  
HETATM   16  C   UNL     1      -9.877   9.449  65.967  1.00  0.00    -0.366 C  
HETATM   17  O   UNL     1      -8.960  11.556  66.614  1.00  0.00    -0.174 OA 
ENDBRANCH   6  13
TORSDOF 2
ENDMDL
MODEL       45
REMARK 921   NORMALIZED FREE ENERGY PREDICTED BY IDOCK:   -4.45 KCAL/MOL
REMARK 922        TOTAL FREE ENERGY PREDICTED BY IDOCK:   -5.20 KCAL/MOL
REMARK 923 INTER-LIGAND FREE ENERGY PREDICTED BY IDOCK:   -4.98 KCAL/MOL
REMARK 924 INTRA-LIGAND FREE ENERGY PREDICTED BY IDOCK:   -0.23 KCAL/MOL
REMARK 927      BINDING AFFINITY PREDICTED BY RF-SCORE:    0.00 PKD
ROOT
HETATM    1  C   UNL     1      -7.835  14.026  67.379  1.00  0.00    -0.170 C  
HETATM    2  N   UNL     1      -9.161  13.506  67.103  1.00  0.00    -0.227 NA 
HETATM    3  N   UNL     1      -9.825  14.102  66.037  1.00  0.00    -0.314 NA 
HETATM    4  C   UNL     1     -10.981  13.514  65.882  1.00  0.00    -0.278 C  
HETATM    5  S   UNL     1     -11.376  12.219  66.985  1.00  0.00    -0.353 SA 
HETATM    6  C   UNL     1      -9.798  12.468  67.768  1.00  0.00    -0.204 C  
ENDROOT
BRANCH   4   7
HETATM    7  S   UNL     1     -12.101  14.013  64.594  1.00  0.00    -0.444 S  
HETATM    8  O   UNL     1     -13.401  14.148  65.211  1.00  0.00    -0.715 OA 
HETATM    9  N   UNL     1     -11.656  15.563  64.080  1.00  0.00    -0.851 N  
HETATM   10  O   UNL     1     -11.854  13.129  63.475  1.00  0.00    -0.499 OA 
HETATM   11  H1  UNL     1     -12.298  15.849  63.340  1.00  0.00     0.000 HD 
HETATM   12  H2  UNL     1     -10.880  16.115  64.445  1.00  0.00     0.000 HD 
ENDBRANCH   4   7
BRANCH   6  13
HETATM   13  N   UNL     1      -9.627  11.648  68.731  1.00  0.00    -0.372 N  
HETATM   14  H   UNL     1      -9.901  11.961  69.663  1.00  0.00     0.000 HD 
HETATM   15  C   UNL     1      -9.113  10.394  68.628  1.00  0.00    -0.157 C  
HETATM   16  C   UNL     1      -9.076   9.691  69.967  1.00  0.00    -0.269 C  
HETATM   17  O   UNL     1      -8.700   9.845  67.614  1.00  0.00    -0.122 OA 
ENDBRANCH   6  13
TORSDOF 2
ENDMDL
MODEL       46
REMARK 921   NORMALIZED FREE ENERGY PREDICTED BY IDOCK:   -4.38 KCAL/MOL
REMARK 922        TOTAL FREE ENERGY PREDICTED BY IDOCK:   -5.13 KCAL/MOL
REMARK 923 INTER-LIGAND FREE ENERGY PREDICTED BY IDOCK:   -4.88 KCAL/MOL
REMARK 924 INTRA-LIGAND FREE ENERGY PREDICTED BY IDOCK:   -0.25 KCAL/MOL
REMARK 927      BINDING AFFINITY PREDICTED BY RF-SCORE:    0.00 PKD
ROOT
HETATM    1  C   UNL     1     -12.779  12.193  63.989  1.00  0.00    -0.344 C  
HETATM    2  N   UNL     1     -11.805  12.802  64.876  1.00  0.00    -0.357 NA 
HETATM    3  N   UNL     1     -11.708  14.186  64.794  1.00  0.00    -0.388 NA 
HETATM    4  C   UNL     1     -10.826  14.596  65.667  1.00  0.00    -0.331 C  
HETATM    5  S   UNL     1     -10.039  13.380  66.643  1.00  0.00    -0.282 SA 
HETATM    6  C   UNL     1     -11.003  12.146  65.799  1.00  0.00    -0.297 C  
ENDROOT
BRANCH   4   7
HETATM    7  S   UNL     1     -10.451  16.324  65.851  1.00  0.00    -0.324 S  
HETATM    8  O   UNL     1     -10.902  16.702  67.172  1.00  0.00    -0.253 OA 
HETATM    9  N   UNL     1      -8.768  16.501  65.855  1.00  0.00    -0.204 N  
HETATM   10  O   UNL     1     -10.924  16.974  64.648  1.00  0.00    -0.968 OA 
HETATM   11  H1  UNL     1      -8.553  17.493  65.961  1.00  0.00     0.000 HD 
HETATM   12  H2  UNL     1      -8.087  15.748  65.767  1.00  0.00     0.000 HD 
ENDBRANCH   4   7
BRANCH   6  13
HETATM   13  N   UNL     1     -10.740  10.977  66.238  1.00  0.00    -0.244 N  
HETATM   14  H   UNL     1     -10.989  10.778  67.208  1.00  0.00     0.000 HD 
HETATM   15  C   UNL     1     -10.160   9.971  65.532  1.00  0.00    -0.255 C  
HETATM   16  C   UNL     1     -10.020   8.712  66.359  1.00  0.00    -0.331 C  
HETATM   17  O   UNL     1      -9.762  10.015  64.375  1.00  0.00    -0.305 OA 
ENDBRANCH   6  13
TORSDOF 2
ENDMDL
MODEL       47
REMARK 921   NORMALIZED FREE ENERGY PREDICTED BY IDOCK:   -4.36 KCAL/MOL
REMARK 922        TOTAL FREE ENERGY PREDICTED BY IDOCK:   -5.10 KCAL/MOL
REMARK 923 INTER-LIGAND FREE ENERGY PREDICTED BY IDOCK:   -4.89 KCAL/MOL
REMARK 924 INTRA-LIGAND FREE ENERGY PREDICTED BY IDOCK:   -0.22 KCAL/MOL
REMARK 927      BINDING AFFINITY PREDICTED BY RF-SCORE:    0.00 PKD
ROOT
HETATM    1  C   UNL     1      -8.487  16.412  66.312  1.00  0.00    -0.337 C  
HETATM    2  N   UNL     1      -9.295  15.207  66.284  1.00  0.00    -0.298 NA 
HETATM    3  N   UNL     1     -10.327  15.203  65.352  1.00  0.00    -0.363 NA 
HETATM    4  C   UNL     1     -10.942  14.052  65.413  1.00  0.00    -0.321 C  
HETATM    5  S   UNL     1     -10.355  12.890  66.577  1.00  0.00    -0.269 SA 
HETATM    6  C   UNL     1      -9.115  14.071  67.060  1.00  0.00    -0.246 C  
ENDROOT
BRANCH   4   7
HETATM    7  S   UNL     1     -12.317  13.688  64.345  1.00  0.00    -0.298 S  
HETATM    8  O   UNL     1     -12.802  14.959  63.855  1.00  0.00    -0.697 OA 
HETATM    9  N   UNL     1     -11.731  12.850  62.997  1.00  0.00    -0.798 N  
HETATM   10  O   UNL     1     -13.157  12.757  65.068  1.00  0.00    -0.811 OA 
HETATM   11  H1  UNL     1     -12.520  12.641  62.385  1.00  0.00     0.000 HD 
HETATM   12  H2  UNL     1     -10.758  12.598  62.826  1.00  0.00     0.000 HD 
ENDBRANCH   4   7
BRANCH   6  13
HETATM   13  N   UNL     1      -8.366  13.602  67.981  1.00  0.00    -0.158 N  
HETATM   14  H   UNL     1      -8.820  13.320  68.850  1.00  0.00     0.000 HD 
HETATM   15  C   UNL     1      -7.018  13.442  67.908  1.00  0.00    -0.141 C  
HETATM   16  C   UNL     1      -6.457  12.834  69.175  1.00  0.00    -0.109 C  
HETATM   17  O   UNL     1      -6.287  13.743  66.973  1.00  0.00    -0.041 OA 
ENDBRANCH   6  13
TORSDOF 2
ENDMDL
MODEL       48
REMARK 921   NORMALIZED FREE ENERGY PREDICTED BY IDOCK:   -4.35 KCAL/MOL
REMARK 922        TOTAL FREE ENERGY PREDICTED BY IDOCK:   -5.09 KCAL/MOL
REMARK 923 INTER-LIGAND FREE ENERGY PREDICTED BY IDOCK:   -4.84 KCAL/MOL
REMARK 924 INTRA-LIGAND FREE ENERGY PREDICTED BY IDOCK:   -0.25 KCAL/MOL
REMARK 927      BINDING AFFINITY PREDICTED BY RF-SCORE:    0.00 PKD
ROOT
HETATM    1  C   UNL     1     -13.866   9.072  72.436  1.00  0.00    -0.475 C  
HETATM    2  N   UNL     1     -12.603   9.295  71.757  1.00  0.00    -0.354 NA 
HETATM    3  N   UNL     1     -12.636  10.229  70.728  1.00  0.00    -0.344 NA 
HETATM    4  C   UNL     1     -11.433  10.354  70.237  1.00  0.00    -0.325 C  
HETATM    5  S   UNL     1     -10.172   9.375  70.946  1.00  0.00    -0.289 SA 
HETATM    6  C   UNL     1     -11.386   8.701  72.057  1.00  0.00    -0.362 C  
ENDROOT
BRANCH   4   7
HETATM    7  S   UNL     1     -11.097  11.482  68.903  1.00  0.00    -0.253 S  
HETATM    8  O   UNL     1     -12.222  11.393  67.999  1.00  0.00    -0.607 OA 
HETATM    9  N   UNL     1     -11.111  13.054  69.526  1.00  0.00    -0.456 N  
HETATM   10  O   UNL     1      -9.735  11.224  68.485  1.00  0.00    -0.187 OA 
HETATM   11  H1  UNL     1     -10.918  13.701  68.761  1.00  0.00     0.000 HD 
HETATM   12  H2  UNL     1     -11.282  13.312  70.498  1.00  0.00     0.000 HD 
ENDBRANCH   4   7
BRANCH   6  13
HETATM   13  N   UNL     1     -10.860   7.854  72.855  1.00  0.00    -0.389 N  
HETATM   14  H   UNL     1     -10.194   8.214  73.540  1.00  0.00     0.000 HD 
HETATM   15  C   UNL     1     -11.106   6.518  72.876  1.00  0.00    -0.223 C  
HETATM   16  C   UNL     1     -10.327   5.821  73.969  1.00  0.00    -0.295 C  
HETATM   17  O   UNL     1     -11.842   5.891  72.125  1.00  0.00    -0.285 OA 
ENDBRANCH   6  13
TORSDOF 2
ENDMDL
MODEL       49
REMARK 921   NORMALIZED FREE ENERGY PREDICTED BY IDOCK:   -4.32 KCAL/MOL
REMARK 922        TOTAL FREE ENERGY PREDICTED BY IDOCK:   -5.06 KCAL/MOL
REMARK 923 INTER-LIGAND FREE ENERGY PREDICTED BY IDOCK:   -4.81 KCAL/MOL
REMARK 924 INTRA-LIGAND FREE ENERGY PREDICTED BY IDOCK:   -0.25 KCAL/MOL
REMARK 927      BINDING AFFINITY PREDICTED BY RF-SCORE:    0.00 PKD
ROOT
HETATM    1  C   UNL     1     -10.369   9.050  66.760  1.00  0.00    -0.240 C  
HETATM    2  N   UNL     1     -10.815  10.324  67.293  1.00  0.00    -0.273 NA 
HETATM    3  N   UNL     1     -10.898  11.360  66.369  1.00  0.00    -0.277 NA 
HETATM    4  C   UNL     1     -11.344  12.427  66.976  1.00  0.00    -0.327 C  
HETATM    5  S   UNL     1     -11.694  12.292  68.682  1.00  0.00    -0.322 SA 
HETATM    6  C   UNL     1     -11.191  10.588  68.602  1.00  0.00    -0.270 C  
ENDROOT
BRANCH   4   7
HETATM    7  S   UNL     1     -11.590  13.951  66.093  1.00  0.00    -0.376 S  
HETATM    8  O   UNL     1     -10.501  14.056  65.147  1.00  0.00    -0.348 OA 
HETATM    9  N   UNL     1     -13.004  13.807  65.176  1.00  0.00    -0.762 N  
HETATM   10  O   UNL     1     -11.857  14.962  67.093  1.00  0.00    -0.338 OA 
HETATM   11  H1  UNL     1     -13.145  14.682  64.669  1.00  0.00     0.000 HD 
HETATM   12  H2  UNL     1     -13.611  12.989  65.136  1.00  0.00     0.000 HD 
ENDBRANCH   4   7
BRANCH   6  13
HETATM   13  N   UNL     1     -11.300  10.021  69.741  1.00  0.00    -0.326 N  
HETATM   14  H   UNL     1     -12.243   9.909  70.115  1.00  0.00     0.000 HD 
HETATM   15  C   UNL     1     -10.275   9.554  70.500  1.00  0.00    -0.287 C  
HETATM   16  C   UNL     1     -10.769   8.920  71.782  1.00  0.00    -0.432 C  
HETATM   17  O   UNL     1      -9.078   9.619  70.248  1.00  0.00    -0.235 OA 
ENDBRANCH   6  13
TORSDOF 2
ENDMDL
MODEL       50
REMARK 921   NORMALIZED FREE ENERGY PREDICTED BY IDOCK:   -4.31 KCAL/MOL
REMARK 922        TOTAL FREE ENERGY PREDICTED BY IDOCK:   -5.04 KCAL/MOL
REMARK 923 INTER-LIGAND FREE ENERGY PREDICTED BY IDOCK:   -4.82 KCAL/MOL
REMARK 924 INTRA-LIGAND FREE ENERGY PREDICTED BY IDOCK:   -0.22 KCAL/MOL
REMARK 927      BINDING AFFINITY PREDICTED BY RF-SCORE:    0.00 PKD
ROOT
HETATM    1  C   UNL     1     -12.990  12.124  72.052  1.00  0.00    -0.272 C  
HETATM    2  N   UNL     1     -12.293  11.655  70.869  1.00  0.00    -0.371 NA 
HETATM    3  N   UNL     1     -12.316  12.522  69.782  1.00  0.00    -0.097 NA 
HETATM    4  C   UNL     1     -11.625  11.991  68.809  1.00  0.00    -0.311 C  
HETATM    5  S   UNL     1     -10.902  10.428  69.099  1.00  0.00    -0.252 SA 
HETATM    6  C   UNL     1     -11.594  10.464  70.737  1.00  0.00    -0.358 C  
ENDROOT
BRANCH   4   7
HETATM    7  S   UNL     1     -11.427  12.835  67.256  1.00  0.00    -0.357 S  
HETATM    8  O   UNL     1     -12.076  12.013  66.258  1.00  0.00    -0.596 OA 
HETATM    9  N   UNL     1     -12.304  14.280  67.325  1.00  0.00    -0.592 N  
HETATM   10  O   UNL     1     -10.032  13.211  67.172  1.00  0.00    -0.230 OA 
HETATM   11  H1  UNL     1     -12.190  14.764  66.434  1.00  0.00     0.000 HD 
HETATM   12  H2  UNL     1     -12.851  14.610  68.120  1.00  0.00     0.000 HD 
ENDBRANCH   4   7
BRANCH   6  13
HETATM   13  N   UNL     1     -11.284   9.413  71.391  1.00  0.00    -0.358 N  
HETATM   14  H   UNL     1     -10.290   9.211  71.502  1.00  0.00     0.000 HD 
HETATM   15  C   UNL     1     -12.158   8.538  71.954  1.00  0.00    -0.349 C  
HETATM   16  C   UNL     1     -11.443   7.416  72.675  1.00  0.00    -0.337 C  
HETATM   17  O   UNL     1     -13.381   8.582  71.910  1.00  0.00    -0.340 OA 
ENDBRANCH   6  13
TORSDOF 2
ENDMDL
MODEL       51
REMARK 921   NORMALIZED FREE ENERGY PREDICTED BY IDOCK:   -4.25 KCAL/MOL
REMARK 922        TOTAL FREE ENERGY PREDICTED BY IDOCK:   -4.98 KCAL/MOL
REMARK 923 INTER-LIGAND FREE ENERGY PREDICTED BY IDOCK:   -4.75 KCAL/MOL
REMARK 924 INTRA-LIGAND FREE ENERGY PREDICTED BY IDOCK:   -0.23 KCAL/MOL
REMARK 927      BINDING AFFINITY PREDICTED BY RF-SCORE:    0.00 PKD
ROOT
HETATM    1  C   UNL     1      -8.617  15.425  69.117  1.00  0.00    -0.242 C  
HETATM    2  N   UNL     1      -9.299  15.894  67.926  1.00  0.00    -0.207 NA 
HETATM    3  N   UNL     1     -10.002  14.924  67.220  1.00  0.00    -0.229 NA 
HETATM    4  C   UNL     1     -10.591  15.491  66.202  1.00  0.00    -0.315 C  
HETATM    5  S   UNL     1     -10.357  17.210  65.996  1.00  0.00    -0.242 SA 
HETATM    6  C   UNL     1      -9.342  17.199  67.457  1.00  0.00    -0.238 C  
ENDROOT
BRANCH   4   7
HETATM    7  S   UNL     1     -11.595  14.547  65.078  1.00  0.00    -0.399 S  
HETATM    8  O   UNL     1     -12.762  14.129  65.824  1.00  0.00    -0.508 OA 
HETATM    9  N   UNL     1     -12.154  15.588  63.867  1.00  0.00    -0.980 N  
HETATM   10  O   UNL     1     -10.706  13.609  64.428  1.00  0.00    -0.410 OA 
HETATM   11  H1  UNL     1     -12.729  15.046  63.223  1.00  0.00     0.000 HD 
HETATM   12  H2  UNL     1     -11.949  16.585  63.794  1.00  0.00     0.000 HD 
ENDBRANCH   4   7
BRANCH   6  13
HETATM   13  N   UNL     1      -8.910  18.370  67.726  1.00  0.00    -0.274 N  
HETATM   14  H   UNL     1      -9.517  18.972  68.283  1.00  0.00     0.000 HD 
HETATM   15  C   UNL     1      -7.715  18.887  67.339  1.00  0.00    -0.231 C  
HETATM   16  C   UNL     1      -7.518  20.295  67.855  1.00  0.00    -0.291 C  
HETATM   17  O   UNL     1      -6.863  18.343  66.646  1.00  0.00    -0.185 OA 
ENDBRANCH   6  13
TORSDOF 2
ENDMDL
MODEL       52
REMARK 921   NORMALIZED FREE ENERGY PREDICTED BY IDOCK:   -4.24 KCAL/MOL
REMARK 922        TOTAL FREE ENERGY PREDICTED BY IDOCK:   -4.97 KCAL/MOL
REMARK 923 INTER-LIGAND FREE ENERGY PREDICTED BY IDOCK:   -4.77 KCAL/MOL
REMARK 924 INTRA-LIGAND FREE ENERGY PREDICTED BY IDOCK:   -0.20 KCAL/MOL
REMARK 927      BINDING AFFINITY PREDICTED BY RF-SCORE:    0.00 PKD
ROOT
HETATM    1  C   UNL     1     -12.075  12.015  69.103  1.00  0.00    -0.183 C  
HETATM    2  N   UNL     1     -11.402  12.275  67.844  1.00  0.00    -0.276 NA 
HETATM    3  N   UNL     1     -12.218  12.265  66.718  1.00  0.00    -0.470 NA 
HETATM    4  C   UNL     1     -11.491  12.548  65.671  1.00  0.00    -0.359 C  
HETATM    5  S   UNL     1      -9.789  12.840  65.933  1.00  0.00    -0.198 SA 
HETATM    6  C   UNL     1     -10.055  12.560  67.669  1.00  0.00    -0.217 C  
ENDROOT
BRANCH   4   7
HETATM    7  S   UNL     1     -12.212  12.635  64.048  1.00  0.00    -0.478 S  
HETATM    8  O   UNL     1     -13.532  12.056  64.155  1.00  0.00    -0.672 OA 
HETATM    9  N   UNL     1     -12.439  14.266  63.659  1.00  0.00    -1.083 N  
HETATM   10  O   UNL     1     -11.211  12.136  63.130  1.00  0.00    -0.348 OA 
HETATM   11  H1  UNL     1     -12.852  14.317  62.728  1.00  0.00     0.000 HD 
HETATM   12  H2  UNL     1     -12.203  15.062  64.252  1.00  0.00     0.000 HD 
ENDBRANCH   4   7
BRANCH   6  13
HETATM   13  N   UNL     1      -8.970  12.692  68.328  1.00  0.00    -0.243 N  
HETATM   14  H   UNL     1      -8.797  13.600  68.760  1.00  0.00     0.000 HD 
HETATM   15  C   UNL     1      -8.025  11.732  68.509  1.00  0.00    -0.145 C  
HETATM   16  C   UNL     1      -6.881  12.226  69.365  1.00  0.00     0.007 C  
HETATM   17  O   UNL     1      -8.029  10.596  68.052  1.00  0.00    -0.104 OA 
ENDBRANCH   6  13
TORSDOF 2
ENDMDL
MODEL       53
REMARK 921   NORMALIZED FREE ENERGY PREDICTED BY IDOCK:   -4.21 KCAL/MOL
REMARK 922        TOTAL FREE ENERGY PREDICTED BY IDOCK:   -4.93 KCAL/MOL
REMARK 923 INTER-LIGAND FREE ENERGY PREDICTED BY IDOCK:   -4.70 KCAL/MOL
REMARK 924 INTRA-LIGAND FREE ENERGY PREDICTED BY IDOCK:   -0.23 KCAL/MOL
REMARK 927      BINDING AFFINITY PREDICTED BY RF-SCORE:    0.00 PKD
ROOT
HETATM    1  C   UNL     1     -11.127  10.634  67.542  1.00  0.00    -0.300 C  
HETATM    2  N   UNL     1     -10.787  12.004  67.203  1.00  0.00    -0.242 NA 
HETATM    3  N   UNL     1     -11.112  12.954  68.164  1.00  0.00    -0.239 NA 
HETATM    4  C   UNL     1     -10.719  14.126  67.743  1.00  0.00    -0.247 C  
HETATM    5  S   UNL     1      -9.943  14.198  66.180  1.00  0.00    -0.319 SA 
HETATM    6  C   UNL     1     -10.151  12.437  66.048  1.00  0.00    -0.251 C  
ENDROOT
BRANCH   4   7
HETATM    7  S   UNL     1     -10.962  15.585  68.730  1.00  0.00    -0.289 S  
HETATM    8  O   UNL     1     -10.906  16.709  67.821  1.00  0.00    -0.340 OA 
HETATM    9  N   UNL     1     -12.538  15.550  69.345  1.00  0.00    -0.576 N  
HETATM   10  O   UNL     1     -10.079  15.457  69.870  1.00  0.00    -0.277 OA 
HETATM   11  H1  UNL     1     -12.677  16.387  69.912  1.00  0.00     0.000 HD 
HETATM   12  H2  UNL     1     -13.229  14.818  69.179  1.00  0.00     0.000 HD 
ENDBRANCH   4   7
BRANCH   6  13
HETATM   13  N   UNL     1      -9.671  11.997  64.950  1.00  0.00    -0.423 N  
HETATM   14  H   UNL     1      -8.670  11.799  64.928  1.00  0.00     0.000 HD 
HETATM   15  C   UNL     1     -10.371  11.769  63.808  1.00  0.00    -0.410 C  
HETATM   16  C   UNL     1      -9.487  11.225  62.707  1.00  0.00    -0.355 C  
HETATM   17  O   UNL     1     -11.564  11.971  63.619  1.00  0.00    -0.428 OA 
ENDBRANCH   6  13
TORSDOF 2
ENDMDL
MODEL       54
REMARK 921   NORMALIZED FREE ENERGY PREDICTED BY IDOCK:   -4.21 KCAL/MOL
REMARK 922        TOTAL FREE ENERGY PREDICTED BY IDOCK:   -4.93 KCAL/MOL
REMARK 923 INTER-LIGAND FREE ENERGY PREDICTED BY IDOCK:   -4.92 KCAL/MOL
REMARK 924 INTRA-LIGAND FREE ENERGY PREDICTED BY IDOCK:   -0.01 KCAL/MOL
REMARK 927      BINDING AFFINITY PREDICTED BY RF-SCORE:    0.00 PKD
ROOT
HETATM    1  C   UNL     1     -12.648  10.549  71.116  1.00  0.00    -0.417 C  
HETATM    2  N   UNL     1     -12.224  11.854  70.645  1.00  0.00    -0.374 NA 
HETATM    3  N   UNL     1     -12.592  12.927  71.449  1.00  0.00    -0.283 NA 
HETATM    4  C   UNL     1     -12.116  14.025  70.926  1.00  0.00    -0.329 C  
HETATM    5  S   UNL     1     -11.205  13.877  69.443  1.00  0.00    -0.187 SA 
HETATM    6  C   UNL     1     -11.473  12.120  69.509  1.00  0.00    -0.265 C  
ENDROOT
BRANCH   4   7
HETATM    7  S   UNL     1     -12.383  15.603  71.701  1.00  0.00    -0.467 S  
HETATM    8  O   UNL     1     -13.812  15.824  71.697  1.00  0.00    -0.454 OA 
HETATM    9  N   UNL     1     -11.926  15.477  73.325  1.00  0.00    -0.456 N  
HETATM   10  O   UNL     1     -11.448  16.521  71.087  1.00  0.00    -0.331 OA 
HETATM   11  H1  UNL     1     -12.079  16.383  73.770  1.00  0.00     0.000 HD 
HETATM   12  H2  UNL     1     -11.560  14.642  73.781  1.00  0.00     0.000 HD 
ENDBRANCH   4   7
BRANCH   6  13
HETATM   13  N   UNL     1     -10.918  11.532  68.521  1.00  0.00    -0.207 N  
HETATM   14  H   UNL     1     -10.125  10.924  68.729  1.00  0.00     0.000 HD 
HETATM   15  C   UNL     1     -11.288  11.641  67.218  1.00  0.00    -0.305 C  
HETATM   16  C   UNL     1     -10.425  10.786  66.317  1.00  0.00    -0.287 C  
HETATM   17  O   UNL     1     -12.186  12.336  66.760  1.00  0.00    -0.558 OA 
ENDBRANCH   6  13
TORSDOF 2
ENDMDL
MODEL       55
REMARK 921   NORMALIZED FREE ENERGY PREDICTED BY IDOCK:   -4.21 KCAL/MOL
REMARK 922        TOTAL FREE ENERGY PREDICTED BY IDOCK:   -4.93 KCAL/MOL
REMARK 923 INTER-LIGAND FREE ENERGY PREDICTED BY IDOCK:   -4.68 KCAL/MOL
REMARK 924 INTRA-LIGAND FREE ENERGY PREDICTED BY IDOCK:   -0.25 KCAL/MOL
REMARK 927      BINDING AFFINITY PREDICTED BY RF-SCORE:    0.00 PKD
ROOT
HETATM    1  C   UNL     1     -10.889  11.010  66.196  1.00  0.00    -0.146 C  
HETATM    2  N   UNL     1     -11.328  11.606  67.444  1.00  0.00    -0.353 NA 
HETATM    3  N   UNL     1     -11.673  10.707  68.446  1.00  0.00    -0.424 NA 
HETATM    4  C   UNL     1     -12.011  11.379  69.514  1.00  0.00    -0.341 C  
HETATM    5  S   UNL     1     -11.955  13.122  69.415  1.00  0.00    -0.254 SA 
HETATM    6  C   UNL     1     -11.403  12.962  67.732  1.00  0.00    -0.299 C  
ENDROOT
BRANCH   4   7
HETATM    7  S   UNL     1     -12.501  10.546  71.007  1.00  0.00    -0.436 S  
HETATM    8  O   UNL     1     -13.063  11.558  71.874  1.00  0.00    -0.481 OA 
HETATM    9  N   UNL     1     -13.765   9.488  70.630  1.00  0.00    -0.451 N  
HETATM   10  O   UNL     1     -11.380   9.717  71.396  1.00  0.00    -0.369 OA 
HETATM   11  H1  UNL     1     -14.046   9.010  71.486  1.00  0.00     0.000 HD 
HETATM   12  H2  UNL     1     -14.176   9.350  69.706  1.00  0.00     0.000 HD 
ENDBRANCH   4   7
BRANCH   6  13
HETATM   13  N   UNL     1     -11.203  14.106  67.201  1.00  0.00    -0.306 N  
HETATM   14  H   UNL     1     -12.020  14.701  67.062  1.00  0.00     0.000 HD 
HETATM   15  C   UNL     1     -10.002  14.603  66.807  1.00  0.00    -0.261 C  
HETATM   16  C   UNL     1     -10.131  16.000  66.242  1.00  0.00    -0.329 C  
HETATM   17  O   UNL     1      -8.915  14.040  66.858  1.00  0.00    -0.234 OA 
ENDBRANCH   6  13
TORSDOF 2
ENDMDL
MODEL       56
REMARK 921   NORMALIZED FREE ENERGY PREDICTED BY IDOCK:   -4.20 KCAL/MOL
REMARK 922        TOTAL FREE ENERGY PREDICTED BY IDOCK:   -4.92 KCAL/MOL
REMARK 923 INTER-LIGAND FREE ENERGY PREDICTED BY IDOCK:   -4.83 KCAL/MOL
REMARK 924 INTRA-LIGAND FREE ENERGY PREDICTED BY IDOCK:   -0.10 KCAL/MOL
REMARK 927      BINDING AFFINITY PREDICTED BY RF-SCORE:    0.00 PKD
ROOT
HETATM    1  C   UNL     1     -10.130  11.278  68.577  1.00  0.00    -0.204 C  
HETATM    2  N   UNL     1     -11.115  11.075  69.623  1.00  0.00    -0.261 NA 
HETATM    3  N   UNL     1     -11.365   9.749  69.957  1.00  0.00    -0.239 NA 
HETATM    4  C   UNL     1     -12.238   9.720  70.929  1.00  0.00    -0.302 C  
HETATM    5  S   UNL     1     -12.835  11.252  71.516  1.00  0.00    -0.355 SA 
HETATM    6  C   UNL     1     -11.791  12.062  70.326  1.00  0.00    -0.270 C  
ENDROOT
BRANCH   4   7
HETATM    7  S   UNL     1     -12.786   8.178  71.624  1.00  0.00    -0.317 S  
HETATM    8  O   UNL     1     -14.220   8.285  71.780  1.00  0.00    -0.414 OA 
HETATM    9  N   UNL     1     -12.523   6.959  70.480  1.00  0.00    -0.585 N  
HETATM   10  O   UNL     1     -11.899   7.893  72.732  1.00  0.00    -0.340 OA 
HETATM   11  H1  UNL     1     -12.837   6.075  70.879  1.00  0.00     0.000 HD 
HETATM   12  H2  UNL     1     -12.119   7.087  69.552  1.00  0.00     0.000 HD 
ENDBRANCH   4   7
BRANCH   6  13
HETATM   13  N   UNL     1     -11.902  13.331  70.404  1.00  0.00    -0.536 N  
HETATM   14  H   UNL     1     -11.861  13.744  71.337  1.00  0.00     0.000 HD 
HETATM   15  C   UNL     1     -12.070  14.183  69.359  1.00  0.00    -0.328 C  
HETATM   16  C   UNL     1     -12.141  15.624  69.814  1.00  0.00    -0.346 C  
HETATM   17  O   UNL     1     -12.175  13.889  68.175  1.00  0.00    -0.329 OA 
ENDBRANCH   6  13
TORSDOF 2
ENDMDL
MODEL       57
REMARK 921   NORMALIZED FREE ENERGY PREDICTED BY IDOCK:   -4.16 KCAL/MOL
REMARK 922        TOTAL FREE ENERGY PREDICTED BY IDOCK:   -4.88 KCAL/MOL
REMARK 923 INTER-LIGAND FREE ENERGY PREDICTED BY IDOCK:   -4.66 KCAL/MOL
REMARK 924 INTRA-LIGAND FREE ENERGY PREDICTED BY IDOCK:   -0.22 KCAL/MOL
REMARK 927      BINDING AFFINITY PREDICTED BY RF-SCORE:    0.00 PKD
ROOT
HETATM    1  C   UNL     1     -10.877  19.419  67.200  1.00  0.00    -0.450 C  
HETATM    2  N   UNL     1      -9.681  18.788  67.725  1.00  0.00    -0.309 NA 
HETATM    3  N   UNL     1      -8.722  19.658  68.233  1.00  0.00    -0.328 NA 
HETATM    4  C   UNL     1      -7.725  18.955  68.701  1.00  0.00    -0.340 C  
HETATM    5  S   UNL     1      -7.840  17.217  68.571  1.00  0.00    -0.274 SA 
HETATM    6  C   UNL     1      -9.427  17.426  67.797  1.00  0.00    -0.261 C  
ENDROOT
BRANCH   4   7
HETATM    7  S   UNL     1      -6.315  19.743  69.443  1.00  0.00    -0.347 S  
HETATM    8  O   UNL     1      -5.225  18.795  69.360  1.00  0.00    -0.191 OA 
HETATM    9  N   UNL     1      -5.874  21.059  68.475  1.00  0.00    -0.346 N  
HETATM   10  O   UNL     1      -6.773  20.299  70.698  1.00  0.00    -0.341 OA 
HETATM   11  H1  UNL     1      -5.065  21.511  68.901  1.00  0.00     0.000 HD 
HETATM   12  H2  UNL     1      -6.338  21.350  67.614  1.00  0.00     0.000 HD 
ENDBRANCH   4   7
BRANCH   6  13
HETATM   13  N   UNL     1      -9.948  16.298  67.503  1.00  0.00    -0.244 N  
HETATM   14  H   UNL     1     -10.092  15.640  68.270  1.00  0.00     0.000 HD 
HETATM   15  C   UNL     1     -10.330  15.895  66.263  1.00  0.00    -0.314 C  
HETATM   16  C   UNL     1     -10.932  14.507  66.285  1.00  0.00    -0.323 C  
HETATM   17  O   UNL     1     -10.215  16.518  65.215  1.00  0.00    -0.588 OA 
ENDBRANCH   6  13
TORSDOF 2
ENDMDL
MODEL       58
REMARK 921   NORMALIZED FREE ENERGY PREDICTED BY IDOCK:   -4.15 KCAL/MOL
REMARK 922        TOTAL FREE ENERGY PREDICTED BY IDOCK:   -4.87 KCAL/MOL
REMARK 923 INTER-LIGAND FREE ENERGY PREDICTED BY IDOCK:   -4.63 KCAL/MOL
REMARK 924 INTRA-LIGAND FREE ENERGY PREDICTED BY IDOCK:   -0.24 KCAL/MOL
REMARK 927      BINDING AFFINITY PREDICTED BY RF-SCORE:    0.00 PKD
ROOT
HETATM    1  C   UNL     1     -11.690  14.443  66.054  1.00  0.00    -0.375 C  
HETATM    2  N   UNL     1     -11.419  15.127  67.305  1.00  0.00    -0.322 NA 
HETATM    3  N   UNL     1     -12.122  14.654  68.407  1.00  0.00    -0.245 NA 
HETATM    4  C   UNL     1     -11.753  15.333  69.461  1.00  0.00    -0.339 C  
HETATM    5  S   UNL     1     -10.555  16.583  69.231  1.00  0.00    -0.337 SA 
HETATM    6  C   UNL     1     -10.517  16.163  67.503  1.00  0.00    -0.302 C  
ENDROOT
BRANCH   4   7
HETATM    7  S   UNL     1     -12.443  14.988  71.064  1.00  0.00    -0.374 S  
HETATM    8  O   UNL     1     -11.615  15.682  72.024  1.00  0.00    -0.402 OA 
HETATM    9  N   UNL     1     -13.972  15.707  71.146  1.00  0.00    -0.726 N  
HETATM   10  O   UNL     1     -12.665  13.558  71.112  1.00  0.00    -0.346 OA 
HETATM   11  H1  UNL     1     -14.368  15.509  72.065  1.00  0.00     0.000 HD 
HETATM   12  H2  UNL     1     -14.421  16.245  70.405  1.00  0.00     0.000 HD 
ENDBRANCH   4   7
BRANCH   6  13
HETATM   13  N   UNL     1      -9.683  16.893  66.870  1.00  0.00    -0.250 N  
HETATM   14  H   UNL     1     -10.023  17.788  66.518  1.00  0.00     0.000 HD 
HETATM   15  C   UNL     1      -8.382  16.586  66.623  1.00  0.00    -0.262 C  
HETATM   16  C   UNL     1      -7.679  17.692  65.867  1.00  0.00    -0.136 C  
HETATM   17  O   UNL     1      -7.794  15.557  66.930  1.00  0.00    -0.218 OA 
ENDBRANCH   6  13
TORSDOF 2
ENDMDL
MODEL       59
REMARK 921   NORMALIZED FREE ENERGY PREDICTED BY IDOCK:   -4.15 KCAL/MOL
REMARK 922        TOTAL FREE ENERGY PREDICTED BY IDOCK:   -4.87 KCAL/MOL
REMARK 923 INTER-LIGAND FREE ENERGY PREDICTED BY IDOCK:   -4.62 KCAL/MOL
REMARK 924 INTRA-LIGAND FREE ENERGY PREDICTED BY IDOCK:   -0.25 KCAL/MOL
REMARK 927      BINDING AFFINITY PREDICTED BY RF-SCORE:    0.00 PKD
ROOT
HETATM    1  C   UNL     1     -10.800  15.932  65.070  1.00  0.00    -0.426 C  
HETATM    2  N   UNL     1     -10.498  15.411  66.390  1.00  0.00    -0.295 NA 
HETATM    3  N   UNL     1     -10.971  14.129  66.647  1.00  0.00    -0.299 NA 
HETATM    4  C   UNL     1     -10.598  13.778  67.849  1.00  0.00    -0.252 C  
HETATM    5  S   UNL     1      -9.667  14.935  68.769  1.00  0.00    -0.228 SA 
HETATM    6  C   UNL     1      -9.769  16.047  67.384  1.00  0.00    -0.232 C  
ENDROOT
BRANCH   4   7
HETATM    7  S   UNL     1     -11.018  12.183  68.513  1.00  0.00    -0.254 S  
HETATM    8  O   UNL     1      -9.775  11.457  68.654  1.00  0.00    -0.192 OA 
HETATM    9  N   UNL     1     -11.619  12.405  70.079  1.00  0.00    -0.525 N  
HETATM   10  O   UNL     1     -12.125  11.691  67.720  1.00  0.00    -0.613 OA 
HETATM   11  H1  UNL     1     -11.860  11.490  70.460  1.00  0.00     0.000 HD 
HETATM   12  H2  UNL     1     -11.722  13.298  70.559  1.00  0.00     0.000 HD 
ENDBRANCH   4   7
BRANCH   6  13
HETATM   13  N   UNL     1      -9.154  17.140  67.625  1.00  0.00    -0.225 N  
HETATM   14  H   UNL     1      -8.145  17.083  67.766  1.00  0.00     0.000 HD 
HETATM   15  C   UNL     1      -9.721  18.372  67.710  1.00  0.00    -0.301 C  
HETATM   16  C   UNL     1      -8.692  19.446  67.984  1.00  0.00    -0.362 C  
HETATM   17  O   UNL     1     -10.910  18.647  67.603  1.00  0.00    -0.418 OA 
ENDBRANCH   6  13
TORSDOF 2
ENDMDL
MODEL       60
REMARK 921   NORMALIZED FREE ENERGY PREDICTED BY IDOCK:   -4.14 KCAL/MOL
REMARK 922        TOTAL FREE ENERGY PREDICTED BY IDOCK:   -4.86 KCAL/MOL
REMARK 923 INTER-LIGAND FREE ENERGY PREDICTED BY IDOCK:   -4.63 KCAL/MOL
REMARK 924 INTRA-LIGAND FREE ENERGY PREDICTED BY IDOCK:   -0.23 KCAL/MOL
REMARK 927      BINDING AFFINITY PREDICTED BY RF-SCORE:    0.00 PKD
ROOT
HETATM    1  C   UNL     1      -8.623  11.716  68.583  1.00  0.00    -0.086 C  
HETATM    2  N   UNL     1      -9.769  12.459  68.094  1.00  0.00    -0.210 NA 
HETATM    3  N   UNL     1      -9.664  12.927  66.789  1.00  0.00    -0.239 NA 
HETATM    4  C   UNL     1     -10.774  13.540  66.474  1.00  0.00    -0.287 C  
HETATM    5  S   UNL     1     -12.023  13.615  67.693  1.00  0.00    -0.311 SA 
HETATM    6  C   UNL     1     -10.948  12.708  68.782  1.00  0.00    -0.249 C  
ENDROOT
BRANCH   4   7
HETATM    7  S   UNL     1     -11.000  14.260  64.863  1.00  0.00    -0.412 S  
HETATM    8  O   UNL     1     -10.154  13.513  63.959  1.00  0.00    -0.204 OA 
HETATM    9  N   UNL     1     -12.593  13.968  64.374  1.00  0.00    -0.677 N  
HETATM   10  O   UNL     1     -10.885  15.692  65.038  1.00  0.00    -0.412 OA 
HETATM   11  H1  UNL     1     -12.723  14.382  63.451  1.00  0.00     0.000 HD 
HETATM   12  H2  UNL     1     -13.302  13.467  64.910  1.00  0.00     0.000 HD 
ENDBRANCH   4   7
BRANCH   6  13
HETATM   13  N   UNL     1     -11.506  12.501  69.911  1.00  0.00    -0.515 N  
HETATM   14  H   UNL     1     -11.354  13.200  70.639  1.00  0.00     0.000 HD 
HETATM   15  C   UNL     1     -12.284  11.434  70.232  1.00  0.00    -0.349 C  
HETATM   16  C   UNL     1     -12.801  11.523  71.651  1.00  0.00    -0.475 C  
HETATM   17  O   UNL     1     -12.561  10.479  69.517  1.00  0.00    -0.202 OA 
ENDBRANCH   6  13
TORSDOF 2
ENDMDL
MODEL       61
REMARK 921   NORMALIZED FREE ENERGY PREDICTED BY IDOCK:   -4.13 KCAL/MOL
REMARK 922        TOTAL FREE ENERGY PREDICTED BY IDOCK:   -4.84 KCAL/MOL
REMARK 923 INTER-LIGAND FREE ENERGY PREDICTED BY IDOCK:   -4.59 KCAL/MOL
REMARK 924 INTRA-LIGAND FREE ENERGY PREDICTED BY IDOCK:   -0.25 KCAL/MOL
REMARK 927      BINDING AFFINITY PREDICTED BY RF-SCORE:    0.00 PKD
ROOT
HETATM    1  C   UNL     1     -12.518  12.912  65.155  1.00  0.00    -0.501 C  
HETATM    2  N   UNL     1     -11.861  12.997  66.446  1.00  0.00    -0.389 NA 
HETATM    3  N   UNL     1     -12.053  14.188  67.136  1.00  0.00    -0.430 NA 
HETATM    4  C   UNL     1     -11.440  14.109  68.287  1.00  0.00    -0.304 C  
HETATM    5  S   UNL     1     -10.584  12.628  68.639  1.00  0.00    -0.189 SA 
HETATM    6  C   UNL     1     -11.103  12.007  67.056  1.00  0.00    -0.298 C  
ENDROOT
BRANCH   4   7
HETATM    7  S   UNL     1     -11.484  15.458  69.446  1.00  0.00    -0.350 S  
HETATM    8  O   UNL     1     -12.757  15.371  70.126  1.00  0.00    -0.335 OA 
HETATM    9  N   UNL     1     -10.298  15.183  70.620  1.00  0.00    -0.471 N  
HETATM   10  O   UNL     1     -11.067  16.635  68.715  1.00  0.00    -0.325 OA 
HETATM   11  H1  UNL     1     -10.323  15.957  71.285  1.00  0.00     0.000 HD 
HETATM   12  H2  UNL     1      -9.666  14.383  70.657  1.00  0.00     0.000 HD 
ENDBRANCH   4   7
BRANCH   6  13
HETATM   13  N   UNL     1     -10.670  10.821  66.862  1.00  0.00    -0.262 N  
HETATM   14  H   UNL     1     -11.067  10.082  67.443  1.00  0.00     0.000 HD 
HETATM   15  C   UNL     1      -9.731  10.454  65.952  1.00  0.00    -0.217 C  
HETATM   16  C   UNL     1      -9.477   8.963  65.978  1.00  0.00    -0.320 C  
HETATM   17  O   UNL     1      -9.116  11.186  65.187  1.00  0.00    -0.202 OA 
ENDBRANCH   6  13
TORSDOF 2
ENDMDL
MODEL       62
REMARK 921   NORMALIZED FREE ENERGY PREDICTED BY IDOCK:   -4.12 KCAL/MOL
REMARK 922        TOTAL FREE ENERGY PREDICTED BY IDOCK:   -4.83 KCAL/MOL
REMARK 923 INTER-LIGAND FREE ENERGY PREDICTED BY IDOCK:   -4.58 KCAL/MOL
REMARK 924 INTRA-LIGAND FREE ENERGY PREDICTED BY IDOCK:   -0.24 KCAL/MOL
REMARK 927      BINDING AFFINITY PREDICTED BY RF-SCORE:    0.00 PKD
ROOT
HETATM    1  C   UNL     1      -9.215  11.024  62.827  1.00  0.00    -0.351 C  
HETATM    2  N   UNL     1      -9.709  10.869  64.183  1.00  0.00    -0.268 NA 
HETATM    3  N   UNL     1      -9.407   9.656  64.792  1.00  0.00    -0.250 NA 
HETATM    4  C   UNL     1      -9.878   9.671  66.010  1.00  0.00    -0.274 C  
HETATM    5  S   UNL     1     -10.719  11.112  66.527  1.00  0.00    -0.235 SA 
HETATM    6  C   UNL     1     -10.410  11.811  64.921  1.00  0.00    -0.289 C  
ENDROOT
BRANCH   4   7
HETATM    7  S   UNL     1      -9.663   8.279  67.096  1.00  0.00    -0.217 S  
HETATM    8  O   UNL     1     -10.042   8.728  68.417  1.00  0.00    -0.178 OA 
HETATM    9  N   UNL     1     -10.785   7.091  66.658  1.00  0.00    -0.532 N  
HETATM   10  O   UNL     1      -8.357   7.731  66.801  1.00  0.00    -0.119 OA 
HETATM   11  H1  UNL     1     -10.662   6.292  67.280  1.00  0.00     0.000 HD 
HETATM   12  H2  UNL     1     -11.467   7.160  65.902  1.00  0.00     0.000 HD 
ENDBRANCH   4   7
BRANCH   6  13
HETATM   13  N   UNL     1     -10.890  12.991  64.832  1.00  0.00    -0.308 N  
HETATM   14  H   UNL     1     -10.376  13.738  65.301  1.00  0.00     0.000 HD 
HETATM   15  C   UNL     1     -12.023  13.344  64.170  1.00  0.00    -0.450 C  
HETATM   16  C   UNL     1     -12.280  14.832  64.252  1.00  0.00    -0.402 C  
HETATM   17  O   UNL     1     -12.792  12.601  63.574  1.00  0.00    -0.712 OA 
ENDBRANCH   6  13
TORSDOF 2
ENDMDL
MODEL       63
REMARK 921   NORMALIZED FREE ENERGY PREDICTED BY IDOCK:   -4.09 KCAL/MOL
REMARK 922        TOTAL FREE ENERGY PREDICTED BY IDOCK:   -4.80 KCAL/MOL
REMARK 923 INTER-LIGAND FREE ENERGY PREDICTED BY IDOCK:   -4.56 KCAL/MOL
REMARK 924 INTRA-LIGAND FREE ENERGY PREDICTED BY IDOCK:   -0.24 KCAL/MOL
REMARK 927      BINDING AFFINITY PREDICTED BY RF-SCORE:    0.00 PKD
ROOT
HETATM    1  C   UNL     1     -12.296  12.092  63.559  1.00  0.00    -0.574 C  
HETATM    2  N   UNL     1     -11.444  11.973  64.727  1.00  0.00    -0.317 NA 
HETATM    3  N   UNL     1     -11.799  12.772  65.808  1.00  0.00    -0.411 NA 
HETATM    4  C   UNL     1     -10.974  12.535  66.793  1.00  0.00    -0.265 C  
HETATM    5  S   UNL     1      -9.713  11.358  66.516  1.00  0.00    -0.206 SA 
HETATM    6  C   UNL     1     -10.353  11.128  64.873  1.00  0.00    -0.313 C  
ENDROOT
BRANCH   4   7
HETATM    7  S   UNL     1     -11.138  13.376  68.351  1.00  0.00    -0.289 S  
HETATM    8  O   UNL     1      -9.842  13.945  68.647  1.00  0.00    -0.224 OA 
HETATM    9  N   UNL     1     -12.192  14.681  68.138  1.00  0.00    -0.596 N  
HETATM   10  O   UNL     1     -11.809  12.454  69.242  1.00  0.00    -0.303 OA 
HETATM   11  H1  UNL     1     -12.287  15.164  69.031  1.00  0.00     0.000 HD 
HETATM   12  H2  UNL     1     -12.655  14.941  67.266  1.00  0.00     0.000 HD 
ENDBRANCH   4   7
BRANCH   6  13
HETATM   13  N   UNL     1      -9.676  10.256  64.233  1.00  0.00    -0.317 N  
HETATM   14  H   UNL     1      -9.666   9.307  64.611  1.00  0.00     0.000 HD 
HETATM   15  C   UNL     1      -8.967  10.473  63.094  1.00  0.00    -0.236 C  
HETATM   16  C   UNL     1      -8.305   9.208  62.594  1.00  0.00    -0.192 C  
HETATM   17  O   UNL     1      -8.826  11.537  62.503  1.00  0.00    -0.319 OA 
ENDBRANCH   6  13
TORSDOF 2
ENDMDL
MODEL       64
REMARK 921   NORMALIZED FREE ENERGY PREDICTED BY IDOCK:   -4.06 KCAL/MOL
REMARK 922        TOTAL FREE ENERGY PREDICTED BY IDOCK:   -4.77 KCAL/MOL
REMARK 923 INTER-LIGAND FREE ENERGY PREDICTED BY IDOCK:   -4.53 KCAL/MOL
REMARK 924 INTRA-LIGAND FREE ENERGY PREDICTED BY IDOCK:   -0.24 KCAL/MOL
REMARK 927      BINDING AFFINITY PREDICTED BY RF-SCORE:    0.00 PKD
ROOT
HETATM    1  C   UNL     1      -9.978   8.688  67.396  1.00  0.00    -0.210 C  
HETATM    2  N   UNL     1     -10.495   8.876  68.739  1.00  0.00    -0.216 NA 
HETATM    3  N   UNL     1     -10.793   7.708  69.431  1.00  0.00    -0.178 NA 
HETATM    4  C   UNL     1     -11.210   8.025  70.628  1.00  0.00    -0.261 C  
HETATM    5  S   UNL     1     -11.290   9.724  71.024  1.00  0.00    -0.400 SA 
HETATM    6  C   UNL     1     -10.684  10.085  69.391  1.00  0.00    -0.233 C  
ENDROOT
BRANCH   4   7
HETATM    7  S   UNL     1     -11.671   6.773  71.803  1.00  0.00    -0.328 S  
HETATM    8  O   UNL     1     -10.876   5.605  71.489  1.00  0.00    -0.254 OA 
HETATM    9  N   UNL     1     -11.179   7.283  73.339  1.00  0.00    -0.571 N  
HETATM   10  O   UNL     1     -13.118   6.750  71.827  1.00  0.00    -0.336 OA 
HETATM   11  H1  UNL     1     -11.443   6.565  74.013  1.00  0.00     0.000 HD 
HETATM   12  H2  UNL     1     -10.701   8.159  73.554  1.00  0.00     0.000 HD 
ENDBRANCH   4   7
BRANCH   6  13
HETATM   13  N   UNL     1     -10.562  11.344  69.213  1.00  0.00    -0.386 N  
HETATM   14  H   UNL     1      -9.902  11.836  69.816  1.00  0.00     0.000 HD 
HETATM   15  C   UNL     1     -11.230  12.087  68.293  1.00  0.00    -0.261 C  
HETATM   16  C   UNL     1     -10.821  13.543  68.344  1.00  0.00    -0.286 C  
HETATM   17  O   UNL     1     -12.079  11.696  67.502  1.00  0.00    -0.611 OA 
ENDBRANCH   6  13
TORSDOF 2
ENDMDL
MODEL       65
REMARK 921   NORMALIZED FREE ENERGY PREDICTED BY IDOCK:   -4.06 KCAL/MOL
REMARK 922        TOTAL FREE ENERGY PREDICTED BY IDOCK:   -4.77 KCAL/MOL
REMARK 923 INTER-LIGAND FREE ENERGY PREDICTED BY IDOCK:   -4.57 KCAL/MOL
REMARK 924 INTRA-LIGAND FREE ENERGY PREDICTED BY IDOCK:   -0.19 KCAL/MOL
REMARK 927      BINDING AFFINITY PREDICTED BY RF-SCORE:    0.00 PKD
ROOT
HETATM    1  C   UNL     1     -11.845  13.328  67.251  1.00  0.00    -0.372 C  
HETATM    2  N   UNL     1     -11.711  14.196  68.406  1.00  0.00    -0.325 NA 
HETATM    3  N   UNL     1     -12.519  13.872  69.491  1.00  0.00    -0.211 NA 
HETATM    4  C   UNL     1     -12.268  14.707  70.463  1.00  0.00    -0.324 C  
HETATM    5  S   UNL     1     -11.068  15.942  70.170  1.00  0.00    -0.388 SA 
HETATM    6  C   UNL     1     -10.847  15.273  68.537  1.00  0.00    -0.253 C  
ENDROOT
BRANCH   4   7
HETATM    7  S   UNL     1     -13.115  14.583  72.022  1.00  0.00    -0.373 S  
HETATM    8  O   UNL     1     -14.330  15.357  71.891  1.00  0.00    -0.526 OA 
HETATM    9  N   UNL     1     -13.596  12.975  72.235  1.00  0.00    -0.573 N  
HETATM   10  O   UNL     1     -12.126  14.849  73.044  1.00  0.00    -0.313 OA 
HETATM   11  H1  UNL     1     -14.082  12.904  73.129  1.00  0.00     0.000 HD 
HETATM   12  H2  UNL     1     -13.429  12.209  71.582  1.00  0.00     0.000 HD 
ENDBRANCH   4   7
BRANCH   6  13
HETATM   13  N   UNL     1      -9.961  15.924  67.889  1.00  0.00    -0.220 N  
HETATM   14  H   UNL     1     -10.110  16.928  67.779  1.00  0.00     0.000 HD 
HETATM   15  C   UNL     1      -8.836  15.403  67.332  1.00  0.00    -0.183 C  
HETATM   16  C   UNL     1      -7.997  16.467  66.660  1.00  0.00    -0.323 C  
HETATM   17  O   UNL     1      -8.491  14.228  67.326  1.00  0.00    -0.191 OA 
ENDBRANCH   6  13
TORSDOF 2
ENDMDL
MODEL       66
REMARK 921   NORMALIZED FREE ENERGY PREDICTED BY IDOCK:   -4.05 KCAL/MOL
REMARK 922        TOTAL FREE ENERGY PREDICTED BY IDOCK:   -4.76 KCAL/MOL
REMARK 923 INTER-LIGAND FREE ENERGY PREDICTED BY IDOCK:   -4.52 KCAL/MOL
REMARK 924 INTRA-LIGAND FREE ENERGY PREDICTED BY IDOCK:   -0.24 KCAL/MOL
REMARK 927      BINDING AFFINITY PREDICTED BY RF-SCORE:    0.00 PKD
ROOT
HETATM    1  C   UNL     1     -10.064  11.272  63.053  1.00  0.00    -0.285 C  
HETATM    2  N   UNL     1     -10.194  11.441  64.488  1.00  0.00    -0.276 NA 
HETATM    3  N   UNL     1     -10.159  10.267  65.232  1.00  0.00    -0.308 NA 
HETATM    4  C   UNL     1     -10.249  10.572  66.499  1.00  0.00    -0.231 C  
HETATM    5  S   UNL     1     -10.388  12.265  66.908  1.00  0.00    -0.218 SA 
HETATM    6  C   UNL     1     -10.312  12.642  65.172  1.00  0.00    -0.292 C  
ENDROOT
BRANCH   4   7
HETATM    7  S   UNL     1     -10.224   9.310  67.752  1.00  0.00    -0.232 S  
HETATM    8  O   UNL     1      -8.941   9.413  68.411  1.00  0.00    -0.128 OA 
HETATM    9  N   UNL     1     -11.389   9.699  68.916  1.00  0.00    -0.464 N  
HETATM   10  O   UNL     1     -10.680   8.094  67.113  1.00  0.00    -0.316 OA 
HETATM   11  H1  UNL     1     -11.375   8.975  69.634  1.00  0.00     0.000 HD 
HETATM   12  H2  UNL     1     -12.000  10.516  68.901  1.00  0.00     0.000 HD 
ENDBRANCH   4   7
BRANCH   6  13
HETATM   13  N   UNL     1     -10.376  13.901  64.971  1.00  0.00    -0.433 N  
HETATM   14  H   UNL     1      -9.504  14.427  65.043  1.00  0.00     0.000 HD 
HETATM   15  C   UNL     1     -11.499  14.605  64.671  1.00  0.00    -0.388 C  
HETATM   16  C   UNL     1     -11.204  16.076  64.475  1.00  0.00    -0.309 C  
HETATM   17  O   UNL     1     -12.639  14.170  64.570  1.00  0.00    -0.643 OA 
ENDBRANCH   6  13
TORSDOF 2
ENDMDL
MODEL       67
REMARK 921   NORMALIZED FREE ENERGY PREDICTED BY IDOCK:   -4.03 KCAL/MOL
REMARK 922        TOTAL FREE ENERGY PREDICTED BY IDOCK:   -4.74 KCAL/MOL
REMARK 923 INTER-LIGAND FREE ENERGY PREDICTED BY IDOCK:   -4.55 KCAL/MOL
REMARK 924 INTRA-LIGAND FREE ENERGY PREDICTED BY IDOCK:   -0.19 KCAL/MOL
REMARK 927      BINDING AFFINITY PREDICTED BY RF-SCORE:    0.00 PKD
ROOT
HETATM    1  C   UNL     1     -10.126  20.206  67.028  1.00  0.00    -0.459 C  
HETATM    2  N   UNL     1      -9.749  18.879  67.478  1.00  0.00    -0.306 NA 
HETATM    3  N   UNL     1     -10.482  17.832  66.930  1.00  0.00    -0.333 NA 
HETATM    4  C   UNL     1     -10.013  16.705  67.393  1.00  0.00    -0.265 C  
HETATM    5  S   UNL     1      -8.677  16.792  68.514  1.00  0.00    -0.252 SA 
HETATM    6  C   UNL     1      -8.724  18.564  68.359  1.00  0.00    -0.327 C  
ENDROOT
BRANCH   4   7
HETATM    7  S   UNL     1     -10.707  15.146  66.892  1.00  0.00    -0.311 S  
HETATM    8  O   UNL     1      -9.668  14.157  67.074  1.00  0.00    -0.243 OA 
HETATM    9  N   UNL     1     -11.940  14.744  67.978  1.00  0.00    -0.543 N  
HETATM   10  O   UNL     1     -11.351  15.379  65.617  1.00  0.00    -0.263 OA 
HETATM   11  H1  UNL     1     -12.339  13.850  67.691  1.00  0.00     0.000 HD 
HETATM   12  H2  UNL     1     -12.235  15.300  68.782  1.00  0.00     0.000 HD 
ENDBRANCH   4   7
BRANCH   6  13
HETATM   13  N   UNL     1      -7.820  19.113  69.073  1.00  0.00    -0.305 N  
HETATM   14  H   UNL     1      -7.820  18.894  70.070  1.00  0.00     0.000 HD 
HETATM   15  C   UNL     1      -6.858  19.963  68.628  1.00  0.00    -0.317 C  
HETATM   16  C   UNL     1      -5.938  20.404  69.744  1.00  0.00    -0.384 C  
HETATM   17  O   UNL     1      -6.706  20.373  67.484  1.00  0.00    -0.243 OA 
ENDBRANCH   6  13
TORSDOF 2
ENDMDL
MODEL       68
REMARK 921   NORMALIZED FREE ENERGY PREDICTED BY IDOCK:   -4.02 KCAL/MOL
REMARK 922        TOTAL FREE ENERGY PREDICTED BY IDOCK:   -4.73 KCAL/MOL
REMARK 923 INTER-LIGAND FREE ENERGY PREDICTED BY IDOCK:   -4.47 KCAL/MOL
REMARK 924 INTRA-LIGAND FREE ENERGY PREDICTED BY IDOCK:   -0.25 KCAL/MOL
REMARK 927      BINDING AFFINITY PREDICTED BY RF-SCORE:    0.00 PKD
ROOT
HETATM    1  C   UNL     1     -11.074  10.227  68.944  1.00  0.00    -0.231 C  
HETATM    2  N   UNL     1     -10.874  10.458  67.526  1.00  0.00    -0.291 NA 
HETATM    3  N   UNL     1     -11.552  11.550  66.997  1.00  0.00    -0.535 NA 
HETATM    4  C   UNL     1     -11.251  11.657  65.731  1.00  0.00    -0.230 C  
HETATM    5  S   UNL     1     -10.153  10.473  65.065  1.00  0.00    -0.296 SA 
HETATM    6  C   UNL     1     -10.059   9.724  66.675  1.00  0.00    -0.237 C  
ENDROOT
BRANCH   4   7
HETATM    7  S   UNL     1     -11.933  12.961  64.732  1.00  0.00    -0.424 S  
HETATM    8  O   UNL     1     -10.818  13.780  64.312  1.00  0.00    -0.368 OA 
HETATM    9  N   UNL     1     -12.571  12.270  63.325  1.00  0.00    -0.833 N  
HETATM   10  O   UNL     1     -13.059  13.492  65.469  1.00  0.00    -0.585 OA 
HETATM   11  H1  UNL     1     -12.962  13.017  62.752  1.00  0.00     0.000 HD 
HETATM   12  H2  UNL     1     -12.566  11.277  63.091  1.00  0.00     0.000 HD 
ENDBRANCH   4   7
BRANCH   6  13
HETATM   13  N   UNL     1      -9.276   8.715  66.669  1.00  0.00    -0.168 N  
HETATM   14  H   UNL     1      -9.594   7.885  66.167  1.00  0.00     0.000 HD 
HETATM   15  C   UNL     1      -8.059   8.646  67.269  1.00  0.00    -0.101 C  
HETATM   16  C   UNL     1      -7.394   7.307  67.037  1.00  0.00    -0.093 C  
HETATM   17  O   UNL     1      -7.516   9.515  67.940  1.00  0.00    -0.083 OA 
ENDBRANCH   6  13
TORSDOF 2
ENDMDL
MODEL       69
REMARK 921   NORMALIZED FREE ENERGY PREDICTED BY IDOCK:   -4.00 KCAL/MOL
REMARK 922        TOTAL FREE ENERGY PREDICTED BY IDOCK:   -4.70 KCAL/MOL
REMARK 923 INTER-LIGAND FREE ENERGY PREDICTED BY IDOCK:   -4.46 KCAL/MOL
REMARK 924 INTRA-LIGAND FREE ENERGY PREDICTED BY IDOCK:   -0.24 KCAL/MOL
REMARK 927      BINDING AFFINITY PREDICTED BY RF-SCORE:    0.00 PKD
ROOT
HETATM    1  C   UNL     1     -11.729  11.983  67.794  1.00  0.00    -0.309 C  
HETATM    2  N   UNL     1     -11.026  13.179  67.369  1.00  0.00    -0.259 NA 
HETATM    3  N   UNL     1     -11.062  14.241  68.266  1.00  0.00    -0.249 NA 
HETATM    4  C   UNL     1     -10.364  15.229  67.773  1.00  0.00    -0.244 C  
HETATM    5  S   UNL     1      -9.619  14.983  66.212  1.00  0.00    -0.323 SA 
HETATM    6  C   UNL     1     -10.310  13.345  66.192  1.00  0.00    -0.295 C  
ENDROOT
BRANCH   4   7
HETATM    7  S   UNL     1     -10.179  16.757  68.663  1.00  0.00    -0.319 S  
HETATM    8  O   UNL     1      -8.760  17.037  68.705  1.00  0.00    -0.251 OA 
HETATM    9  N   UNL     1     -10.880  17.992  67.743  1.00  0.00    -0.324 N  
HETATM   10  O   UNL     1     -10.986  16.632  69.857  1.00  0.00    -0.347 OA 
HETATM   11  H1  UNL     1     -10.774  18.868  68.254  1.00  0.00     0.000 HD 
HETATM   12  H2  UNL     1     -11.331  17.879  66.836  1.00  0.00     0.000 HD 
ENDBRANCH   4   7
BRANCH   6  13
HETATM   13  N   UNL     1      -9.986  12.721  65.127  1.00  0.00    -0.456 N  
HETATM   14  H   UNL     1      -8.990  12.562  64.967  1.00  0.00     0.000 HD 
HETATM   15  C   UNL     1     -10.845  12.248  64.186  1.00  0.00    -0.365 C  
HETATM   16  C   UNL     1     -10.116  11.537  63.067  1.00  0.00    -0.330 C  
HETATM   17  O   UNL     1     -12.064  12.360  64.176  1.00  0.00    -0.394 OA 
ENDBRANCH   6  13
TORSDOF 2
ENDMDL
MODEL       70
REMARK 921   NORMALIZED FREE ENERGY PREDICTED BY IDOCK:   -4.00 KCAL/MOL
REMARK 922        TOTAL FREE ENERGY PREDICTED BY IDOCK:   -4.70 KCAL/MOL
REMARK 923 INTER-LIGAND FREE ENERGY PREDICTED BY IDOCK:   -4.51 KCAL/MOL
REMARK 924 INTRA-LIGAND FREE ENERGY PREDICTED BY IDOCK:   -0.19 KCAL/MOL
REMARK 927      BINDING AFFINITY PREDICTED BY RF-SCORE:    0.00 PKD
ROOT
HETATM    1  C   UNL     1     -10.018   9.770  67.696  1.00  0.00    -0.174 C  
HETATM    2  N   UNL     1     -10.895  10.022  68.824  1.00  0.00    -0.221 NA 
HETATM    3  N   UNL     1     -11.012   8.977  69.733  1.00  0.00    -0.207 NA 
HETATM    4  C   UNL     1     -11.796   9.355  70.707  1.00  0.00    -0.256 C  
HETATM    5  S   UNL     1     -12.460  10.969  70.621  1.00  0.00    -0.370 SA 
HETATM    6  C   UNL     1     -11.584  11.197  69.090  1.00  0.00    -0.324 C  
ENDROOT
BRANCH   4   7
HETATM    7  S   UNL     1     -12.164   8.268  72.065  1.00  0.00    -0.370 S  
HETATM    8  O   UNL     1     -10.968   8.208  72.876  1.00  0.00    -0.364 OA 
HETATM    9  N   UNL     1     -13.351   9.003  73.022  1.00  0.00    -0.699 N  
HETATM   10  O   UNL     1     -12.779   7.092  71.489  1.00  0.00    -0.368 OA 
HETATM   11  H1  UNL     1     -13.562   8.379  73.801  1.00  0.00     0.000 HD 
HETATM   12  H2  UNL     1     -13.781   9.911  72.850  1.00  0.00     0.000 HD 
ENDBRANCH   4   7
BRANCH   6  13
HETATM   13  N   UNL     1     -11.787  12.363  68.612  1.00  0.00    -0.317 N  
HETATM   14  H   UNL     1     -12.757  12.635  68.448  1.00  0.00     0.000 HD 
HETATM   15  C   UNL     1     -10.829  13.276  68.304  1.00  0.00    -0.256 C  
HETATM   16  C   UNL     1     -11.428  14.564  67.782  1.00  0.00    -0.362 C  
HETATM   17  O   UNL     1      -9.616  13.135  68.397  1.00  0.00    -0.225 OA 
ENDBRANCH   6  13
TORSDOF 2
ENDMDL
MODEL       71
REMARK 921   NORMALIZED FREE ENERGY PREDICTED BY IDOCK:   -3.99 KCAL/MOL
REMARK 922        TOTAL FREE ENERGY PREDICTED BY IDOCK:   -4.69 KCAL/MOL
REMARK 923 INTER-LIGAND FREE ENERGY PREDICTED BY IDOCK:   -4.44 KCAL/MOL
REMARK 924 INTRA-LIGAND FREE ENERGY PREDICTED BY IDOCK:   -0.25 KCAL/MOL
REMARK 927      BINDING AFFINITY PREDICTED BY RF-SCORE:    0.00 PKD
ROOT
HETATM    1  C   UNL     1     -11.553  15.952  64.351  1.00  0.00    -0.234 C  
HETATM    2  N   UNL     1     -11.102  15.433  65.629  1.00  0.00    -0.304 NA 
HETATM    3  N   UNL     1     -11.153  14.050  65.762  1.00  0.00    -0.301 NA 
HETATM    4  C   UNL     1     -10.686  13.726  66.938  1.00  0.00    -0.280 C  
HETATM    5  S   UNL     1     -10.159  15.027  67.978  1.00  0.00    -0.225 SA 
HETATM    6  C   UNL     1     -10.604  16.172  66.692  1.00  0.00    -0.274 C  
ENDROOT
BRANCH   4   7
HETATM    7  S   UNL     1     -10.589  12.026  67.451  1.00  0.00    -0.230 S  
HETATM    8  O   UNL     1     -11.952  11.564  67.597  1.00  0.00    -0.630 OA 
HETATM    9  N   UNL     1      -9.917  11.130  66.184  1.00  0.00    -0.221 N  
HETATM   10  O   UNL     1      -9.629  11.982  68.533  1.00  0.00    -0.198 OA 
HETATM   11  H1  UNL     1      -9.861  10.155  66.478  1.00  0.00     0.000 HD 
HETATM   12  H2  UNL     1      -9.618  11.500  65.281  1.00  0.00     0.000 HD 
ENDBRANCH   4   7
BRANCH   6  13
HETATM   13  N   UNL     1     -10.359  17.375  67.042  1.00  0.00    -0.324 N  
HETATM   14  H   UNL     1     -11.029  17.822  67.669  1.00  0.00     0.000 HD 
HETATM   15  C   UNL     1      -9.287  18.115  66.656  1.00  0.00    -0.297 C  
HETATM   16  C   UNL     1      -9.301  19.493  67.280  1.00  0.00    -0.403 C  
HETATM   17  O   UNL     1      -8.393  17.777  65.890  1.00  0.00    -0.524 OA 
ENDBRANCH   6  13
TORSDOF 2
ENDMDL
MODEL       72
REMARK 921   NORMALIZED FREE ENERGY PREDICTED BY IDOCK:   -3.99 KCAL/MOL
REMARK 922        TOTAL FREE ENERGY PREDICTED BY IDOCK:   -4.68 KCAL/MOL
REMARK 923 INTER-LIGAND FREE ENERGY PREDICTED BY IDOCK:   -4.43 KCAL/MOL
REMARK 924 INTRA-LIGAND FREE ENERGY PREDICTED BY IDOCK:   -0.25 KCAL/MOL
REMARK 927      BINDING AFFINITY PREDICTED BY RF-SCORE:    0.00 PKD
ROOT
HETATM    1  C   UNL     1     -12.985  13.994  65.113  1.00  0.00    -0.223 C  
HETATM    2  N   UNL     1     -11.717  13.480  65.598  1.00  0.00    -0.327 NA 
HETATM    3  N   UNL     1     -11.393  12.196  65.174  1.00  0.00    -0.326 NA 
HETATM    4  C   UNL     1     -10.219  11.881  65.652  1.00  0.00    -0.245 C  
HETATM    5  S   UNL     1      -9.412  13.071  66.643  1.00  0.00    -0.243 SA 
HETATM    6  C   UNL     1     -10.804  14.150  66.399  1.00  0.00    -0.304 C  
ENDROOT
BRANCH   4   7
HETATM    7  S   UNL     1      -9.477  10.304  65.300  1.00  0.00    -0.265 S  
HETATM    8  O   UNL     1     -10.201   9.326  66.082  1.00  0.00    -0.273 OA 
HETATM    9  N   UNL     1      -9.776   9.931  63.677  1.00  0.00    -0.492 N  
HETATM   10  O   UNL     1      -8.046  10.493  65.415  1.00  0.00    -0.155 OA 
HETATM   11  H1  UNL     1      -9.350   9.026  63.475  1.00  0.00     0.000 HD 
HETATM   12  H2  UNL     1     -10.293  10.510  63.015  1.00  0.00     0.000 HD 
ENDBRANCH   4   7
BRANCH   6  13
HETATM   13  N   UNL     1     -10.634  15.264  66.999  1.00  0.00    -0.300 N  
HETATM   14  H   UNL     1     -10.672  15.252  68.019  1.00  0.00     0.000 HD 
HETATM   15  C   UNL     1     -10.408  16.464  66.404  1.00  0.00    -0.313 C  
HETATM   16  C   UNL     1     -10.229  17.570  67.421  1.00  0.00    -0.337 C  
HETATM   17  O   UNL     1     -10.357  16.696  65.203  1.00  0.00    -0.630 OA 
ENDBRANCH   6  13
TORSDOF 2
ENDMDL
MODEL       73
REMARK 921   NORMALIZED FREE ENERGY PREDICTED BY IDOCK:   -3.96 KCAL/MOL
REMARK 922        TOTAL FREE ENERGY PREDICTED BY IDOCK:   -4.66 KCAL/MOL
REMARK 923 INTER-LIGAND FREE ENERGY PREDICTED BY IDOCK:   -4.41 KCAL/MOL
REMARK 924 INTRA-LIGAND FREE ENERGY PREDICTED BY IDOCK:   -0.25 KCAL/MOL
REMARK 927      BINDING AFFINITY PREDICTED BY RF-SCORE:    0.00 PKD
ROOT
HETATM    1  C   UNL     1     -13.196  11.380  71.687  1.00  0.00    -0.309 C  
HETATM    2  N   UNL     1     -12.196  10.389  71.336  1.00  0.00    -0.372 NA 
HETATM    3  N   UNL     1     -12.324   9.161  71.975  1.00  0.00    -0.375 NA 
HETATM    4  C   UNL     1     -11.387   8.363  71.538  1.00  0.00    -0.276 C  
HETATM    5  S   UNL     1     -10.280   9.001  70.348  1.00  0.00    -0.227 SA 
HETATM    6  C   UNL     1     -11.168  10.541  70.417  1.00  0.00    -0.298 C  
ENDROOT
BRANCH   4   7
HETATM    7  S   UNL     1     -11.253   6.692  72.133  1.00  0.00    -0.277 S  
HETATM    8  O   UNL     1     -10.091   6.120  71.488  1.00  0.00    -0.188 OA 
HETATM    9  N   UNL     1     -10.901   6.747  73.786  1.00  0.00    -0.510 N  
HETATM   10  O   UNL     1     -12.574   6.113  72.019  1.00  0.00    -0.199 OA 
HETATM   11  H1  UNL     1     -10.824   5.788  74.127  1.00  0.00     0.000 HD 
HETATM   12  H2  UNL     1     -10.785   7.592  74.346  1.00  0.00     0.000 HD 
ENDBRANCH   4   7
BRANCH   6  13
HETATM   13  N   UNL     1     -10.665  11.399  69.617  1.00  0.00    -0.455 N  
HETATM   14  H   UNL     1      -9.743  11.767  69.852  1.00  0.00     0.000 HD 
HETATM   15  C   UNL     1     -11.245  11.866  68.480  1.00  0.00    -0.256 C  
HETATM   16  C   UNL     1     -10.356  12.857  67.762  1.00  0.00    -0.223 C  
HETATM   17  O   UNL     1     -12.352  11.576  68.042  1.00  0.00    -0.445 OA 
ENDBRANCH   6  13
TORSDOF 2
ENDMDL
MODEL       74
REMARK 921   NORMALIZED FREE ENERGY PREDICTED BY IDOCK:   -3.95 KCAL/MOL
REMARK 922        TOTAL FREE ENERGY PREDICTED BY IDOCK:   -4.64 KCAL/MOL
REMARK 923 INTER-LIGAND FREE ENERGY PREDICTED BY IDOCK:   -4.47 KCAL/MOL
REMARK 924 INTRA-LIGAND FREE ENERGY PREDICTED BY IDOCK:   -0.17 KCAL/MOL
REMARK 927      BINDING AFFINITY PREDICTED BY RF-SCORE:    0.00 PKD
ROOT
HETATM    1  C   UNL     1     -12.108  13.596  69.918  1.00  0.00    -0.341 C  
HETATM    2  N   UNL     1     -11.756  12.511  69.020  1.00  0.00    -0.306 NA 
HETATM    3  N   UNL     1     -11.150  12.896  67.830  1.00  0.00    -0.248 NA 
HETATM    4  C   UNL     1     -10.858  11.824  67.143  1.00  0.00    -0.258 C  
HETATM    5  S   UNL     1     -11.283  10.282  67.845  1.00  0.00    -0.099 SA 
HETATM    6  C   UNL     1     -11.935  11.155  69.251  1.00  0.00    -0.351 C  
ENDROOT
BRANCH   4   7
HETATM    7  S   UNL     1     -10.056  11.936  65.560  1.00  0.00    -0.250 S  
HETATM    8  O   UNL     1     -11.027  11.510  64.577  1.00  0.00    -0.321 OA 
HETATM    9  N   UNL     1      -9.743  13.568  65.242  1.00  0.00    -0.541 N  
HETATM   10  O   UNL     1      -8.765  11.299  65.712  1.00  0.00    -0.181 OA 
HETATM   11  H1  UNL     1      -9.282  13.633  64.334  1.00  0.00     0.000 HD 
HETATM   12  H2  UNL     1      -9.975  14.352  65.852  1.00  0.00     0.000 HD 
ENDBRANCH   4   7
BRANCH   6  13
HETATM   13  N   UNL     1     -12.397  10.345  70.123  1.00  0.00    -0.478 N  
HETATM   14  H   UNL     1     -13.409  10.221  70.151  1.00  0.00     0.000 HD 
HETATM   15  C   UNL     1     -11.662   9.632  71.017  1.00  0.00    -0.353 C  
HETATM   16  C   UNL     1     -12.535   8.752  71.885  1.00  0.00    -0.434 C  
HETATM   17  O   UNL     1     -10.447   9.662  71.166  1.00  0.00    -0.307 OA 
ENDBRANCH   6  13
TORSDOF 2
ENDMDL
MODEL       75
REMARK 921   NORMALIZED FREE ENERGY PREDICTED BY IDOCK:   -3.92 KCAL/MOL
REMARK 922        TOTAL FREE ENERGY PREDICTED BY IDOCK:   -4.61 KCAL/MOL
REMARK 923 INTER-LIGAND FREE ENERGY PREDICTED BY IDOCK:   -4.38 KCAL/MOL
REMARK 924 INTRA-LIGAND FREE ENERGY PREDICTED BY IDOCK:   -0.22 KCAL/MOL
REMARK 927      BINDING AFFINITY PREDICTED BY RF-SCORE:    0.00 PKD
ROOT
HETATM    1  C   UNL     1     -13.033  15.230  70.643  1.00  0.00    -0.391 C  
HETATM    2  N   UNL     1     -12.206  14.429  69.759  1.00  0.00    -0.326 NA 
HETATM    3  N   UNL     1     -12.108  13.083  70.092  1.00  0.00    -0.338 NA 
HETATM    4  C   UNL     1     -11.369  12.484  69.197  1.00  0.00    -0.274 C  
HETATM    5  S   UNL     1     -10.729  13.462  67.899  1.00  0.00    -0.252 SA 
HETATM    6  C   UNL     1     -11.548  14.868  68.619  1.00  0.00    -0.318 C  
ENDROOT
BRANCH   4   7
HETATM    7  S   UNL     1     -11.038  10.739  69.298  1.00  0.00    -0.277 S  
HETATM    8  O   UNL     1     -11.130  10.226  67.949  1.00  0.00    -0.291 OA 
HETATM    9  N   UNL     1      -9.427  10.535  69.774  1.00  0.00    -0.416 N  
HETATM   10  O   UNL     1     -11.849  10.233  70.384  1.00  0.00    -0.269 OA 
HETATM   11  H1  UNL     1      -9.237   9.535  69.833  1.00  0.00     0.000 HD 
HETATM   12  H2  UNL     1      -8.761  11.283  69.970  1.00  0.00     0.000 HD 
ENDBRANCH   4   7
BRANCH   6  13
HETATM   13  N   UNL     1     -11.346  15.922  67.929  1.00  0.00    -0.300 N  
HETATM   14  H   UNL     1     -12.029  16.139  67.202  1.00  0.00     0.000 HD 
HETATM   15  C   UNL     1     -10.304  16.783  68.073  1.00  0.00    -0.317 C  
HETATM   16  C   UNL     1     -10.393  17.940  67.102  1.00  0.00    -0.371 C  
HETATM   17  O   UNL     1      -9.370  16.688  68.859  1.00  0.00    -0.243 OA 
ENDBRANCH   6  13
TORSDOF 2
ENDMDL
MODEL       76
REMARK 921   NORMALIZED FREE ENERGY PREDICTED BY IDOCK:   -3.88 KCAL/MOL
REMARK 922        TOTAL FREE ENERGY PREDICTED BY IDOCK:   -4.57 KCAL/MOL
REMARK 923 INTER-LIGAND FREE ENERGY PREDICTED BY IDOCK:   -4.33 KCAL/MOL
REMARK 924 INTRA-LIGAND FREE ENERGY PREDICTED BY IDOCK:   -0.24 KCAL/MOL
REMARK 927      BINDING AFFINITY PREDICTED BY RF-SCORE:    0.00 PKD
ROOT
HETATM    1  C   UNL     1     -10.324  19.183  68.163  1.00  0.00    -0.376 C  
HETATM    2  N   UNL     1     -10.029  17.856  68.669  1.00  0.00    -0.371 NA 
HETATM    3  N   UNL     1     -11.100  17.187  69.251  1.00  0.00     0.097 NA 
HETATM    4  C   UNL     1     -10.701  16.001  69.625  1.00  0.00    -0.316 C  
HETATM    5  S   UNL     1      -9.031  15.587  69.326  1.00  0.00    -0.270 SA 
HETATM    6  C   UNL     1      -8.811  17.194  68.597  1.00  0.00    -0.266 C  
ENDROOT
BRANCH   4   7
HETATM    7  S   UNL     1     -11.819  14.858  70.402  1.00  0.00    -0.323 S  
HETATM    8  O   UNL     1     -11.456  14.816  71.801  1.00  0.00    -0.292 OA 
HETATM    9  N   UNL     1     -13.377  15.515  70.335  1.00  0.00    -0.779 N  
HETATM   10  O   UNL     1     -11.841  13.678  69.564  1.00  0.00    -0.296 OA 
HETATM   11  H1  UNL     1     -14.018  14.859  70.780  1.00  0.00     0.000 HD 
HETATM   12  H2  UNL     1     -13.631  16.412  69.920  1.00  0.00     0.000 HD 
ENDBRANCH   4   7
BRANCH   6  13
HETATM   13  N   UNL     1      -7.614  17.353  68.182  1.00  0.00    -0.207 N  
HETATM   14  H   UNL     1      -6.876  17.356  68.887  1.00  0.00     0.000 HD 
HETATM   15  C   UNL     1      -7.233  17.517  66.889  1.00  0.00    -0.197 C  
HETATM   16  C   UNL     1      -5.732  17.652  66.758  1.00  0.00    -0.202 C  
HETATM   17  O   UNL     1      -7.961  17.573  65.905  1.00  0.00    -0.527 OA 
ENDBRANCH   6  13
TORSDOF 2
ENDMDL
MODEL       77
REMARK 921   NORMALIZED FREE ENERGY PREDICTED BY IDOCK:   -3.87 KCAL/MOL
REMARK 922        TOTAL FREE ENERGY PREDICTED BY IDOCK:   -4.56 KCAL/MOL
REMARK 923 INTER-LIGAND FREE ENERGY PREDICTED BY IDOCK:   -4.33 KCAL/MOL
REMARK 924 INTRA-LIGAND FREE ENERGY PREDICTED BY IDOCK:   -0.23 KCAL/MOL
REMARK 927      BINDING AFFINITY PREDICTED BY RF-SCORE:    0.00 PKD
ROOT
HETATM    1  C   UNL     1      -7.618  14.638  67.365  1.00  0.00    -0.192 C  
HETATM    2  N   UNL     1      -8.638  15.661  67.498  1.00  0.00    -0.166 NA 
HETATM    3  N   UNL     1      -8.182  16.909  67.906  1.00  0.00    -0.193 NA 
HETATM    4  C   UNL     1      -9.195  17.732  67.946  1.00  0.00    -0.265 C  
HETATM    5  S   UNL     1     -10.763  17.096  67.513  1.00  0.00    -0.217 SA 
HETATM    6  C   UNL     1      -9.992  15.519  67.228  1.00  0.00    -0.238 C  
ENDROOT
BRANCH   4   7
HETATM    7  S   UNL     1      -8.978  19.433  68.418  1.00  0.00    -0.354 S  
HETATM    8  O   UNL     1      -9.166  20.218  67.219  1.00  0.00    -0.360 OA 
HETATM    9  N   UNL     1     -10.238  19.855  69.465  1.00  0.00    -0.551 N  
HETATM   10  O   UNL     1      -7.764  19.485  69.204  1.00  0.00    -0.355 OA 
HETATM   11  H1  UNL     1     -10.114  20.830  69.736  1.00  0.00     0.000 HD 
HETATM   12  H2  UNL     1     -10.992  19.240  69.772  1.00  0.00     0.000 HD 
ENDBRANCH   4   7
BRANCH   6  13
HETATM   13  N   UNL     1     -10.846  14.652  66.844  1.00  0.00    -0.299 N  
HETATM   14  H   UNL     1     -11.274  14.071  67.566  1.00  0.00     0.000 HD 
HETATM   15  C   UNL     1     -11.238  14.431  65.562  1.00  0.00    -0.330 C  
HETATM   16  C   UNL     1     -12.286  13.343  65.474  1.00  0.00    -0.499 C  
HETATM   17  O   UNL     1     -10.826  14.995  64.556  1.00  0.00    -0.313 OA 
ENDBRANCH   6  13
TORSDOF 2
ENDMDL
MODEL       78
REMARK 921   NORMALIZED FREE ENERGY PREDICTED BY IDOCK:   -3.87 KCAL/MOL
REMARK 922        TOTAL FREE ENERGY PREDICTED BY IDOCK:   -4.55 KCAL/MOL
REMARK 923 INTER-LIGAND FREE ENERGY PREDICTED BY IDOCK:   -4.32 KCAL/MOL
REMARK 924 INTRA-LIGAND FREE ENERGY PREDICTED BY IDOCK:   -0.23 KCAL/MOL
REMARK 927      BINDING AFFINITY PREDICTED BY RF-SCORE:    0.00 PKD
ROOT
HETATM    1  C   UNL     1     -10.814  15.931  69.544  1.00  0.00    -0.305 C  
HETATM    2  N   UNL     1     -10.429  15.805  68.150  1.00  0.00    -0.256 NA 
HETATM    3  N   UNL     1     -11.409  15.298  67.305  1.00  0.00    -0.310 NA 
HETATM    4  C   UNL     1     -10.940  15.275  66.086  1.00  0.00    -0.307 C  
HETATM    5  S   UNL     1      -9.305  15.843  65.846  1.00  0.00    -0.259 SA 
HETATM    6  C   UNL     1      -9.212  16.168  67.592  1.00  0.00    -0.205 C  
ENDROOT
BRANCH   4   7
HETATM    7  S   UNL     1     -11.932  14.693  64.730  1.00  0.00    -0.415 S  
HETATM    8  O   UNL     1     -11.234  13.557  64.170  1.00  0.00    -0.379 OA 
HETATM    9  N   UNL     1     -13.385  14.096  65.358  1.00  0.00    -0.574 N  
HETATM   10  O   UNL     1     -12.278  15.861  63.949  1.00  0.00    -0.785 OA 
HETATM   11  H1  UNL     1     -13.955  13.762  64.580  1.00  0.00     0.000 HD 
HETATM   12  H2  UNL     1     -13.647  14.073  66.343  1.00  0.00     0.000 HD 
ENDBRANCH   4   7
BRANCH   6  13
HETATM   13  N   UNL     1      -8.075  16.654  67.909  1.00  0.00    -0.170 N  
HETATM   14  H   UNL     1      -7.961  17.664  67.820  1.00  0.00     0.000 HD 
HETATM   15  C   UNL     1      -7.003  15.949  68.356  1.00  0.00    -0.116 C  
HETATM   16  C   UNL     1      -5.826  16.850  68.661  1.00  0.00    -0.140 C  
HETATM   17  O   UNL     1      -6.925  14.736  68.503  1.00  0.00    -0.099 OA 
ENDBRANCH   6  13
TORSDOF 2
ENDMDL
MODEL       79
REMARK 921   NORMALIZED FREE ENERGY PREDICTED BY IDOCK:   -3.80 KCAL/MOL
REMARK 922        TOTAL FREE ENERGY PREDICTED BY IDOCK:   -4.48 KCAL/MOL
REMARK 923 INTER-LIGAND FREE ENERGY PREDICTED BY IDOCK:   -4.23 KCAL/MOL
REMARK 924 INTRA-LIGAND FREE ENERGY PREDICTED BY IDOCK:   -0.25 KCAL/MOL
REMARK 927      BINDING AFFINITY PREDICTED BY RF-SCORE:    0.00 PKD
ROOT
HETATM    1  C   UNL     1     -12.495   9.660  71.667  1.00  0.00    -0.407 C  
HETATM    2  N   UNL     1     -11.808   9.888  70.409  1.00  0.00    -0.257 NA 
HETATM    3  N   UNL     1     -12.146  11.065  69.751  1.00  0.00    -0.341 NA 
HETATM    4  C   UNL     1     -11.430  11.155  68.662  1.00  0.00    -0.298 C  
HETATM    5  S   UNL     1     -10.311   9.856  68.328  1.00  0.00    -0.213 SA 
HETATM    6  C   UNL     1     -10.843   9.074  69.834  1.00  0.00    -0.218 C  
ENDROOT
BRANCH   4   7
HETATM    7  S   UNL     1     -11.590  12.550  67.570  1.00  0.00    -0.364 S  
HETATM    8  O   UNL     1     -12.116  13.635  68.368  1.00  0.00    -0.361 OA 
HETATM    9  N   UNL     1     -10.039  13.023  67.088  1.00  0.00    -0.241 N  
HETATM   10  O   UNL     1     -12.253  12.061  66.380  1.00  0.00    -0.551 OA 
HETATM   11  H1  UNL     1     -10.130  13.823  66.462  1.00  0.00     0.000 HD 
HETATM   12  H2  UNL     1      -9.163  12.584  67.373  1.00  0.00     0.000 HD 
ENDBRANCH   4   7
BRANCH   6  13
HETATM   13  N   UNL     1     -10.220   7.976  70.028  1.00  0.00    -0.201 N  
HETATM   14  H   UNL     1      -9.214   8.036  70.188  1.00  0.00     0.000 HD 
HETATM   15  C   UNL     1     -10.775   6.736  70.042  1.00  0.00    -0.247 C  
HETATM   16  C   UNL     1      -9.746   5.664  70.326  1.00  0.00    -0.232 C  
HETATM   17  O   UNL     1     -11.949   6.449  69.843  1.00  0.00    -0.304 OA 
ENDBRANCH   6  13
TORSDOF 2
ENDMDL
MODEL       80
REMARK 921   NORMALIZED FREE ENERGY PREDICTED BY IDOCK:   -3.77 KCAL/MOL
REMARK 922        TOTAL FREE ENERGY PREDICTED BY IDOCK:   -4.44 KCAL/MOL
REMARK 923 INTER-LIGAND FREE ENERGY PREDICTED BY IDOCK:   -4.38 KCAL/MOL
REMARK 924 INTRA-LIGAND FREE ENERGY PREDICTED BY IDOCK:   -0.06 KCAL/MOL
REMARK 927      BINDING AFFINITY PREDICTED BY RF-SCORE:    0.00 PKD
ROOT
HETATM    1  C   UNL     1     -11.993  14.033  66.096  1.00  0.00    -0.420 C  
HETATM    2  N   UNL     1     -11.688  12.771  66.745  1.00  0.00    -0.376 NA 
HETATM    3  N   UNL     1     -12.015  12.700  68.094  1.00  0.00    -0.292 NA 
HETATM    4  C   UNL     1     -11.721  11.506  68.534  1.00  0.00    -0.313 C  
HETATM    5  S   UNL     1     -11.031  10.379  67.392  1.00  0.00    -0.218 SA 
HETATM    6  C   UNL     1     -11.144  11.644  66.147  1.00  0.00    -0.280 C  
ENDROOT
BRANCH   4   7
HETATM    7  S   UNL     1     -12.020  11.051  70.227  1.00  0.00    -0.391 S  
HETATM    8  O   UNL     1     -12.366  12.270  70.924  1.00  0.00    -0.376 OA 
HETATM    9  N   UNL     1     -13.396  10.069  70.274  1.00  0.00    -0.447 N  
HETATM   10  O   UNL     1     -10.910  10.212  70.624  1.00  0.00    -0.308 OA 
HETATM   11  H1  UNL     1     -13.568   9.807  71.245  1.00  0.00     0.000 HD 
HETATM   12  H2  UNL     1     -13.958   9.786  69.471  1.00  0.00     0.000 HD 
ENDBRANCH   4   7
BRANCH   6  13
HETATM   13  N   UNL     1     -10.713  11.222  65.021  1.00  0.00    -0.281 N  
HETATM   14  H   UNL     1     -11.407  11.065  64.289  1.00  0.00     0.000 HD 
HETATM   15  C   UNL     1      -9.417  10.963  64.710  1.00  0.00    -0.238 C  
HETATM   16  C   UNL     1      -9.265  10.500  63.277  1.00  0.00    -0.299 C  
HETATM   17  O   UNL     1      -8.446  11.056  65.450  1.00  0.00    -0.138 OA 
ENDBRANCH   6  13
TORSDOF 2
ENDMDL
MODEL       81
REMARK 921   NORMALIZED FREE ENERGY PREDICTED BY IDOCK:   -3.75 KCAL/MOL
REMARK 922        TOTAL FREE ENERGY PREDICTED BY IDOCK:   -4.42 KCAL/MOL
REMARK 923 INTER-LIGAND FREE ENERGY PREDICTED BY IDOCK:   -4.17 KCAL/MOL
REMARK 924 INTRA-LIGAND FREE ENERGY PREDICTED BY IDOCK:   -0.25 KCAL/MOL
REMARK 927      BINDING AFFINITY PREDICTED BY RF-SCORE:    0.00 PKD
ROOT
HETATM    1  C   UNL     1     -12.354   9.383  71.866  1.00  0.00    -0.375 C  
HETATM    2  N   UNL     1     -11.987  10.251  70.762  1.00  0.00    -0.331 NA 
HETATM    3  N   UNL     1     -12.322  11.591  70.922  1.00  0.00    -0.382 NA 
HETATM    4  C   UNL     1     -11.902  12.254  69.877  1.00  0.00    -0.311 C  
HETATM    5  S   UNL     1     -11.089  11.347  68.625  1.00  0.00    -0.262 SA 
HETATM    6  C   UNL     1     -11.319   9.880  69.604  1.00  0.00    -0.165 C  
ENDROOT
BRANCH   4   7
HETATM    7  S   UNL     1     -12.148  14.010  69.744  1.00  0.00    -0.349 S  
HETATM    8  O   UNL     1     -13.170  14.354  70.708  1.00  0.00    -0.353 OA 
HETATM    9  N   UNL     1     -10.732  14.781  70.257  1.00  0.00    -0.483 N  
HETATM   10  O   UNL     1     -12.277  14.297  68.332  1.00  0.00    -0.299 OA 
HETATM   11  H1  UNL     1     -10.873  15.788  70.181  1.00  0.00     0.000 HD 
HETATM   12  H2  UNL     1      -9.884  14.319  70.585  1.00  0.00     0.000 HD 
ENDBRANCH   4   7
BRANCH   6  13
HETATM   13  N   UNL     1     -10.819   8.857  69.026  1.00  0.00    -0.416 N  
HETATM   14  H   UNL     1     -11.270   8.545  68.165  1.00  0.00     0.000 HD 
HETATM   15  C   UNL     1      -9.742   8.147  69.452  1.00  0.00    -0.170 C  
HETATM   16  C   UNL     1      -9.410   7.011  68.510  1.00  0.00    -0.135 C  
HETATM   17  O   UNL     1      -9.086   8.338  70.468  1.00  0.00    -0.143 OA 
ENDBRANCH   6  13
TORSDOF 2
ENDMDL
MODEL       82
REMARK 921   NORMALIZED FREE ENERGY PREDICTED BY IDOCK:   -3.74 KCAL/MOL
REMARK 922        TOTAL FREE ENERGY PREDICTED BY IDOCK:   -4.41 KCAL/MOL
REMARK 923 INTER-LIGAND FREE ENERGY PREDICTED BY IDOCK:   -4.22 KCAL/MOL
REMARK 924 INTRA-LIGAND FREE ENERGY PREDICTED BY IDOCK:   -0.18 KCAL/MOL
REMARK 927      BINDING AFFINITY PREDICTED BY RF-SCORE:    0.00 PKD
ROOT
HETATM    1  C   UNL     1      -7.255  16.167  68.464  1.00  0.00    -0.144 C  
HETATM    2  N   UNL     1      -8.681  15.898  68.461  1.00  0.00    -0.185 NA 
HETATM    3  N   UNL     1      -9.035  14.555  68.526  1.00  0.00    -0.185 NA 
HETATM    4  C   UNL     1     -10.338  14.466  68.553  1.00  0.00    -0.248 C  
HETATM    5  S   UNL     1     -11.245  15.958  68.495  1.00  0.00    -0.372 SA 
HETATM    6  C   UNL     1      -9.701  16.839  68.433  1.00  0.00    -0.247 C  
ENDROOT
BRANCH   4   7
HETATM    7  S   UNL     1     -11.149  12.887  68.650  1.00  0.00    -0.283 S  
HETATM    8  O   UNL     1     -11.466  12.505  67.291  1.00  0.00    -0.310 OA 
HETATM    9  N   UNL     1     -10.029  11.752  69.213  1.00  0.00    -0.393 N  
HETATM   10  O   UNL     1     -12.156  13.009  69.682  1.00  0.00    -0.297 OA 
HETATM   11  H1  UNL     1     -10.494  10.846  69.269  1.00  0.00     0.000 HD 
HETATM   12  H2  UNL     1      -9.056  11.940  69.456  1.00  0.00     0.000 HD 
ENDBRANCH   4   7
BRANCH   6  13
HETATM   13  N   UNL     1      -9.892  18.100  68.387  1.00  0.00    -0.350 N  
HETATM   14  H   UNL     1      -9.822  18.613  69.266  1.00  0.00     0.000 HD 
HETATM   15  C   UNL     1     -10.179  18.823  67.272  1.00  0.00    -0.390 C  
HETATM   16  C   UNL     1     -10.317  20.298  67.580  1.00  0.00    -0.415 C  
HETATM   17  O   UNL     1     -10.334  18.397  66.135  1.00  0.00    -0.406 OA 
ENDBRANCH   6  13
TORSDOF 2
ENDMDL
MODEL       83
REMARK 921   NORMALIZED FREE ENERGY PREDICTED BY IDOCK:   -3.72 KCAL/MOL
REMARK 922        TOTAL FREE ENERGY PREDICTED BY IDOCK:   -4.39 KCAL/MOL
REMARK 923 INTER-LIGAND FREE ENERGY PREDICTED BY IDOCK:   -4.22 KCAL/MOL
REMARK 924 INTRA-LIGAND FREE ENERGY PREDICTED BY IDOCK:   -0.16 KCAL/MOL
REMARK 927      BINDING AFFINITY PREDICTED BY RF-SCORE:    0.00 PKD
ROOT
HETATM    1  C   UNL     1     -12.312  14.372  69.881  1.00  0.00    -0.314 C  
HETATM    2  N   UNL     1     -11.834  13.147  69.266  1.00  0.00    -0.320 NA 
HETATM    3  N   UNL     1     -11.380  12.174  70.149  1.00  0.00     0.034 NA 
HETATM    4  C   UNL     1     -11.018  11.123  69.464  1.00  0.00    -0.220 C  
HETATM    5  S   UNL     1     -11.180  11.204  67.726  1.00  0.00    -0.293 SA 
HETATM    6  C   UNL     1     -11.821  12.853  67.910  1.00  0.00    -0.339 C  
ENDROOT
BRANCH   4   7
HETATM    7  S   UNL     1     -10.394   9.668  70.274  1.00  0.00    -0.297 S  
HETATM    8  O   UNL     1     -11.052   9.602  71.560  1.00  0.00    -0.370 OA 
HETATM    9  N   UNL     1     -10.915   8.314  69.403  1.00  0.00    -0.431 N  
HETATM   10  O   UNL     1      -8.954   9.711  70.133  1.00  0.00    -0.218 OA 
HETATM   11  H1  UNL     1     -10.557   7.480  69.868  1.00  0.00     0.000 HD 
HETATM   12  H2  UNL     1     -11.488   8.329  68.560  1.00  0.00     0.000 HD 
ENDBRANCH   4   7
BRANCH   6  13
HETATM   13  N   UNL     1     -12.117  13.361  66.777  1.00  0.00    -0.386 N  
HETATM   14  H   UNL     1     -13.102  13.356  66.509  1.00  0.00     0.000 HD 
HETATM   15  C   UNL     1     -11.240  13.908  65.894  1.00  0.00    -0.297 C  
HETATM   16  C   UNL     1     -11.941  14.436  64.662  1.00  0.00    -0.475 C  
HETATM   17  O   UNL     1     -10.024  13.983  66.011  1.00  0.00    -0.298 OA 
ENDBRANCH   6  13
TORSDOF 2
ENDMDL
MODEL       84
REMARK 921   NORMALIZED FREE ENERGY PREDICTED BY IDOCK:   -3.69 KCAL/MOL
REMARK 922        TOTAL FREE ENERGY PREDICTED BY IDOCK:   -4.36 KCAL/MOL
REMARK 923 INTER-LIGAND FREE ENERGY PREDICTED BY IDOCK:   -4.15 KCAL/MOL
REMARK 924 INTRA-LIGAND FREE ENERGY PREDICTED BY IDOCK:   -0.20 KCAL/MOL
REMARK 927      BINDING AFFINITY PREDICTED BY RF-SCORE:    0.00 PKD
ROOT
HETATM    1  C   UNL     1     -12.640  14.373  66.066  1.00  0.00    -0.211 C  
HETATM    2  N   UNL     1     -11.227  14.345  66.395  1.00  0.00    -0.337 NA 
HETATM    3  N   UNL     1     -10.653  13.079  66.448  1.00  0.00    -0.281 NA 
HETATM    4  C   UNL     1      -9.381  13.208  66.716  1.00  0.00    -0.244 C  
HETATM    5  S   UNL     1      -8.767  14.829  66.932  1.00  0.00    -0.217 SA 
HETATM    6  C   UNL     1     -10.408  15.441  66.622  1.00  0.00    -0.280 C  
ENDROOT
BRANCH   4   7
HETATM    7  S   UNL     1      -8.322  11.786  66.848  1.00  0.00    -0.158 S  
HETATM    8  O   UNL     1      -9.033  10.819  67.655  1.00  0.00    -0.138 OA 
HETATM    9  N   UNL     1      -8.168  11.099  65.309  1.00  0.00    -0.367 N  
HETATM   10  O   UNL     1      -7.011  12.287  67.201  1.00  0.00    -0.148 OA 
HETATM   11  H1  UNL     1      -7.560  10.283  65.385  1.00  0.00     0.000 HD 
HETATM   12  H2  UNL     1      -8.606  11.441  64.454  1.00  0.00     0.000 HD 
ENDBRANCH   4   7
BRANCH   6  13
HETATM   13  N   UNL     1     -10.442  16.716  66.674  1.00  0.00    -0.287 N  
HETATM   14  H   UNL     1     -10.132  17.153  67.543  1.00  0.00     0.000 HD 
HETATM   15  C   UNL     1     -10.851  17.545  65.678  1.00  0.00     0.013 C  
HETATM   16  C   UNL     1     -10.735  19.000  66.075  1.00  0.00    -0.417 C  
HETATM   17  O   UNL     1     -11.285  17.222  64.579  1.00  0.00    -1.083 OA 
ENDBRANCH   6  13
TORSDOF 2
ENDMDL
MODEL       85
REMARK 921   NORMALIZED FREE ENERGY PREDICTED BY IDOCK:   -3.69 KCAL/MOL
REMARK 922        TOTAL FREE ENERGY PREDICTED BY IDOCK:   -4.35 KCAL/MOL
REMARK 923 INTER-LIGAND FREE ENERGY PREDICTED BY IDOCK:   -4.18 KCAL/MOL
REMARK 924 INTRA-LIGAND FREE ENERGY PREDICTED BY IDOCK:   -0.17 KCAL/MOL
REMARK 927      BINDING AFFINITY PREDICTED BY RF-SCORE:    0.00 PKD
ROOT
HETATM    1  C   UNL     1     -11.056  16.686  68.779  1.00  0.00    -0.270 C  
HETATM    2  N   UNL     1     -10.761  15.977  67.548  1.00  0.00    -0.317 NA 
HETATM    3  N   UNL     1     -11.378  14.738  67.411  1.00  0.00    -0.340 NA 
HETATM    4  C   UNL     1     -11.053  14.235  66.250  1.00  0.00    -0.323 C  
HETATM    5  S   UNL     1      -9.991  15.180  65.236  1.00  0.00    -0.215 SA 
HETATM    6  C   UNL     1      -9.964  16.426  66.505  1.00  0.00    -0.282 C  
ENDROOT
BRANCH   4   7
HETATM    7  S   UNL     1     -11.677  12.654  65.728  1.00  0.00    -0.436 S  
HETATM    8  O   UNL     1     -10.634  12.045  64.932  1.00  0.00    -0.268 OA 
HETATM    9  N   UNL     1     -11.858  11.679  67.099  1.00  0.00    -0.133 N  
HETATM   10  O   UNL     1     -13.011  12.890  65.219  1.00  0.00    -0.703 OA 
HETATM   11  H1  UNL     1     -12.216  10.772  66.799  1.00  0.00     0.000 HD 
HETATM   12  H2  UNL     1     -11.647  11.951  68.059  1.00  0.00     0.000 HD 
ENDBRANCH   4   7
BRANCH   6  13
HETATM   13  N   UNL     1      -9.240  17.419  66.160  1.00  0.00    -0.192 N  
HETATM   14  H   UNL     1      -9.722  18.239  65.791  1.00  0.00     0.000 HD 
HETATM   15  C   UNL     1      -7.885  17.484  66.241  1.00  0.00    -0.287 C  
HETATM   16  C   UNL     1      -7.359  18.821  65.768  1.00  0.00    -0.199 C  
HETATM   17  O   UNL     1      -7.124  16.604  66.623  1.00  0.00    -0.218 OA 
ENDBRANCH   6  13
TORSDOF 2
ENDMDL
MODEL       86
REMARK 921   NORMALIZED FREE ENERGY PREDICTED BY IDOCK:   -3.68 KCAL/MOL
REMARK 922        TOTAL FREE ENERGY PREDICTED BY IDOCK:   -4.34 KCAL/MOL
REMARK 923 INTER-LIGAND FREE ENERGY PREDICTED BY IDOCK:   -4.11 KCAL/MOL
REMARK 924 INTRA-LIGAND FREE ENERGY PREDICTED BY IDOCK:   -0.23 KCAL/MOL
REMARK 927      BINDING AFFINITY PREDICTED BY RF-SCORE:    0.00 PKD
ROOT
HETATM    1  C   UNL     1     -11.273  15.990  69.344  1.00  0.00    -0.349 C  
HETATM    2  N   UNL     1      -9.887  16.203  68.972  1.00  0.00    -0.233 NA 
HETATM    3  N   UNL     1      -8.998  15.221  69.397  1.00  0.00    -0.245 NA 
HETATM    4  C   UNL     1      -7.803  15.522  68.963  1.00  0.00    -0.201 C  
HETATM    5  S   UNL     1      -7.636  16.988  68.029  1.00  0.00    -0.187 SA 
HETATM    6  C   UNL     1      -9.384  17.255  68.220  1.00  0.00    -0.272 C  
ENDROOT
BRANCH   4   7
HETATM    7  S   UNL     1      -6.409  14.474  69.309  1.00  0.00    -0.126 S  
HETATM    8  O   UNL     1      -5.232  15.305  69.188  1.00  0.00    -0.095 OA 
HETATM    9  N   UNL     1      -6.493  14.002  70.931  1.00  0.00    -0.412 N  
HETATM   10  O   UNL     1      -6.601  13.271  68.527  1.00  0.00    -0.075 OA 
HETATM   11  H1  UNL     1      -5.694  13.401  71.130  1.00  0.00     0.000 HD 
HETATM   12  H2  UNL     1      -7.218  14.272  71.596  1.00  0.00     0.000 HD 
ENDBRANCH   4   7
BRANCH   6  13
HETATM   13  N   UNL     1      -9.755  18.323  67.628  1.00  0.00    -0.292 N  
HETATM   14  H   UNL     1      -9.743  19.185  68.175  1.00  0.00     0.000 HD 
HETATM   15  C   UNL     1     -10.163  18.418  66.336  1.00  0.00    -0.410 C  
HETATM   16  C   UNL     1     -10.506  19.842  65.958  1.00  0.00    -0.609 C  
HETATM   17  O   UNL     1     -10.277  17.505  65.528  1.00  0.00    -0.608 OA 
ENDBRANCH   6  13
TORSDOF 2
ENDMDL
MODEL       87
REMARK 921   NORMALIZED FREE ENERGY PREDICTED BY IDOCK:   -3.66 KCAL/MOL
REMARK 922        TOTAL FREE ENERGY PREDICTED BY IDOCK:   -4.31 KCAL/MOL
REMARK 923 INTER-LIGAND FREE ENERGY PREDICTED BY IDOCK:   -4.08 KCAL/MOL
REMARK 924 INTRA-LIGAND FREE ENERGY PREDICTED BY IDOCK:   -0.23 KCAL/MOL
REMARK 927      BINDING AFFINITY PREDICTED BY RF-SCORE:    0.00 PKD
ROOT
HETATM    1  C   UNL     1      -9.311  10.881  66.484  1.00  0.00    -0.173 C  
HETATM    2  N   UNL     1     -10.209  11.250  67.562  1.00  0.00    -0.186 NA 
HETATM    3  N   UNL     1     -10.357  12.616  67.774  1.00  0.00    -0.216 NA 
HETATM    4  C   UNL     1     -11.216  12.799  68.742  1.00  0.00    -0.283 C  
HETATM    5  S   UNL     1     -11.907  11.375  69.480  1.00  0.00    -0.371 SA 
HETATM    6  C   UNL     1     -10.943  10.384  68.361  1.00  0.00    -0.264 C  
ENDROOT
BRANCH   4   7
HETATM    7  S   UNL     1     -11.661  14.435  69.278  1.00  0.00    -0.337 S  
HETATM    8  O   UNL     1     -12.724  14.273  70.245  1.00  0.00    -0.345 OA 
HETATM    9  N   UNL     1     -10.348  15.091  70.119  1.00  0.00    -0.496 N  
HETATM   10  O   UNL     1     -11.811  15.229  68.077  1.00  0.00    -0.314 OA 
HETATM   11  H1  UNL     1     -10.604  16.029  70.426  1.00  0.00     0.000 HD 
HETATM   12  H2  UNL     1      -9.455  14.628  70.289  1.00  0.00     0.000 HD 
ENDBRANCH   4   7
BRANCH   6  13
HETATM   13  N   UNL     1     -11.155   9.139  68.548  1.00  0.00    -0.458 N  
HETATM   14  H   UNL     1     -11.943   8.723  68.049  1.00  0.00     0.000 HD 
HETATM   15  C   UNL     1     -10.428   8.318  69.349  1.00  0.00    -0.220 C  
HETATM   16  C   UNL     1     -10.946   6.897  69.315  1.00  0.00    -0.260 C  
HETATM   17  O   UNL     1      -9.472   8.625  70.050  1.00  0.00    -0.161 OA 
ENDBRANCH   6  13
TORSDOF 2
ENDMDL
MODEL       88
REMARK 921   NORMALIZED FREE ENERGY PREDICTED BY IDOCK:   -3.65 KCAL/MOL
REMARK 922        TOTAL FREE ENERGY PREDICTED BY IDOCK:   -4.31 KCAL/MOL
REMARK 923 INTER-LIGAND FREE ENERGY PREDICTED BY IDOCK:   -4.19 KCAL/MOL
REMARK 924 INTRA-LIGAND FREE ENERGY PREDICTED BY IDOCK:   -0.12 KCAL/MOL
REMARK 927      BINDING AFFINITY PREDICTED BY RF-SCORE:    0.00 PKD
ROOT
HETATM    1  C   UNL     1     -10.159  11.020  65.082  1.00  0.00    -0.289 C  
HETATM    2  N   UNL     1     -10.098  12.156  65.984  1.00  0.00    -0.230 NA 
HETATM    3  N   UNL     1     -10.193  13.404  65.378  1.00  0.00    -0.307 NA 
HETATM    4  C   UNL     1     -10.160  14.323  66.306  1.00  0.00    -0.298 C  
HETATM    5  S   UNL     1     -10.008  13.786  67.961  1.00  0.00    -0.252 SA 
HETATM    6  C   UNL     1      -9.989  12.110  67.366  1.00  0.00    -0.199 C  
ENDROOT
BRANCH   4   7
HETATM    7  S   UNL     1     -10.273  16.049  65.894  1.00  0.00    -0.384 S  
HETATM    8  O   UNL     1      -8.921  16.499  65.645  1.00  0.00    -0.449 OA 
HETATM    9  N   UNL     1     -11.098  16.187  64.423  1.00  0.00    -0.663 N  
HETATM   10  O   UNL     1     -11.126  16.651  66.895  1.00  0.00    -0.029 OA 
HETATM   11  H1  UNL     1     -11.162  17.177  64.187  1.00  0.00     0.000 HD 
HETATM   12  H2  UNL     1     -11.467  15.415  63.869  1.00  0.00     0.000 HD 
ENDBRANCH   4   7
BRANCH   6  13
HETATM   13  N   UNL     1      -9.890  11.280  68.331  1.00  0.00    -0.193 N  
HETATM   14  H   UNL     1      -8.988  10.820  68.457  1.00  0.00     0.000 HD 
HETATM   15  C   UNL     1     -10.877  10.953  69.207  1.00  0.00    -0.241 C  
HETATM   16  C   UNL     1     -10.403   9.954  70.239  1.00  0.00    -0.339 C  
HETATM   17  O   UNL     1     -12.029  11.366  69.210  1.00  0.00    -0.316 OA 
ENDBRANCH   6  13
TORSDOF 2
ENDMDL
MODEL       89
REMARK 921   NORMALIZED FREE ENERGY PREDICTED BY IDOCK:   -3.62 KCAL/MOL
REMARK 922        TOTAL FREE ENERGY PREDICTED BY IDOCK:   -4.27 KCAL/MOL
REMARK 923 INTER-LIGAND FREE ENERGY PREDICTED BY IDOCK:   -4.04 KCAL/MOL
REMARK 924 INTRA-LIGAND FREE ENERGY PREDICTED BY IDOCK:   -0.23 KCAL/MOL
REMARK 927      BINDING AFFINITY PREDICTED BY RF-SCORE:    0.00 PKD
ROOT
HETATM    1  C   UNL     1     -10.517   7.126  66.926  1.00  0.00    -0.294 C  
HETATM    2  N   UNL     1     -10.494   8.383  67.650  1.00  0.00    -0.250 NA 
HETATM    3  N   UNL     1     -10.700   9.520  66.878  1.00  0.00    -0.169 NA 
HETATM    4  C   UNL     1     -10.689  10.566  67.661  1.00  0.00    -0.275 C  
HETATM    5  S   UNL     1     -10.429  10.288  69.365  1.00  0.00    -0.251 SA 
HETATM    6  C   UNL     1     -10.322   8.547  69.017  1.00  0.00    -0.216 C  
ENDROOT
BRANCH   4   7
HETATM    7  S   UNL     1     -10.937  12.203  67.011  1.00  0.00    -0.287 S  
HETATM    8  O   UNL     1     -10.902  13.102  68.143  1.00  0.00    -0.236 OA 
HETATM    9  N   UNL     1      -9.602  12.596  66.049  1.00  0.00    -0.368 N  
HETATM   10  O   UNL     1     -12.070  12.117  66.115  1.00  0.00    -0.621 OA 
HETATM   11  H1  UNL     1      -9.744  13.535  65.676  1.00  0.00     0.000 HD 
HETATM   12  H2  UNL     1      -8.794  11.999  65.873  1.00  0.00     0.000 HD 
ENDBRANCH   4   7
BRANCH   6  13
HETATM   13  N   UNL     1     -10.125   7.876  70.085  1.00  0.00    -0.192 N  
HETATM   14  H   UNL     1      -9.269   8.073  70.606  1.00  0.00     0.000 HD 
HETATM   15  C   UNL     1     -10.950   6.922  70.591  1.00  0.00    -0.264 C  
HETATM   16  C   UNL     1     -10.416   6.348  71.885  1.00  0.00    -0.239 C  
HETATM   17  O   UNL     1     -11.999   6.519  70.106  1.00  0.00    -0.383 OA 
ENDBRANCH   6  13
TORSDOF 2
ENDMDL
MODEL       90
REMARK 921   NORMALIZED FREE ENERGY PREDICTED BY IDOCK:   -3.59 KCAL/MOL
REMARK 922        TOTAL FREE ENERGY PREDICTED BY IDOCK:   -4.24 KCAL/MOL
REMARK 923 INTER-LIGAND FREE ENERGY PREDICTED BY IDOCK:   -4.04 KCAL/MOL
REMARK 924 INTRA-LIGAND FREE ENERGY PREDICTED BY IDOCK:   -0.20 KCAL/MOL
REMARK 927      BINDING AFFINITY PREDICTED BY RF-SCORE:    0.00 PKD
ROOT
HETATM    1  C   UNL     1      -9.631   8.668  66.160  1.00  0.00    -0.235 C  
HETATM    2  N   UNL     1     -10.159   9.413  67.287  1.00  0.00    -0.210 NA 
HETATM    3  N   UNL     1     -10.525   8.648  68.389  1.00  0.00    -0.203 NA 
HETATM    4  C   UNL     1     -10.944   9.447  69.333  1.00  0.00    -0.145 C  
HETATM    5  S   UNL     1     -10.947  11.160  68.991  1.00  0.00    -0.254 SA 
HETATM    6  C   UNL     1     -10.298  10.791  67.377  1.00  0.00    -0.211 C  
ENDROOT
BRANCH   4   7
HETATM    7  S   UNL     1     -11.485   8.810  70.903  1.00  0.00    -0.279 S  
HETATM    8  O   UNL     1     -10.520   9.260  71.881  1.00  0.00    -0.305 OA 
HETATM    9  N   UNL     1     -12.949   9.558  71.300  1.00  0.00    -0.415 N  
HETATM   10  O   UNL     1     -11.789   7.411  70.691  1.00  0.00    -0.286 OA 
HETATM   11  H1  UNL     1     -13.260   9.192  72.200  1.00  0.00     0.000 HD 
HETATM   12  H2  UNL     1     -13.438  10.253  70.736  1.00  0.00     0.000 HD 
ENDBRANCH   4   7
BRANCH   6  13
HETATM   13  N   UNL     1     -10.111  11.857  66.701  1.00  0.00    -0.198 N  
HETATM   14  H   UNL     1      -9.168  12.249  66.704  1.00  0.00     0.000 HD 
HETATM   15  C   UNL     1     -11.052  12.518  65.977  1.00  0.00    -0.294 C  
HETATM   16  C   UNL     1     -10.475  13.732  65.282  1.00  0.00    -0.376 C  
HETATM   17  O   UNL     1     -12.238  12.232  65.870  1.00  0.00    -0.634 OA 
ENDBRANCH   6  13
TORSDOF 2
ENDMDL
MODEL       91
REMARK 921   NORMALIZED FREE ENERGY PREDICTED BY IDOCK:   -3.59 KCAL/MOL
REMARK 922        TOTAL FREE ENERGY PREDICTED BY IDOCK:   -4.24 KCAL/MOL
REMARK 923 INTER-LIGAND FREE ENERGY PREDICTED BY IDOCK:   -4.00 KCAL/MOL
REMARK 924 INTRA-LIGAND FREE ENERGY PREDICTED BY IDOCK:   -0.24 KCAL/MOL
REMARK 927      BINDING AFFINITY PREDICTED BY RF-SCORE:    0.00 PKD
ROOT
HETATM    1  C   UNL     1     -10.971  16.628  69.624  1.00  0.00    -0.221 C  
HETATM    2  N   UNL     1     -10.297  15.595  68.860  1.00  0.00    -0.209 NA 
HETATM    3  N   UNL     1     -10.834  14.318  68.982  1.00  0.00    -0.253 NA 
HETATM    4  C   UNL     1     -10.156  13.504  68.218  1.00  0.00    -0.247 C  
HETATM    5  S   UNL     1      -8.830  14.180  67.304  1.00  0.00    -0.227 SA 
HETATM    6  C   UNL     1      -9.212  15.766  68.013  1.00  0.00    -0.188 C  
ENDROOT
BRANCH   4   7
HETATM    7  S   UNL     1     -10.575  11.779  68.112  1.00  0.00    -0.213 S  
HETATM    8  O   UNL     1      -9.771  11.227  67.045  1.00  0.00    -0.183 OA 
HETATM    9  N   UNL     1     -10.061  11.023  69.536  1.00  0.00    -0.441 N  
HETATM   10  O   UNL     1     -12.021  11.711  68.117  1.00  0.00    -0.550 OA 
HETATM   11  H1  UNL     1     -10.302  10.034  69.475  1.00  0.00     0.000 HD 
HETATM   12  H2  UNL     1      -9.591  11.478  70.319  1.00  0.00     0.000 HD 
ENDBRANCH   4   7
BRANCH   6  13
HETATM   13  N   UNL     1      -8.419  16.668  67.579  1.00  0.00    -0.186 N  
HETATM   14  H   UNL     1      -7.506  16.739  68.030  1.00  0.00     0.000 HD 
HETATM   15  C   UNL     1      -8.679  17.541  66.571  1.00  0.00    -0.262 C  
HETATM   16  C   UNL     1      -7.505  18.456  66.303  1.00  0.00    -0.294 C  
HETATM   17  O   UNL     1      -9.717  17.639  65.928  1.00  0.00    -0.521 OA 
ENDBRANCH   6  13
TORSDOF 2
ENDMDL
MODEL       92
REMARK 921   NORMALIZED FREE ENERGY PREDICTED BY IDOCK:   -3.58 KCAL/MOL
REMARK 922        TOTAL FREE ENERGY PREDICTED BY IDOCK:   -4.23 KCAL/MOL
REMARK 923 INTER-LIGAND FREE ENERGY PREDICTED BY IDOCK:   -4.12 KCAL/MOL
REMARK 924 INTRA-LIGAND FREE ENERGY PREDICTED BY IDOCK:   -0.11 KCAL/MOL
REMARK 927      BINDING AFFINITY PREDICTED BY RF-SCORE:    0.00 PKD
ROOT
HETATM    1  C   UNL     1      -9.255  13.777  67.733  1.00  0.00    -0.206 C  
HETATM    2  N   UNL     1      -9.692  12.884  66.675  1.00  0.00    -0.248 NA 
HETATM    3  N   UNL     1     -10.823  13.293  65.979  1.00  0.00    -0.272 NA 
HETATM    4  C   UNL     1     -11.076  12.419  65.042  1.00  0.00    -0.304 C  
HETATM    5  S   UNL     1     -10.004  11.046  64.915  1.00  0.00    -0.312 SA 
HETATM    6  C   UNL     1      -9.077  11.704  66.283  1.00  0.00    -0.214 C  
ENDROOT
BRANCH   4   7
HETATM    7  S   UNL     1     -12.456  12.628  63.939  1.00  0.00    -0.388 S  
HETATM    8  O   UNL     1     -12.194  13.830  63.179  1.00  0.00    -0.609 OA 
HETATM    9  N   UNL     1     -12.441  11.352  62.828  1.00  0.00    -0.741 N  
HETATM   10  O   UNL     1     -13.648  12.454  64.741  1.00  0.00    -0.391 OA 
HETATM   11  H1  UNL     1     -13.233  11.471  62.196  1.00  0.00     0.000 HD 
HETATM   12  H2  UNL     1     -11.760  10.593  62.797  1.00  0.00     0.000 HD 
ENDBRANCH   4   7
BRANCH   6  13
HETATM   13  N   UNL     1      -8.083  10.955  66.568  1.00  0.00    -0.149 N  
HETATM   14  H   UNL     1      -7.495  10.649  65.793  1.00  0.00     0.000 HD 
HETATM   15  C   UNL     1      -7.737  10.528  67.811  1.00  0.00    -0.093 C  
HETATM   16  C   UNL     1      -6.489   9.674  67.784  1.00  0.00    -0.058 C  
HETATM   17  O   UNL     1      -8.325  10.756  68.861  1.00  0.00    -0.138 OA 
ENDBRANCH   6  13
TORSDOF 2
ENDMDL
MODEL       93
REMARK 921   NORMALIZED FREE ENERGY PREDICTED BY IDOCK:   -3.58 KCAL/MOL
REMARK 922        TOTAL FREE ENERGY PREDICTED BY IDOCK:   -4.23 KCAL/MOL
REMARK 923 INTER-LIGAND FREE ENERGY PREDICTED BY IDOCK:   -3.98 KCAL/MOL
REMARK 924 INTRA-LIGAND FREE ENERGY PREDICTED BY IDOCK:   -0.25 KCAL/MOL
REMARK 927      BINDING AFFINITY PREDICTED BY RF-SCORE:    0.00 PKD
ROOT
HETATM    1  C   UNL     1     -10.456   9.696  68.183  1.00  0.00    -0.222 C  
HETATM    2  N   UNL     1     -10.978  11.047  68.088  1.00  0.00    -0.226 NA 
HETATM    3  N   UNL     1     -11.183  11.693  69.302  1.00  0.00    -0.259 NA 
HETATM    4  C   UNL     1     -11.616  12.902  69.065  1.00  0.00    -0.322 C  
HETATM    5  S   UNL     1     -11.819  13.367  67.394  1.00  0.00    -0.360 SA 
HETATM    6  C   UNL     1     -11.251  11.749  66.923  1.00  0.00    -0.327 C  
ENDROOT
BRANCH   4   7
HETATM    7  S   UNL     1     -11.975  14.027  70.395  1.00  0.00    -0.314 S  
HETATM    8  O   UNL     1     -12.305  13.212  71.542  1.00  0.00    -0.178 OA 
HETATM    9  N   UNL     1     -10.550  14.849  70.790  1.00  0.00    -0.500 N  
HETATM   10  O   UNL     1     -12.879  15.020  69.855  1.00  0.00    -0.154 OA 
HETATM   11  H1  UNL     1     -10.756  15.494  71.553  1.00  0.00     0.000 HD 
HETATM   12  H2  UNL     1      -9.642  14.722  70.343  1.00  0.00     0.000 HD 
ENDBRANCH   4   7
BRANCH   6  13
HETATM   13  N   UNL     1     -11.224  11.621  65.653  1.00  0.00    -0.261 N  
HETATM   14  H   UNL     1     -12.120  11.644  65.165  1.00  0.00     0.000 HD 
HETATM   15  C   UNL     1     -10.111  11.460  64.892  1.00  0.00    -0.274 C  
HETATM   16  C   UNL     1     -10.446  11.366  63.420  1.00  0.00    -0.452 C  
HETATM   17  O   UNL     1      -8.953  11.377  65.283  1.00  0.00    -0.137 OA 
ENDBRANCH   6  13
TORSDOF 2
ENDMDL
MODEL       94
REMARK 921   NORMALIZED FREE ENERGY PREDICTED BY IDOCK:   -3.57 KCAL/MOL
REMARK 922        TOTAL FREE ENERGY PREDICTED BY IDOCK:   -4.22 KCAL/MOL
REMARK 923 INTER-LIGAND FREE ENERGY PREDICTED BY IDOCK:   -4.15 KCAL/MOL
REMARK 924 INTRA-LIGAND FREE ENERGY PREDICTED BY IDOCK:   -0.07 KCAL/MOL
REMARK 927      BINDING AFFINITY PREDICTED BY RF-SCORE:    0.00 PKD
ROOT
HETATM    1  C   UNL     1     -10.037  19.515  68.810  1.00  0.00    -0.430 C  
HETATM    2  N   UNL     1      -9.211  18.819  67.841  1.00  0.00    -0.289 NA 
HETATM    3  N   UNL     1      -8.291  19.611  67.163  1.00  0.00    -0.288 NA 
HETATM    4  C   UNL     1      -7.598  18.852  66.358  1.00  0.00    -0.262 C  
HETATM    5  S   UNL     1      -7.981  17.148  66.334  1.00  0.00    -0.316 SA 
HETATM    6  C   UNL     1      -9.231  17.460  67.561  1.00  0.00    -0.233 C  
ENDROOT
BRANCH   4   7
HETATM    7  S   UNL     1      -6.312  19.531  65.335  1.00  0.00    -0.268 S  
HETATM    8  O   UNL     1      -6.284  18.733  64.129  1.00  0.00    -0.324 OA 
HETATM    9  N   UNL     1      -6.779  21.087  64.864  1.00  0.00    -0.524 N  
HETATM   10  O   UNL     1      -5.156  19.696  66.190  1.00  0.00    -0.157 OA 
HETATM   11  H1  UNL     1      -6.041  21.477  64.277  1.00  0.00     0.000 HD 
HETATM   12  H2  UNL     1      -7.647  21.555  65.123  1.00  0.00     0.000 HD 
ENDBRANCH   4   7
BRANCH   6  13
HETATM   13  N   UNL     1      -9.831  16.383  67.892  1.00  0.00    -0.235 N  
HETATM   14  H   UNL     1      -9.628  16.003  68.817  1.00  0.00     0.000 HD 
HETATM   15  C   UNL     1     -10.717  15.696  67.123  1.00  0.00    -0.314 C  
HETATM   16  C   UNL     1     -11.254  14.477  67.840  1.00  0.00    -0.310 C  
HETATM   17  O   UNL     1     -11.070  15.965  65.982  1.00  0.00    -0.195 OA 
ENDBRANCH   6  13
TORSDOF 2
ENDMDL
MODEL       95
REMARK 921   NORMALIZED FREE ENERGY PREDICTED BY IDOCK:   -3.57 KCAL/MOL
REMARK 922        TOTAL FREE ENERGY PREDICTED BY IDOCK:   -4.21 KCAL/MOL
REMARK 923 INTER-LIGAND FREE ENERGY PREDICTED BY IDOCK:   -4.00 KCAL/MOL
REMARK 924 INTRA-LIGAND FREE ENERGY PREDICTED BY IDOCK:   -0.22 KCAL/MOL
REMARK 927      BINDING AFFINITY PREDICTED BY RF-SCORE:    0.00 PKD
ROOT
HETATM    1  C   UNL     1     -10.287   5.565  71.821  1.00  0.00    -0.216 C  
HETATM    2  N   UNL     1     -10.465   5.933  70.429  1.00  0.00    -0.239 NA 
HETATM    3  N   UNL     1      -9.900   5.060  69.505  1.00  0.00    -0.192 NA 
HETATM    4  C   UNL     1     -10.168   5.493  68.302  1.00  0.00    -0.178 C  
HETATM    5  S   UNL     1     -11.100   6.965  68.169  1.00  0.00    -0.012 SA 
HETATM    6  C   UNL     1     -11.160   7.032  69.946  1.00  0.00    -0.264 C  
ENDROOT
BRANCH   4   7
HETATM    7  S   UNL     1      -9.609   4.612  66.863  1.00  0.00    -0.197 S  
HETATM    8  O   UNL     1      -9.575   3.213  67.227  1.00  0.00    -0.174 OA 
HETATM    9  N   UNL     1     -10.791   4.761  65.661  1.00  0.00    -0.781 N  
HETATM   10  O   UNL     1      -8.446   5.322  66.377  1.00  0.00    -0.112 OA 
HETATM   11  H1  UNL     1     -10.470   4.256  64.835  1.00  0.00     0.000 HD 
HETATM   12  H2  UNL     1     -11.671   5.269  65.747  1.00  0.00     0.000 HD 
ENDBRANCH   4   7
BRANCH   6  13
HETATM   13  N   UNL     1     -11.821   8.048  70.346  1.00  0.00    -0.475 N  
HETATM   14  H   UNL     1     -12.782   8.137  70.015  1.00  0.00     0.000 HD 
HETATM   15  C   UNL     1     -11.361   9.022  71.174  1.00  0.00    -0.307 C  
HETATM   16  C   UNL     1     -12.420  10.063  71.460  1.00  0.00    -0.516 C  
HETATM   17  O   UNL     1     -10.237   9.116  71.653  1.00  0.00    -0.336 OA 
ENDBRANCH   6  13
TORSDOF 2
ENDMDL
MODEL       96
REMARK 921   NORMALIZED FREE ENERGY PREDICTED BY IDOCK:   -3.56 KCAL/MOL
REMARK 922        TOTAL FREE ENERGY PREDICTED BY IDOCK:   -4.20 KCAL/MOL
REMARK 923 INTER-LIGAND FREE ENERGY PREDICTED BY IDOCK:   -3.96 KCAL/MOL
REMARK 924 INTRA-LIGAND FREE ENERGY PREDICTED BY IDOCK:   -0.25 KCAL/MOL
REMARK 927      BINDING AFFINITY PREDICTED BY RF-SCORE:    0.00 PKD
ROOT
HETATM    1  C   UNL     1     -10.608   9.356  67.989  1.00  0.00    -0.226 C  
HETATM    2  N   UNL     1     -10.370   7.933  68.146  1.00  0.00    -0.205 NA 
HETATM    3  N   UNL     1     -10.289   7.208  66.962  1.00  0.00    -0.272 NA 
HETATM    4  C   UNL     1     -10.037   5.960  67.252  1.00  0.00    -0.174 C  
HETATM    5  S   UNL     1      -9.885   5.544  68.942  1.00  0.00    -0.171 SA 
HETATM    6  C   UNL     1     -10.187   7.251  69.340  1.00  0.00    -0.192 C  
ENDROOT
BRANCH   4   7
HETATM    7  S   UNL     1      -9.853   4.739  65.973  1.00  0.00    -0.236 S  
HETATM    8  O   UNL     1      -9.656   3.472  66.641  1.00  0.00    -0.187 OA 
HETATM    9  N   UNL     1     -11.323   4.616  65.145  1.00  0.00    -0.966 N  
HETATM   10  O   UNL     1      -8.900   5.281  65.028  1.00  0.00    -0.154 OA 
HETATM   11  H1  UNL     1     -11.217   3.915  64.411  1.00  0.00     0.000 HD 
HETATM   12  H2  UNL     1     -12.169   5.149  65.345  1.00  0.00     0.000 HD 
ENDBRANCH   4   7
BRANCH   6  13
HETATM   13  N   UNL     1     -10.157   7.442  70.602  1.00  0.00    -0.190 N  
HETATM   14  H   UNL     1      -9.242   7.419  71.053  1.00  0.00     0.000 HD 
HETATM   15  C   UNL     1     -11.232   7.674  71.400  1.00  0.00    -0.246 C  
HETATM   16  C   UNL     1     -10.828   7.879  72.842  1.00  0.00    -0.451 C  
HETATM   17  O   UNL     1     -12.409   7.710  71.062  1.00  0.00    -0.290 OA 
ENDBRANCH   6  13
TORSDOF 2
ENDMDL
MODEL       97
REMARK 921   NORMALIZED FREE ENERGY PREDICTED BY IDOCK:   -3.55 KCAL/MOL
REMARK 922        TOTAL FREE ENERGY PREDICTED BY IDOCK:   -4.19 KCAL/MOL
REMARK 923 INTER-LIGAND FREE ENERGY PREDICTED BY IDOCK:   -3.94 KCAL/MOL
REMARK 924 INTRA-LIGAND FREE ENERGY PREDICTED BY IDOCK:   -0.25 KCAL/MOL
REMARK 927      BINDING AFFINITY PREDICTED BY RF-SCORE:    0.00 PKD
ROOT
HETATM    1  C   UNL     1     -11.220   7.285  72.247  1.00  0.00    -0.267 C  
HETATM    2  N   UNL     1     -10.976   7.910  70.961  1.00  0.00    -0.240 NA 
HETATM    3  N   UNL     1     -10.489   7.064  69.970  1.00  0.00    -0.209 NA 
HETATM    4  C   UNL     1     -10.353   7.748  68.866  1.00  0.00    -0.213 C  
HETATM    5  S   UNL     1     -10.782   9.440  68.913  1.00  0.00    -0.132 SA 
HETATM    6  C   UNL     1     -11.212   9.235  70.627  1.00  0.00    -0.276 C  
ENDROOT
BRANCH   4   7
HETATM    7  S   UNL     1      -9.760   6.979  67.376  1.00  0.00    -0.151 S  
HETATM    8  O   UNL     1      -8.978   5.835  67.790  1.00  0.00    -0.110 OA 
HETATM    9  N   UNL     1     -11.091   6.365  66.533  1.00  0.00    -0.680 N  
HETATM   10  O   UNL     1      -9.217   8.042  66.558  1.00  0.00    -0.167 OA 
HETATM   11  H1  UNL     1     -10.751   5.924  65.679  1.00  0.00     0.000 HD 
HETATM   12  H2  UNL     1     -12.066   6.425  66.828  1.00  0.00     0.000 HD 
ENDBRANCH   4   7
BRANCH   6  13
HETATM   13  N   UNL     1     -11.633  10.331  71.130  1.00  0.00    -0.343 N  
HETATM   14  H   UNL     1     -10.949  11.079  71.250  1.00  0.00     0.000 HD 
HETATM   15  C   UNL     1     -12.908  10.591  71.520  1.00  0.00    -0.463 C  
HETATM   16  C   UNL     1     -13.056  12.000  72.050  1.00  0.00    -0.456 C  
HETATM   17  O   UNL     1     -13.862   9.824  71.489  1.00  0.00    -0.236 OA 
ENDBRANCH   6  13
TORSDOF 2
ENDMDL
MODEL       98
REMARK 921   NORMALIZED FREE ENERGY PREDICTED BY IDOCK:   -3.55 KCAL/MOL
REMARK 922        TOTAL FREE ENERGY PREDICTED BY IDOCK:   -4.19 KCAL/MOL
REMARK 923 INTER-LIGAND FREE ENERGY PREDICTED BY IDOCK:   -3.95 KCAL/MOL
REMARK 924 INTRA-LIGAND FREE ENERGY PREDICTED BY IDOCK:   -0.24 KCAL/MOL
REMARK 927      BINDING AFFINITY PREDICTED BY RF-SCORE:    0.00 PKD
ROOT
HETATM    1  C   UNL     1      -9.312  11.043  66.436  1.00  0.00    -0.183 C  
HETATM    2  N   UNL     1      -9.929  10.433  67.599  1.00  0.00    -0.170 NA 
HETATM    3  N   UNL     1      -9.970   9.043  67.592  1.00  0.00    -0.187 NA 
HETATM    4  C   UNL     1     -10.514   8.635  68.707  1.00  0.00    -0.185 C  
HETATM    5  S   UNL     1     -11.024   9.858  69.845  1.00  0.00    -0.297 SA 
HETATM    6  C   UNL     1     -10.439  11.094  68.707  1.00  0.00    -0.203 C  
ENDROOT
BRANCH   4   7
HETATM    7  S   UNL     1     -10.718   6.902  69.049  1.00  0.00    -0.218 S  
HETATM    8  O   UNL     1      -9.548   6.491  69.795  1.00  0.00    -0.152 OA 
HETATM    9  N   UNL     1     -12.035   6.722  70.096  1.00  0.00    -0.639 N  
HETATM   10  O   UNL     1     -11.105   6.283  67.800  1.00  0.00    -0.334 OA 
HETATM   11  H1  UNL     1     -12.152   5.728  70.292  1.00  0.00     0.000 HD 
HETATM   12  H2  UNL     1     -12.613   7.477  70.466  1.00  0.00     0.000 HD 
ENDBRANCH   4   7
BRANCH   6  13
HETATM   13  N   UNL     1     -10.616  12.269  69.173  1.00  0.00    -0.429 N  
HETATM   14  H   UNL     1     -10.103  12.515  70.020  1.00  0.00     0.000 HD 
HETATM   15  C   UNL     1     -11.424  13.223  68.642  1.00  0.00    -0.304 C  
HETATM   16  C   UNL     1     -11.374  14.508  69.439  1.00  0.00    -0.314 C  
HETATM   17  O   UNL     1     -12.142  13.119  67.655  1.00  0.00    -0.331 OA 
ENDBRANCH   6  13
TORSDOF 2
ENDMDL
MODEL       99
REMARK 921   NORMALIZED FREE ENERGY PREDICTED BY IDOCK:   -3.54 KCAL/MOL
REMARK 922        TOTAL FREE ENERGY PREDICTED BY IDOCK:   -4.19 KCAL/MOL
REMARK 923 INTER-LIGAND FREE ENERGY PREDICTED BY IDOCK:   -3.96 KCAL/MOL
REMARK 924 INTRA-LIGAND FREE ENERGY PREDICTED BY IDOCK:   -0.22 KCAL/MOL
REMARK 927      BINDING AFFINITY PREDICTED BY RF-SCORE:    0.00 PKD
ROOT
HETATM    1  C   UNL     1     -10.608  13.131  67.100  1.00  0.00    -0.257 C  
HETATM    2  N   UNL     1     -10.504  11.733  67.474  1.00  0.00    -0.198 NA 
HETATM    3  N   UNL     1     -10.955  11.422  68.751  1.00  0.00    -0.207 NA 
HETATM    4  C   UNL     1     -10.837  10.134  68.935  1.00  0.00    -0.223 C  
HETATM    5  S   UNL     1     -10.178   9.194  67.619  1.00  0.00    -0.251 SA 
HETATM    6  C   UNL     1     -10.038  10.697  66.678  1.00  0.00    -0.220 C  
ENDROOT
BRANCH   4   7
HETATM    7  S   UNL     1     -11.334   9.375  70.465  1.00  0.00    -0.271 S  
HETATM    8  O   UNL     1     -12.572  10.012  70.855  1.00  0.00    -0.321 OA 
HETATM    9  N   UNL     1     -11.710   7.756  70.152  1.00  0.00    -0.474 N  
HETATM   10  O   UNL     1     -10.160   9.362  71.312  1.00  0.00    -0.302 OA 
HETATM   11  H1  UNL     1     -11.995   7.320  71.029  1.00  0.00     0.000 HD 
HETATM   12  H2  UNL     1     -11.661   7.294  69.244  1.00  0.00     0.000 HD 
ENDBRANCH   4   7
BRANCH   6  13
HETATM   13  N   UNL     1      -9.559  10.470  65.516  1.00  0.00    -0.212 N  
HETATM   14  H   UNL     1      -8.630  10.048  65.472  1.00  0.00     0.000 HD 
HETATM   15  C   UNL     1     -10.173  10.737  64.334  1.00  0.00    -0.364 C  
HETATM   16  C   UNL     1      -9.326  10.316  63.154  1.00  0.00    -0.343 C  
HETATM   17  O   UNL     1     -11.266  11.265  64.172  1.00  0.00    -0.321 OA 
ENDBRANCH   6  13
TORSDOF 2
ENDMDL
MODEL      100
REMARK 921   NORMALIZED FREE ENERGY PREDICTED BY IDOCK:   -3.47 KCAL/MOL
REMARK 922        TOTAL FREE ENERGY PREDICTED BY IDOCK:   -4.11 KCAL/MOL
REMARK 923 INTER-LIGAND FREE ENERGY PREDICTED BY IDOCK:   -3.91 KCAL/MOL
REMARK 924 INTRA-LIGAND FREE ENERGY PREDICTED BY IDOCK:   -0.19 KCAL/MOL
REMARK 927      BINDING AFFINITY PREDICTED BY RF-SCORE:    0.00 PKD
ROOT
HETATM    1  C   UNL     1     -10.402   8.411  68.801  1.00  0.00    -0.206 C  
HETATM    2  N   UNL     1     -10.585   7.993  70.178  1.00  0.00    -0.233 NA 
HETATM    3  N   UNL     1     -10.157   6.704  70.472  1.00  0.00    -0.187 NA 
HETATM    4  C   UNL     1     -10.348   6.479  71.745  1.00  0.00    -0.205 C  
HETATM    5  S   UNL     1     -11.053   7.768  72.689  1.00  0.00    -0.399 SA 
HETATM    6  C   UNL     1     -11.105   8.758  71.213  1.00  0.00    -0.278 C  
ENDROOT
BRANCH   4   7
HETATM    7  S   UNL     1      -9.900   4.923  72.480  1.00  0.00    -0.162 S  
HETATM    8  O   UNL     1      -8.660   5.148  73.191  1.00  0.00    -0.110 OA 
HETATM    9  N   UNL     1     -11.057   4.541  73.653  1.00  0.00    -0.298 N  
HETATM   10  O   UNL     1     -10.035   3.927  71.439  1.00  0.00    -0.183 OA 
HETATM   11  H1  UNL     1     -10.801   3.649  74.075  1.00  0.00     0.000 HD 
HETATM   12  H2  UNL     1     -11.872   5.105  73.897  1.00  0.00     0.000 HD 
ENDBRANCH   4   7
BRANCH   6  13
HETATM   13  N   UNL     1     -11.592   9.914  71.450  1.00  0.00    -0.375 N  
HETATM   14  H   UNL     1     -10.928  10.671  71.619  1.00  0.00     0.000 HD 
HETATM   15  C   UNL     1     -12.913  10.229  71.498  1.00  0.00    -0.453 C  
HETATM   16  C   UNL     1     -13.129  11.699  71.781  1.00  0.00    -0.487 C  
HETATM   17  O   UNL     1     -13.860   9.466  71.355  1.00  0.00    -0.336 OA 
ENDBRANCH   6  13
TORSDOF 2
ENDMDL
MODEL      101
REMARK 921   NORMALIZED FREE ENERGY PREDICTED BY IDOCK:   -3.45 KCAL/MOL
REMARK 922        TOTAL FREE ENERGY PREDICTED BY IDOCK:   -4.08 KCAL/MOL
REMARK 923 INTER-LIGAND FREE ENERGY PREDICTED BY IDOCK:   -3.84 KCAL/MOL
REMARK 924 INTRA-LIGAND FREE ENERGY PREDICTED BY IDOCK:   -0.24 KCAL/MOL
REMARK 927      BINDING AFFINITY PREDICTED BY RF-SCORE:    0.00 PKD
ROOT
HETATM    1  C   UNL     1     -10.269   9.276  66.771  1.00  0.00    -0.255 C  
HETATM    2  N   UNL     1     -10.549   8.380  67.877  1.00  0.00    -0.195 NA 
HETATM    3  N   UNL     1     -10.530   8.965  69.138  1.00  0.00    -0.227 NA 
HETATM    4  C   UNL     1     -10.832   8.056  70.026  1.00  0.00    -0.235 C  
HETATM    5  S   UNL     1     -11.155   6.442  69.442  1.00  0.00    -0.390 SA 
HETATM    6  C   UNL     1     -10.860   7.030  67.790  1.00  0.00    -0.206 C  
ENDROOT
BRANCH   4   7
HETATM    7  S   UNL     1     -10.916   8.454  71.757  1.00  0.00    -0.315 S  
HETATM    8  O   UNL     1     -12.169   9.150  71.956  1.00  0.00    -0.367 OA 
HETATM    9  N   UNL     1     -11.033   7.008  72.626  1.00  0.00    -0.262 N  
HETATM   10  O   UNL     1      -9.636   9.034  72.103  1.00  0.00    -0.312 OA 
HETATM   11  H1  UNL     1     -11.081   7.237  73.619  1.00  0.00     0.000 HD 
HETATM   12  H2  UNL     1     -11.051   6.069  72.227  1.00  0.00     0.000 HD 
ENDBRANCH   4   7
BRANCH   6  13
HETATM   13  N   UNL     1     -11.008   6.094  66.935  1.00  0.00    -0.582 N  
HETATM   14  H   UNL     1     -11.962   5.879  66.643  1.00  0.00     0.000 HD 
HETATM   15  C   UNL     1     -10.011   5.360  66.376  1.00  0.00    -0.191 C  
HETATM   16  C   UNL     1     -10.545   4.352  65.382  1.00  0.00    -0.192 C  
HETATM   17  O   UNL     1      -8.812   5.440  66.612  1.00  0.00    -0.114 OA 
ENDBRANCH   6  13
TORSDOF 2
ENDMDL
MODEL      102
REMARK 921   NORMALIZED FREE ENERGY PREDICTED BY IDOCK:   -3.44 KCAL/MOL
REMARK 922        TOTAL FREE ENERGY PREDICTED BY IDOCK:   -4.08 KCAL/MOL
REMARK 923 INTER-LIGAND FREE ENERGY PREDICTED BY IDOCK:   -4.17 KCAL/MOL
REMARK 924 INTRA-LIGAND FREE ENERGY PREDICTED BY IDOCK:    0.09 KCAL/MOL
REMARK 927      BINDING AFFINITY PREDICTED BY RF-SCORE:    0.00 PKD
ROOT
HETATM    1  C   UNL     1     -12.859  13.800  65.607  1.00  0.00    -0.408 C  
HETATM    2  N   UNL     1     -11.933  13.079  66.461  1.00  0.00    -0.402 NA 
HETATM    3  N   UNL     1     -11.392  11.923  65.911  1.00  0.00    -0.330 NA 
HETATM    4  C   UNL     1     -10.556  11.402  66.770  1.00  0.00    -0.255 C  
HETATM    5  S   UNL     1     -10.351  12.232  68.293  1.00  0.00    -0.224 SA 
HETATM    6  C   UNL     1     -11.523  13.448  67.735  1.00  0.00    -0.316 C  
ENDROOT
BRANCH   4   7
HETATM    7  S   UNL     1      -9.662   9.912  66.394  1.00  0.00    -0.228 S  
HETATM    8  O   UNL     1      -9.180  10.054  65.038  1.00  0.00    -0.188 OA 
HETATM    9  N   UNL     1      -8.291   9.855  67.383  1.00  0.00    -0.118 N  
HETATM   10  O   UNL     1     -10.508   8.814  66.812  1.00  0.00    -0.275 OA 
HETATM   11  H1  UNL     1      -7.778   9.000  67.167  1.00  0.00     0.000 HD 
HETATM   12  H2  UNL     1      -8.022  10.555  68.075  1.00  0.00     0.000 HD 
ENDBRANCH   4   7
BRANCH   6  13
HETATM   13  N   UNL     1     -11.700  14.356  68.615  1.00  0.00    -0.316 N  
HETATM   14  H   UNL     1     -11.451  15.310  68.353  1.00  0.00     0.000 HD 
HETATM   15  C   UNL     1     -12.190  14.167  69.868  1.00  0.00    -0.359 C  
HETATM   16  C   UNL     1     -12.289  15.467  70.634  1.00  0.00    -0.462 C  
HETATM   17  O   UNL     1     -12.516  13.104  70.382  1.00  0.00    -0.289 OA 
ENDBRANCH   6  13
TORSDOF 2
ENDMDL
MODEL      103
REMARK 921   NORMALIZED FREE ENERGY PREDICTED BY IDOCK:   -3.44 KCAL/MOL
REMARK 922        TOTAL FREE ENERGY PREDICTED BY IDOCK:   -4.08 KCAL/MOL
REMARK 923 INTER-LIGAND FREE ENERGY PREDICTED BY IDOCK:   -3.85 KCAL/MOL
REMARK 924 INTRA-LIGAND FREE ENERGY PREDICTED BY IDOCK:   -0.22 KCAL/MOL
REMARK 927      BINDING AFFINITY PREDICTED BY RF-SCORE:    0.00 PKD
ROOT
HETATM    1  C   UNL     1     -10.355  11.077  63.969  1.00  0.00    -0.371 C  
HETATM    2  N   UNL     1     -10.119  12.027  65.040  1.00  0.00    -0.264 NA 
HETATM    3  N   UNL     1     -10.336  13.361  64.712  1.00  0.00    -0.389 NA 
HETATM    4  C   UNL     1     -10.123  14.093  65.773  1.00  0.00    -0.333 C  
HETATM    5  S   UNL     1      -9.643  13.265  67.235  1.00  0.00    -0.242 SA 
HETATM    6  C   UNL     1      -9.738  11.730  66.341  1.00  0.00    -0.214 C  
ENDROOT
BRANCH   4   7
HETATM    7  S   UNL     1     -10.321  15.859  65.726  1.00  0.00    -0.396 S  
HETATM    8  O   UNL     1      -8.999  16.414  65.535  1.00  0.00    -0.352 OA 
HETATM    9  N   UNL     1     -11.206  16.254  64.339  1.00  0.00    -0.634 N  
HETATM   10  O   UNL     1     -11.159  16.205  66.854  1.00  0.00    -0.164 OA 
HETATM   11  H1  UNL     1     -11.320  17.267  64.312  1.00  0.00     0.000 HD 
HETATM   12  H2  UNL     1     -11.565  15.593  63.650  1.00  0.00     0.000 HD 
ENDBRANCH   4   7
BRANCH   6  13
HETATM   13  N   UNL     1      -9.446  10.741  67.092  1.00  0.00    -0.159 N  
HETATM   14  H   UNL     1     -10.009  10.617  67.935  1.00  0.00     0.000 HD 
HETATM   15  C   UNL     1      -8.456   9.837  66.873  1.00  0.00    -0.120 C  
HETATM   16  C   UNL     1      -8.409   8.781  67.956  1.00  0.00    -0.119 C  
HETATM   17  O   UNL     1      -7.657   9.826  65.945  1.00  0.00    -0.098 OA 
ENDBRANCH   6  13
TORSDOF 2
ENDMDL
MODEL      104
REMARK 921   NORMALIZED FREE ENERGY PREDICTED BY IDOCK:   -3.44 KCAL/MOL
REMARK 922        TOTAL FREE ENERGY PREDICTED BY IDOCK:   -4.07 KCAL/MOL
REMARK 923 INTER-LIGAND FREE ENERGY PREDICTED BY IDOCK:   -3.82 KCAL/MOL
REMARK 924 INTRA-LIGAND FREE ENERGY PREDICTED BY IDOCK:   -0.25 KCAL/MOL
REMARK 927      BINDING AFFINITY PREDICTED BY RF-SCORE:    0.00 PKD
ROOT
HETATM    1  C   UNL     1      -9.189   6.324  70.965  1.00  0.00    -0.154 C  
HETATM    2  N   UNL     1      -9.709   6.452  69.616  1.00  0.00    -0.152 NA 
HETATM    3  N   UNL     1      -9.350   5.435  68.740  1.00  0.00    -0.123 NA 
HETATM    4  C   UNL     1      -9.915   5.660  67.583  1.00  0.00    -0.150 C  
HETATM    5  S   UNL     1     -10.906   7.091  67.440  1.00  0.00    -0.278 SA 
HETATM    6  C   UNL     1     -10.541   7.457  69.142  1.00  0.00    -0.204 C  
ENDROOT
BRANCH   4   7
HETATM    7  S   UNL     1      -9.685   4.546  66.216  1.00  0.00    -0.228 S  
HETATM    8  O   UNL     1      -9.539   3.225  66.785  1.00  0.00    -0.149 OA 
HETATM    9  N   UNL     1     -11.114   4.519  65.311  1.00  0.00    -0.949 N  
HETATM   10  O   UNL     1      -8.679   5.147  65.367  1.00  0.00    -0.140 OA 
HETATM   11  H1  UNL     1     -10.982   3.880  64.527  1.00  0.00     0.000 HD 
HETATM   12  H2  UNL     1     -11.961   5.049  65.514  1.00  0.00     0.000 HD 
ENDBRANCH   4   7
BRANCH   6  13
HETATM   13  N   UNL     1     -11.124   8.529  69.518  1.00  0.00    -0.432 N  
HETATM   14  H   UNL     1     -12.126   8.473  69.699  1.00  0.00     0.000 HD 
HETATM   15  C   UNL     1     -10.530   9.737  69.700  1.00  0.00    -0.242 C  
HETATM   16  C   UNL     1     -11.517  10.782  70.173  1.00  0.00    -0.415 C  
HETATM   17  O   UNL     1      -9.354  10.020  69.508  1.00  0.00    -0.207 OA 
ENDBRANCH   6  13
TORSDOF 2
ENDMDL
MODEL      105
REMARK 921   NORMALIZED FREE ENERGY PREDICTED BY IDOCK:   -3.42 KCAL/MOL
REMARK 922        TOTAL FREE ENERGY PREDICTED BY IDOCK:   -4.05 KCAL/MOL
REMARK 923 INTER-LIGAND FREE ENERGY PREDICTED BY IDOCK:   -3.82 KCAL/MOL
REMARK 924 INTRA-LIGAND FREE ENERGY PREDICTED BY IDOCK:   -0.23 KCAL/MOL
REMARK 927      BINDING AFFINITY PREDICTED BY RF-SCORE:    0.00 PKD
ROOT
HETATM    1  C   UNL     1     -10.342  19.665  66.336  1.00  0.00    -0.504 C  
HETATM    2  N   UNL     1      -9.626  18.436  66.620  1.00  0.00    -0.308 NA 
HETATM    3  N   UNL     1     -10.418  17.358  66.997  1.00  0.00    -0.311 NA 
HETATM    4  C   UNL     1      -9.649  16.318  67.184  1.00  0.00    -0.233 C  
HETATM    5  S   UNL     1      -7.934  16.534  66.934  1.00  0.00    -0.255 SA 
HETATM    6  C   UNL     1      -8.257  18.233  66.518  1.00  0.00    -0.268 C  
ENDROOT
BRANCH   4   7
HETATM    7  S   UNL     1     -10.330  14.747  67.665  1.00  0.00    -0.238 S  
HETATM    8  O   UNL     1     -11.675  14.704  67.137  1.00  0.00    -0.378 OA 
HETATM    9  N   UNL     1      -9.466  13.531  66.867  1.00  0.00    -0.250 N  
HETATM   10  O   UNL     1     -10.038  14.593  69.075  1.00  0.00    -0.229 OA 
HETATM   11  H1  UNL     1      -9.856  12.630  67.144  1.00  0.00     0.000 HD 
HETATM   12  H2  UNL     1      -8.689  13.674  66.221  1.00  0.00     0.000 HD 
ENDBRANCH   4   7
BRANCH   6  13
HETATM   13  N   UNL     1      -7.178  18.848  66.223  1.00  0.00    -0.238 N  
HETATM   14  H   UNL     1      -6.879  18.819  65.248  1.00  0.00     0.000 HD 
HETATM   15  C   UNL     1      -6.390  19.537  67.090  1.00  0.00    -0.189 C  
HETATM   16  C   UNL     1      -5.201  20.161  66.393  1.00  0.00    -0.174 C  
HETATM   17  O   UNL     1      -6.555  19.665  68.297  1.00  0.00    -0.242 OA 
ENDBRANCH   6  13
TORSDOF 2
ENDMDL
MODEL      106
REMARK 921   NORMALIZED FREE ENERGY PREDICTED BY IDOCK:   -3.41 KCAL/MOL
REMARK 922        TOTAL FREE ENERGY PREDICTED BY IDOCK:   -4.04 KCAL/MOL
REMARK 923 INTER-LIGAND FREE ENERGY PREDICTED BY IDOCK:   -3.82 KCAL/MOL
REMARK 924 INTRA-LIGAND FREE ENERGY PREDICTED BY IDOCK:   -0.22 KCAL/MOL
REMARK 927      BINDING AFFINITY PREDICTED BY RF-SCORE:    0.00 PKD
ROOT
HETATM    1  C   UNL     1     -11.654  16.149  68.778  1.00  0.00    -0.297 C  
HETATM    2  N   UNL     1     -10.353  15.991  68.154  1.00  0.00    -0.253 NA 
HETATM    3  N   UNL     1      -9.769  14.738  68.302  1.00  0.00    -0.212 NA 
HETATM    4  C   UNL     1      -8.629  14.731  67.665  1.00  0.00    -0.174 C  
HETATM    5  S   UNL     1      -8.156  16.201  66.849  1.00  0.00    -0.267 SA 
HETATM    6  C   UNL     1      -9.670  16.945  67.413  1.00  0.00    -0.247 C  
ENDROOT
BRANCH   4   7
HETATM    7  S   UNL     1      -7.607  13.276  67.628  1.00  0.00    -0.177 S  
HETATM    8  O   UNL     1      -7.938  12.513  68.811  1.00  0.00    -0.065 OA 
HETATM    9  N   UNL     1      -8.081  12.331  66.306  1.00  0.00    -0.294 N  
HETATM   10  O   UNL     1      -6.263  13.729  67.340  1.00  0.00    -0.332 OA 
HETATM   11  H1  UNL     1      -7.495  11.497  66.285  1.00  0.00     0.000 HD 
HETATM   12  H2  UNL     1      -8.824  12.557  65.645  1.00  0.00     0.000 HD 
ENDBRANCH   4   7
BRANCH   6  13
HETATM   13  N   UNL     1      -9.771  18.150  67.005  1.00  0.00    -0.295 N  
HETATM   14  H   UNL     1      -9.729  18.303  65.996  1.00  0.00     0.000 HD 
HETATM   15  C   UNL     1      -9.931  19.247  67.790  1.00  0.00    -0.365 C  
HETATM   16  C   UNL     1     -10.039  20.514  66.969  1.00  0.00    -0.416 C  
HETATM   17  O   UNL     1      -9.975  19.281  69.013  1.00  0.00    -0.424 OA 
ENDBRANCH   6  13
TORSDOF 2
ENDMDL
MODEL      107
REMARK 921   NORMALIZED FREE ENERGY PREDICTED BY IDOCK:   -3.40 KCAL/MOL
REMARK 922        TOTAL FREE ENERGY PREDICTED BY IDOCK:   -4.03 KCAL/MOL
REMARK 923 INTER-LIGAND FREE ENERGY PREDICTED BY IDOCK:   -3.78 KCAL/MOL
REMARK 924 INTRA-LIGAND FREE ENERGY PREDICTED BY IDOCK:   -0.25 KCAL/MOL
REMARK 927      BINDING AFFINITY PREDICTED BY RF-SCORE:    0.00 PKD
ROOT
HETATM    1  C   UNL     1      -9.727   9.059  71.142  1.00  0.00    -0.299 C  
HETATM    2  N   UNL     1     -10.052   9.370  69.762  1.00  0.00    -0.198 NA 
HETATM    3  N   UNL     1     -10.387  10.696  69.514  1.00  0.00    -0.212 NA 
HETATM    4  C   UNL     1     -10.617  10.838  68.236  1.00  0.00    -0.200 C  
HETATM    5  S   UNL     1     -10.464   9.417  67.232  1.00  0.00    -0.246 SA 
HETATM    6  C   UNL     1     -10.027   8.493  68.688  1.00  0.00    -0.184 C  
ENDROOT
BRANCH   4   7
HETATM    7  S   UNL     1     -11.063  12.417  67.552  1.00  0.00    -0.283 S  
HETATM    8  O   UNL     1     -11.987  12.150  66.472  1.00  0.00    -0.618 OA 
HETATM    9  N   UNL     1     -11.936  13.272  68.722  1.00  0.00    -0.328 N  
HETATM   10  O   UNL     1      -9.825  13.142  67.361  1.00  0.00    -0.219 OA 
HETATM   11  H1  UNL     1     -12.192  14.178  68.330  1.00  0.00     0.000 HD 
HETATM   12  H2  UNL     1     -12.167  12.939  69.659  1.00  0.00     0.000 HD 
ENDBRANCH   4   7
BRANCH   6  13
HETATM   13  N   UNL     1      -9.792   7.271  68.404  1.00  0.00    -0.152 N  
HETATM   14  H   UNL     1      -8.970   7.077  67.830  1.00  0.00     0.000 HD 
HETATM   15  C   UNL     1     -10.535   6.203  68.798  1.00  0.00    -0.243 C  
HETATM   16  C   UNL     1      -9.952   4.899  68.301  1.00  0.00    -0.177 C  
HETATM   17  O   UNL     1     -11.566   6.224  69.459  1.00  0.00    -0.423 OA 
ENDBRANCH   6  13
TORSDOF 2
ENDMDL
MODEL      108
REMARK 921   NORMALIZED FREE ENERGY PREDICTED BY IDOCK:   -3.38 KCAL/MOL
REMARK 922        TOTAL FREE ENERGY PREDICTED BY IDOCK:   -4.01 KCAL/MOL
REMARK 923 INTER-LIGAND FREE ENERGY PREDICTED BY IDOCK:   -3.78 KCAL/MOL
REMARK 924 INTRA-LIGAND FREE ENERGY PREDICTED BY IDOCK:   -0.23 KCAL/MOL
REMARK 927      BINDING AFFINITY PREDICTED BY RF-SCORE:    0.00 PKD
ROOT
HETATM    1  C   UNL     1      -6.822  16.327  68.449  1.00  0.00    -0.137 C  
HETATM    2  N   UNL     1      -7.979  15.903  67.683  1.00  0.00    -0.139 NA 
HETATM    3  N   UNL     1      -8.168  14.528  67.600  1.00  0.00    -0.163 NA 
HETATM    4  C   UNL     1      -9.258  14.295  66.918  1.00  0.00    -0.254 C  
HETATM    5  S   UNL     1     -10.137  15.679  66.317  1.00  0.00    -0.322 SA 
HETATM    6  C   UNL     1      -8.911  16.726  67.068  1.00  0.00    -0.206 C  
ENDROOT
BRANCH   4   7
HETATM    7  S   UNL     1      -9.820  12.634  66.623  1.00  0.00    -0.249 S  
HETATM    8  O   UNL     1     -11.259  12.704  66.504  1.00  0.00    -0.270 OA 
HETATM    9  N   UNL     1      -9.241  12.143  65.111  1.00  0.00    -0.406 N  
HETATM   10  O   UNL     1      -9.156  11.800  67.602  1.00  0.00    -0.167 OA 
HETATM   11  H1  UNL     1      -9.563  11.190  64.942  1.00  0.00     0.000 HD 
HETATM   12  H2  UNL     1      -8.669  12.702  64.478  1.00  0.00     0.000 HD 
ENDBRANCH   4   7
BRANCH   6  13
HETATM   13  N   UNL     1      -9.177  17.959  66.874  1.00  0.00    -0.257 N  
HETATM   14  H   UNL     1      -8.793  18.390  66.032  1.00  0.00     0.000 HD 
HETATM   15  C   UNL     1      -9.926  18.751  67.686  1.00  0.00    -0.345 C  
HETATM   16  C   UNL     1     -10.056  20.155  67.137  1.00  0.00    -0.590 C  
HETATM   17  O   UNL     1     -10.446  18.438  68.750  1.00  0.00    -0.270 OA 
ENDBRANCH   6  13
TORSDOF 2
ENDMDL
MODEL      109
REMARK 921   NORMALIZED FREE ENERGY PREDICTED BY IDOCK:   -3.38 KCAL/MOL
REMARK 922        TOTAL FREE ENERGY PREDICTED BY IDOCK:   -4.00 KCAL/MOL
REMARK 923 INTER-LIGAND FREE ENERGY PREDICTED BY IDOCK:   -3.76 KCAL/MOL
REMARK 924 INTRA-LIGAND FREE ENERGY PREDICTED BY IDOCK:   -0.25 KCAL/MOL
REMARK 927      BINDING AFFINITY PREDICTED BY RF-SCORE:    0.00 PKD
ROOT
HETATM    1  C   UNL     1      -8.784   9.155  70.469  1.00  0.00    -0.221 C  
HETATM    2  N   UNL     1      -9.731   9.808  69.585  1.00  0.00    -0.209 NA 
HETATM    3  N   UNL     1      -9.252  10.107  68.314  1.00  0.00    -0.128 NA 
HETATM    4  C   UNL     1     -10.215  10.652  67.621  1.00  0.00    -0.194 C  
HETATM    5  S   UNL     1     -11.756  10.861  68.417  1.00  0.00    -0.120 SA 
HETATM    6  C   UNL     1     -11.051  10.122  69.873  1.00  0.00    -0.293 C  
ENDROOT
BRANCH   4   7
HETATM    7  S   UNL     1      -9.962  11.155  65.934  1.00  0.00    -0.250 S  
HETATM    8  O   UNL     1     -10.675  12.402  65.768  1.00  0.00    -0.255 OA 
HETATM    9  N   UNL     1      -8.322  11.514  65.731  1.00  0.00    -0.376 N  
HETATM   10  O   UNL     1     -10.226   9.989  65.119  1.00  0.00    -0.288 OA 
HETATM   11  H1  UNL     1      -8.177  11.802  64.763  1.00  0.00     0.000 HD 
HETATM   12  H2  UNL     1      -7.602  11.453  66.451  1.00  0.00     0.000 HD 
ENDBRANCH   4   7
BRANCH   6  13
HETATM   13  N   UNL     1     -11.910  10.051  70.815  1.00  0.00    -0.321 N  
HETATM   14  H   UNL     1     -12.224  10.932  71.224  1.00  0.00     0.000 HD 
HETATM   15  C   UNL     1     -12.445   8.909  71.322  1.00  0.00    -0.272 C  
HETATM   16  C   UNL     1     -13.450   9.198  72.415  1.00  0.00    -0.535 C  
HETATM   17  O   UNL     1     -12.181   7.760  70.993  1.00  0.00    -0.293 OA 
ENDBRANCH   6  13
TORSDOF 2
ENDMDL
MODEL      110
REMARK 921   NORMALIZED FREE ENERGY PREDICTED BY IDOCK:   -3.37 KCAL/MOL
REMARK 922        TOTAL FREE ENERGY PREDICTED BY IDOCK:   -3.99 KCAL/MOL
REMARK 923 INTER-LIGAND FREE ENERGY PREDICTED BY IDOCK:   -3.97 KCAL/MOL
REMARK 924 INTRA-LIGAND FREE ENERGY PREDICTED BY IDOCK:   -0.02 KCAL/MOL
REMARK 927      BINDING AFFINITY PREDICTED BY RF-SCORE:    0.00 PKD
ROOT
HETATM    1  C   UNL     1     -11.697  10.163  71.329  1.00  0.00    -0.341 C  
HETATM    2  N   UNL     1     -11.328  10.165  69.925  1.00  0.00    -0.265 NA 
HETATM    3  N   UNL     1     -10.829   8.963  69.438  1.00  0.00    -0.172 NA 
HETATM    4  C   UNL     1     -10.576   9.100  68.164  1.00  0.00    -0.183 C  
HETATM    5  S   UNL     1     -10.901  10.659  67.446  1.00  0.00    -0.291 SA 
HETATM    6  C   UNL     1     -11.457  11.224  69.038  1.00  0.00    -0.302 C  
ENDROOT
BRANCH   4   7
HETATM    7  S   UNL     1      -9.933   7.748  67.204  1.00  0.00    -0.258 S  
HETATM    8  O   UNL     1      -9.103   6.970  68.097  1.00  0.00    -0.130 OA 
HETATM    9  N   UNL     1     -11.226   6.750  66.766  1.00  0.00    -0.723 N  
HETATM   10  O   UNL     1      -9.431   8.325  65.975  1.00  0.00    -0.192 OA 
HETATM   11  H1  UNL     1     -10.857   5.974  66.216  1.00  0.00     0.000 HD 
HETATM   12  H2  UNL     1     -12.205   6.897  67.010  1.00  0.00     0.000 HD 
ENDBRANCH   4   7
BRANCH   6  13
HETATM   13  N   UNL     1     -11.841  12.440  68.986  1.00  0.00    -0.310 N  
HETATM   14  H   UNL     1     -12.839  12.617  69.110  1.00  0.00     0.000 HD 
HETATM   15  C   UNL     1     -11.044  13.521  68.781  1.00  0.00    -0.264 C  
HETATM   16  C   UNL     1     -11.831  14.812  68.805  1.00  0.00    -0.330 C  
HETATM   17  O   UNL     1      -9.835  13.520  68.582  1.00  0.00    -0.209 OA 
ENDBRANCH   6  13
TORSDOF 2
ENDMDL
MODEL      111
REMARK 921   NORMALIZED FREE ENERGY PREDICTED BY IDOCK:   -3.36 KCAL/MOL
REMARK 922        TOTAL FREE ENERGY PREDICTED BY IDOCK:   -3.99 KCAL/MOL
REMARK 923 INTER-LIGAND FREE ENERGY PREDICTED BY IDOCK:   -3.86 KCAL/MOL
REMARK 924 INTRA-LIGAND FREE ENERGY PREDICTED BY IDOCK:   -0.13 KCAL/MOL
REMARK 927      BINDING AFFINITY PREDICTED BY RF-SCORE:    0.00 PKD
ROOT
HETATM    1  C   UNL     1     -11.747  12.531  68.751  1.00  0.00    -0.327 C  
HETATM    2  N   UNL     1     -11.415  11.238  69.320  1.00  0.00    -0.270 NA 
HETATM    3  N   UNL     1     -12.312  10.755  70.267  1.00  0.00    -0.329 NA 
HETATM    4  C   UNL     1     -11.910   9.577  70.662  1.00  0.00    -0.233 C  
HETATM    5  S   UNL     1     -10.441   8.952  69.953  1.00  0.00    -0.218 SA 
HETATM    6  C   UNL     1     -10.328  10.442  68.988  1.00  0.00    -0.214 C  
ENDROOT
BRANCH   4   7
HETATM    7  S   UNL     1     -12.829   8.650  71.869  1.00  0.00    -0.391 S  
HETATM    8  O   UNL     1     -13.832   9.547  72.398  1.00  0.00    -0.424 OA 
HETATM    9  N   UNL     1     -13.669   7.421  71.063  1.00  0.00    -0.613 N  
HETATM   10  O   UNL     1     -11.851   7.990  72.706  1.00  0.00    -0.372 OA 
HETATM   11  H1  UNL     1     -14.196   6.889  71.755  1.00  0.00     0.000 HD 
HETATM   12  H2  UNL     1     -13.650   7.243  70.059  1.00  0.00     0.000 HD 
ENDBRANCH   4   7
BRANCH   6  13
HETATM   13  N   UNL     1      -9.300  10.424  68.231  1.00  0.00    -0.145 N  
HETATM   14  H   UNL     1      -9.458  10.236  67.240  1.00  0.00     0.000 HD 
HETATM   15  C   UNL     1      -8.016  10.632  68.624  1.00  0.00    -0.128 C  
HETATM   16  C   UNL     1      -7.055  10.562  67.459  1.00  0.00    -0.089 C  
HETATM   17  O   UNL     1      -7.616  10.841  69.762  1.00  0.00    -0.105 OA 
ENDBRANCH   6  13
TORSDOF 2
ENDMDL
MODEL      112
REMARK 921   NORMALIZED FREE ENERGY PREDICTED BY IDOCK:   -3.36 KCAL/MOL
REMARK 922        TOTAL FREE ENERGY PREDICTED BY IDOCK:   -3.98 KCAL/MOL
REMARK 923 INTER-LIGAND FREE ENERGY PREDICTED BY IDOCK:   -3.73 KCAL/MOL
REMARK 924 INTRA-LIGAND FREE ENERGY PREDICTED BY IDOCK:   -0.25 KCAL/MOL
REMARK 927      BINDING AFFINITY PREDICTED BY RF-SCORE:    0.00 PKD
ROOT
HETATM    1  C   UNL     1     -12.261  14.586  69.074  1.00  0.00    -0.180 C  
HETATM    2  N   UNL     1     -11.431  14.390  67.899  1.00  0.00    -0.304 NA 
HETATM    3  N   UNL     1     -11.098  13.070  67.618  1.00  0.00    -0.257 NA 
HETATM    4  C   UNL     1     -10.387  13.042  66.523  1.00  0.00    -0.274 C  
HETATM    5  S   UNL     1     -10.050  14.570  65.746  1.00  0.00    -0.354 SA 
HETATM    6  C   UNL     1     -10.979  15.374  67.032  1.00  0.00    -0.306 C  
ENDROOT
BRANCH   4   7
HETATM    7  S   UNL     1      -9.792  11.506  65.853  1.00  0.00    -0.240 S  
HETATM    8  O   UNL     1      -8.348  11.581  65.875  1.00  0.00    -0.044 OA 
HETATM    9  N   UNL     1     -10.220  10.264  66.919  1.00  0.00    -0.220 N  
HETATM   10  O   UNL     1     -10.545  11.274  64.638  1.00  0.00    -0.311 OA 
HETATM   11  H1  UNL     1      -9.880   9.383  66.535  1.00  0.00     0.000 HD 
HETATM   12  H2  UNL     1     -10.731  10.377  67.795  1.00  0.00     0.000 HD 
ENDBRANCH   4   7
BRANCH   6  13
HETATM   13  N   UNL     1     -11.015  16.638  66.853  1.00  0.00    -0.048 N  
HETATM   14  H   UNL     1     -11.535  16.977  66.043  1.00  0.00     0.000 HD 
HETATM   15  C   UNL     1     -10.423  17.572  67.642  1.00  0.00    -0.370 C  
HETATM   16  C   UNL     1     -10.692  18.976  67.147  1.00  0.00    -0.541 C  
HETATM   17  O   UNL     1      -9.734  17.373  68.635  1.00  0.00    -0.284 OA 
ENDBRANCH   6  13
TORSDOF 2
ENDMDL
MODEL      113
REMARK 921   NORMALIZED FREE ENERGY PREDICTED BY IDOCK:   -3.35 KCAL/MOL
REMARK 922        TOTAL FREE ENERGY PREDICTED BY IDOCK:   -3.97 KCAL/MOL
REMARK 923 INTER-LIGAND FREE ENERGY PREDICTED BY IDOCK:   -3.78 KCAL/MOL
REMARK 924 INTRA-LIGAND FREE ENERGY PREDICTED BY IDOCK:   -0.20 KCAL/MOL
REMARK 927      BINDING AFFINITY PREDICTED BY RF-SCORE:    0.00 PKD
ROOT
HETATM    1  C   UNL     1     -10.775   5.188  72.613  1.00  0.00    -0.237 C  
HETATM    2  N   UNL     1     -10.714   5.531  71.205  1.00  0.00    -0.236 NA 
HETATM    3  N   UNL     1      -9.808   4.794  70.451  1.00  0.00    -0.220 NA 
HETATM    4  C   UNL     1      -9.886   5.182  69.206  1.00  0.00    -0.190 C  
HETATM    5  S   UNL     1     -11.029   6.449  68.832  1.00  0.00    -0.345 SA 
HETATM    6  C   UNL     1     -11.484   6.481  70.551  1.00  0.00    -0.387 C  
ENDROOT
BRANCH   4   7
HETATM    7  S   UNL     1      -8.872   4.441  67.947  1.00  0.00    -0.114 S  
HETATM    8  O   UNL     1      -9.776   3.807  67.013  1.00  0.00    -0.212 OA 
HETATM    9  N   UNL     1      -8.100   5.682  67.094  1.00  0.00    -0.102 N  
HETATM   10  O   UNL     1      -7.828   3.716  68.640  1.00  0.00    -0.056 OA 
HETATM   11  H1  UNL     1      -7.518   5.257  66.372  1.00  0.00     0.000 HD 
HETATM   12  H2  UNL     1      -8.199   6.682  67.271  1.00  0.00     0.000 HD 
ENDBRANCH   4   7
BRANCH   6  13
HETATM   13  N   UNL     1     -12.397   7.347  70.769  1.00  0.00    -0.546 N  
HETATM   14  H   UNL     1     -13.245   7.280  70.206  1.00  0.00     0.000 HD 
HETATM   15  C   UNL     1     -12.341   8.351  71.683  1.00  0.00    -0.320 C  
HETATM   16  C   UNL     1     -13.609   9.175  71.690  1.00  0.00    -0.451 C  
HETATM   17  O   UNL     1     -11.408   8.621  72.429  1.00  0.00    -0.359 OA 
ENDBRANCH   6  13
TORSDOF 2
ENDMDL
MODEL      114
REMARK 921   NORMALIZED FREE ENERGY PREDICTED BY IDOCK:   -3.33 KCAL/MOL
REMARK 922        TOTAL FREE ENERGY PREDICTED BY IDOCK:   -3.95 KCAL/MOL
REMARK 923 INTER-LIGAND FREE ENERGY PREDICTED BY IDOCK:   -3.74 KCAL/MOL
REMARK 924 INTRA-LIGAND FREE ENERGY PREDICTED BY IDOCK:   -0.21 KCAL/MOL
REMARK 927      BINDING AFFINITY PREDICTED BY RF-SCORE:    0.00 PKD
ROOT
HETATM    1  C   UNL     1     -10.930  13.191  69.558  1.00  0.00     0.085 C  
HETATM    2  N   UNL     1     -10.296  14.032  68.560  1.00  0.00    -0.243 NA 
HETATM    3  N   UNL     1     -10.153  15.369  68.912  1.00  0.00    -0.210 NA 
HETATM    4  C   UNL     1      -9.538  15.993  67.942  1.00  0.00    -0.219 C  
HETATM    5  S   UNL     1      -9.089  15.053  66.541  1.00  0.00    -0.273 SA 
HETATM    6  C   UNL     1      -9.800  13.626  67.330  1.00  0.00    -0.241 C  
ENDROOT
BRANCH   4   7
HETATM    7  S   UNL     1      -9.171  17.730  68.055  1.00  0.00    -0.280 S  
HETATM    8  O   UNL     1      -7.793  17.831  68.482  1.00  0.00    -0.273 OA 
HETATM    9  N   UNL     1      -9.235  18.385  66.496  1.00  0.00    -0.298 N  
HETATM   10  O   UNL     1     -10.264  18.329  68.791  1.00  0.00    -0.378 OA 
HETATM   11  H1  UNL     1      -9.024  19.381  66.561  1.00  0.00     0.000 HD 
HETATM   12  H2  UNL     1      -9.447  17.872  65.640  1.00  0.00     0.000 HD 
ENDBRANCH   4   7
BRANCH   6  13
HETATM   13  N   UNL     1      -9.681  12.588  66.596  1.00  0.00    -0.236 N  
HETATM   14  H   UNL     1      -8.739  12.339  66.293  1.00  0.00     0.000 HD 
HETATM   15  C   UNL     1     -10.696  11.783  66.183  1.00  0.00    -0.277 C  
HETATM   16  C   UNL     1     -10.191  10.629  65.346  1.00  0.00    -0.341 C  
HETATM   17  O   UNL     1     -11.891  11.924  66.410  1.00  0.00    -0.561 OA 
ENDBRANCH   6  13
TORSDOF 2
ENDMDL
MODEL      115
REMARK 921   NORMALIZED FREE ENERGY PREDICTED BY IDOCK:   -3.33 KCAL/MOL
REMARK 922        TOTAL FREE ENERGY PREDICTED BY IDOCK:   -3.95 KCAL/MOL
REMARK 923 INTER-LIGAND FREE ENERGY PREDICTED BY IDOCK:   -3.76 KCAL/MOL
REMARK 924 INTRA-LIGAND FREE ENERGY PREDICTED BY IDOCK:   -0.19 KCAL/MOL
REMARK 927      BINDING AFFINITY PREDICTED BY RF-SCORE:    0.00 PKD
ROOT
HETATM    1  C   UNL     1     -10.137  11.445  68.604  1.00  0.00    -0.210 C  
HETATM    2  N   UNL     1     -10.342  10.139  69.203  1.00  0.00    -0.205 NA 
HETATM    3  N   UNL     1     -11.131  10.126  70.348  1.00  0.00    -0.306 NA 
HETATM    4  C   UNL     1     -11.259   8.891  70.754  1.00  0.00    -0.272 C  
HETATM    5  S   UNL     1     -10.455   7.653  69.821  1.00  0.00    -0.233 SA 
HETATM    6  C   UNL     1      -9.862   8.927  68.730  1.00  0.00    -0.173 C  
ENDROOT
BRANCH   4   7
HETATM    7  S   UNL     1     -12.221   8.493  72.196  1.00  0.00    -0.393 S  
HETATM    8  O   UNL     1     -13.099   9.619  72.425  1.00  0.00    -0.403 OA 
HETATM    9  N   UNL     1     -13.220   7.181  71.818  1.00  0.00    -0.497 N  
HETATM   10  O   UNL     1     -11.284   8.016  73.191  1.00  0.00    -0.336 OA 
HETATM   11  H1  UNL     1     -13.771   6.952  72.645  1.00  0.00     0.000 HD 
HETATM   12  H2  UNL     1     -13.263   6.700  70.919  1.00  0.00     0.000 HD 
ENDBRANCH   4   7
BRANCH   6  13
HETATM   13  N   UNL     1      -9.158   8.434  67.786  1.00  0.00    -0.135 N  
HETATM   14  H   UNL     1      -8.351   7.870  68.055  1.00  0.00     0.000 HD 
HETATM   15  C   UNL     1      -9.385   8.591  66.455  1.00  0.00    -0.203 C  
HETATM   16  C   UNL     1      -8.365   7.847  65.621  1.00  0.00    -0.146 C  
HETATM   17  O   UNL     1     -10.273   9.249  65.930  1.00  0.00    -0.245 OA 
ENDBRANCH   6  13
TORSDOF 2
ENDMDL
MODEL      116
REMARK 921   NORMALIZED FREE ENERGY PREDICTED BY IDOCK:   -3.32 KCAL/MOL
REMARK 922        TOTAL FREE ENERGY PREDICTED BY IDOCK:   -3.94 KCAL/MOL
REMARK 923 INTER-LIGAND FREE ENERGY PREDICTED BY IDOCK:   -3.72 KCAL/MOL
REMARK 924 INTRA-LIGAND FREE ENERGY PREDICTED BY IDOCK:   -0.22 KCAL/MOL
REMARK 927      BINDING AFFINITY PREDICTED BY RF-SCORE:    0.00 PKD
ROOT
HETATM    1  C   UNL     1      -7.811  11.776  68.580  1.00  0.00    -0.144 C  
HETATM    2  N   UNL     1      -8.944  11.923  67.685  1.00  0.00    -0.163 NA 
HETATM    3  N   UNL     1      -9.646  13.117  67.804  1.00  0.00    -0.201 NA 
HETATM    4  C   UNL     1     -10.608  13.127  66.919  1.00  0.00    -0.263 C  
HETATM    5  S   UNL     1     -10.760  11.727  65.886  1.00  0.00    -0.290 SA 
HETATM    6  C   UNL     1      -9.359  11.017  66.720  1.00  0.00    -0.181 C  
ENDROOT
BRANCH   4   7
HETATM    7  S   UNL     1     -11.709  14.516  66.775  1.00  0.00    -0.350 S  
HETATM    8  O   UNL     1     -12.794  14.091  65.918  1.00  0.00    -0.484 OA 
HETATM    9  N   UNL     1     -12.391  14.808  68.295  1.00  0.00    -0.586 N  
HETATM   10  O   UNL     1     -10.880  15.663  66.475  1.00  0.00    -0.311 OA 
HETATM   11  H1  UNL     1     -13.023  15.605  68.213  1.00  0.00     0.000 HD 
HETATM   12  H2  UNL     1     -12.203  14.280  69.147  1.00  0.00     0.000 HD 
ENDBRANCH   4   7
BRANCH   6  13
HETATM   13  N   UNL     1      -9.070   9.870  66.239  1.00  0.00    -0.151 N  
HETATM   14  H   UNL     1      -8.382   9.843  65.486  1.00  0.00     0.000 HD 
HETATM   15  C   UNL     1      -9.594   8.682  66.640  1.00  0.00    -0.221 C  
HETATM   16  C   UNL     1      -9.006   7.521  65.869  1.00  0.00    -0.128 C  
HETATM   17  O   UNL     1     -10.448   8.503  67.499  1.00  0.00    -0.249 OA 
ENDBRANCH   6  13
TORSDOF 2
ENDMDL
MODEL      117
REMARK 921   NORMALIZED FREE ENERGY PREDICTED BY IDOCK:   -3.30 KCAL/MOL
REMARK 922        TOTAL FREE ENERGY PREDICTED BY IDOCK:   -3.92 KCAL/MOL
REMARK 923 INTER-LIGAND FREE ENERGY PREDICTED BY IDOCK:   -3.67 KCAL/MOL
REMARK 924 INTRA-LIGAND FREE ENERGY PREDICTED BY IDOCK:   -0.25 KCAL/MOL
REMARK 927      BINDING AFFINITY PREDICTED BY RF-SCORE:    0.00 PKD
ROOT
HETATM    1  C   UNL     1      -9.467   9.299  66.160  1.00  0.00    -0.236 C  
HETATM    2  N   UNL     1      -9.684  10.728  66.291  1.00  0.00    -0.197 NA 
HETATM    3  N   UNL     1     -10.783  11.230  65.602  1.00  0.00    -0.246 NA 
HETATM    4  C   UNL     1     -10.875  12.511  65.839  1.00  0.00    -0.269 C  
HETATM    5  S   UNL     1      -9.671  13.222  66.885  1.00  0.00    -0.254 SA 
HETATM    6  C   UNL     1      -8.932  11.613  67.050  1.00  0.00    -0.182 C  
ENDROOT
BRANCH   4   7
HETATM    7  S   UNL     1     -12.181  13.485  65.126  1.00  0.00    -0.455 S  
HETATM    8  O   UNL     1     -11.548  14.425  64.228  1.00  0.00    -0.347 OA 
HETATM    9  N   UNL     1     -13.129  12.470  64.160  1.00  0.00    -0.715 N  
HETATM   10  O   UNL     1     -13.025  13.901  66.226  1.00  0.00    -0.219 OA 
HETATM   11  H1  UNL     1     -13.878  13.029  63.751  1.00  0.00     0.000 HD 
HETATM   12  H2  UNL     1     -12.978  11.472  64.012  1.00  0.00     0.000 HD 
ENDBRANCH   4   7
BRANCH   6  13
HETATM   13  N   UNL     1      -7.912  11.651  67.817  1.00  0.00    -0.124 N  
HETATM   14  H   UNL     1      -7.105  12.184  67.490  1.00  0.00     0.000 HD 
HETATM   15  C   UNL     1      -7.803  11.047  69.029  1.00  0.00    -0.126 C  
HETATM   16  C   UNL     1      -6.462  11.322  69.675  1.00  0.00    -0.132 C  
HETATM   17  O   UNL     1      -8.638  10.342  69.582  1.00  0.00    -0.170 OA 
ENDBRANCH   6  13
TORSDOF 2
ENDMDL
MODEL      118
REMARK 921   NORMALIZED FREE ENERGY PREDICTED BY IDOCK:   -3.27 KCAL/MOL
REMARK 922        TOTAL FREE ENERGY PREDICTED BY IDOCK:   -3.88 KCAL/MOL
REMARK 923 INTER-LIGAND FREE ENERGY PREDICTED BY IDOCK:   -3.66 KCAL/MOL
REMARK 924 INTRA-LIGAND FREE ENERGY PREDICTED BY IDOCK:   -0.22 KCAL/MOL
REMARK 927      BINDING AFFINITY PREDICTED BY RF-SCORE:    0.00 PKD
ROOT
HETATM    1  C   UNL     1      -7.252  14.141  67.563  1.00  0.00    -0.169 C  
HETATM    2  N   UNL     1      -8.661  13.812  67.675  1.00  0.00    -0.174 NA 
HETATM    3  N   UNL     1      -9.333  14.419  68.729  1.00  0.00    -0.184 NA 
HETATM    4  C   UNL     1     -10.589  14.064  68.685  1.00  0.00    -0.257 C  
HETATM    5  S   UNL     1     -11.071  12.981  67.402  1.00  0.00    -0.284 SA 
HETATM    6  C   UNL     1      -9.389  12.991  66.825  1.00  0.00    -0.244 C  
ENDROOT
BRANCH   4   7
HETATM    7  S   UNL     1     -11.757  14.666  69.882  1.00  0.00    -0.316 S  
HETATM    8  O   UNL     1     -12.523  13.520  70.320  1.00  0.00    -0.302 OA 
HETATM    9  N   UNL     1     -10.896  15.206  71.234  1.00  0.00    -0.521 N  
HETATM   10  O   UNL     1     -12.371  15.840  69.298  1.00  0.00    -0.227 OA 
HETATM   11  H1  UNL     1     -11.566  15.552  71.921  1.00  0.00     0.000 HD 
HETATM   12  H2  UNL     1      -9.882  15.190  71.344  1.00  0.00     0.000 HD 
ENDBRANCH   4   7
BRANCH   6  13
HETATM   13  N   UNL     1      -9.254  12.264  65.785  1.00  0.00    -0.438 N  
HETATM   14  H   UNL     1      -9.390  12.717  64.880  1.00  0.00     0.000 HD 
HETATM   15  C   UNL     1      -8.944  10.941  65.772  1.00  0.00    -0.193 C  
HETATM   16  C   UNL     1      -8.841  10.402  64.362  1.00  0.00    -0.223 C  
HETATM   17  O   UNL     1      -8.772  10.212  66.741  1.00  0.00    -0.126 OA 
ENDBRANCH   6  13
TORSDOF 2
ENDMDL
MODEL      119
REMARK 921   NORMALIZED FREE ENERGY PREDICTED BY IDOCK:   -3.26 KCAL/MOL
REMARK 922        TOTAL FREE ENERGY PREDICTED BY IDOCK:   -3.88 KCAL/MOL
REMARK 923 INTER-LIGAND FREE ENERGY PREDICTED BY IDOCK:   -3.62 KCAL/MOL
REMARK 924 INTRA-LIGAND FREE ENERGY PREDICTED BY IDOCK:   -0.25 KCAL/MOL
REMARK 927      BINDING AFFINITY PREDICTED BY RF-SCORE:    0.00 PKD
ROOT
HETATM    1  C   UNL     1      -8.406   9.325  70.543  1.00  0.00    -0.205 C  
HETATM    2  N   UNL     1      -9.546   8.816  71.284  1.00  0.00    -0.227 NA 
HETATM    3  N   UNL     1     -10.725   9.535  71.129  1.00  0.00    -0.338 NA 
HETATM    4  C   UNL     1     -11.667   8.947  71.818  1.00  0.00    -0.362 C  
HETATM    5  S   UNL     1     -11.231   7.507  72.704  1.00  0.00    -0.351 SA 
HETATM    6  C   UNL     1      -9.573   7.685  72.086  1.00  0.00    -0.160 C  
ENDROOT
BRANCH   4   7
HETATM    7  S   UNL     1     -13.325   9.590  71.842  1.00  0.00    -0.450 S  
HETATM    8  O   UNL     1     -13.997   9.031  70.690  1.00  0.00     0.198 OA 
HETATM    9  N   UNL     1     -14.113   8.964  73.202  1.00  0.00    -0.774 N  
HETATM   10  O   UNL     1     -13.206  11.015  72.063  1.00  0.00    -0.499 OA 
HETATM   11  H1  UNL     1     -15.064   9.333  73.217  1.00  0.00     0.000 HD 
HETATM   12  H2  UNL     1     -13.708   8.329  73.890  1.00  0.00     0.000 HD 
ENDBRANCH   4   7
BRANCH   6  13
HETATM   13  N   UNL     1      -8.819   6.746  72.512  1.00  0.00    -0.127 N  
HETATM   14  H   UNL     1      -8.525   6.795  73.488  1.00  0.00     0.000 HD 
HETATM   15  C   UNL     1      -8.374   5.689  71.784  1.00  0.00    -0.120 C  
HETATM   16  C   UNL     1      -7.520   4.756  72.614  1.00  0.00    -0.086 C  
HETATM   17  O   UNL     1      -8.587   5.465  70.599  1.00  0.00    -0.122 OA 
ENDBRANCH   6  13
TORSDOF 2
ENDMDL
MODEL      120
REMARK 921   NORMALIZED FREE ENERGY PREDICTED BY IDOCK:   -3.26 KCAL/MOL
REMARK 922        TOTAL FREE ENERGY PREDICTED BY IDOCK:   -3.87 KCAL/MOL
REMARK 923 INTER-LIGAND FREE ENERGY PREDICTED BY IDOCK:   -3.64 KCAL/MOL
REMARK 924 INTRA-LIGAND FREE ENERGY PREDICTED BY IDOCK:   -0.23 KCAL/MOL
REMARK 927      BINDING AFFINITY PREDICTED BY RF-SCORE:    0.00 PKD
ROOT
HETATM    1  C   UNL     1     -11.093  13.431  68.878  1.00  0.00    -0.266 C  
HETATM    2  N   UNL     1     -10.792  12.600  67.727  1.00  0.00    -0.216 NA 
HETATM    3  N   UNL     1     -10.257  11.350  68.019  1.00  0.00    -0.180 NA 
HETATM    4  C   UNL     1     -10.072  10.702  66.899  1.00  0.00    -0.214 C  
HETATM    5  S   UNL     1     -10.507  11.520  65.419  1.00  0.00    -0.290 SA 
HETATM    6  C   UNL     1     -11.015  12.917  66.395  1.00  0.00    -0.285 C  
ENDROOT
BRANCH   4   7
HETATM    7  S   UNL     1      -9.409   9.052  66.891  1.00  0.00    -0.169 S  
HETATM    8  O   UNL     1      -8.549   8.951  68.049  1.00  0.00    -0.128 OA 
HETATM    9  N   UNL     1     -10.683   7.970  67.149  1.00  0.00    -0.471 N  
HETATM   10  O   UNL     1      -8.938   8.810  65.544  1.00  0.00    -0.193 OA 
HETATM   11  H1  UNL     1     -10.303   7.024  67.144  1.00  0.00     0.000 HD 
HETATM   12  H2  UNL     1     -11.662   8.220  67.286  1.00  0.00     0.000 HD 
ENDBRANCH   4   7
BRANCH   6  13
HETATM   13  N   UNL     1     -11.461  13.858  65.656  1.00  0.00    -0.312 N  
HETATM   14  H   UNL     1     -12.445  13.810  65.388  1.00  0.00     0.000 HD 
HETATM   15  C   UNL     1     -10.746  14.917  65.195  1.00  0.00    -0.411 C  
HETATM   16  C   UNL     1     -11.600  15.852  64.366  1.00  0.00    -0.234 C  
HETATM   17  O   UNL     1      -9.556  15.141  65.376  1.00  0.00    -0.270 OA 
ENDBRANCH   6  13
TORSDOF 2
ENDMDL
MODEL      121
REMARK 921   NORMALIZED FREE ENERGY PREDICTED BY IDOCK:   -3.23 KCAL/MOL
REMARK 922        TOTAL FREE ENERGY PREDICTED BY IDOCK:   -3.83 KCAL/MOL
REMARK 923 INTER-LIGAND FREE ENERGY PREDICTED BY IDOCK:   -3.59 KCAL/MOL
REMARK 924 INTRA-LIGAND FREE ENERGY PREDICTED BY IDOCK:   -0.25 KCAL/MOL
REMARK 927      BINDING AFFINITY PREDICTED BY RF-SCORE:    0.00 PKD
ROOT
HETATM    1  C   UNL     1     -10.524   5.804  67.820  1.00  0.00    -0.226 C  
HETATM    2  N   UNL     1     -10.673   7.111  68.433  1.00  0.00    -0.179 NA 
HETATM    3  N   UNL     1     -10.931   7.103  69.799  1.00  0.00    -0.245 NA 
HETATM    4  C   UNL     1     -11.003   8.338  70.218  1.00  0.00    -0.232 C  
HETATM    5  S   UNL     1     -10.779   9.601  69.033  1.00  0.00    -0.185 SA 
HETATM    6  C   UNL     1     -10.550   8.340  67.801  1.00  0.00    -0.168 C  
ENDROOT
BRANCH   4   7
HETATM    7  S   UNL     1     -11.311   8.711  71.930  1.00  0.00    -0.370 S  
HETATM    8  O   UNL     1     -12.156   9.884  71.948  1.00  0.00    -0.357 OA 
HETATM    9  N   UNL     1     -12.231   7.452  72.586  1.00  0.00    -0.528 N  
HETATM   10  O   UNL     1     -10.026   8.663  72.594  1.00  0.00    -0.248 OA 
HETATM   11  H1  UNL     1     -12.407   7.665  73.568  1.00  0.00     0.000 HD 
HETATM   12  H2  UNL     1     -12.553   6.622  72.088  1.00  0.00     0.000 HD 
ENDBRANCH   4   7
BRANCH   6  13
HETATM   13  N   UNL     1     -10.324   8.852  66.653  1.00  0.00    -0.257 N  
HETATM   14  H   UNL     1     -11.135   9.160  66.115  1.00  0.00     0.000 HD 
HETATM   15  C   UNL     1      -9.103   9.026  66.083  1.00  0.00    -0.199 C  
HETATM   16  C   UNL     1      -9.206   9.686  64.727  1.00  0.00    -0.298 C  
HETATM   17  O   UNL     1      -8.018   8.698  66.547  1.00  0.00    -0.097 OA 
ENDBRANCH   6  13
TORSDOF 2
ENDMDL
MODEL      122
REMARK 921   NORMALIZED FREE ENERGY PREDICTED BY IDOCK:   -3.22 KCAL/MOL
REMARK 922        TOTAL FREE ENERGY PREDICTED BY IDOCK:   -3.83 KCAL/MOL
REMARK 923 INTER-LIGAND FREE ENERGY PREDICTED BY IDOCK:   -3.58 KCAL/MOL
REMARK 924 INTRA-LIGAND FREE ENERGY PREDICTED BY IDOCK:   -0.25 KCAL/MOL
REMARK 927      BINDING AFFINITY PREDICTED BY RF-SCORE:    0.00 PKD
ROOT
HETATM    1  C   UNL     1     -11.191   6.095  69.768  1.00  0.00    -0.423 C  
HETATM    2  N   UNL     1     -10.531   7.377  69.606  1.00  0.00    -0.227 NA 
HETATM    3  N   UNL     1     -10.775   8.026  68.401  1.00  0.00    -0.085 NA 
HETATM    4  C   UNL     1     -10.152   9.174  68.409  1.00  0.00    -0.196 C  
HETATM    5  S   UNL     1      -9.227   9.573  69.836  1.00  0.00    -0.234 SA 
HETATM    6  C   UNL     1      -9.725   8.016  70.537  1.00  0.00    -0.178 C  
ENDROOT
BRANCH   4   7
HETATM    7  S   UNL     1     -10.252  10.284  67.023  1.00  0.00    -0.239 S  
HETATM    8  O   UNL     1      -9.131  11.190  67.142  1.00  0.00    -0.146 OA 
HETATM    9  N   UNL     1      -9.992   9.389  65.611  1.00  0.00    -0.410 N  
HETATM   10  O   UNL     1     -11.624  10.741  66.967  1.00  0.00    -0.322 OA 
HETATM   11  H1  UNL     1     -10.050  10.025  64.816  1.00  0.00     0.000 HD 
HETATM   12  H2  UNL     1      -9.810   8.387  65.563  1.00  0.00     0.000 HD 
ENDBRANCH   4   7
BRANCH   6  13
HETATM   13  N   UNL     1      -9.239   7.862  71.708  1.00  0.00    -0.143 N  
HETATM   14  H   UNL     1      -8.229   7.732  71.778  1.00  0.00     0.000 HD 
HETATM   15  C   UNL     1      -9.944   7.856  72.869  1.00  0.00    -0.294 C  
HETATM   16  C   UNL     1      -9.044   7.674  74.071  1.00  0.00    -0.280 C  
HETATM   17  O   UNL     1     -11.157   7.965  72.998  1.00  0.00    -0.402 OA 
ENDBRANCH   6  13
TORSDOF 2
ENDMDL
MODEL      123
REMARK 921   NORMALIZED FREE ENERGY PREDICTED BY IDOCK:   -3.18 KCAL/MOL
REMARK 922        TOTAL FREE ENERGY PREDICTED BY IDOCK:   -3.79 KCAL/MOL
REMARK 923 INTER-LIGAND FREE ENERGY PREDICTED BY IDOCK:   -3.54 KCAL/MOL
REMARK 924 INTRA-LIGAND FREE ENERGY PREDICTED BY IDOCK:   -0.25 KCAL/MOL
REMARK 927      BINDING AFFINITY PREDICTED BY RF-SCORE:    0.00 PKD
ROOT
HETATM    1  C   UNL     1     -11.173  12.304  63.905  1.00  0.00    -0.421 C  
HETATM    2  N   UNL     1     -10.801  11.784  65.208  1.00  0.00    -0.286 NA 
HETATM    3  N   UNL     1     -10.433  10.444  65.231  1.00  0.00    -0.196 NA 
HETATM    4  C   UNL     1     -10.090  10.125  66.451  1.00  0.00    -0.236 C  
HETATM    5  S   UNL     1     -10.183  11.379  67.663  1.00  0.00    -0.185 SA 
HETATM    6  C   UNL     1     -10.747  12.495  66.398  1.00  0.00    -0.249 C  
ENDROOT
BRANCH   4   7
HETATM    7  S   UNL     1      -9.547   8.480  66.852  1.00  0.00    -0.218 S  
HETATM    8  O   UNL     1      -8.453   8.180  65.955  1.00  0.00    -0.125 OA 
HETATM    9  N   UNL     1      -8.889   8.507  68.411  1.00  0.00    -0.139 N  
HETATM   10  O   UNL     1     -10.740   7.665  66.930  1.00  0.00    -0.351 OA 
HETATM   11  H1  UNL     1      -8.577   7.564  68.642  1.00  0.00     0.000 HD 
HETATM   12  H2  UNL     1      -8.817   9.325  69.016  1.00  0.00     0.000 HD 
ENDBRANCH   4   7
BRANCH   6  13
HETATM   13  N   UNL     1     -10.957  13.661  66.873  1.00  0.00    -0.287 N  
HETATM   14  H   UNL     1     -11.735  13.763  67.526  1.00  0.00     0.000 HD 
HETATM   15  C   UNL     1     -10.239  14.779  66.589  1.00  0.00    -0.269 C  
HETATM   16  C   UNL     1     -10.751  15.983  67.349  1.00  0.00    -0.306 C  
HETATM   17  O   UNL     1      -9.295  14.874  65.815  1.00  0.00    -0.272 OA 
ENDBRANCH   6  13
TORSDOF 2
ENDMDL
MODEL      124
REMARK 921   NORMALIZED FREE ENERGY PREDICTED BY IDOCK:   -3.18 KCAL/MOL
REMARK 922        TOTAL FREE ENERGY PREDICTED BY IDOCK:   -3.78 KCAL/MOL
REMARK 923 INTER-LIGAND FREE ENERGY PREDICTED BY IDOCK:   -3.55 KCAL/MOL
REMARK 924 INTRA-LIGAND FREE ENERGY PREDICTED BY IDOCK:   -0.23 KCAL/MOL
REMARK 927      BINDING AFFINITY PREDICTED BY RF-SCORE:    0.00 PKD
ROOT
HETATM    1  C   UNL     1      -8.003   9.320  69.942  1.00  0.00    -0.113 C  
HETATM    2  N   UNL     1      -9.156   9.094  70.794  1.00  0.00    -0.241 NA 
HETATM    3  N   UNL     1     -10.305   9.792  70.439  1.00  0.00    -0.283 NA 
HETATM    4  C   UNL     1     -11.264   9.466  71.264  1.00  0.00    -0.367 C  
HETATM    5  S   UNL     1     -10.882   8.319  72.525  1.00  0.00    -0.311 SA 
HETATM    6  C   UNL     1      -9.224   8.239  71.885  1.00  0.00    -0.208 C  
ENDROOT
BRANCH   4   7
HETATM    7  S   UNL     1     -12.892  10.162  71.101  1.00  0.00    -0.417 S  
HETATM    8  O   UNL     1     -13.800   9.237  71.743  1.00  0.00    -0.372 OA 
HETATM    9  N   UNL     1     -12.949  11.589  72.008  1.00  0.00    -0.379 N  
HETATM   10  O   UNL     1     -13.029  10.557  69.715  1.00  0.00    -0.106 OA 
HETATM   11  H1  UNL     1     -13.883  11.989  71.914  1.00  0.00     0.000 HD 
HETATM   12  H2  UNL     1     -12.183  11.983  72.554  1.00  0.00     0.000 HD 
ENDBRANCH   4   7
BRANCH   6  13
HETATM   13  N   UNL     1      -8.508   7.428  72.562  1.00  0.00    -0.107 N  
HETATM   14  H   UNL     1      -8.501   6.453  72.260  1.00  0.00     0.000 HD 
HETATM   15  C   UNL     1      -7.753   7.744  73.647  1.00  0.00    -0.144 C  
HETATM   16  C   UNL     1      -7.014   6.540  74.187  1.00  0.00    -0.084 C  
HETATM   17  O   UNL     1      -7.651   8.841  74.182  1.00  0.00    -0.419 OA 
ENDBRANCH   6  13
TORSDOF 2
ENDMDL
MODEL      125
REMARK 921   NORMALIZED FREE ENERGY PREDICTED BY IDOCK:   -3.18 KCAL/MOL
REMARK 922        TOTAL FREE ENERGY PREDICTED BY IDOCK:   -3.78 KCAL/MOL
REMARK 923 INTER-LIGAND FREE ENERGY PREDICTED BY IDOCK:   -3.53 KCAL/MOL
REMARK 924 INTRA-LIGAND FREE ENERGY PREDICTED BY IDOCK:   -0.25 KCAL/MOL
REMARK 927      BINDING AFFINITY PREDICTED BY RF-SCORE:    0.00 PKD
ROOT
HETATM    1  C   UNL     1     -10.408   8.257  67.193  1.00  0.00    -0.317 C  
HETATM    2  N   UNL     1     -10.438   8.475  68.627  1.00  0.00    -0.198 NA 
HETATM    3  N   UNL     1     -10.970   7.432  69.378  1.00  0.00    -0.164 NA 
HETATM    4  C   UNL     1     -10.900   7.750  70.643  1.00  0.00    -0.237 C  
HETATM    5  S   UNL     1     -10.211   9.303  71.043  1.00  0.00    -0.310 SA 
HETATM    6  C   UNL     1      -9.966   9.590  69.305  1.00  0.00    -0.187 C  
ENDROOT
BRANCH   4   7
HETATM    7  S   UNL     1     -11.482   6.637  71.902  1.00  0.00    -0.307 S  
HETATM    8  O   UNL     1     -10.708   5.423  71.765  1.00  0.00    -0.232 OA 
HETATM    9  N   UNL     1     -11.079   7.289  73.410  1.00  0.00    -0.581 N  
HETATM   10  O   UNL     1     -12.927   6.655  71.826  1.00  0.00    -0.319 OA 
HETATM   11  H1  UNL     1     -11.412   6.651  74.132  1.00  0.00     0.000 HD 
HETATM   12  H2  UNL     1     -10.588   8.169  73.570  1.00  0.00     0.000 HD 
ENDBRANCH   4   7
BRANCH   6  13
HETATM   13  N   UNL     1      -9.419  10.724  69.097  1.00  0.00    -0.342 N  
HETATM   14  H   UNL     1      -9.963  11.553  69.340  1.00  0.00     0.000 HD 
HETATM   15  C   UNL     1      -8.178  10.930  68.583  1.00  0.00    -0.146 C  
HETATM   16  C   UNL     1      -7.842  12.402  68.498  1.00  0.00    -0.112 C  
HETATM   17  O   UNL     1      -7.385  10.077  68.203  1.00  0.00    -0.081 OA 
ENDBRANCH   6  13
TORSDOF 2
ENDMDL
MODEL      126
REMARK 921   NORMALIZED FREE ENERGY PREDICTED BY IDOCK:   -3.14 KCAL/MOL
REMARK 922        TOTAL FREE ENERGY PREDICTED BY IDOCK:   -3.74 KCAL/MOL
REMARK 923 INTER-LIGAND FREE ENERGY PREDICTED BY IDOCK:   -3.49 KCAL/MOL
REMARK 924 INTRA-LIGAND FREE ENERGY PREDICTED BY IDOCK:   -0.25 KCAL/MOL
REMARK 927      BINDING AFFINITY PREDICTED BY RF-SCORE:    0.00 PKD
ROOT
HETATM    1  C   UNL     1     -10.192   5.241  68.219  1.00  0.00    -0.134 C  
HETATM    2  N   UNL     1     -10.444   5.943  69.464  1.00  0.00    -0.248 NA 
HETATM    3  N   UNL     1     -10.269   5.189  70.619  1.00  0.00    -0.253 NA 
HETATM    4  C   UNL     1     -10.492   5.953  71.655  1.00  0.00    -0.233 C  
HETATM    5  S   UNL     1     -10.932   7.615  71.345  1.00  0.00    -0.234 SA 
HETATM    6  C   UNL     1     -10.802   7.276  69.604  1.00  0.00    -0.222 C  
ENDROOT
BRANCH   4   7
HETATM    7  S   UNL     1     -10.347   5.321  73.311  1.00  0.00    -0.227 S  
HETATM    8  O   UNL     1      -8.987   4.850  73.451  1.00  0.00    -0.113 OA 
HETATM    9  N   UNL     1     -10.513   6.617  74.386  1.00  0.00    -0.433 N  
HETATM   10  O   UNL     1     -11.496   4.468  73.523  1.00  0.00    -0.303 OA 
HETATM   11  H1  UNL     1     -10.430   6.254  75.336  1.00  0.00     0.000 HD 
HETATM   12  H2  UNL     1     -10.671   7.591  74.129  1.00  0.00     0.000 HD 
ENDBRANCH   4   7
BRANCH   6  13
HETATM   13  N   UNL     1     -11.057   8.317  68.911  1.00  0.00    -0.403 N  
HETATM   14  H   UNL     1     -12.029   8.624  68.875  1.00  0.00     0.000 HD 
HETATM   15  C   UNL     1     -10.150   9.056  68.219  1.00  0.00    -0.192 C  
HETATM   16  C   UNL     1     -10.797  10.238  67.531  1.00  0.00    -0.355 C  
HETATM   17  O   UNL     1      -8.950   8.840  68.110  1.00  0.00    -0.140 OA 
ENDBRANCH   6  13
TORSDOF 2
ENDMDL
MODEL      127
REMARK 921   NORMALIZED FREE ENERGY PREDICTED BY IDOCK:   -3.12 KCAL/MOL
REMARK 922        TOTAL FREE ENERGY PREDICTED BY IDOCK:   -3.72 KCAL/MOL
REMARK 923 INTER-LIGAND FREE ENERGY PREDICTED BY IDOCK:   -3.67 KCAL/MOL
REMARK 924 INTRA-LIGAND FREE ENERGY PREDICTED BY IDOCK:   -0.05 KCAL/MOL
REMARK 927      BINDING AFFINITY PREDICTED BY RF-SCORE:    0.00 PKD
ROOT
HETATM    1  C   UNL     1      -5.697  17.502  66.452  1.00  0.00    -0.208 C  
HETATM    2  N   UNL     1      -6.449  18.087  67.547  1.00  0.00    -0.171 NA 
HETATM    3  N   UNL     1      -5.684  18.617  68.579  1.00  0.00    -0.197 NA 
HETATM    4  C   UNL     1      -6.485  19.137  69.470  1.00  0.00    -0.284 C  
HETATM    5  S   UNL     1      -8.201  19.033  69.161  1.00  0.00     0.017 SA 
HETATM    6  C   UNL     1      -7.829  18.192  67.639  1.00  0.00    -0.224 C  
ENDROOT
BRANCH   4   7
HETATM    7  S   UNL     1      -5.848  19.923  70.932  1.00  0.00    -0.258 S  
HETATM    8  O   UNL     1      -5.141  21.104  70.488  1.00  0.00    -0.536 OA 
HETATM    9  N   UNL     1      -7.158  20.471  71.850  1.00  0.00    -0.170 N  
HETATM   10  O   UNL     1      -5.215  18.880  71.711  1.00  0.00    -0.499 OA 
HETATM   11  H1  UNL     1      -6.793  20.921  72.690  1.00  0.00     0.000 HD 
HETATM   12  H2  UNL     1      -8.144  20.369  71.608  1.00  0.00     0.000 HD 
ENDBRANCH   4   7
BRANCH   6  13
HETATM   13  N   UNL     1      -8.896  17.897  67.003  1.00  0.00    -0.244 N  
HETATM   14  H   UNL     1      -9.614  18.620  66.940  1.00  0.00     0.000 HD 
HETATM   15  C   UNL     1      -9.164  16.708  66.402  1.00  0.00    -0.287 C  
HETATM   16  C   UNL     1     -10.513  16.715  65.719  1.00  0.00    -0.324 C  
HETATM   17  O   UNL     1      -8.454  15.710  66.389  1.00  0.00    -0.284 OA 
ENDBRANCH   6  13
TORSDOF 2
ENDMDL
MODEL      128
REMARK 921   NORMALIZED FREE ENERGY PREDICTED BY IDOCK:   -3.08 KCAL/MOL
REMARK 922        TOTAL FREE ENERGY PREDICTED BY IDOCK:   -3.67 KCAL/MOL
REMARK 923 INTER-LIGAND FREE ENERGY PREDICTED BY IDOCK:   -3.45 KCAL/MOL
REMARK 924 INTRA-LIGAND FREE ENERGY PREDICTED BY IDOCK:   -0.22 KCAL/MOL
REMARK 927      BINDING AFFINITY PREDICTED BY RF-SCORE:    0.00 PKD
ROOT
HETATM    1  C   UNL     1      -9.719  10.922  63.076  1.00  0.00    -0.350 C  
HETATM    2  N   UNL     1      -9.802  10.557  64.478  1.00  0.00    -0.314 NA 
HETATM    3  N   UNL     1      -8.918   9.565  64.889  1.00  0.00    -0.209 NA 
HETATM    4  C   UNL     1      -9.079   9.366  66.170  1.00  0.00    -0.171 C  
HETATM    5  S   UNL     1     -10.288  10.327  66.985  1.00  0.00    -0.245 SA 
HETATM    6  C   UNL     1     -10.641  11.117  65.430  1.00  0.00    -0.227 C  
ENDROOT
BRANCH   4   7
HETATM    7  S   UNL     1      -8.098   8.168  67.043  1.00  0.00    -0.109 S  
HETATM    8  O   UNL     1      -8.086   6.975  66.226  1.00  0.00    -0.106 OA 
HETATM    9  N   UNL     1      -6.502   8.727  67.092  1.00  0.00    -0.060 N  
HETATM   10  O   UNL     1      -8.571   8.174  68.411  1.00  0.00    -0.129 OA 
HETATM   11  H1  UNL     1      -5.939   8.039  67.593  1.00  0.00     0.000 HD 
HETATM   12  H2  UNL     1      -6.161   9.600  66.690  1.00  0.00     0.000 HD 
ENDBRANCH   4   7
BRANCH   6  13
HETATM   13  N   UNL     1     -11.556  11.997  65.558  1.00  0.00    -0.331 N  
HETATM   14  H   UNL     1     -12.465  11.676  65.893  1.00  0.00     0.000 HD 
HETATM   15  C   UNL     1     -11.431  13.323  65.289  1.00  0.00    -0.295 C  
HETATM   16  C   UNL     1     -12.710  14.078  65.577  1.00  0.00    -0.517 C  
HETATM   17  O   UNL     1     -10.441  13.899  64.854  1.00  0.00    -0.386 OA 
ENDBRANCH   6  13
TORSDOF 2
ENDMDL
MODEL      129
REMARK 921   NORMALIZED FREE ENERGY PREDICTED BY IDOCK:   -3.06 KCAL/MOL
REMARK 922        TOTAL FREE ENERGY PREDICTED BY IDOCK:   -3.65 KCAL/MOL
REMARK 923 INTER-LIGAND FREE ENERGY PREDICTED BY IDOCK:   -3.42 KCAL/MOL
REMARK 924 INTRA-LIGAND FREE ENERGY PREDICTED BY IDOCK:   -0.22 KCAL/MOL
REMARK 927      BINDING AFFINITY PREDICTED BY RF-SCORE:    0.00 PKD
ROOT
HETATM    1  C   UNL     1      -8.328  12.961  68.286  1.00  0.00    -0.157 C  
HETATM    2  N   UNL     1      -8.790  11.713  67.707  1.00  0.00    -0.154 NA 
HETATM    3  N   UNL     1      -8.304  11.430  66.436  1.00  0.00    -0.163 NA 
HETATM    4  C   UNL     1      -8.769  10.269  66.059  1.00  0.00    -0.150 C  
HETATM    5  S   UNL     1      -9.821   9.428  67.171  1.00  0.00    -0.202 SA 
HETATM    6  C   UNL     1      -9.626  10.783  68.307  1.00  0.00    -0.166 C  
ENDROOT
BRANCH   4   7
HETATM    7  S   UNL     1      -8.341   9.577  64.478  1.00  0.00    -0.177 S  
HETATM    8  O   UNL     1      -8.297   8.142  64.658  1.00  0.00    -0.148 OA 
HETATM    9  N   UNL     1      -9.613   9.882  63.406  1.00  0.00    -0.508 N  
HETATM   10  O   UNL     1      -7.210  10.339  63.993  1.00  0.00    -0.129 OA 
HETATM   11  H1  UNL     1      -9.367   9.486  62.499  1.00  0.00     0.000 HD 
HETATM   12  H2  UNL     1     -10.477  10.378  63.627  1.00  0.00     0.000 HD 
ENDBRANCH   4   7
BRANCH   6  13
HETATM   13  N   UNL     1     -10.282  10.579  69.383  1.00  0.00    -0.258 N  
HETATM   14  H   UNL     1      -9.792  10.103  70.142  1.00  0.00     0.000 HD 
HETATM   15  C   UNL     1     -11.572  10.940  69.611  1.00  0.00    -0.322 C  
HETATM   16  C   UNL     1     -12.021  10.564  71.006  1.00  0.00    -0.466 C  
HETATM   17  O   UNL     1     -12.336  11.488  68.827  1.00  0.00    -0.425 OA 
ENDBRANCH   6  13
TORSDOF 2
ENDMDL
MODEL      130
REMARK 921   NORMALIZED FREE ENERGY PREDICTED BY IDOCK:   -3.04 KCAL/MOL
REMARK 922        TOTAL FREE ENERGY PREDICTED BY IDOCK:   -3.63 KCAL/MOL
REMARK 923 INTER-LIGAND FREE ENERGY PREDICTED BY IDOCK:   -3.40 KCAL/MOL
REMARK 924 INTRA-LIGAND FREE ENERGY PREDICTED BY IDOCK:   -0.23 KCAL/MOL
REMARK 927      BINDING AFFINITY PREDICTED BY RF-SCORE:    0.00 PKD
ROOT
HETATM    1  C   UNL     1      -8.504   8.221  71.533  1.00  0.00    -0.140 C  
HETATM    2  N   UNL     1      -9.317   7.534  70.546  1.00  0.00    -0.161 NA 
HETATM    3  N   UNL     1      -8.612   6.900  69.530  1.00  0.00    -0.133 NA 
HETATM    4  C   UNL     1      -9.463   6.298  68.742  1.00  0.00    -0.122 C  
HETATM    5  S   UNL     1     -11.158   6.440  69.137  1.00  0.00    -0.350 SA 
HETATM    6  C   UNL     1     -10.700   7.427  70.543  1.00  0.00    -0.233 C  
ENDROOT
BRANCH   4   7
HETATM    7  S   UNL     1      -8.910   5.368  67.331  1.00  0.00    -0.104 S  
HETATM    8  O   UNL     1      -9.695   4.153  67.308  1.00  0.00    -0.197 OA 
HETATM    9  N   UNL     1      -9.325   6.229  65.936  1.00  0.00    -0.363 N  
HETATM   10  O   UNL     1      -7.463   5.362  67.389  1.00  0.00    -0.082 OA 
HETATM   11  H1  UNL     1      -9.007   5.696  65.126  1.00  0.00     0.000 HD 
HETATM   12  H2  UNL     1      -9.808   7.127  65.908  1.00  0.00     0.000 HD 
ENDBRANCH   4   7
BRANCH   6  13
HETATM   13  N   UNL     1     -11.729   7.789  71.207  1.00  0.00    -0.283 N  
HETATM   14  H   UNL     1     -12.335   7.049  71.564  1.00  0.00     0.000 HD 
HETATM   15  C   UNL     1     -12.092   9.069  71.481  1.00  0.00    -0.340 C  
HETATM   16  C   UNL     1     -13.355   9.129  72.311  1.00  0.00    -0.540 C  
HETATM   17  O   UNL     1     -11.523  10.092  71.120  1.00  0.00    -0.357 OA 
ENDBRANCH   6  13
TORSDOF 2
ENDMDL
MODEL      131
REMARK 921   NORMALIZED FREE ENERGY PREDICTED BY IDOCK:   -3.04 KCAL/MOL
REMARK 922        TOTAL FREE ENERGY PREDICTED BY IDOCK:   -3.63 KCAL/MOL
REMARK 923 INTER-LIGAND FREE ENERGY PREDICTED BY IDOCK:   -3.38 KCAL/MOL
REMARK 924 INTRA-LIGAND FREE ENERGY PREDICTED BY IDOCK:   -0.24 KCAL/MOL
REMARK 927      BINDING AFFINITY PREDICTED BY RF-SCORE:    0.00 PKD
ROOT
HETATM    1  C   UNL     1     -10.667   5.919  67.238  1.00  0.00    -0.297 C  
HETATM    2  N   UNL     1     -10.655   5.839  68.687  1.00  0.00    -0.236 NA 
HETATM    3  N   UNL     1     -11.368   6.835  69.344  1.00  0.00    -0.234 NA 
HETATM    4  C   UNL     1     -11.301   6.618  70.631  1.00  0.00    -0.347 C  
HETATM    5  S   UNL     1     -10.388   5.227  71.162  1.00  0.00    -0.201 SA 
HETATM    6  C   UNL     1     -10.041   4.862  69.457  1.00  0.00    -0.216 C  
ENDROOT
BRANCH   4   7
HETATM    7  S   UNL     1     -12.115   7.696  71.788  1.00  0.00    -0.318 S  
HETATM    8  O   UNL     1     -12.370   8.934  71.085  1.00  0.00    -0.294 OA 
HETATM    9  N   UNL     1     -13.629   7.034  72.150  1.00  0.00    -0.542 N  
HETATM   10  O   UNL     1     -11.343   7.636  73.011  1.00  0.00    -0.372 OA 
HETATM   11  H1  UNL     1     -14.096   7.652  72.814  1.00  0.00     0.000 HD 
HETATM   12  H2  UNL     1     -14.010   6.167  71.771  1.00  0.00     0.000 HD 
ENDBRANCH   4   7
BRANCH   6  13
HETATM   13  N   UNL     1      -9.330   3.807  69.347  1.00  0.00    -0.162 N  
HETATM   14  H   UNL     1      -9.750   2.930  69.659  1.00  0.00     0.000 HD 
HETATM   15  C   UNL     1      -8.066   3.744  68.853  1.00  0.00    -0.058 C  
HETATM   16  C   UNL     1      -7.535   2.328  68.847  1.00  0.00    -0.043 C  
HETATM   17  O   UNL     1      -7.380   4.679  68.458  1.00  0.00    -0.063 OA 
ENDBRANCH   6  13
TORSDOF 2
ENDMDL
MODEL      132
REMARK 921   NORMALIZED FREE ENERGY PREDICTED BY IDOCK:   -3.03 KCAL/MOL
REMARK 922        TOTAL FREE ENERGY PREDICTED BY IDOCK:   -3.61 KCAL/MOL
REMARK 923 INTER-LIGAND FREE ENERGY PREDICTED BY IDOCK:   -3.37 KCAL/MOL
REMARK 924 INTRA-LIGAND FREE ENERGY PREDICTED BY IDOCK:   -0.24 KCAL/MOL
REMARK 927      BINDING AFFINITY PREDICTED BY RF-SCORE:    0.00 PKD
ROOT
HETATM    1  C   UNL     1      -8.579   8.073  73.553  1.00  0.00    -0.256 C  
HETATM    2  N   UNL     1      -9.425   6.926  73.282  1.00  0.00    -0.147 NA 
HETATM    3  N   UNL     1      -8.779   5.695  73.284  1.00  0.00    -0.119 NA 
HETATM    4  C   UNL     1      -9.662   4.758  73.064  1.00  0.00    -0.140 C  
HETATM    5  S   UNL     1     -11.320   5.258  72.832  1.00  0.00    -0.254 SA 
HETATM    6  C   UNL     1     -10.795   6.942  73.060  1.00  0.00    -0.296 C  
ENDROOT
BRANCH   4   7
HETATM    7  S   UNL     1      -9.190   3.044  73.011  1.00  0.00    -0.091 S  
HETATM    8  O   UNL     1      -9.977   2.371  74.021  1.00  0.00    -0.092 OA 
HETATM    9  N   UNL     1      -9.682   2.408  71.523  1.00  0.00    -0.153 N  
HETATM   10  O   UNL     1      -7.743   3.021  73.004  1.00  0.00    -0.053 OA 
HETATM   11  H1  UNL     1      -9.411   1.425  71.492  1.00  0.00     0.000 HD 
HETATM   12  H2  UNL     1     -10.165   2.918  70.784  1.00  0.00     0.000 HD 
ENDBRANCH   4   7
BRANCH   6  13
HETATM   13  N   UNL     1     -11.781   7.747  72.974  1.00  0.00    -0.611 N  
HETATM   14  H   UNL     1     -12.358   7.865  73.808  1.00  0.00     0.000 HD 
HETATM   15  C   UNL     1     -12.133   8.463  71.874  1.00  0.00    -0.342 C  
HETATM   16  C   UNL     1     -13.341   9.336  72.135  1.00  0.00    -0.537 C  
HETATM   17  O   UNL     1     -11.595   8.441  70.775  1.00  0.00    -0.278 OA 
ENDBRANCH   6  13
TORSDOF 2
ENDMDL
MODEL      133
REMARK 921   NORMALIZED FREE ENERGY PREDICTED BY IDOCK:   -3.00 KCAL/MOL
REMARK 922        TOTAL FREE ENERGY PREDICTED BY IDOCK:   -3.58 KCAL/MOL
REMARK 923 INTER-LIGAND FREE ENERGY PREDICTED BY IDOCK:   -3.34 KCAL/MOL
REMARK 924 INTRA-LIGAND FREE ENERGY PREDICTED BY IDOCK:   -0.25 KCAL/MOL
REMARK 927      BINDING AFFINITY PREDICTED BY RF-SCORE:    0.00 PKD
ROOT
HETATM    1  C   UNL     1     -10.271   7.872  68.402  1.00  0.00    -0.202 C  
HETATM    2  N   UNL     1      -9.512   9.090  68.190  1.00  0.00    -0.142 NA 
HETATM    3  N   UNL     1      -8.517   9.012  67.222  1.00  0.00    -0.114 NA 
HETATM    4  C   UNL     1      -7.945  10.181  67.114  1.00  0.00    -0.109 C  
HETATM    5  S   UNL     1      -8.532  11.460  68.149  1.00  0.00    -0.158 SA 
HETATM    6  C   UNL     1      -9.706  10.308  68.827  1.00  0.00    -0.177 C  
ENDROOT
BRANCH   4   7
HETATM    7  S   UNL     1      -6.627  10.455  65.952  1.00  0.00    -0.129 S  
HETATM    8  O   UNL     1      -5.889   9.214  65.870  1.00  0.00    -0.049 OA 
HETATM    9  N   UNL     1      -7.312  10.701  64.425  1.00  0.00    -0.350 N  
HETATM   10  O   UNL     1      -6.009  11.709  66.326  1.00  0.00    -0.149 OA 
HETATM   11  H1  UNL     1      -6.556  10.859  63.758  1.00  0.00     0.000 HD 
HETATM   12  H2  UNL     1      -8.308  10.695  64.208  1.00  0.00     0.000 HD 
ENDBRANCH   4   7
BRANCH   6  13
HETATM   13  N   UNL     1     -10.437  10.864  69.713  1.00  0.00    -0.448 N  
HETATM   14  H   UNL     1     -10.019  11.014  70.632  1.00  0.00     0.000 HD 
HETATM   15  C   UNL     1     -11.721  11.274  69.545  1.00  0.00    -0.345 C  
HETATM   16  C   UNL     1     -12.275  11.914  70.799  1.00  0.00    -0.401 C  
HETATM   17  O   UNL     1     -12.408  11.159  68.538  1.00  0.00    -0.561 OA 
ENDBRANCH   6  13
TORSDOF 2
ENDMDL
MODEL      134
REMARK 921   NORMALIZED FREE ENERGY PREDICTED BY IDOCK:   -2.99 KCAL/MOL
REMARK 922        TOTAL FREE ENERGY PREDICTED BY IDOCK:   -3.57 KCAL/MOL
REMARK 923 INTER-LIGAND FREE ENERGY PREDICTED BY IDOCK:   -3.33 KCAL/MOL
REMARK 924 INTRA-LIGAND FREE ENERGY PREDICTED BY IDOCK:   -0.24 KCAL/MOL
REMARK 927      BINDING AFFINITY PREDICTED BY RF-SCORE:    0.00 PKD
ROOT
HETATM    1  C   UNL     1     -10.968   3.747  73.896  1.00  0.00    -0.195 C  
HETATM    2  N   UNL     1     -10.798   5.141  73.529  1.00  0.00    -0.282 NA 
HETATM    3  N   UNL     1     -11.904   5.741  72.937  1.00  0.00    -0.112 NA 
HETATM    4  C   UNL     1     -11.622   6.993  72.696  1.00  0.00    -0.162 C  
HETATM    5  S   UNL     1     -10.029   7.556  73.141  1.00  0.00    -0.317 SA 
HETATM    6  C   UNL     1      -9.670   5.920  73.740  1.00  0.00    -0.166 C  
ENDROOT
BRANCH   4   7
HETATM    7  S   UNL     1     -12.817   8.077  71.950  1.00  0.00    -0.301 S  
HETATM    8  O   UNL     1     -13.823   7.228  71.352  1.00  0.00    -0.394 OA 
HETATM    9  N   UNL     1     -13.594   8.936  73.184  1.00  0.00    -0.760 N  
HETATM   10  O   UNL     1     -12.064   9.052  71.190  1.00  0.00    -0.291 OA 
HETATM   11  H1  UNL     1     -14.280   9.558  72.756  1.00  0.00     0.000 HD 
HETATM   12  H2  UNL     1     -13.408   8.848  74.183  1.00  0.00     0.000 HD 
ENDBRANCH   4   7
BRANCH   6  13
HETATM   13  N   UNL     1      -8.488   5.854  74.217  1.00  0.00    -0.108 N  
HETATM   14  H   UNL     1      -8.333   6.275  75.134  1.00  0.00     0.000 HD 
HETATM   15  C   UNL     1      -7.416   5.273  73.617  1.00  0.00    -0.095 C  
HETATM   16  C   UNL     1      -6.176   5.357  74.479  1.00  0.00    -0.068 C  
HETATM   17  O   UNL     1      -7.384   4.745  72.512  1.00  0.00    -0.079 OA 
ENDBRANCH   6  13
TORSDOF 2
ENDMDL
MODEL      135
REMARK 921   NORMALIZED FREE ENERGY PREDICTED BY IDOCK:   -2.98 KCAL/MOL
REMARK 922        TOTAL FREE ENERGY PREDICTED BY IDOCK:   -3.56 KCAL/MOL
REMARK 923 INTER-LIGAND FREE ENERGY PREDICTED BY IDOCK:   -3.31 KCAL/MOL
REMARK 924 INTRA-LIGAND FREE ENERGY PREDICTED BY IDOCK:   -0.24 KCAL/MOL
REMARK 927      BINDING AFFINITY PREDICTED BY RF-SCORE:    0.00 PKD
ROOT
HETATM    1  C   UNL     1     -10.293   8.994  71.677  1.00  0.00    -0.350 C  
HETATM    2  N   UNL     1      -9.985   7.894  70.782  1.00  0.00    -0.184 NA 
HETATM    3  N   UNL     1     -10.109   8.176  69.427  1.00  0.00    -0.190 NA 
HETATM    4  C   UNL     1      -9.768   7.114  68.746  1.00  0.00    -0.145 C  
HETATM    5  S   UNL     1      -9.283   5.702  69.652  1.00  0.00    -0.139 SA 
HETATM    6  C   UNL     1      -9.556   6.626  71.147  1.00  0.00    -0.170 C  
ENDROOT
BRANCH   4   7
HETATM    7  S   UNL     1      -9.794   7.116  66.968  1.00  0.00    -0.216 S  
HETATM    8  O   UNL     1      -8.615   6.396  66.540  1.00  0.00    -0.117 OA 
HETATM    9  N   UNL     1     -11.122   6.200  66.458  1.00  0.00    -0.749 N  
HETATM   10  O   UNL     1     -10.065   8.480  66.566  1.00  0.00    -0.274 OA 
HETATM   11  H1  UNL     1     -11.137   6.201  65.438  1.00  0.00     0.000 HD 
HETATM   12  H2  UNL     1     -11.792   5.728  67.065  1.00  0.00     0.000 HD 
ENDBRANCH   4   7
BRANCH   6  13
HETATM   13  N   UNL     1      -9.291   5.921  72.178  1.00  0.00    -0.146 N  
HETATM   14  H   UNL     1      -8.306   5.767  72.395  1.00  0.00     0.000 HD 
HETATM   15  C   UNL     1     -10.202   5.358  73.015  1.00  0.00    -0.183 C  
HETATM   16  C   UNL     1      -9.536   4.611  74.149  1.00  0.00    -0.138 C  
HETATM   17  O   UNL     1     -11.422   5.398  72.914  1.00  0.00    -0.309 OA 
ENDBRANCH   6  13
TORSDOF 2
ENDMDL
MODEL      136
REMARK 921   NORMALIZED FREE ENERGY PREDICTED BY IDOCK:   -2.97 KCAL/MOL
REMARK 922        TOTAL FREE ENERGY PREDICTED BY IDOCK:   -3.54 KCAL/MOL
REMARK 923 INTER-LIGAND FREE ENERGY PREDICTED BY IDOCK:   -3.32 KCAL/MOL
REMARK 924 INTRA-LIGAND FREE ENERGY PREDICTED BY IDOCK:   -0.22 KCAL/MOL
REMARK 927      BINDING AFFINITY PREDICTED BY RF-SCORE:    0.00 PKD
ROOT
HETATM    1  C   UNL     1      -9.413   4.017  69.547  1.00  0.00    -0.187 C  
HETATM    2  N   UNL     1     -10.074   4.629  70.684  1.00  0.00    -0.217 NA 
HETATM    3  N   UNL     1     -10.766   5.804  70.410  1.00  0.00    -0.295 NA 
HETATM    4  C   UNL     1     -11.337   6.220  71.508  1.00  0.00    -0.296 C  
HETATM    5  S   UNL     1     -11.096   5.263  72.949  1.00  0.00    -0.312 SA 
HETATM    6  C   UNL     1     -10.107   4.143  71.983  1.00  0.00    -0.164 C  
ENDROOT
BRANCH   4   7
HETATM    7  S   UNL     1     -12.323   7.700  71.528  1.00  0.00    -0.340 S  
HETATM    8  O   UNL     1     -11.910   8.452  72.692  1.00  0.00    -0.393 OA 
HETATM    9  N   UNL     1     -11.898   8.635  70.183  1.00  0.00    -0.425 N  
HETATM   10  O   UNL     1     -13.691   7.279  71.313  1.00  0.00    -0.361 OA 
HETATM   11  H1  UNL     1     -12.464   9.483  70.194  1.00  0.00     0.000 HD 
HETATM   12  H2  UNL     1     -11.198   8.392  69.482  1.00  0.00     0.000 HD 
ENDBRANCH   4   7
BRANCH   6  13
HETATM   13  N   UNL     1      -9.677   3.176  72.696  1.00  0.00    -0.127 N  
HETATM   14  H   UNL     1     -10.261   2.340  72.744  1.00  0.00     0.000 HD 
HETATM   15  C   UNL     1      -8.514   3.157  73.397  1.00  0.00    -0.074 C  
HETATM   16  C   UNL     1      -8.309   1.839  74.111  1.00  0.00    -0.053 C  
HETATM   17  O   UNL     1      -7.695   4.062  73.495  1.00  0.00    -0.077 OA 
ENDBRANCH   6  13
TORSDOF 2
ENDMDL
MODEL      137
REMARK 921   NORMALIZED FREE ENERGY PREDICTED BY IDOCK:   -2.94 KCAL/MOL
REMARK 922        TOTAL FREE ENERGY PREDICTED BY IDOCK:   -3.51 KCAL/MOL
REMARK 923 INTER-LIGAND FREE ENERGY PREDICTED BY IDOCK:   -3.27 KCAL/MOL
REMARK 924 INTRA-LIGAND FREE ENERGY PREDICTED BY IDOCK:   -0.24 KCAL/MOL
REMARK 927      BINDING AFFINITY PREDICTED BY RF-SCORE:    0.00 PKD
ROOT
HETATM    1  C   UNL     1     -10.349   9.215  66.529  1.00  0.00    -0.199 C  
HETATM    2  N   UNL     1      -9.931  10.539  66.950  1.00  0.00    -0.193 NA 
HETATM    3  N   UNL     1     -10.595  11.597  66.338  1.00  0.00    -0.248 NA 
HETATM    4  C   UNL     1     -10.146  12.717  66.837  1.00  0.00    -0.232 C  
HETATM    5  S   UNL     1      -8.902  12.610  68.058  1.00  0.00    -0.200 SA 
HETATM    6  C   UNL     1      -8.975  10.839  67.909  1.00  0.00    -0.139 C  
ENDROOT
BRANCH   4   7
HETATM    7  S   UNL     1     -10.785  14.285  66.293  1.00  0.00    -0.303 S  
HETATM    8  O   UNL     1     -12.161  14.343  66.735  1.00  0.00    -0.424 OA 
HETATM    9  N   UNL     1      -9.966  15.507  67.129  1.00  0.00    -0.239 N  
HETATM   10  O   UNL     1     -10.404  14.420  64.903  1.00  0.00    -0.421 OA 
HETATM   11  H1  UNL     1     -10.332  16.407  66.817  1.00  0.00     0.000 HD 
HETATM   12  H2  UNL     1      -9.232  15.369  67.824  1.00  0.00     0.000 HD 
ENDBRANCH   4   7
BRANCH   6  13
HETATM   13  N   UNL     1      -8.153  10.276  68.708  1.00  0.00    -0.112 N  
HETATM   14  H   UNL     1      -7.181  10.212  68.404  1.00  0.00     0.000 HD 
HETATM   15  C   UNL     1      -8.455   9.755  69.926  1.00  0.00    -0.201 C  
HETATM   16  C   UNL     1      -7.233   9.187  70.612  1.00  0.00    -0.106 C  
HETATM   17  O   UNL     1      -9.558   9.703  70.455  1.00  0.00    -0.251 OA 
ENDBRANCH   6  13
TORSDOF 2
ENDMDL
MODEL      138
REMARK 921   NORMALIZED FREE ENERGY PREDICTED BY IDOCK:   -2.93 KCAL/MOL
REMARK 922        TOTAL FREE ENERGY PREDICTED BY IDOCK:   -3.50 KCAL/MOL
REMARK 923 INTER-LIGAND FREE ENERGY PREDICTED BY IDOCK:   -3.27 KCAL/MOL
REMARK 924 INTRA-LIGAND FREE ENERGY PREDICTED BY IDOCK:   -0.22 KCAL/MOL
REMARK 927      BINDING AFFINITY PREDICTED BY RF-SCORE:    0.00 PKD
ROOT
HETATM    1  C   UNL     1      -7.462   8.017  69.238  1.00  0.00    -0.094 C  
HETATM    2  N   UNL     1      -8.725   7.417  69.624  1.00  0.00    -0.137 NA 
HETATM    3  N   UNL     1      -9.259   7.872  70.824  1.00  0.00    -0.156 NA 
HETATM    4  C   UNL     1     -10.405   7.278  71.025  1.00  0.00    -0.199 C  
HETATM    5  S   UNL     1     -10.936   6.132  69.818  1.00  0.00    -0.415 SA 
HETATM    6  C   UNL     1      -9.449   6.477  68.905  1.00  0.00    -0.129 C  
ENDROOT
BRANCH   4   7
HETATM    7  S   UNL     1     -11.382   7.630  72.468  1.00  0.00    -0.364 S  
HETATM    8  O   UNL     1     -11.859   8.987  72.318  1.00  0.00    -0.334 OA 
HETATM    9  N   UNL     1     -12.752   6.639  72.433  1.00  0.00    -0.520 N  
HETATM   10  O   UNL     1     -10.598   7.198  73.606  1.00  0.00    -0.372 OA 
HETATM   11  H1  UNL     1     -13.313   6.840  73.261  1.00  0.00     0.000 HD 
HETATM   12  H2  UNL     1     -12.979   5.956  71.709  1.00  0.00     0.000 HD 
ENDBRANCH   4   7
BRANCH   6  13
HETATM   13  N   UNL     1      -9.405   5.798  67.825  1.00  0.00    -0.105 N  
HETATM   14  H   UNL     1      -9.418   4.781  67.915  1.00  0.00     0.000 HD 
HETATM   15  C   UNL     1      -9.342   6.305  66.566  1.00  0.00    -0.151 C  
HETATM   16  C   UNL     1      -9.327   5.212  65.520  1.00  0.00    -0.125 C  
HETATM   17  O   UNL     1      -9.286   7.486  66.247  1.00  0.00    -0.174 OA 
ENDBRANCH   6  13
TORSDOF 2
ENDMDL
MODEL      139
REMARK 921   NORMALIZED FREE ENERGY PREDICTED BY IDOCK:   -2.91 KCAL/MOL
REMARK 922        TOTAL FREE ENERGY PREDICTED BY IDOCK:   -3.49 KCAL/MOL
REMARK 923 INTER-LIGAND FREE ENERGY PREDICTED BY IDOCK:   -3.34 KCAL/MOL
REMARK 924 INTRA-LIGAND FREE ENERGY PREDICTED BY IDOCK:   -0.14 KCAL/MOL
REMARK 927      BINDING AFFINITY PREDICTED BY RF-SCORE:    0.00 PKD
ROOT
HETATM    1  C   UNL     1      -8.109  15.270  68.940  1.00  0.00    -0.180 C  
HETATM    2  N   UNL     1      -8.593  14.196  68.093  1.00  0.00    -0.167 NA 
HETATM    3  N   UNL     1      -9.799  14.443  67.447  1.00  0.00    -0.222 NA 
HETATM    4  C   UNL     1     -10.091  13.415  66.697  1.00  0.00    -0.275 C  
HETATM    5  S   UNL     1      -8.971  12.075  66.703  1.00  0.00    -0.187 SA 
HETATM    6  C   UNL     1      -7.960  12.986  67.848  1.00  0.00    -0.157 C  
ENDROOT
BRANCH   4   7
HETATM    7  S   UNL     1     -11.569  13.388  65.709  1.00  0.00    -0.347 S  
HETATM    8  O   UNL     1     -12.445  14.402  66.255  1.00  0.00    -0.393 OA 
HETATM    9  N   UNL     1     -11.168  13.898  64.147  1.00  0.00    -0.598 N  
HETATM   10  O   UNL     1     -11.958  11.999  65.595  1.00  0.00    -0.479 OA 
HETATM   11  H1  UNL     1     -12.016  13.882  63.579  1.00  0.00     0.000 HD 
HETATM   12  H2  UNL     1     -10.240  14.172  63.826  1.00  0.00     0.000 HD 
ENDBRANCH   4   7
BRANCH   6  13
HETATM   13  N   UNL     1      -6.912  12.328  68.161  1.00  0.00    -0.079 N  
HETATM   14  H   UNL     1      -6.039  12.605  67.711  1.00  0.00     0.000 HD 
HETATM   15  C   UNL     1      -6.852  11.293  69.040  1.00  0.00    -0.099 C  
HETATM   16  C   UNL     1      -5.443  10.764  69.188  1.00  0.00    -0.041 C  
HETATM   17  O   UNL     1      -7.784  10.792  69.656  1.00  0.00    -0.120 OA 
ENDBRANCH   6  13
TORSDOF 2
ENDMDL
MODEL      140
REMARK 921   NORMALIZED FREE ENERGY PREDICTED BY IDOCK:   -2.90 KCAL/MOL
REMARK 922        TOTAL FREE ENERGY PREDICTED BY IDOCK:   -3.47 KCAL/MOL
REMARK 923 INTER-LIGAND FREE ENERGY PREDICTED BY IDOCK:   -3.23 KCAL/MOL
REMARK 924 INTRA-LIGAND FREE ENERGY PREDICTED BY IDOCK:   -0.24 KCAL/MOL
REMARK 927      BINDING AFFINITY PREDICTED BY RF-SCORE:    0.00 PKD
ROOT
HETATM    1  C   UNL     1      -9.641   4.804  68.007  1.00  0.00    -0.151 C  
HETATM    2  N   UNL     1      -9.823   5.924  68.912  1.00  0.00    -0.137 NA 
HETATM    3  N   UNL     1     -10.686   5.693  69.978  1.00  0.00    -0.323 NA 
HETATM    4  C   UNL     1     -10.725   6.765  70.724  1.00  0.00    -0.233 C  
HETATM    5  S   UNL     1      -9.754   8.127  70.221  1.00  0.00    -0.175 SA 
HETATM    6  C   UNL     1      -9.204   7.162  68.832  1.00  0.00    -0.137 C  
ENDROOT
BRANCH   4   7
HETATM    7  S   UNL     1     -11.725   6.826  72.193  1.00  0.00    -0.283 S  
HETATM    8  O   UNL     1     -11.311   8.005  72.921  1.00  0.00    -0.408 OA 
HETATM    9  N   UNL     1     -13.330   7.093  71.729  1.00  0.00    -0.503 N  
HETATM   10  O   UNL     1     -11.685   5.498  72.768  1.00  0.00    -0.297 OA 
HETATM   11  H1  UNL     1     -13.903   7.127  72.572  1.00  0.00     0.000 HD 
HETATM   12  H2  UNL     1     -13.666   7.200  70.772  1.00  0.00     0.000 HD 
ENDBRANCH   4   7
BRANCH   6  13
HETATM   13  N   UNL     1      -8.382   7.821  68.111  1.00  0.00    -0.124 N  
HETATM   14  H   UNL     1      -7.417   7.877  68.440  1.00  0.00     0.000 HD 
HETATM   15  C   UNL     1      -8.674   8.454  66.944  1.00  0.00    -0.130 C  
HETATM   16  C   UNL     1      -7.453   9.115  66.344  1.00  0.00    -0.092 C  
HETATM   17  O   UNL     1      -9.768   8.531  66.399  1.00  0.00    -0.235 OA 
ENDBRANCH   6  13
TORSDOF 2
ENDMDL
MODEL      141
REMARK 921   NORMALIZED FREE ENERGY PREDICTED BY IDOCK:   -2.79 KCAL/MOL
REMARK 922        TOTAL FREE ENERGY PREDICTED BY IDOCK:   -3.35 KCAL/MOL
REMARK 923 INTER-LIGAND FREE ENERGY PREDICTED BY IDOCK:   -3.10 KCAL/MOL
REMARK 924 INTRA-LIGAND FREE ENERGY PREDICTED BY IDOCK:   -0.25 KCAL/MOL
REMARK 927      BINDING AFFINITY PREDICTED BY RF-SCORE:    0.00 PKD
ROOT
HETATM    1  C   UNL     1     -12.129   6.898  70.758  1.00  0.00    -0.349 C  
HETATM    2  N   UNL     1     -10.849   6.371  70.322  1.00  0.00    -0.266 NA 
HETATM    3  N   UNL     1     -10.798   5.947  68.999  1.00  0.00    -0.316 NA 
HETATM    4  C   UNL     1      -9.586   5.536  68.738  1.00  0.00    -0.135 C  
HETATM    5  S   UNL     1      -8.417   5.611  70.034  1.00  0.00    -0.124 SA 
HETATM    6  C   UNL     1      -9.689   6.285  71.078  1.00  0.00    -0.176 C  
ENDROOT
BRANCH   4   7
HETATM    7  S   UNL     1      -9.150   4.930  67.124  1.00  0.00    -0.123 S  
HETATM    8  O   UNL     1      -7.705   4.947  67.057  1.00  0.00    -0.090 OA 
HETATM    9  N   UNL     1      -9.611   3.306  67.027  1.00  0.00    -0.390 N  
HETATM   10  O   UNL     1      -9.985   5.645  66.182  1.00  0.00    -0.138 OA 
HETATM   11  H1  UNL     1      -9.361   2.958  66.101  1.00  0.00     0.000 HD 
HETATM   12  H2  UNL     1     -10.061   2.766  67.766  1.00  0.00     0.000 HD 
ENDBRANCH   4   7
BRANCH   6  13
HETATM   13  N   UNL     1      -9.241   6.532  72.248  1.00  0.00    -0.139 N  
HETATM   14  H   UNL     1      -9.015   5.730  72.837  1.00  0.00     0.000 HD 
HETATM   15  C   UNL     1      -9.037   7.766  72.781  1.00  0.00    -0.186 C  
HETATM   16  C   UNL     1      -8.474   7.686  74.182  1.00  0.00    -0.290 C  
HETATM   17  O   UNL     1      -9.273   8.846  72.254  1.00  0.00    -0.376 OA 
ENDBRANCH   6  13
TORSDOF 2
ENDMDL
MODEL      142
REMARK 921   NORMALIZED FREE ENERGY PREDICTED BY IDOCK:   -2.79 KCAL/MOL
REMARK 922        TOTAL FREE ENERGY PREDICTED BY IDOCK:   -3.35 KCAL/MOL
REMARK 923 INTER-LIGAND FREE ENERGY PREDICTED BY IDOCK:   -3.13 KCAL/MOL
REMARK 924 INTRA-LIGAND FREE ENERGY PREDICTED BY IDOCK:   -0.22 KCAL/MOL
REMARK 927      BINDING AFFINITY PREDICTED BY RF-SCORE:    0.00 PKD
ROOT
HETATM    1  C   UNL     1     -11.091   6.879  67.082  1.00  0.00    -0.292 C  
HETATM    2  N   UNL     1     -10.744   6.135  68.279  1.00  0.00    -0.263 NA 
HETATM    3  N   UNL     1     -10.035   4.959  68.065  1.00  0.00    -0.140 NA 
HETATM    4  C   UNL     1      -9.762   4.418  69.222  1.00  0.00    -0.182 C  
HETATM    5  S   UNL     1     -10.327   5.251  70.650  1.00  0.00    -0.232 SA 
HETATM    6  C   UNL     1     -11.021   6.499  69.589  1.00  0.00    -0.336 C  
ENDROOT
BRANCH   4   7
HETATM    7  S   UNL     1      -8.846   2.898  69.333  1.00  0.00    -0.107 S  
HETATM    8  O   UNL     1      -8.916   2.282  68.027  1.00  0.00    -0.115 OA 
HETATM    9  N   UNL     1      -7.219   3.279  69.592  1.00  0.00    -0.041 N  
HETATM   10  O   UNL     1      -9.303   2.234  70.536  1.00  0.00    -0.116 OA 
HETATM   11  H1  UNL     1      -6.693   2.407  69.655  1.00  0.00     0.000 HD 
HETATM   12  H2  UNL     1      -6.829   4.219  69.671  1.00  0.00     0.000 HD 
ENDBRANCH   4   7
BRANCH   6  13
HETATM   13  N   UNL     1     -11.589   7.418  70.269  1.00  0.00    -0.478 N  
HETATM   14  H   UNL     1     -12.358   7.136  70.878  1.00  0.00     0.000 HD 
HETATM   15  C   UNL     1     -11.264   8.737  70.257  1.00  0.00    -0.195 C  
HETATM   16  C   UNL     1     -12.130   9.538  71.204  1.00  0.00    -0.429 C  
HETATM   17  O   UNL     1     -10.400   9.279  69.579  1.00  0.00    -0.200 OA 
ENDBRANCH   6  13
TORSDOF 2
ENDMDL
MODEL      143
REMARK 921   NORMALIZED FREE ENERGY PREDICTED BY IDOCK:   -2.72 KCAL/MOL
REMARK 922        TOTAL FREE ENERGY PREDICTED BY IDOCK:   -3.27 KCAL/MOL
REMARK 923 INTER-LIGAND FREE ENERGY PREDICTED BY IDOCK:   -3.10 KCAL/MOL
REMARK 924 INTRA-LIGAND FREE ENERGY PREDICTED BY IDOCK:   -0.17 KCAL/MOL
REMARK 927      BINDING AFFINITY PREDICTED BY RF-SCORE:    0.00 PKD
ROOT
HETATM    1  C   UNL     1      -8.894  13.983  68.906  1.00  0.00     0.062 C  
HETATM    2  N   UNL     1      -9.771  13.076  68.189  1.00  0.00    -0.224 NA 
HETATM    3  N   UNL     1      -9.269  12.586  66.988  1.00  0.00    -0.207 NA 
HETATM    4  C   UNL     1     -10.142  11.761  66.476  1.00  0.00    -0.203 C  
HETATM    5  S   UNL     1     -11.622  11.504  67.366  1.00  0.00    -0.148 SA 
HETATM    6  C   UNL     1     -11.021  12.636  68.599  1.00  0.00    -0.256 C  
ENDROOT
BRANCH   4   7
HETATM    7  S   UNL     1      -9.825  10.929  64.936  1.00  0.00    -0.310 S  
HETATM    8  O   UNL     1      -9.849   9.512  65.223  1.00  0.00    -0.282 OA 
HETATM    9  N   UNL     1     -11.129  11.226  63.899  1.00  0.00    -0.498 N  
HETATM   10  O   UNL     1      -8.680  11.589  64.345  1.00  0.00     0.280 OA 
HETATM   11  H1  UNL     1     -10.948  10.749  63.015  1.00  0.00     0.000 HD 
HETATM   12  H2  UNL     1     -11.954  11.785  64.118  1.00  0.00     0.000 HD 
ENDBRANCH   4   7
BRANCH   6  13
HETATM   13  N   UNL     1     -11.860  12.767  69.552  1.00  0.00    -0.320 N  
HETATM   14  H   UNL     1     -12.436  13.610  69.551  1.00  0.00     0.000 HD 
HETATM   15  C   UNL     1     -12.057  11.886  70.568  1.00  0.00    -0.331 C  
HETATM   16  C   UNL     1     -13.149  12.349  71.508  1.00  0.00    -0.362 C  
HETATM   17  O   UNL     1     -11.453  10.840  70.767  1.00  0.00    -0.306 OA 
ENDBRANCH   6  13
TORSDOF 2
ENDMDL
MODEL      144
REMARK 921   NORMALIZED FREE ENERGY PREDICTED BY IDOCK:   -2.71 KCAL/MOL
REMARK 922        TOTAL FREE ENERGY PREDICTED BY IDOCK:   -3.26 KCAL/MOL
REMARK 923 INTER-LIGAND FREE ENERGY PREDICTED BY IDOCK:   -3.07 KCAL/MOL
REMARK 924 INTRA-LIGAND FREE ENERGY PREDICTED BY IDOCK:   -0.19 KCAL/MOL
REMARK 927      BINDING AFFINITY PREDICTED BY RF-SCORE:    0.00 PKD
ROOT
HETATM    1  C   UNL     1     -10.330  12.822  64.654  1.00  0.00    -0.338 C  
HETATM    2  N   UNL     1      -9.902  13.431  65.899  1.00  0.00    -0.270 NA 
HETATM    3  N   UNL     1     -10.691  14.484  66.350  1.00  0.00    -0.303 NA 
HETATM    4  C   UNL     1     -10.213  14.907  67.489  1.00  0.00    -0.233 C  
HETATM    5  S   UNL     1      -8.794  14.102  68.113  1.00  0.00    -0.189 SA 
HETATM    6  C   UNL     1      -8.823  13.046  66.681  1.00  0.00    -0.073 C  
ENDROOT
BRANCH   4   7
HETATM    7  S   UNL     1     -10.986  16.246  68.368  1.00  0.00    -0.357 S  
HETATM    8  O   UNL     1     -12.264  15.751  68.828  1.00  0.00    -0.214 OA 
HETATM    9  N   UNL     1     -10.072  16.562  69.757  1.00  0.00    -0.101 N  
HETATM   10  O   UNL     1     -10.857  17.415  67.524  1.00  0.00    -0.315 OA 
HETATM   11  H1  UNL     1     -10.515  17.331  70.261  1.00  0.00     0.000 HD 
HETATM   12  H2  UNL     1      -9.225  16.070  70.041  1.00  0.00     0.000 HD 
ENDBRANCH   4   7
BRANCH   6  13
HETATM   13  N   UNL     1      -7.868  12.199  66.715  1.00  0.00    -0.366 N  
HETATM   14  H   UNL     1      -7.038  12.413  66.162  1.00  0.00     0.000 HD 
HETATM   15  C   UNL     1      -7.858  11.038  67.420  1.00  0.00    -0.118 C  
HETATM   16  C   UNL     1      -6.555  10.289  67.249  1.00  0.00    -0.068 C  
HETATM   17  O   UNL     1      -8.760  10.586  68.115  1.00  0.00    -0.125 OA 
ENDBRANCH   6  13
TORSDOF 2
ENDMDL
MODEL      145
REMARK 921   NORMALIZED FREE ENERGY PREDICTED BY IDOCK:   -2.71 KCAL/MOL
REMARK 922        TOTAL FREE ENERGY PREDICTED BY IDOCK:   -3.25 KCAL/MOL
REMARK 923 INTER-LIGAND FREE ENERGY PREDICTED BY IDOCK:   -3.01 KCAL/MOL
REMARK 924 INTRA-LIGAND FREE ENERGY PREDICTED BY IDOCK:   -0.25 KCAL/MOL
REMARK 927      BINDING AFFINITY PREDICTED BY RF-SCORE:    0.00 PKD
ROOT
HETATM    1  C   UNL     1      -7.931   9.014  69.140  1.00  0.00    -0.101 C  
HETATM    2  N   UNL     1      -8.945   7.990  68.968  1.00  0.00    -0.145 NA 
HETATM    3  N   UNL     1      -8.590   6.933  68.137  1.00  0.00    -0.124 NA 
HETATM    4  C   UNL     1      -9.576   6.077  68.105  1.00  0.00    -0.118 C  
HETATM    5  S   UNL     1     -10.998   6.456  69.045  1.00  0.00    -0.352 SA 
HETATM    6  C   UNL     1     -10.194   7.953  69.570  1.00  0.00    -0.208 C  
ENDROOT
BRANCH   4   7
HETATM    7  S   UNL     1      -9.466   4.585  67.144  1.00  0.00    -0.175 S  
HETATM    8  O   UNL     1     -10.413   4.724  66.060  1.00  0.00    -0.287 OA 
HETATM    9  N   UNL     1      -7.933   4.529  66.430  1.00  0.00    -0.102 N  
HETATM   10  O   UNL     1      -9.513   3.489  68.088  1.00  0.00    -0.181 OA 
HETATM   11  H1  UNL     1      -7.869   3.673  65.879  1.00  0.00     0.000 HD 
HETATM   12  H2  UNL     1      -7.199   5.229  66.533  1.00  0.00     0.000 HD 
ENDBRANCH   4   7
BRANCH   6  13
HETATM   13  N   UNL     1     -10.938   8.621  70.364  1.00  0.00    -0.235 N  
HETATM   14  H   UNL     1     -11.150   8.197  71.268  1.00  0.00     0.000 HD 
HETATM   15  C   UNL     1     -11.472   9.846  70.117  1.00  0.00    -0.248 C  
HETATM   16  C   UNL     1     -12.283  10.352  71.289  1.00  0.00    -0.491 C  
HETATM   17  O   UNL     1     -11.364  10.506  69.091  1.00  0.00    -0.242 OA 
ENDBRANCH   6  13
TORSDOF 2
ENDMDL
MODEL      146
REMARK 921   NORMALIZED FREE ENERGY PREDICTED BY IDOCK:   -2.70 KCAL/MOL
REMARK 922        TOTAL FREE ENERGY PREDICTED BY IDOCK:   -3.24 KCAL/MOL
REMARK 923 INTER-LIGAND FREE ENERGY PREDICTED BY IDOCK:   -2.99 KCAL/MOL
REMARK 924 INTRA-LIGAND FREE ENERGY PREDICTED BY IDOCK:   -0.25 KCAL/MOL
REMARK 927      BINDING AFFINITY PREDICTED BY RF-SCORE:    0.00 PKD
ROOT
HETATM    1  C   UNL     1      -9.900   5.655  71.768  1.00  0.00    -0.168 C  
HETATM    2  N   UNL     1      -9.993   6.541  70.623  1.00  0.00    -0.184 NA 
HETATM    3  N   UNL     1      -9.268   6.147  69.504  1.00  0.00    -0.138 NA 
HETATM    4  C   UNL     1      -9.473   7.012  68.547  1.00  0.00    -0.134 C  
HETATM    5  S   UNL     1     -10.529   8.359  68.896  1.00  0.00    -0.148 SA 
HETATM    6  C   UNL     1     -10.748   7.701  70.534  1.00  0.00    -0.236 C  
ENDROOT
BRANCH   4   7
HETATM    7  S   UNL     1      -8.709   6.817  66.953  1.00  0.00    -0.121 S  
HETATM    8  O   UNL     1      -8.920   8.059  66.243  1.00  0.00    -0.154 OA 
HETATM    9  N   UNL     1      -7.039   6.679  67.182  1.00  0.00    -0.074 N  
HETATM   10  O   UNL     1      -9.155   5.539  66.442  1.00  0.00    -0.135 OA 
HETATM   11  H1  UNL     1      -6.600   6.566  66.268  1.00  0.00     0.000 HD 
HETATM   12  H2  UNL     1      -6.553   6.703  68.079  1.00  0.00     0.000 HD 
ENDBRANCH   4   7
BRANCH   6  13
HETATM   13  N   UNL     1     -11.536   8.433  71.222  1.00  0.00    -0.276 N  
HETATM   14  H   UNL     1     -11.204   9.364  71.475  1.00  0.00     0.000 HD 
HETATM   15  C   UNL     1     -12.779   8.085  71.649  1.00  0.00    -0.326 C  
HETATM   16  C   UNL     1     -13.442   9.205  72.419  1.00  0.00    -0.535 C  
HETATM   17  O   UNL     1     -13.345   7.012  71.480  1.00  0.00    -0.366 OA 
ENDBRANCH   6  13
TORSDOF 2
ENDMDL
MODEL      147
REMARK 921   NORMALIZED FREE ENERGY PREDICTED BY IDOCK:   -2.68 KCAL/MOL
REMARK 922        TOTAL FREE ENERGY PREDICTED BY IDOCK:   -3.23 KCAL/MOL
REMARK 923 INTER-LIGAND FREE ENERGY PREDICTED BY IDOCK:   -2.97 KCAL/MOL
REMARK 924 INTRA-LIGAND FREE ENERGY PREDICTED BY IDOCK:   -0.25 KCAL/MOL
REMARK 927      BINDING AFFINITY PREDICTED BY RF-SCORE:    0.00 PKD
ROOT
HETATM    1  C   UNL     1      -7.028   9.859  68.799  1.00  0.00    -0.062 C  
HETATM    2  N   UNL     1      -8.460   9.751  69.008  1.00  0.00    -0.128 NA 
HETATM    3  N   UNL     1      -8.856   8.816  69.957  1.00  0.00    -0.139 NA 
HETATM    4  C   UNL     1     -10.157   8.853  70.065  1.00  0.00    -0.192 C  
HETATM    5  S   UNL     1     -11.013   9.989  69.051  1.00  0.00    -0.186 SA 
HETATM    6  C   UNL     1      -9.446  10.503  68.384  1.00  0.00    -0.157 C  
ENDROOT
BRANCH   4   7
HETATM    7  S   UNL     1     -11.015   7.793  71.206  1.00  0.00    -0.238 S  
HETATM    8  O   UNL     1     -11.381   8.617  72.336  1.00  0.00    -0.359 OA 
HETATM    9  N   UNL     1     -12.466   7.306  70.484  1.00  0.00    -0.589 N  
HETATM   10  O   UNL     1     -10.207   6.599  71.337  1.00  0.00    -0.198 OA 
HETATM   11  H1  UNL     1     -12.958   6.697  71.138  1.00  0.00     0.000 HD 
HETATM   12  H2  UNL     1     -12.792   7.574  69.555  1.00  0.00     0.000 HD 
ENDBRANCH   4   7
BRANCH   6  13
HETATM   13  N   UNL     1      -9.596  11.426  67.515  1.00  0.00    -0.166 N  
HETATM   14  H   UNL     1      -9.998  11.156  66.617  1.00  0.00     0.000 HD 
HETATM   15  C   UNL     1      -9.269  12.735  67.678  1.00  0.00    -0.192 C  
HETATM   16  C   UNL     1      -9.606  13.553  66.451  1.00  0.00    -0.268 C  
HETATM   17  O   UNL     1      -8.751  13.251  68.660  1.00  0.00    -0.099 OA 
ENDBRANCH   6  13
TORSDOF 2
ENDMDL
MODEL      148
REMARK 921   NORMALIZED FREE ENERGY PREDICTED BY IDOCK:   -2.66 KCAL/MOL
REMARK 922        TOTAL FREE ENERGY PREDICTED BY IDOCK:   -3.20 KCAL/MOL
REMARK 923 INTER-LIGAND FREE ENERGY PREDICTED BY IDOCK:   -2.95 KCAL/MOL
REMARK 924 INTRA-LIGAND FREE ENERGY PREDICTED BY IDOCK:   -0.25 KCAL/MOL
REMARK 927      BINDING AFFINITY PREDICTED BY RF-SCORE:    0.00 PKD
ROOT
HETATM    1  C   UNL     1      -9.787   8.102  66.928  1.00  0.00    -0.247 C  
HETATM    2  N   UNL     1      -9.645   8.432  68.334  1.00  0.00    -0.146 NA 
HETATM    3  N   UNL     1     -10.750   8.147  69.128  1.00  0.00    -0.158 NA 
HETATM    4  C   UNL     1     -10.469   8.459  70.365  1.00  0.00    -0.214 C  
HETATM    5  S   UNL     1      -8.884   9.119  70.685  1.00  0.00    -0.238 SA 
HETATM    6  C   UNL     1      -8.521   8.963  68.950  1.00  0.00    -0.131 C  
ENDROOT
BRANCH   4   7
HETATM    7  S   UNL     1     -11.655   8.214  71.667  1.00  0.00    -0.296 S  
HETATM    8  O   UNL     1     -12.223   9.513  71.953  1.00  0.00    -0.374 OA 
HETATM    9  N   UNL     1     -12.918   7.267  71.058  1.00  0.00    -0.592 N  
HETATM   10  O   UNL     1     -10.995   7.411  72.673  1.00  0.00    -0.266 OA 
HETATM   11  H1  UNL     1     -13.599   7.126  71.805  1.00  0.00     0.000 HD 
HETATM   12  H2  UNL     1     -12.987   6.900  70.109  1.00  0.00     0.000 HD 
ENDBRANCH   4   7
BRANCH   6  13
HETATM   13  N   UNL     1      -7.336   9.361  68.690  1.00  0.00    -0.075 N  
HETATM   14  H   UNL     1      -6.569   8.745  68.964  1.00  0.00     0.000 HD 
HETATM   15  C   UNL     1      -7.002  10.528  68.081  1.00  0.00    -0.073 C  
HETATM   16  C   UNL     1      -5.505  10.665  67.910  1.00  0.00    -0.039 C  
HETATM   17  O   UNL     1      -7.764  11.411  67.706  1.00  0.00    -0.106 OA 
ENDBRANCH   6  13
TORSDOF 2
ENDMDL
MODEL      149
REMARK 921   NORMALIZED FREE ENERGY PREDICTED BY IDOCK:   -2.61 KCAL/MOL
REMARK 922        TOTAL FREE ENERGY PREDICTED BY IDOCK:   -3.14 KCAL/MOL
REMARK 923 INTER-LIGAND FREE ENERGY PREDICTED BY IDOCK:   -2.94 KCAL/MOL
REMARK 924 INTRA-LIGAND FREE ENERGY PREDICTED BY IDOCK:   -0.20 KCAL/MOL
REMARK 927      BINDING AFFINITY PREDICTED BY RF-SCORE:    0.00 PKD
ROOT
HETATM    1  C   UNL     1      -9.664   9.209  68.506  1.00  0.00    -0.155 C  
HETATM    2  N   UNL     1      -9.869   7.878  69.046  1.00  0.00    -0.167 NA 
HETATM    3  N   UNL     1      -9.005   6.901  68.565  1.00  0.00    -0.123 NA 
HETATM    4  C   UNL     1      -9.279   5.770  69.159  1.00  0.00    -0.120 C  
HETATM    5  S   UNL     1     -10.581   5.772  70.324  1.00  0.00    -0.306 SA 
HETATM    6  C   UNL     1     -10.805   7.507  70.000  1.00  0.00    -0.249 C  
ENDROOT
BRANCH   4   7
HETATM    7  S   UNL     1      -8.357   4.294  68.797  1.00  0.00    -0.083 S  
HETATM    8  O   UNL     1      -7.022   4.508  69.310  1.00  0.00    -0.048 OA 
HETATM    9  N   UNL     1      -9.015   3.025  69.701  1.00  0.00    -0.089 N  
HETATM   10  O   UNL     1      -8.620   3.981  67.408  1.00  0.00    -0.098 OA 
HETATM   11  H1  UNL     1      -8.487   2.178  69.493  1.00  0.00     0.000 HD 
HETATM   12  H2  UNL     1      -9.805   3.094  70.343  1.00  0.00     0.000 HD 
ENDBRANCH   4   7
BRANCH   6  13
HETATM   13  N   UNL     1     -11.748   7.990  70.712  1.00  0.00    -0.405 N  
HETATM   14  H   UNL     1     -12.667   8.068  70.274  1.00  0.00     0.000 HD 
HETATM   15  C   UNL     1     -11.640   8.410  72.000  1.00  0.00    -0.351 C  
HETATM   16  C   UNL     1     -12.964   8.903  72.542  1.00  0.00    -0.415 C  
HETATM   17  O   UNL     1     -10.628   8.430  72.689  1.00  0.00    -0.332 OA 
ENDBRANCH   6  13
TORSDOF 2
ENDMDL
MODEL      150
REMARK 921   NORMALIZED FREE ENERGY PREDICTED BY IDOCK:   -2.57 KCAL/MOL
REMARK 922        TOTAL FREE ENERGY PREDICTED BY IDOCK:   -3.11 KCAL/MOL
REMARK 923 INTER-LIGAND FREE ENERGY PREDICTED BY IDOCK:   -2.87 KCAL/MOL
REMARK 924 INTRA-LIGAND FREE ENERGY PREDICTED BY IDOCK:   -0.23 KCAL/MOL
REMARK 927      BINDING AFFINITY PREDICTED BY RF-SCORE:    0.00 PKD
ROOT
HETATM    1  C   UNL     1     -10.754   5.933  70.300  1.00  0.00    -0.313 C  
HETATM    2  N   UNL     1     -10.246   7.292  70.271  1.00  0.00    -0.197 NA 
HETATM    3  N   UNL     1     -11.166   8.265  69.898  1.00  0.00    -0.107 NA 
HETATM    4  C   UNL     1     -10.585   9.434  69.952  1.00  0.00    -0.234 C  
HETATM    5  S   UNL     1      -8.908   9.473  70.437  1.00  0.00    -0.187 SA 
HETATM    6  C   UNL     1      -8.964   7.703  70.605  1.00  0.00    -0.153 C  
ENDROOT
BRANCH   4   7
HETATM    7  S   UNL     1     -11.473  10.921  69.550  1.00  0.00    -0.330 S  
HETATM    8  O   UNL     1     -12.266  11.251  70.713  1.00  0.00    -0.356 OA 
HETATM    9  N   UNL     1     -10.350  12.174  69.370  1.00  0.00    -0.335 N  
HETATM   10  O   UNL     1     -12.054  10.707  68.242  1.00  0.00    -0.423 OA 
HETATM   11  H1  UNL     1     -10.859  13.027  69.140  1.00  0.00     0.000 HD 
HETATM   12  H2  UNL     1      -9.339  12.091  69.474  1.00  0.00     0.000 HD 
ENDBRANCH   4   7
BRANCH   6  13
HETATM   13  N   UNL     1      -7.838   7.241  70.992  1.00  0.00    -0.096 N  
HETATM   14  H   UNL     1      -7.653   7.252  71.996  1.00  0.00     0.000 HD 
HETATM   15  C   UNL     1      -6.865   6.736  70.190  1.00  0.00    -0.061 C  
HETATM   16  C   UNL     1      -5.673   6.256  70.988  1.00  0.00    -0.026 C  
HETATM   17  O   UNL     1      -6.879   6.662  68.968  1.00  0.00    -0.054 OA 
ENDBRANCH   6  13
TORSDOF 2
ENDMDL
MODEL      151
REMARK 921   NORMALIZED FREE ENERGY PREDICTED BY IDOCK:   -2.53 KCAL/MOL
REMARK 922        TOTAL FREE ENERGY PREDICTED BY IDOCK:   -3.05 KCAL/MOL
REMARK 923 INTER-LIGAND FREE ENERGY PREDICTED BY IDOCK:   -2.83 KCAL/MOL
REMARK 924 INTRA-LIGAND FREE ENERGY PREDICTED BY IDOCK:   -0.23 KCAL/MOL
REMARK 927      BINDING AFFINITY PREDICTED BY RF-SCORE:    0.00 PKD
ROOT
HETATM    1  C   UNL     1      -9.335   9.732  69.238  1.00  0.00    -0.191 C  
HETATM    2  N   UNL     1      -9.590   8.398  68.725  1.00  0.00    -0.148 NA 
HETATM    3  N   UNL     1      -8.658   7.925  67.808  1.00  0.00    -0.128 NA 
HETATM    4  C   UNL     1      -8.991   6.710  67.463  1.00  0.00    -0.114 C  
HETATM    5  S   UNL     1     -10.431   6.037  68.187  1.00  0.00    -0.258 SA 
HETATM    6  C   UNL     1     -10.635   7.559  69.083  1.00  0.00    -0.197 C  
ENDROOT
BRANCH   4   7
HETATM    7  S   UNL     1      -8.010   5.782  66.306  1.00  0.00    -0.103 S  
HETATM    8  O   UNL     1      -8.602   5.994  65.004  1.00  0.00    -0.130 OA 
HETATM    9  N   UNL     1      -6.468   6.477  66.245  1.00  0.00    -0.042 N  
HETATM   10  O   UNL     1      -7.838   4.465  66.882  1.00  0.00    -0.096 OA 
HETATM   11  H1  UNL     1      -5.905   5.945  65.582  1.00  0.00     0.000 HD 
HETATM   12  H2  UNL     1      -6.155   7.287  66.780  1.00  0.00     0.000 HD 
ENDBRANCH   4   7
BRANCH   6  13
HETATM   13  N   UNL     1     -11.668   7.518  69.832  1.00  0.00    -0.463 N  
HETATM   14  H   UNL     1     -12.542   7.866  69.437  1.00  0.00     0.000 HD 
HETATM   15  C   UNL     1     -11.710   7.052  71.107  1.00  0.00    -0.325 C  
HETATM   16  C   UNL     1     -13.105   7.129  71.688  1.00  0.00    -0.410 C  
HETATM   17  O   UNL     1     -10.773   6.623  71.769  1.00  0.00    -0.221 OA 
ENDBRANCH   6  13
TORSDOF 2
ENDMDL
MODEL      152
REMARK 921   NORMALIZED FREE ENERGY PREDICTED BY IDOCK:   -2.51 KCAL/MOL
REMARK 922        TOTAL FREE ENERGY PREDICTED BY IDOCK:   -3.03 KCAL/MOL
REMARK 923 INTER-LIGAND FREE ENERGY PREDICTED BY IDOCK:   -2.79 KCAL/MOL
REMARK 924 INTRA-LIGAND FREE ENERGY PREDICTED BY IDOCK:   -0.25 KCAL/MOL
REMARK 927      BINDING AFFINITY PREDICTED BY RF-SCORE:    0.00 PKD
ROOT
HETATM    1  C   UNL     1     -10.924   3.343  73.433  1.00  0.00    -0.206 C  
HETATM    2  N   UNL     1     -10.430   4.582  72.861  1.00  0.00    -0.183 NA 
HETATM    3  N   UNL     1     -11.408   5.467  72.423  1.00  0.00    -0.261 NA 
HETATM    4  C   UNL     1     -10.824   6.545  71.970  1.00  0.00    -0.234 C  
HETATM    5  S   UNL     1      -9.079   6.592  72.020  1.00  0.00    -0.138 SA 
HETATM    6  C   UNL     1      -9.102   4.968  72.745  1.00  0.00    -0.130 C  
ENDROOT
BRANCH   4   7
HETATM    7  S   UNL     1     -11.775   7.907  71.336  1.00  0.00    -0.288 S  
HETATM    8  O   UNL     1     -11.378   9.072  72.095  1.00  0.00    -0.357 OA 
HETATM    9  N   UNL     1     -11.290   8.191  69.740  1.00  0.00    -0.453 N  
HETATM   10  O   UNL     1     -13.146   7.448  71.267  1.00  0.00    -0.349 OA 
HETATM   11  H1  UNL     1     -11.836   8.972  69.376  1.00  0.00     0.000 HD 
HETATM   12  H2  UNL     1     -10.576   7.671  69.230  1.00  0.00     0.000 HD 
ENDBRANCH   4   7
BRANCH   6  13
HETATM   13  N   UNL     1      -7.919   4.556  72.989  1.00  0.00    -0.094 N  
HETATM   14  H   UNL     1      -7.461   4.926  73.822  1.00  0.00     0.000 HD 
HETATM   15  C   UNL     1      -7.214   3.668  72.239  1.00  0.00    -0.048 C  
HETATM   16  C   UNL     1      -5.853   3.387  72.835  1.00  0.00    -0.008 C  
HETATM   17  O   UNL     1      -7.569   3.136  71.195  1.00  0.00    -0.040 OA 
ENDBRANCH   6  13
TORSDOF 2
ENDMDL
MODEL      153
REMARK 921   NORMALIZED FREE ENERGY PREDICTED BY IDOCK:   -2.48 KCAL/MOL
REMARK 922        TOTAL FREE ENERGY PREDICTED BY IDOCK:   -3.01 KCAL/MOL
REMARK 923 INTER-LIGAND FREE ENERGY PREDICTED BY IDOCK:   -2.92 KCAL/MOL
REMARK 924 INTRA-LIGAND FREE ENERGY PREDICTED BY IDOCK:   -0.08 KCAL/MOL
REMARK 927      BINDING AFFINITY PREDICTED BY RF-SCORE:    0.00 PKD
ROOT
HETATM    1  C   UNL     1      -9.765   5.201  66.256  1.00  0.00    -0.174 C  
HETATM    2  N   UNL     1      -9.870   6.312  67.183  1.00  0.00    -0.133 NA 
HETATM    3  N   UNL     1      -9.859   5.967  68.530  1.00  0.00    -0.125 NA 
HETATM    4  C   UNL     1      -9.922   7.061  69.242  1.00  0.00    -0.162 C  
HETATM    5  S   UNL     1     -10.008   8.576  68.379  1.00  0.00    -0.193 SA 
HETATM    6  C   UNL     1      -9.946   7.658  66.856  1.00  0.00    -0.255 C  
ENDROOT
BRANCH   4   7
HETATM    7  S   UNL     1      -9.916   7.001  71.020  1.00  0.00    -0.187 S  
HETATM    8  O   UNL     1      -8.595   6.557  71.409  1.00  0.00    -0.125 OA 
HETATM    9  N   UNL     1     -10.077   8.581  71.601  1.00  0.00    -0.241 N  
HETATM   10  O   UNL     1     -11.122   6.301  71.408  1.00  0.00    -0.263 OA 
HETATM   11  H1  UNL     1     -10.073   8.547  72.621  1.00  0.00     0.000 HD 
HETATM   12  H2  UNL     1     -10.163   9.423  71.032  1.00  0.00     0.000 HD 
ENDBRANCH   4   7
BRANCH   6  13
HETATM   13  N   UNL     1      -9.977   8.438  65.847  1.00  0.00    -0.416 N  
HETATM   14  H   UNL     1     -10.833   8.444  65.291  1.00  0.00     0.000 HD 
HETATM   15  C   UNL     1      -8.975   9.263  65.444  1.00  0.00    -0.207 C  
HETATM   16  C   UNL     1      -9.364  10.064  64.222  1.00  0.00    -0.345 C  
HETATM   17  O   UNL     1      -7.867   9.382  65.952  1.00  0.00    -0.098 OA 
ENDBRANCH   6  13
TORSDOF 2
ENDMDL
MODEL      154
REMARK 921   NORMALIZED FREE ENERGY PREDICTED BY IDOCK:   -2.46 KCAL/MOL
REMARK 922        TOTAL FREE ENERGY PREDICTED BY IDOCK:   -2.97 KCAL/MOL
REMARK 923 INTER-LIGAND FREE ENERGY PREDICTED BY IDOCK:   -2.75 KCAL/MOL
REMARK 924 INTRA-LIGAND FREE ENERGY PREDICTED BY IDOCK:   -0.23 KCAL/MOL
REMARK 927      BINDING AFFINITY PREDICTED BY RF-SCORE:    0.00 PKD
ROOT
HETATM    1  C   UNL     1      -7.064   6.853  66.920  1.00  0.00    -0.075 C  
HETATM    2  N   UNL     1      -8.371   6.731  67.539  1.00  0.00    -0.122 NA 
HETATM    3  N   UNL     1      -8.467   7.235  68.831  1.00  0.00    -0.126 NA 
HETATM    4  C   UNL     1      -9.698   7.093  69.245  1.00  0.00    -0.159 C  
HETATM    5  S   UNL     1     -10.832   6.348  68.146  1.00  0.00    -0.307 SA 
HETATM    6  C   UNL     1      -9.515   6.201  66.960  1.00  0.00    -0.129 C  
ENDROOT
BRANCH   4   7
HETATM    7  S   UNL     1     -10.192   7.643  70.863  1.00  0.00    -0.199 S  
HETATM    8  O   UNL     1     -11.607   7.366  70.974  1.00  0.00    -0.275 OA 
HETATM    9  N   UNL     1      -9.425   6.665  72.010  1.00  0.00    -0.150 N  
HETATM   10  O   UNL     1      -9.640   8.971  71.027  1.00  0.00    -0.231 OA 
HETATM   11  H1  UNL     1      -9.708   6.981  72.938  1.00  0.00     0.000 HD 
HETATM   12  H2  UNL     1      -8.788   5.894  71.810  1.00  0.00     0.000 HD 
ENDBRANCH   4   7
BRANCH   6  13
HETATM   13  N   UNL     1      -9.926   5.662  65.879  1.00  0.00    -0.377 N  
HETATM   14  H   UNL     1     -10.303   6.285  65.164  1.00  0.00     0.000 HD 
HETATM   15  C   UNL     1      -9.907   4.334  65.593  1.00  0.00    -0.218 C  
HETATM   16  C   UNL     1     -10.450   4.049  64.210  1.00  0.00    -0.207 C  
HETATM   17  O   UNL     1      -9.527   3.426  66.322  1.00  0.00    -0.173 OA 
ENDBRANCH   6  13
TORSDOF 2
ENDMDL
MODEL      155
REMARK 921   NORMALIZED FREE ENERGY PREDICTED BY IDOCK:   -2.45 KCAL/MOL
REMARK 922        TOTAL FREE ENERGY PREDICTED BY IDOCK:   -2.97 KCAL/MOL
REMARK 923 INTER-LIGAND FREE ENERGY PREDICTED BY IDOCK:   -2.74 KCAL/MOL
REMARK 924 INTRA-LIGAND FREE ENERGY PREDICTED BY IDOCK:   -0.23 KCAL/MOL
REMARK 927      BINDING AFFINITY PREDICTED BY RF-SCORE:    0.00 PKD
ROOT
HETATM    1  C   UNL     1      -6.968   7.303  67.870  1.00  0.00    -0.076 C  
HETATM    2  N   UNL     1      -8.240   7.129  68.545  1.00  0.00    -0.124 NA 
HETATM    3  N   UNL     1      -8.606   8.160  69.403  1.00  0.00    -0.134 NA 
HETATM    4  C   UNL     1      -9.779   7.888  69.908  1.00  0.00    -0.176 C  
HETATM    5  S   UNL     1     -10.538   6.394  69.415  1.00  0.00    -0.289 SA 
HETATM    6  C   UNL     1      -9.121   6.068  68.390  1.00  0.00    -0.112 C  
ENDROOT
BRANCH   4   7
HETATM    7  S   UNL     1     -10.570   9.003  71.046  1.00  0.00    -0.299 S  
HETATM    8  O   UNL     1      -9.660   9.165  72.159  1.00  0.00    -0.276 OA 
HETATM    9  N   UNL     1     -10.689  10.518  70.304  1.00  0.00    -0.454 N  
HETATM   10  O   UNL     1     -11.926   8.524  71.209  1.00  0.00    -0.288 OA 
HETATM   11  H1  UNL     1     -11.142  11.158  70.957  1.00  0.00     0.000 HD 
HETATM   12  H2  UNL     1     -10.363  10.753  69.366  1.00  0.00     0.000 HD 
ENDBRANCH   4   7
BRANCH   6  13
HETATM   13  N   UNL     1      -9.251   4.964  67.763  1.00  0.00    -0.117 N  
HETATM   14  H   UNL     1      -9.348   4.119  68.327  1.00  0.00     0.000 HD 
HETATM   15  C   UNL     1      -9.273   4.811  66.413  1.00  0.00    -0.135 C  
HETATM   16  C   UNL     1      -9.467   3.364  66.015  1.00  0.00    -0.121 C  
HETATM   17  O   UNL     1      -9.143   5.687  65.568  1.00  0.00    -0.144 OA 
ENDBRANCH   6  13
TORSDOF 2
ENDMDL
MODEL      156
REMARK 921   NORMALIZED FREE ENERGY PREDICTED BY IDOCK:   -2.37 KCAL/MOL
REMARK 922        TOTAL FREE ENERGY PREDICTED BY IDOCK:   -2.88 KCAL/MOL
REMARK 923 INTER-LIGAND FREE ENERGY PREDICTED BY IDOCK:   -2.68 KCAL/MOL
REMARK 924 INTRA-LIGAND FREE ENERGY PREDICTED BY IDOCK:   -0.20 KCAL/MOL
REMARK 927      BINDING AFFINITY PREDICTED BY RF-SCORE:    0.00 PKD
ROOT
HETATM    1  C   UNL     1      -6.973   9.283  70.169  1.00  0.00    -0.067 C  
HETATM    2  N   UNL     1      -8.082   9.300  69.233  1.00  0.00    -0.102 NA 
HETATM    3  N   UNL     1      -7.874  10.042  68.076  1.00  0.00    -0.089 NA 
HETATM    4  C   UNL     1      -8.932   9.938  67.317  1.00  0.00    -0.135 C  
HETATM    5  S   UNL     1     -10.254   8.965  67.912  1.00  0.00    -0.232 SA 
HETATM    6  C   UNL     1      -9.291   8.632  69.370  1.00  0.00    -0.150 C  
ENDROOT
BRANCH   4   7
HETATM    7  S   UNL     1      -9.014  10.753  65.738  1.00  0.00    -0.191 S  
HETATM    8  O   UNL     1     -10.156  10.197  65.048  1.00  0.00    -0.330 OA 
HETATM    9  N   UNL     1      -9.369  12.386  66.005  1.00  0.00    -0.401 N  
HETATM   10  O   UNL     1      -7.674  10.714  65.191  1.00  0.00    -0.102 OA 
HETATM   11  H1  UNL     1      -9.415  12.854  65.100  1.00  0.00     0.000 HD 
HETATM   12  H2  UNL     1      -9.511  12.827  66.914  1.00  0.00     0.000 HD 
ENDBRANCH   4   7
BRANCH   6  13
HETATM   13  N   UNL     1      -9.922   7.868  70.175  1.00  0.00    -0.189 N  
HETATM   14  H   UNL     1     -10.257   6.978  69.804  1.00  0.00     0.000 HD 
HETATM   15  C   UNL     1     -10.188   8.132  71.481  1.00  0.00    -0.206 C  
HETATM   16  C   UNL     1     -10.935   6.994  72.142  1.00  0.00    -0.267 C  
HETATM   17  O   UNL     1      -9.902   9.147  72.103  1.00  0.00    -0.217 OA 
ENDBRANCH   6  13
TORSDOF 2
ENDMDL
MODEL      157
REMARK 921   NORMALIZED FREE ENERGY PREDICTED BY IDOCK:   -2.37 KCAL/MOL
REMARK 922        TOTAL FREE ENERGY PREDICTED BY IDOCK:   -2.88 KCAL/MOL
REMARK 923 INTER-LIGAND FREE ENERGY PREDICTED BY IDOCK:   -2.65 KCAL/MOL
REMARK 924 INTRA-LIGAND FREE ENERGY PREDICTED BY IDOCK:   -0.23 KCAL/MOL
REMARK 927      BINDING AFFINITY PREDICTED BY RF-SCORE:    0.00 PKD
ROOT
HETATM    1  C   UNL     1      -6.091  11.515  66.945  1.00  0.00    -0.146 C  
HETATM    2  N   UNL     1      -7.228  12.395  67.142  1.00  0.00    -0.120 NA 
HETATM    3  N   UNL     1      -6.921  13.744  67.284  1.00  0.00    -0.136 NA 
HETATM    4  C   UNL     1      -8.034  14.415  67.416  1.00  0.00    -0.201 C  
HETATM    5  S   UNL     1      -9.525  13.507  67.389  1.00  0.00    -0.234 SA 
HETATM    6  C   UNL     1      -8.565  12.026  67.166  1.00  0.00    -0.182 C  
ENDROOT
BRANCH   4   7
HETATM    7  S   UNL     1      -8.023  16.183  67.609  1.00  0.00    -0.152 S  
HETATM    8  O   UNL     1      -9.407  16.603  67.614  1.00  0.00    -0.221 OA 
HETATM    9  N   UNL     1      -7.412  16.542  69.145  1.00  0.00    -0.232 N  
HETATM   10  O   UNL     1      -7.055  16.689  66.659  1.00  0.00    -0.218 OA 
HETATM   11  H1  UNL     1      -7.405  17.556  69.256  1.00  0.00     0.000 HD 
HETATM   12  H2  UNL     1      -7.103  15.863  69.840  1.00  0.00     0.000 HD 
ENDBRANCH   4   7
BRANCH   6  13
HETATM   13  N   UNL     1      -9.318  10.999  67.076  1.00  0.00    -0.170 N  
HETATM   14  H   UNL     1      -9.640  10.740  66.143  1.00  0.00     0.000 HD 
HETATM   15  C   UNL     1      -9.728  10.218  68.110  1.00  0.00    -0.143 C  
HETATM   16  C   UNL     1     -10.592   9.070  67.637  1.00  0.00    -0.298 C  
HETATM   17  O   UNL     1      -9.480  10.375  69.299  1.00  0.00    -0.201 OA 
ENDBRANCH   6  13
TORSDOF 2
ENDMDL
MODEL      158
REMARK 921   NORMALIZED FREE ENERGY PREDICTED BY IDOCK:   -2.28 KCAL/MOL
REMARK 922        TOTAL FREE ENERGY PREDICTED BY IDOCK:   -2.77 KCAL/MOL
REMARK 923 INTER-LIGAND FREE ENERGY PREDICTED BY IDOCK:   -2.54 KCAL/MOL
REMARK 924 INTRA-LIGAND FREE ENERGY PREDICTED BY IDOCK:   -0.24 KCAL/MOL
REMARK 927      BINDING AFFINITY PREDICTED BY RF-SCORE:    0.00 PKD
ROOT
HETATM    1  C   UNL     1      -9.102   6.622  65.754  1.00  0.00     0.035 C  
HETATM    2  N   UNL     1      -9.315   7.890  66.426  1.00  0.00    -0.192 NA 
HETATM    3  N   UNL     1      -9.291   7.841  67.815  1.00  0.00    -0.142 NA 
HETATM    4  C   UNL     1      -9.458   9.050  68.280  1.00  0.00    -0.146 C  
HETATM    5  S   UNL     1      -9.665  10.335  67.115  1.00  0.00    -0.178 SA 
HETATM    6  C   UNL     1      -9.504   9.125  65.821  1.00  0.00    -0.254 C  
ENDROOT
BRANCH   4   7
HETATM    7  S   UNL     1      -9.469   9.368  70.029  1.00  0.00    -0.244 S  
HETATM    8  O   UNL     1      -8.471  10.388  70.266  1.00  0.00     0.132 OA 
HETATM    9  N   UNL     1     -10.960  10.060  70.431  1.00  0.00    -0.301 N  
HETATM   10  O   UNL     1      -9.435   8.075  70.678  1.00  0.00    -0.161 OA 
HETATM   11  H1  UNL     1     -10.966  10.242  71.434  1.00  0.00     0.000 HD 
HETATM   12  H2  UNL     1     -11.721  10.260  69.782  1.00  0.00     0.000 HD 
ENDBRANCH   4   7
BRANCH   6  13
HETATM   13  N   UNL     1      -9.590   9.668  64.669  1.00  0.00    -0.436 N  
HETATM   14  H   UNL     1     -10.525   9.769  64.273  1.00  0.00     0.000 HD 
HETATM   15  C   UNL     1      -8.551  10.125  63.923  1.00  0.00    -0.193 C  
HETATM   16  C   UNL     1      -9.020  10.732  62.619  1.00  0.00    -0.326 C  
HETATM   17  O   UNL     1      -7.360  10.070  64.202  1.00  0.00    -0.131 OA 
ENDBRANCH   6  13
TORSDOF 2
ENDMDL
MODEL      159
REMARK 921   NORMALIZED FREE ENERGY PREDICTED BY IDOCK:   -2.25 KCAL/MOL
REMARK 922        TOTAL FREE ENERGY PREDICTED BY IDOCK:   -2.75 KCAL/MOL
REMARK 923 INTER-LIGAND FREE ENERGY PREDICTED BY IDOCK:   -2.51 KCAL/MOL
REMARK 924 INTRA-LIGAND FREE ENERGY PREDICTED BY IDOCK:   -0.24 KCAL/MOL
REMARK 927      BINDING AFFINITY PREDICTED BY RF-SCORE:    0.00 PKD
ROOT
HETATM    1  C   UNL     1     -11.145   6.709  67.856  1.00  0.00    -0.217 C  
HETATM    2  N   UNL     1     -10.217   7.801  67.629  1.00  0.00    -0.201 NA 
HETATM    3  N   UNL     1     -10.738   8.895  66.949  1.00  0.00    -0.176 NA 
HETATM    4  C   UNL     1      -9.810   9.808  66.850  1.00  0.00    -0.201 C  
HETATM    5  S   UNL     1      -8.249   9.443  67.545  1.00  0.00    -0.118 SA 
HETATM    6  C   UNL     1      -8.896   7.865  68.050  1.00  0.00    -0.124 C  
ENDROOT
BRANCH   4   7
HETATM    7  S   UNL     1     -10.130  11.360  66.043  1.00  0.00    -0.244 S  
HETATM    8  O   UNL     1      -8.910  12.132  66.141  1.00  0.00    -0.112 OA 
HETATM    9  N   UNL     1     -10.371  11.059  64.396  1.00  0.00    -0.339 N  
HETATM   10  O   UNL     1     -11.397  11.832  66.558  1.00  0.00    -0.325 OA 
HETATM   11  H1  UNL     1     -10.554  11.950  63.933  1.00  0.00     0.000 HD 
HETATM   12  H2  UNL     1     -10.338  10.146  63.943  1.00  0.00     0.000 HD 
ENDBRANCH   4   7
BRANCH   6  13
HETATM   13  N   UNL     1      -8.014   7.184  68.672  1.00  0.00    -0.122 N  
HETATM   14  H   UNL     1      -7.188   6.901  68.143  1.00  0.00     0.000 HD 
HETATM   15  C   UNL     1      -8.074   6.801  69.974  1.00  0.00    -0.125 C  
HETATM   16  C   UNL     1      -6.843   6.025  70.389  1.00  0.00    -0.054 C  
HETATM   17  O   UNL     1      -8.985   7.010  70.765  1.00  0.00    -0.149 OA 
ENDBRANCH   6  13
TORSDOF 2
ENDMDL
MODEL      160
REMARK 921   NORMALIZED FREE ENERGY PREDICTED BY IDOCK:   -1.88 KCAL/MOL
REMARK 922        TOTAL FREE ENERGY PREDICTED BY IDOCK:   -2.33 KCAL/MOL
REMARK 923 INTER-LIGAND FREE ENERGY PREDICTED BY IDOCK:   -2.10 KCAL/MOL
REMARK 924 INTRA-LIGAND FREE ENERGY PREDICTED BY IDOCK:   -0.23 KCAL/MOL
REMARK 927      BINDING AFFINITY PREDICTED BY RF-SCORE:    0.00 PKD
ROOT
HETATM    1  C   UNL     1     -10.418   5.305  67.078  1.00  0.00    -0.229 C  
HETATM    2  N   UNL     1      -9.469   6.310  66.638  1.00  0.00    -0.150 NA 
HETATM    3  N   UNL     1     -10.017   7.544  66.305  1.00  0.00    -0.031 NA 
HETATM    4  C   UNL     1      -9.051   8.354  65.965  1.00  0.00    -0.183 C  
HETATM    5  S   UNL     1      -7.423   7.721  66.006  1.00  0.00    -0.080 SA 
HETATM    6  C   UNL     1      -8.091   6.167  66.553  1.00  0.00    -0.110 C  
ENDROOT
BRANCH   4   7
HETATM    7  S   UNL     1      -9.385  10.034  65.488  1.00  0.00    -0.238 S  
HETATM    8  O   UNL     1      -8.100  10.673  65.310  1.00  0.00    -0.153 OA 
HETATM    9  N   UNL     1     -10.120  10.013  63.964  1.00  0.00    -0.442 N  
HETATM   10  O   UNL     1     -10.383  10.529  66.412  1.00  0.00    -0.232 OA 
HETATM   11  H1  UNL     1     -10.313  10.977  63.690  1.00  0.00     0.000 HD 
HETATM   12  H2  UNL     1     -10.335   9.181  63.414  1.00  0.00     0.000 HD 
ENDBRANCH   4   7
BRANCH   6  13
HETATM   13  N   UNL     1      -7.165   5.308  66.742  1.00  0.00    -0.076 N  
HETATM   14  H   UNL     1      -6.444   5.546  67.424  1.00  0.00     0.000 HD 
HETATM   15  C   UNL     1      -7.052   4.107  66.117  1.00  0.00    -0.067 C  
HETATM   16  C   UNL     1      -5.846   3.334  66.601  1.00  0.00    -0.023 C  
HETATM   17  O   UNL     1      -7.789   3.652  65.251  1.00  0.00    -0.084 OA 
ENDBRANCH   6  13
TORSDOF 2
ENDMDL
MODEL      161
REMARK 921   NORMALIZED FREE ENERGY PREDICTED BY IDOCK:   -1.85 KCAL/MOL
REMARK 922        TOTAL FREE ENERGY PREDICTED BY IDOCK:   -2.30 KCAL/MOL
REMARK 923 INTER-LIGAND FREE ENERGY PREDICTED BY IDOCK:   -2.05 KCAL/MOL
REMARK 924 INTRA-LIGAND FREE ENERGY PREDICTED BY IDOCK:   -0.25 KCAL/MOL
REMARK 927      BINDING AFFINITY PREDICTED BY RF-SCORE:    0.00 PKD
ROOT
HETATM    1  C   UNL     1      -6.050   8.735  66.454  1.00  0.00    -0.060 C  
HETATM    2  N   UNL     1      -7.471   8.643  66.735  1.00  0.00    -0.086 NA 
HETATM    3  N   UNL     1      -7.958   7.355  66.927  1.00  0.00    -0.113 NA 
HETATM    4  C   UNL     1      -9.232   7.426  67.205  1.00  0.00    -0.136 C  
HETATM    5  S   UNL     1      -9.954   9.016  67.255  1.00  0.00    -0.236 SA 
HETATM    6  C   UNL     1      -8.360   9.700  66.861  1.00  0.00    -0.117 C  
ENDROOT
BRANCH   4   7
HETATM    7  S   UNL     1     -10.186   5.960  67.525  1.00  0.00    -0.216 S  
HETATM    8  O   UNL     1     -11.007   5.742  66.354  1.00  0.00    -0.206 OA 
HETATM    9  N   UNL     1      -9.123   4.647  67.610  1.00  0.00    -0.113 N  
HETATM   10  O   UNL     1     -10.743   6.118  68.851  1.00  0.00    -0.244 OA 
HETATM   11  H1  UNL     1      -9.670   3.806  67.794  1.00  0.00     0.000 HD 
HETATM   12  H2  UNL     1      -8.110   4.688  67.498  1.00  0.00     0.000 HD 
ENDBRANCH   4   7
BRANCH   6  13
HETATM   13  N   UNL     1      -8.410  10.974  66.795  1.00  0.00    -0.141 N  
HETATM   14  H   UNL     1      -8.881  11.379  65.986  1.00  0.00     0.000 HD 
HETATM   15  C   UNL     1      -7.893  11.840  67.706  1.00  0.00    -0.135 C  
HETATM   16  C   UNL     1      -8.155  13.280  67.323  1.00  0.00    -0.150 C  
HETATM   17  O   UNL     1      -7.269  11.559  68.722  1.00  0.00    -0.098 OA 
ENDBRANCH   6  13
TORSDOF 2
ENDMDL
MODEL      162
REMARK 921   NORMALIZED FREE ENERGY PREDICTED BY IDOCK:   -1.82 KCAL/MOL
REMARK 922        TOTAL FREE ENERGY PREDICTED BY IDOCK:   -2.27 KCAL/MOL
REMARK 923 INTER-LIGAND FREE ENERGY PREDICTED BY IDOCK:   -2.03 KCAL/MOL
REMARK 924 INTRA-LIGAND FREE ENERGY PREDICTED BY IDOCK:   -0.24 KCAL/MOL
REMARK 927      BINDING AFFINITY PREDICTED BY RF-SCORE:    0.00 PKD
ROOT
HETATM    1  C   UNL     1     -10.021   4.440  66.289  1.00  0.00    -0.235 C  
HETATM    2  N   UNL     1      -9.486   5.582  67.007  1.00  0.00    -0.126 NA 
HETATM    3  N   UNL     1      -9.356   5.415  68.381  1.00  0.00    -0.111 NA 
HETATM    4  C   UNL     1      -8.832   6.499  68.887  1.00  0.00    -0.126 C  
HETATM    5  S   UNL     1      -8.461   7.801  67.782  1.00  0.00    -0.121 SA 
HETATM    6  C   UNL     1      -9.071   6.785  66.455  1.00  0.00    -0.151 C  
ENDROOT
BRANCH   4   7
HETATM    7  S   UNL     1      -8.508   6.636  70.630  1.00  0.00    -0.139 S  
HETATM    8  O   UNL     1      -9.297   7.751  71.107  1.00  0.00    -0.149 OA 
HETATM    9  N   UNL     1      -9.124   5.257  71.391  1.00  0.00    -0.143 N  
HETATM   10  O   UNL     1      -7.070   6.574  70.782  1.00  0.00    -0.066 OA 
HETATM   11  H1  UNL     1      -8.938   5.335  72.391  1.00  0.00     0.000 HD 
HETATM   12  H2  UNL     1      -9.600   4.481  70.931  1.00  0.00     0.000 HD 
ENDBRANCH   4   7
BRANCH   6  13
HETATM   13  N   UNL     1      -8.977   7.388  65.334  1.00  0.00    -0.376 N  
HETATM   14  H   UNL     1      -9.753   7.996  65.068  1.00  0.00     0.000 HD 
HETATM   15  C   UNL     1      -7.939   7.295  64.462  1.00  0.00    -0.112 C  
HETATM   16  C   UNL     1      -8.150   8.165  63.243  1.00  0.00    -0.121 C  
HETATM   17  O   UNL     1      -6.936   6.603  64.579  1.00  0.00    -0.050 OA 
ENDBRANCH   6  13
TORSDOF 2
ENDMDL
MODEL      163
REMARK 921   NORMALIZED FREE ENERGY PREDICTED BY IDOCK:    4.84 KCAL/MOL
REMARK 922        TOTAL FREE ENERGY PREDICTED BY IDOCK:    5.17 KCAL/MOL
REMARK 923 INTER-LIGAND FREE ENERGY PREDICTED BY IDOCK:    4.48 KCAL/MOL
REMARK 924 INTRA-LIGAND FREE ENERGY PREDICTED BY IDOCK:    0.69 KCAL/MOL
REMARK 927      BINDING AFFINITY PREDICTED BY RF-SCORE:    0.00 PKD
ROOT
HETATM    1  C   UNL     1      -8.186  16.485  71.150  1.00  0.00     6.030 C  
HETATM    2  N   UNL     1      -7.506  16.510  69.868  1.00  0.00     0.451 NA 
HETATM    3  N   UNL     1      -7.561  17.722  69.189  1.00  0.00    -0.130 NA 
HETATM    4  C   UNL     1      -6.881  17.610  68.079  1.00  0.00    -0.193 C  
HETATM    5  S   UNL     1      -6.132  16.067  67.749  1.00  0.00    -0.152 SA 
HETATM    6  C   UNL     1      -6.794  15.470  69.289  1.00  0.00    -0.160 C  
ENDROOT
BRANCH   4   7
HETATM    7  S   UNL     1      -6.724  18.980  66.956  1.00  0.00    -0.197 S  
HETATM    8  O   UNL     1      -7.891  19.810  67.157  1.00  0.00    -0.255 OA 
HETATM    9  N   UNL     1      -5.393  19.907  67.438  1.00  0.00    -0.167 N  
HETATM   10  O   UNL     1      -6.379  18.414  65.669  1.00  0.00    -0.226 OA 
HETATM   11  H1  UNL     1      -5.302  20.692  66.793  1.00  0.00     0.000 HD 
HETATM   12  H2  UNL     1      -4.785  19.713  68.234  1.00  0.00     0.000 HD 
ENDBRANCH   4   7
BRANCH   6  13
HETATM   13  N   UNL     1      -6.458  14.256  69.494  1.00  0.00    -0.125 N  
HETATM   14  H   UNL     1      -6.276  13.982  70.461  1.00  0.00     0.000 HD 
HETATM   15  C   UNL     1      -6.322  13.294  68.544  1.00  0.00    -0.083 C  
HETATM   16  C   UNL     1      -5.935  11.961  69.146  1.00  0.00    -0.072 C  
HETATM   17  O   UNL     1      -6.464  13.424  67.335  1.00  0.00    -0.239 OA 
ENDBRANCH   6  13
TORSDOF 2
ENDMDL
MODEL      164
REMARK 921   NORMALIZED FREE ENERGY PREDICTED BY IDOCK:    5.42 KCAL/MOL
REMARK 922        TOTAL FREE ENERGY PREDICTED BY IDOCK:    5.82 KCAL/MOL
REMARK 923 INTER-LIGAND FREE ENERGY PREDICTED BY IDOCK:    6.06 KCAL/MOL
REMARK 924 INTRA-LIGAND FREE ENERGY PREDICTED BY IDOCK:   -0.24 KCAL/MOL
REMARK 927      BINDING AFFINITY PREDICTED BY RF-SCORE:    0.00 PKD
ROOT
HETATM    1  C   UNL     1     -10.346  17.438  71.293  1.00  0.00     3.101 C  
HETATM    2  N   UNL     1      -9.767  16.552  70.299  1.00  0.00     0.899 NA 
HETATM    3  N   UNL     1     -10.065  15.203  70.458  1.00  0.00     0.127 NA 
HETATM    4  C   UNL     1      -9.513  14.535  69.480  1.00  0.00     0.279 C  
HETATM    5  S   UNL     1      -8.597  15.446  68.304  1.00  0.00    -0.163 SA 
HETATM    6  C   UNL     1      -8.991  16.924  69.211  1.00  0.00     0.035 C  
ENDROOT
BRANCH   4   7
HETATM    7  S   UNL     1      -9.697  12.771  69.355  1.00  0.00     1.275 S  
HETATM    8  O   UNL     1      -8.584  12.191  70.073  1.00  0.00     2.271 OA 
HETATM    9  N   UNL     1     -11.092  12.325  70.200  1.00  0.00    -0.193 N  
HETATM   10  O   UNL     1      -9.960  12.488  67.960  1.00  0.00    -0.206 OA 
HETATM   11  H1  UNL     1     -11.198  11.312  70.128  1.00  0.00     0.000 HD 
HETATM   12  H2  UNL     1     -11.720  12.957  70.696  1.00  0.00     0.000 HD 
ENDBRANCH   4   7
BRANCH   6  13
HETATM   13  N   UNL     1      -8.483  17.955  68.655  1.00  0.00    -0.292 N  
HETATM   14  H   UNL     1      -7.465  18.007  68.616  1.00  0.00     0.000 HD 
HETATM   15  C   UNL     1      -9.175  18.989  68.109  1.00  0.00    -0.323 C  
HETATM   16  C   UNL     1      -8.253  20.030  67.514  1.00  0.00    -0.369 C  
HETATM   17  O   UNL     1     -10.391  19.131  68.081  1.00  0.00    -0.381 OA 
ENDBRANCH   6  13
TORSDOF 2
ENDMDL
MODEL      165
REMARK 921   NORMALIZED FREE ENERGY PREDICTED BY IDOCK:    8.16 KCAL/MOL
REMARK 922        TOTAL FREE ENERGY PREDICTED BY IDOCK:    8.89 KCAL/MOL
REMARK 923 INTER-LIGAND FREE ENERGY PREDICTED BY IDOCK:    8.66 KCAL/MOL
REMARK 924 INTRA-LIGAND FREE ENERGY PREDICTED BY IDOCK:    0.23 KCAL/MOL
REMARK 927      BINDING AFFINITY PREDICTED BY RF-SCORE:    0.00 PKD
ROOT
HETATM    1  C   UNL     1      -8.155  14.978  72.067  1.00  0.00     5.569 C  
HETATM    2  N   UNL     1      -8.230  14.704  70.644  1.00  0.00     1.604 NA 
HETATM    3  N   UNL     1      -7.347  13.737  70.176  1.00  0.00     0.731 NA 
HETATM    4  C   UNL     1      -7.550  13.569  68.897  1.00  0.00    -0.002 C  
HETATM    5  S   UNL     1      -8.792  14.542  68.148  1.00  0.00    -0.184 SA 
HETATM    6  C   UNL     1      -9.105  15.280  69.735  1.00  0.00    -0.026 C  
ENDROOT
BRANCH   4   7
HETATM    7  S   UNL     1      -6.601  12.390  67.963  1.00  0.00    -0.095 S  
HETATM    8  O   UNL     1      -5.348  12.225  68.665  1.00  0.00    -0.053 OA 
HETATM    9  N   UNL     1      -7.390  10.895  68.043  1.00  0.00    -0.086 N  
HETATM   10  O   UNL     1      -6.674  12.813  66.581  1.00  0.00     0.239 OA 
HETATM   11  H1  UNL     1      -6.846  10.219  67.507  1.00  0.00     0.000 HD 
HETATM   12  H2  UNL     1      -8.260  10.703  68.540  1.00  0.00     0.000 HD 
ENDBRANCH   4   7
BRANCH   6  13
HETATM   13  N   UNL     1     -10.046  16.141  69.665  1.00  0.00    -0.243 N  
HETATM   14  H   UNL     1     -10.837  16.016  70.297  1.00  0.00     0.000 HD 
HETATM   15  C   UNL     1     -10.088  17.209  68.826  1.00  0.00    -0.329 C  
HETATM   16  C   UNL     1     -11.340  18.033  69.031  1.00  0.00     1.794 C  
HETATM   17  O   UNL     1      -9.261  17.516  67.977  1.00  0.00    -0.261 OA 
ENDBRANCH   6  13
TORSDOF 2
ENDMDL
