MODEL        1
REMARK 921   NORMALIZED FREE ENERGY PREDICTED BY IDOCK:   -4.90 KCAL/MOL
REMARK 922        TOTAL FREE ENERGY PREDICTED BY IDOCK:   -5.55 KCAL/MOL
REMARK 923 INTER-LIGAND FREE ENERGY PREDICTED BY IDOCK:   -5.47 KCAL/MOL
REMARK 924 INTRA-LIGAND FREE ENERGY PREDICTED BY IDOCK:   -0.08 KCAL/MOL
REMARK 927      BINDING AFFINITY PREDICTED BY RF-SCORE:    0.00 PKD
ROOT
HETATM    1  C   UNL     1     -11.796  11.836  69.859  1.00  0.00    -0.348 C  
HETATM    2  O   UNL     1     -11.816  12.867  68.869  1.00  0.00    -0.302 OA 
ENDROOT
BRANCH   2   3
HETATM    3  C   UNL     1     -11.779  12.406  67.593  1.00  0.00    -0.346 C  
HETATM    4  O   UNL     1     -11.812  11.232  67.259  1.00  0.00    -0.562 OA 
BRANCH   3   5
HETATM    5  C   UNL     1     -11.670  13.530  66.625  1.00  0.00    -0.425 A  
HETATM    6  C   UNL     1     -12.330  13.403  65.392  1.00  0.00    -0.522 A  
HETATM    7  C   UNL     1     -12.238  14.413  64.431  1.00  0.00    -0.481 A  
HETATM    8  C   UNL     1     -11.487  15.550  64.708  1.00  0.00    -0.313 A  
HETATM    9  O   UNL     1     -11.352  16.552  63.794  1.00  0.00    -1.553 OA 
HETATM   10  C   UNL     1     -10.841  15.700  65.931  1.00  0.00    -0.297 A  
HETATM   11  C   UNL     1     -10.930  14.690  66.892  1.00  0.00    -0.324 A  
HETATM   12  H   UNL     1     -10.839  17.329  63.983  1.00  0.00     0.000 HD 
ENDBRANCH   3   5
ENDBRANCH   2   3
TORSDOF 2
ENDMDL
MODEL        2
REMARK 921   NORMALIZED FREE ENERGY PREDICTED BY IDOCK:   -4.84 KCAL/MOL
REMARK 922        TOTAL FREE ENERGY PREDICTED BY IDOCK:   -5.48 KCAL/MOL
REMARK 923 INTER-LIGAND FREE ENERGY PREDICTED BY IDOCK:   -5.38 KCAL/MOL
REMARK 924 INTRA-LIGAND FREE ENERGY PREDICTED BY IDOCK:   -0.10 KCAL/MOL
REMARK 927      BINDING AFFINITY PREDICTED BY RF-SCORE:    0.00 PKD
ROOT
HETATM    1  C   UNL     1     -11.780  11.909  69.176  1.00  0.00    -0.319 C  
HETATM    2  O   UNL     1     -12.203  11.688  67.829  1.00  0.00    -0.560 OA 
ENDROOT
BRANCH   2   3
HETATM    3  C   UNL     1     -11.197  11.746  66.920  1.00  0.00    -0.327 C  
HETATM    4  O   UNL     1     -10.342  10.892  66.748  1.00  0.00    -0.222 OA 
BRANCH   3   5
HETATM    5  C   UNL     1     -11.250  13.019  66.150  1.00  0.00    -0.320 A  
HETATM    6  C   UNL     1     -12.323  13.208  65.265  1.00  0.00    -0.532 A  
HETATM    7  C   UNL     1     -12.409  14.369  64.493  1.00  0.00    -0.440 A  
HETATM    8  C   UNL     1     -11.419  15.339  64.610  1.00  0.00    -0.354 A  
HETATM    9  O   UNL     1     -11.450  16.478  63.862  1.00  0.00    -1.608 OA 
HETATM   10  C   UNL     1     -10.358  15.175  65.493  1.00  0.00    -0.399 A  
HETATM   11  C   UNL     1     -10.269  14.014  66.265  1.00  0.00    -0.300 A  
HETATM   12  H   UNL     1     -10.774  17.141  63.941  1.00  0.00     0.000 HD 
ENDBRANCH   3   5
ENDBRANCH   2   3
TORSDOF 2
ENDMDL
MODEL        3
REMARK 921   NORMALIZED FREE ENERGY PREDICTED BY IDOCK:   -4.81 KCAL/MOL
REMARK 922        TOTAL FREE ENERGY PREDICTED BY IDOCK:   -5.44 KCAL/MOL
REMARK 923 INTER-LIGAND FREE ENERGY PREDICTED BY IDOCK:   -5.37 KCAL/MOL
REMARK 924 INTRA-LIGAND FREE ENERGY PREDICTED BY IDOCK:   -0.07 KCAL/MOL
REMARK 927      BINDING AFFINITY PREDICTED BY RF-SCORE:    0.00 PKD
ROOT
HETATM    1  C   UNL     1     -11.655  11.033  68.834  1.00  0.00    -0.314 C  
HETATM    2  O   UNL     1     -12.101  11.594  67.597  1.00  0.00    -0.615 OA 
ENDROOT
BRANCH   2   3
HETATM    3  C   UNL     1     -11.141  11.652  66.640  1.00  0.00    -0.307 C  
HETATM    4  O   UNL     1     -10.287  10.803  66.436  1.00  0.00    -0.239 OA 
BRANCH   3   5
HETATM    5  C   UNL     1     -11.243  12.915  65.861  1.00  0.00    -0.323 A  
HETATM    6  C   UNL     1     -10.254  13.891  66.058  1.00  0.00    -0.317 A  
HETATM    7  C   UNL     1     -10.315  15.110  65.377  1.00  0.00    -0.415 A  
HETATM    8  C   UNL     1     -11.366  15.347  64.498  1.00  0.00    -0.313 A  
HETATM    9  O   UNL     1     -11.478  16.528  63.827  1.00  0.00    -1.615 OA 
HETATM   10  C   UNL     1     -12.345  14.384  64.278  1.00  0.00    -0.402 A  
HETATM   11  C   UNL     1     -12.287  13.165  64.960  1.00  0.00    -0.511 A  
HETATM   12  H   UNL     1     -12.197  16.690  63.227  1.00  0.00     0.000 HD 
ENDBRANCH   3   5
ENDBRANCH   2   3
TORSDOF 2
ENDMDL
MODEL        4
REMARK 921   NORMALIZED FREE ENERGY PREDICTED BY IDOCK:   -4.74 KCAL/MOL
REMARK 922        TOTAL FREE ENERGY PREDICTED BY IDOCK:   -5.37 KCAL/MOL
REMARK 923 INTER-LIGAND FREE ENERGY PREDICTED BY IDOCK:   -5.30 KCAL/MOL
REMARK 924 INTRA-LIGAND FREE ENERGY PREDICTED BY IDOCK:   -0.07 KCAL/MOL
REMARK 927      BINDING AFFINITY PREDICTED BY RF-SCORE:    0.00 PKD
ROOT
HETATM    1  C   UNL     1     -10.946  10.162  67.890  1.00  0.00    -0.277 C  
HETATM    2  O   UNL     1     -11.454  11.155  66.997  1.00  0.00    -0.442 OA 
ENDROOT
BRANCH   2   3
HETATM    3  C   UNL     1     -11.724  12.344  67.592  1.00  0.00    -0.346 C  
HETATM    4  O   UNL     1     -12.011  12.503  68.768  1.00  0.00    -0.310 OA 
BRANCH   3   5
HETATM    5  C   UNL     1     -11.647  13.459  66.610  1.00  0.00    -0.399 A  
HETATM    6  C   UNL     1     -12.338  13.317  65.397  1.00  0.00    -0.528 A  
HETATM    7  C   UNL     1     -12.276  14.318  64.424  1.00  0.00    -0.471 A  
HETATM    8  C   UNL     1     -11.523  15.461  64.669  1.00  0.00    -0.337 A  
HETATM    9  O   UNL     1     -11.416  16.454  63.742  1.00  0.00    -1.590 OA 
HETATM   10  C   UNL     1     -10.846  15.625  65.873  1.00  0.00    -0.297 A  
HETATM   11  C   UNL     1     -10.905  14.625  66.846  1.00  0.00    -0.305 A  
HETATM   12  H   UNL     1     -10.902  17.235  63.910  1.00  0.00     0.000 HD 
ENDBRANCH   3   5
ENDBRANCH   2   3
TORSDOF 2
ENDMDL
MODEL        5
REMARK 921   NORMALIZED FREE ENERGY PREDICTED BY IDOCK:   -4.69 KCAL/MOL
REMARK 922        TOTAL FREE ENERGY PREDICTED BY IDOCK:   -5.31 KCAL/MOL
REMARK 923 INTER-LIGAND FREE ENERGY PREDICTED BY IDOCK:   -5.26 KCAL/MOL
REMARK 924 INTRA-LIGAND FREE ENERGY PREDICTED BY IDOCK:   -0.06 KCAL/MOL
REMARK 927      BINDING AFFINITY PREDICTED BY RF-SCORE:    0.00 PKD
ROOT
HETATM    1  C   UNL     1     -10.400  18.185  66.012  1.00  0.00    -0.353 C  
HETATM    2  O   UNL     1     -10.014  16.899  65.522  1.00  0.00    -0.572 OA 
ENDROOT
BRANCH   2   3
HETATM    3  C   UNL     1     -11.024  16.206  64.939  1.00  0.00    -0.349 C  
HETATM    4  O   UNL     1     -11.656  16.559  63.956  1.00  0.00    -1.154 OA 
BRANCH   3   5
HETATM    5  C   UNL     1     -11.291  14.938  65.671  1.00  0.00    -0.325 A  
HETATM    6  C   UNL     1     -11.395  13.756  64.923  1.00  0.00    -0.353 A  
HETATM    7  C   UNL     1     -11.675  12.540  65.554  1.00  0.00    -0.457 A  
HETATM    8  C   UNL     1     -11.848  12.513  66.933  1.00  0.00    -0.334 A  
HETATM    9  O   UNL     1     -12.143  11.355  67.589  1.00  0.00    -0.630 OA 
HETATM   10  C   UNL     1     -11.733  13.673  67.691  1.00  0.00    -0.398 A  
HETATM   11  C   UNL     1     -11.455  14.889  67.063  1.00  0.00    -0.333 A  
HETATM   12  H   UNL     1     -12.263  11.336  68.531  1.00  0.00     0.000 HD 
ENDBRANCH   3   5
ENDBRANCH   2   3
TORSDOF 2
ENDMDL
MODEL        6
REMARK 921   NORMALIZED FREE ENERGY PREDICTED BY IDOCK:   -4.69 KCAL/MOL
REMARK 922        TOTAL FREE ENERGY PREDICTED BY IDOCK:   -5.31 KCAL/MOL
REMARK 923 INTER-LIGAND FREE ENERGY PREDICTED BY IDOCK:   -5.24 KCAL/MOL
REMARK 924 INTRA-LIGAND FREE ENERGY PREDICTED BY IDOCK:   -0.07 KCAL/MOL
REMARK 927      BINDING AFFINITY PREDICTED BY RF-SCORE:    0.00 PKD
ROOT
HETATM    1  C   UNL     1     -11.922  14.404  67.009  1.00  0.00    -0.395 C  
HETATM    2  O   UNL     1     -11.616  14.794  68.349  1.00  0.00    -0.296 OA 
ENDROOT
BRANCH   2   3
HETATM    3  C   UNL     1     -11.955  13.869  69.282  1.00  0.00    -0.357 C  
HETATM    4  O   UNL     1     -12.023  12.664  69.099  1.00  0.00    -0.291 OA 
BRANCH   3   5
HETATM    5  C   UNL     1     -12.260  14.518  70.587  1.00  0.00    -0.401 A  
HETATM    6  C   UNL     1     -13.323  14.002  71.345  1.00  0.00    -0.387 A  
HETATM    7  C   UNL     1     -13.675  14.590  72.562  1.00  0.00    -0.580 A  
HETATM    8  C   UNL     1     -12.961  15.692  73.019  1.00  0.00    -0.510 A  
HETATM    9  O   UNL     1     -13.282  16.310  74.190  1.00  0.00    -0.954 OA 
HETATM   10  C   UNL     1     -11.895  16.205  72.288  1.00  0.00    -0.631 A  
HETATM   11  C   UNL     1     -11.542  15.620  71.069  1.00  0.00    -0.434 A  
HETATM   12  H   UNL     1     -12.794  17.064  74.502  1.00  0.00     0.000 HD 
ENDBRANCH   3   5
ENDBRANCH   2   3
TORSDOF 2
ENDMDL
MODEL        7
REMARK 921   NORMALIZED FREE ENERGY PREDICTED BY IDOCK:   -4.65 KCAL/MOL
REMARK 922        TOTAL FREE ENERGY PREDICTED BY IDOCK:   -5.27 KCAL/MOL
REMARK 923 INTER-LIGAND FREE ENERGY PREDICTED BY IDOCK:   -5.30 KCAL/MOL
REMARK 924 INTRA-LIGAND FREE ENERGY PREDICTED BY IDOCK:    0.03 KCAL/MOL
REMARK 927      BINDING AFFINITY PREDICTED BY RF-SCORE:    0.00 PKD
ROOT
HETATM    1  C   UNL     1     -10.211  17.969  66.339  1.00  0.00    -0.393 C  
HETATM    2  O   UNL     1      -9.844  16.827  65.562  1.00  0.00    -0.564 OA 
ENDROOT
BRANCH   2   3
HETATM    3  C   UNL     1     -10.895  16.196  64.980  1.00  0.00    -0.363 C  
HETATM    4  O   UNL     1     -11.582  16.644  64.076  1.00  0.00    -1.197 OA 
BRANCH   3   5
HETATM    5  C   UNL     1     -11.130  14.867  65.606  1.00  0.00    -0.348 A  
HETATM    6  C   UNL     1     -11.500  14.833  66.959  1.00  0.00    -0.362 A  
HETATM    7  C   UNL     1     -11.703  13.612  67.608  1.00  0.00    -0.398 A  
HETATM    8  C   UNL     1     -11.537  12.427  66.899  1.00  0.00    -0.370 A  
HETATM    9  O   UNL     1     -11.704  11.213  67.495  1.00  0.00    -0.574 OA 
HETATM   10  C   UNL     1     -11.186  12.444  65.553  1.00  0.00    -0.364 A  
HETATM   11  C   UNL     1     -10.981  13.663  64.903  1.00  0.00    -0.372 A  
HETATM   12  H   UNL     1     -11.590  10.404  67.010  1.00  0.00     0.000 HD 
ENDBRANCH   3   5
ENDBRANCH   2   3
TORSDOF 2
ENDMDL
MODEL        8
REMARK 921   NORMALIZED FREE ENERGY PREDICTED BY IDOCK:   -4.64 KCAL/MOL
REMARK 922        TOTAL FREE ENERGY PREDICTED BY IDOCK:   -5.26 KCAL/MOL
REMARK 923 INTER-LIGAND FREE ENERGY PREDICTED BY IDOCK:   -5.16 KCAL/MOL
REMARK 924 INTRA-LIGAND FREE ENERGY PREDICTED BY IDOCK:   -0.10 KCAL/MOL
REMARK 927      BINDING AFFINITY PREDICTED BY RF-SCORE:    0.00 PKD
ROOT
HETATM    1  C   UNL     1     -11.615  14.125  67.253  1.00  0.00    -0.373 C  
HETATM    2  O   UNL     1     -11.074  14.110  68.576  1.00  0.00    -0.237 OA 
ENDROOT
BRANCH   2   3
HETATM    3  C   UNL     1     -11.747  13.306  69.437  1.00  0.00    -0.325 C  
HETATM    4  O   UNL     1     -11.979  12.119  69.270  1.00  0.00    -0.300 OA 
BRANCH   3   5
HETATM    5  C   UNL     1     -12.199  14.068  70.633  1.00  0.00    -0.442 A  
HETATM    6  C   UNL     1     -11.645  15.339  70.850  1.00  0.00    -0.382 A  
HETATM    7  C   UNL     1     -12.007  16.088  71.973  1.00  0.00    -0.622 A  
HETATM    8  C   UNL     1     -12.927  15.562  72.874  1.00  0.00    -0.477 A  
HETATM    9  O   UNL     1     -13.295  16.247  73.994  1.00  0.00    -0.948 OA 
HETATM   10  C   UNL     1     -13.498  14.312  72.665  1.00  0.00    -0.623 A  
HETATM   11  C   UNL     1     -13.135  13.560  71.544  1.00  0.00    -0.427 A  
HETATM   12  H   UNL     1     -13.923  15.887  74.610  1.00  0.00     0.000 HD 
ENDBRANCH   3   5
ENDBRANCH   2   3
TORSDOF 2
ENDMDL
MODEL        9
REMARK 921   NORMALIZED FREE ENERGY PREDICTED BY IDOCK:   -4.50 KCAL/MOL
REMARK 922        TOTAL FREE ENERGY PREDICTED BY IDOCK:   -5.11 KCAL/MOL
REMARK 923 INTER-LIGAND FREE ENERGY PREDICTED BY IDOCK:   -5.01 KCAL/MOL
REMARK 924 INTRA-LIGAND FREE ENERGY PREDICTED BY IDOCK:   -0.09 KCAL/MOL
REMARK 927      BINDING AFFINITY PREDICTED BY RF-SCORE:    0.00 PKD
ROOT
HETATM    1  C   UNL     1     -11.582  11.005  69.785  1.00  0.00    -0.325 C  
HETATM    2  O   UNL     1     -11.988  11.075  68.417  1.00  0.00    -0.565 OA 
ENDROOT
BRANCH   2   3
HETATM    3  C   UNL     1     -10.955  11.111  67.537  1.00  0.00    -0.275 C  
HETATM    4  O   UNL     1      -9.877  10.557  67.683  1.00  0.00    -0.162 OA 
BRANCH   3   5
HETATM    5  C   UNL     1     -11.295  11.943  66.351  1.00  0.00    -0.400 A  
HETATM    6  C   UNL     1     -12.135  13.050  66.544  1.00  0.00    -0.410 A  
HETATM    7  C   UNL     1     -12.514  13.850  65.462  1.00  0.00    -0.541 A  
HETATM    8  C   UNL     1     -12.047  13.539  64.190  1.00  0.00    -0.435 A  
HETATM    9  O   UNL     1     -12.406  14.277  63.102  1.00  0.00    -1.096 OA 
HETATM   10  C   UNL     1     -11.201  12.455  63.984  1.00  0.00    -0.458 A  
HETATM   11  C   UNL     1     -10.823  11.653  65.064  1.00  0.00    -0.346 A  
HETATM   12  H   UNL     1     -12.088  14.065  62.232  1.00  0.00     0.000 HD 
ENDBRANCH   3   5
ENDBRANCH   2   3
TORSDOF 2
ENDMDL
MODEL       10
REMARK 921   NORMALIZED FREE ENERGY PREDICTED BY IDOCK:   -4.50 KCAL/MOL
REMARK 922        TOTAL FREE ENERGY PREDICTED BY IDOCK:   -5.10 KCAL/MOL
REMARK 923 INTER-LIGAND FREE ENERGY PREDICTED BY IDOCK:   -5.02 KCAL/MOL
REMARK 924 INTRA-LIGAND FREE ENERGY PREDICTED BY IDOCK:   -0.08 KCAL/MOL
REMARK 927      BINDING AFFINITY PREDICTED BY RF-SCORE:    0.00 PKD
ROOT
HETATM    1  C   UNL     1     -12.516  15.934  74.082  1.00  0.00    -0.643 C  
HETATM    2  O   UNL     1     -12.204  15.557  72.739  1.00  0.00    -0.357 OA 
ENDROOT
BRANCH   2   3
HETATM    3  C   UNL     1     -13.252  15.030  72.057  1.00  0.00    -0.364 C  
HETATM    4  O   UNL     1     -14.341  15.560  71.905  1.00  0.00    -0.509 OA 
BRANCH   3   5
HETATM    5  C   UNL     1     -12.913  13.684  71.519  1.00  0.00    -0.443 A  
HETATM    6  C   UNL     1     -12.196  13.619  70.315  1.00  0.00    -0.423 A  
HETATM    7  C   UNL     1     -11.877  12.383  69.746  1.00  0.00    -0.387 A  
HETATM    8  C   UNL     1     -12.275  11.215  70.387  1.00  0.00    -0.369 A  
HETATM    9  O   UNL     1     -12.005   9.988  69.859  1.00  0.00    -0.443 OA 
HETATM   10  C   UNL     1     -12.972  11.262  71.589  1.00  0.00    -0.537 A  
HETATM   11  C   UNL     1     -13.294  12.497  72.159  1.00  0.00    -0.540 A  
HETATM   12  H   UNL     1     -12.278   9.190  70.297  1.00  0.00     0.000 HD 
ENDBRANCH   3   5
ENDBRANCH   2   3
TORSDOF 2
ENDMDL
MODEL       11
REMARK 921   NORMALIZED FREE ENERGY PREDICTED BY IDOCK:   -4.48 KCAL/MOL
REMARK 922        TOTAL FREE ENERGY PREDICTED BY IDOCK:   -5.08 KCAL/MOL
REMARK 923 INTER-LIGAND FREE ENERGY PREDICTED BY IDOCK:   -4.99 KCAL/MOL
REMARK 924 INTRA-LIGAND FREE ENERGY PREDICTED BY IDOCK:   -0.09 KCAL/MOL
REMARK 927      BINDING AFFINITY PREDICTED BY RF-SCORE:    0.00 PKD
ROOT
HETATM    1  C   UNL     1     -12.320  15.910  73.657  1.00  0.00    -0.572 C  
HETATM    2  O   UNL     1     -12.035  15.513  72.314  1.00  0.00    -0.366 OA 
ENDROOT
BRANCH   2   3
HETATM    3  C   UNL     1     -13.103  15.002  71.652  1.00  0.00    -0.364 C  
HETATM    4  O   UNL     1     -14.120  15.612  71.361  1.00  0.00    -0.541 OA 
BRANCH   3   5
HETATM    5  C   UNL     1     -12.891  13.564  71.332  1.00  0.00    -0.440 A  
HETATM    6  C   UNL     1     -13.476  12.609  72.178  1.00  0.00    -0.561 A  
HETATM    7  C   UNL     1     -13.285  11.244  71.945  1.00  0.00    -0.491 A  
HETATM    8  C   UNL     1     -12.510  10.840  70.863  1.00  0.00    -0.402 A  
HETATM    9  O   UNL     1     -12.279   9.521  70.609  1.00  0.00    -0.431 OA 
HETATM   10  C   UNL     1     -11.937  11.773  70.006  1.00  0.00    -0.421 A  
HETATM   11  C   UNL     1     -12.125  13.138  70.239  1.00  0.00    -0.399 A  
HETATM   12  H   UNL     1     -11.749   9.244  69.870  1.00  0.00     0.000 HD 
ENDBRANCH   3   5
ENDBRANCH   2   3
TORSDOF 2
ENDMDL
MODEL       12
REMARK 921   NORMALIZED FREE ENERGY PREDICTED BY IDOCK:   -4.46 KCAL/MOL
REMARK 922        TOTAL FREE ENERGY PREDICTED BY IDOCK:   -5.06 KCAL/MOL
REMARK 923 INTER-LIGAND FREE ENERGY PREDICTED BY IDOCK:   -4.99 KCAL/MOL
REMARK 924 INTRA-LIGAND FREE ENERGY PREDICTED BY IDOCK:   -0.07 KCAL/MOL
REMARK 927      BINDING AFFINITY PREDICTED BY RF-SCORE:    0.00 PKD
ROOT
HETATM    1  C   UNL     1     -12.176  10.798  69.971  1.00  0.00    -0.334 C  
HETATM    2  O   UNL     1     -12.238  11.175  68.594  1.00  0.00    -0.582 OA 
ENDROOT
BRANCH   2   3
HETATM    3  C   UNL     1     -11.609  12.344  68.314  1.00  0.00    -0.333 C  
HETATM    4  O   UNL     1     -11.004  13.037  69.117  1.00  0.00    -0.222 OA 
BRANCH   3   5
HETATM    5  C   UNL     1     -11.763  12.701  66.878  1.00  0.00    -0.453 A  
HETATM    6  C   UNL     1     -12.359  13.933  66.567  1.00  0.00    -0.447 A  
HETATM    7  C   UNL     1     -12.558  14.308  65.235  1.00  0.00    -0.405 A  
HETATM    8  C   UNL     1     -12.158  13.448  64.218  1.00  0.00    -0.424 A  
HETATM    9  O   UNL     1     -12.351  13.761  62.906  1.00  0.00    -1.008 OA 
HETATM   10  C   UNL     1     -11.552  12.231  64.509  1.00  0.00    -0.418 A  
HETATM   11  C   UNL     1     -11.353  11.853  65.840  1.00  0.00    -0.365 A  
HETATM   12  H   UNL     1     -12.078  13.174  62.211  1.00  0.00     0.000 HD 
ENDBRANCH   3   5
ENDBRANCH   2   3
TORSDOF 2
ENDMDL
MODEL       13
REMARK 921   NORMALIZED FREE ENERGY PREDICTED BY IDOCK:   -4.42 KCAL/MOL
REMARK 922        TOTAL FREE ENERGY PREDICTED BY IDOCK:   -5.01 KCAL/MOL
REMARK 923 INTER-LIGAND FREE ENERGY PREDICTED BY IDOCK:   -4.93 KCAL/MOL
REMARK 924 INTRA-LIGAND FREE ENERGY PREDICTED BY IDOCK:   -0.09 KCAL/MOL
REMARK 927      BINDING AFFINITY PREDICTED BY RF-SCORE:    0.00 PKD
ROOT
HETATM    1  C   UNL     1     -11.166   8.719  71.850  1.00  0.00    -0.368 C  
HETATM    2  O   UNL     1     -11.550   9.975  71.287  1.00  0.00    -0.367 OA 
ENDROOT
BRANCH   2   3
HETATM    3  C   UNL     1     -12.721  10.461  71.772  1.00  0.00    -0.421 C  
HETATM    4  O   UNL     1     -13.569   9.814  72.366  1.00  0.00    -0.407 OA 
BRANCH   3   5
HETATM    5  C   UNL     1     -12.861  11.911  71.468  1.00  0.00    -0.421 A  
HETATM    6  C   UNL     1     -12.199  12.412  70.336  1.00  0.00    -0.370 A  
HETATM    7  C   UNL     1     -12.269  13.771  70.019  1.00  0.00    -0.407 A  
HETATM    8  C   UNL     1     -13.003  14.625  70.835  1.00  0.00    -0.365 A  
HETATM    9  O   UNL     1     -13.083  15.961  70.577  1.00  0.00    -0.714 OA 
HETATM   10  C   UNL     1     -13.678  14.141  71.951  1.00  0.00    -0.525 A  
HETATM   11  C   UNL     1     -13.608  12.783  72.271  1.00  0.00    -0.563 A  
HETATM   12  H   UNL     1     -13.584  16.544  71.135  1.00  0.00     0.000 HD 
ENDBRANCH   3   5
ENDBRANCH   2   3
TORSDOF 2
ENDMDL
MODEL       14
REMARK 921   NORMALIZED FREE ENERGY PREDICTED BY IDOCK:   -4.41 KCAL/MOL
REMARK 922        TOTAL FREE ENERGY PREDICTED BY IDOCK:   -5.01 KCAL/MOL
REMARK 923 INTER-LIGAND FREE ENERGY PREDICTED BY IDOCK:   -4.91 KCAL/MOL
REMARK 924 INTRA-LIGAND FREE ENERGY PREDICTED BY IDOCK:   -0.10 KCAL/MOL
REMARK 927      BINDING AFFINITY PREDICTED BY RF-SCORE:    0.00 PKD
ROOT
HETATM    1  C   UNL     1     -12.601  12.021  63.539  1.00  0.00    -0.507 C  
HETATM    2  O   UNL     1     -13.024  12.715  64.714  1.00  0.00    -0.816 OA 
ENDROOT
BRANCH   2   3
HETATM    3  C   UNL     1     -12.535  13.977  64.815  1.00  0.00    -0.365 C  
HETATM    4  O   UNL     1     -12.620  14.843  63.959  1.00  0.00    -0.832 OA 
BRANCH   3   5
HETATM    5  C   UNL     1     -11.848  14.179  66.119  1.00  0.00    -0.420 A  
HETATM    6  C   UNL     1     -12.133  13.279  67.158  1.00  0.00    -0.352 A  
HETATM    7  C   UNL     1     -11.541  13.437  68.414  1.00  0.00    -0.368 A  
HETATM    8  C   UNL     1     -10.664  14.496  68.626  1.00  0.00    -0.253 A  
HETATM    9  O   UNL     1     -10.080  14.702  69.840  1.00  0.00    -0.434 OA 
HETATM   10  C   UNL     1     -10.359  15.386  67.602  1.00  0.00    -0.262 A  
HETATM   11  C   UNL     1     -10.951  15.231  66.346  1.00  0.00    -0.299 A  
HETATM   12  H   UNL     1      -9.481  15.425  69.985  1.00  0.00     0.000 HD 
ENDBRANCH   3   5
ENDBRANCH   2   3
TORSDOF 2
ENDMDL
MODEL       15
REMARK 921   NORMALIZED FREE ENERGY PREDICTED BY IDOCK:   -4.41 KCAL/MOL
REMARK 922        TOTAL FREE ENERGY PREDICTED BY IDOCK:   -5.00 KCAL/MOL
REMARK 923 INTER-LIGAND FREE ENERGY PREDICTED BY IDOCK:   -4.92 KCAL/MOL
REMARK 924 INTRA-LIGAND FREE ENERGY PREDICTED BY IDOCK:   -0.08 KCAL/MOL
REMARK 927      BINDING AFFINITY PREDICTED BY RF-SCORE:    0.00 PKD
ROOT
HETATM    1  C   UNL     1     -10.811   8.895  71.896  1.00  0.00    -0.363 C  
HETATM    2  O   UNL     1     -11.427   9.909  71.099  1.00  0.00    -0.350 OA 
ENDROOT
BRANCH   2   3
HETATM    3  C   UNL     1     -12.580  10.397  71.623  1.00  0.00    -0.417 C  
HETATM    4  O   UNL     1     -13.431   9.743  72.203  1.00  0.00    -0.431 OA 
BRANCH   3   5
HETATM    5  C   UNL     1     -12.694  11.861  71.384  1.00  0.00    -0.395 A  
HETATM    6  C   UNL     1     -13.438  12.621  72.299  1.00  0.00    -0.541 A  
HETATM    7  C   UNL     1     -13.606  13.995  72.109  1.00  0.00    -0.582 A  
HETATM    8  C   UNL     1     -13.026  14.606  71.002  1.00  0.00    -0.356 A  
HETATM    9  O   UNL     1     -13.180  15.939  70.764  1.00  0.00    -0.683 OA 
HETATM   10  C   UNL     1     -12.272  13.870  70.095  1.00  0.00    -0.425 A  
HETATM   11  C   UNL     1     -12.104  12.495  70.282  1.00  0.00    -0.373 A  
HETATM   12  H   UNL     1     -12.784  16.355  70.008  1.00  0.00     0.000 HD 
ENDBRANCH   3   5
ENDBRANCH   2   3
TORSDOF 2
ENDMDL
MODEL       16
REMARK 921   NORMALIZED FREE ENERGY PREDICTED BY IDOCK:   -4.39 KCAL/MOL
REMARK 922        TOTAL FREE ENERGY PREDICTED BY IDOCK:   -4.98 KCAL/MOL
REMARK 923 INTER-LIGAND FREE ENERGY PREDICTED BY IDOCK:   -4.89 KCAL/MOL
REMARK 924 INTRA-LIGAND FREE ENERGY PREDICTED BY IDOCK:   -0.08 KCAL/MOL
REMARK 927      BINDING AFFINITY PREDICTED BY RF-SCORE:    0.00 PKD
ROOT
HETATM    1  C   UNL     1     -10.513  11.634  63.337  1.00  0.00    -0.426 C  
HETATM    2  O   UNL     1     -11.060  12.809  63.939  1.00  0.00    -0.383 OA 
ENDROOT
BRANCH   2   3
HETATM    3  C   UNL     1     -12.177  12.583  64.674  1.00  0.00    -0.453 C  
HETATM    4  O   UNL     1     -13.259  12.227  64.235  1.00  0.00    -0.785 OA 
BRANCH   3   5
HETATM    5  C   UNL     1     -11.925  12.845  66.117  1.00  0.00    -0.491 A  
HETATM    6  C   UNL     1     -11.525  11.767  66.922  1.00  0.00    -0.364 A  
HETATM    7  C   UNL     1     -11.305  11.946  68.290  1.00  0.00    -0.335 A  
HETATM    8  C   UNL     1     -11.483  13.207  68.849  1.00  0.00    -0.298 A  
HETATM    9  O   UNL     1     -11.299  13.425  70.181  1.00  0.00    -0.498 OA 
HETATM   10  C   UNL     1     -11.862  14.289  68.063  1.00  0.00    -0.379 A  
HETATM   11  C   UNL     1     -12.086  14.112  66.695  1.00  0.00    -0.480 A  
HETATM   12  H   UNL     1     -11.421  14.287  70.563  1.00  0.00     0.000 HD 
ENDBRANCH   3   5
ENDBRANCH   2   3
TORSDOF 2
ENDMDL
MODEL       17
REMARK 921   NORMALIZED FREE ENERGY PREDICTED BY IDOCK:   -4.34 KCAL/MOL
REMARK 922        TOTAL FREE ENERGY PREDICTED BY IDOCK:   -4.93 KCAL/MOL
REMARK 923 INTER-LIGAND FREE ENERGY PREDICTED BY IDOCK:   -4.89 KCAL/MOL
REMARK 924 INTRA-LIGAND FREE ENERGY PREDICTED BY IDOCK:   -0.04 KCAL/MOL
REMARK 927      BINDING AFFINITY PREDICTED BY RF-SCORE:    0.00 PKD
ROOT
HETATM    1  C   UNL     1     -10.300  11.407  63.348  1.00  0.00    -0.402 C  
HETATM    2  O   UNL     1     -10.931  12.642  63.693  1.00  0.00    -0.426 OA 
ENDROOT
BRANCH   2   3
HETATM    3  C   UNL     1     -12.110  12.493  64.347  1.00  0.00    -0.424 C  
HETATM    4  O   UNL     1     -13.181  12.215  63.832  1.00  0.00    -0.748 OA 
BRANCH   3   5
HETATM    5  C   UNL     1     -11.942  12.734  65.806  1.00  0.00    -0.502 A  
HETATM    6  C   UNL     1     -12.201  14.024  66.294  1.00  0.00    -0.493 A  
HETATM    7  C   UNL     1     -12.030  14.317  67.649  1.00  0.00    -0.400 A  
HETATM    8  C   UNL     1     -11.602  13.316  68.514  1.00  0.00    -0.333 A  
HETATM    9  O   UNL     1     -11.402  13.560  69.840  1.00  0.00    -0.461 OA 
HETATM   10  C   UNL     1     -11.357  12.028  68.050  1.00  0.00    -0.358 A  
HETATM   11  C   UNL     1     -11.525  11.733  66.695  1.00  0.00    -0.337 A  
HETATM   12  H   UNL     1     -11.108  12.876  70.431  1.00  0.00     0.000 HD 
ENDBRANCH   3   5
ENDBRANCH   2   3
TORSDOF 2
ENDMDL
MODEL       18
REMARK 921   NORMALIZED FREE ENERGY PREDICTED BY IDOCK:   -4.32 KCAL/MOL
REMARK 922        TOTAL FREE ENERGY PREDICTED BY IDOCK:   -4.90 KCAL/MOL
REMARK 923 INTER-LIGAND FREE ENERGY PREDICTED BY IDOCK:   -4.83 KCAL/MOL
REMARK 924 INTRA-LIGAND FREE ENERGY PREDICTED BY IDOCK:   -0.08 KCAL/MOL
REMARK 927      BINDING AFFINITY PREDICTED BY RF-SCORE:    0.00 PKD
ROOT
HETATM    1  C   UNL     1     -11.571  15.912  70.595  1.00  0.00    -0.400 C  
HETATM    2  O   UNL     1     -11.860  15.377  69.301  1.00  0.00    -0.325 OA 
ENDROOT
BRANCH   2   3
HETATM    3  C   UNL     1     -10.804  15.394  68.450  1.00  0.00    -0.268 C  
HETATM    4  O   UNL     1      -9.650  15.654  68.751  1.00  0.00    -0.196 OA 
BRANCH   3   5
HETATM    5  C   UNL     1     -11.234  15.069  67.063  1.00  0.00    -0.328 A  
HETATM    6  C   UNL     1     -12.124  13.998  66.885  1.00  0.00    -0.465 A  
HETATM    7  C   UNL     1     -12.539  13.627  65.603  1.00  0.00    -0.531 A  
HETATM    8  C   UNL     1     -12.062  14.330  64.502  1.00  0.00    -0.480 A  
HETATM    9  O   UNL     1     -12.422  13.991  63.232  1.00  0.00    -1.139 OA 
HETATM   10  C   UNL     1     -11.193  15.404  64.663  1.00  0.00    -0.374 A  
HETATM   11  C   UNL     1     -10.775  15.776  65.943  1.00  0.00    -0.320 A  
HETATM   12  H   UNL     1     -12.096  14.472  62.480  1.00  0.00     0.000 HD 
ENDBRANCH   3   5
ENDBRANCH   2   3
TORSDOF 2
ENDMDL
MODEL       19
REMARK 921   NORMALIZED FREE ENERGY PREDICTED BY IDOCK:   -4.30 KCAL/MOL
REMARK 922        TOTAL FREE ENERGY PREDICTED BY IDOCK:   -4.88 KCAL/MOL
REMARK 923 INTER-LIGAND FREE ENERGY PREDICTED BY IDOCK:   -4.78 KCAL/MOL
REMARK 924 INTRA-LIGAND FREE ENERGY PREDICTED BY IDOCK:   -0.09 KCAL/MOL
REMARK 927      BINDING AFFINITY PREDICTED BY RF-SCORE:    0.00 PKD
ROOT
HETATM    1  C   UNL     1     -11.316  10.118  70.148  1.00  0.00    -0.303 C  
HETATM    2  O   UNL     1     -12.327  11.123  70.254  1.00  0.00    -0.309 OA 
ENDROOT
BRANCH   2   3
HETATM    3  C   UNL     1     -11.903  12.367  69.917  1.00  0.00    -0.305 C  
HETATM    4  O   UNL     1     -11.140  12.636  69.003  1.00  0.00    -0.253 OA 
BRANCH   3   5
HETATM    5  C   UNL     1     -12.481  13.390  70.830  1.00  0.00    -0.418 A  
HETATM    6  C   UNL     1     -12.286  14.743  70.509  1.00  0.00    -0.398 A  
HETATM    7  C   UNL     1     -12.779  15.748  71.345  1.00  0.00    -0.509 A  
HETATM    8  C   UNL     1     -13.467  15.396  72.501  1.00  0.00    -0.504 A  
HETATM    9  O   UNL     1     -13.947  16.341  73.358  1.00  0.00    -0.808 OA 
HETATM   10  C   UNL     1     -13.682  14.061  72.825  1.00  0.00    -0.435 A  
HETATM   11  C   UNL     1     -13.189  13.054  71.991  1.00  0.00    -0.543 A  
HETATM   12  H   UNL     1     -14.417  16.100  74.148  1.00  0.00     0.000 HD 
ENDBRANCH   3   5
ENDBRANCH   2   3
TORSDOF 2
ENDMDL
MODEL       20
REMARK 921   NORMALIZED FREE ENERGY PREDICTED BY IDOCK:   -4.27 KCAL/MOL
REMARK 922        TOTAL FREE ENERGY PREDICTED BY IDOCK:   -4.84 KCAL/MOL
REMARK 923 INTER-LIGAND FREE ENERGY PREDICTED BY IDOCK:   -4.72 KCAL/MOL
REMARK 924 INTRA-LIGAND FREE ENERGY PREDICTED BY IDOCK:   -0.12 KCAL/MOL
REMARK 927      BINDING AFFINITY PREDICTED BY RF-SCORE:    0.00 PKD
ROOT
HETATM    1  C   UNL     1     -10.156  11.169  63.551  1.00  0.00    -0.385 C  
HETATM    2  O   UNL     1     -10.875  12.314  63.089  1.00  0.00    -0.377 OA 
ENDROOT
BRANCH   2   3
HETATM    3  C   UNL     1     -11.995  12.586  63.804  1.00  0.00    -0.517 C  
HETATM    4  O   UNL     1     -13.113  12.158  63.567  1.00  0.00    -0.785 OA 
BRANCH   3   5
HETATM    5  C   UNL     1     -11.694  13.510  64.932  1.00  0.00    -0.381 A  
HETATM    6  C   UNL     1     -12.195  13.183  66.201  1.00  0.00    -0.451 A  
HETATM    7  C   UNL     1     -11.971  14.028  67.291  1.00  0.00    -0.448 A  
HETATM    8  C   UNL     1     -11.243  15.199  67.107  1.00  0.00    -0.320 A  
HETATM    9  O   UNL     1     -11.017  16.064  68.135  1.00  0.00    -0.314 OA 
HETATM   10  C   UNL     1     -10.726  15.529  65.859  1.00  0.00    -0.346 A  
HETATM   11  C   UNL     1     -10.951  14.687  64.767  1.00  0.00    -0.399 A  
HETATM   12  H   UNL     1     -10.520  16.864  68.009  1.00  0.00     0.000 HD 
ENDBRANCH   3   5
ENDBRANCH   2   3
TORSDOF 2
ENDMDL
MODEL       21
REMARK 921   NORMALIZED FREE ENERGY PREDICTED BY IDOCK:   -4.26 KCAL/MOL
REMARK 922        TOTAL FREE ENERGY PREDICTED BY IDOCK:   -4.83 KCAL/MOL
REMARK 923 INTER-LIGAND FREE ENERGY PREDICTED BY IDOCK:   -4.77 KCAL/MOL
REMARK 924 INTRA-LIGAND FREE ENERGY PREDICTED BY IDOCK:   -0.06 KCAL/MOL
REMARK 927      BINDING AFFINITY PREDICTED BY RF-SCORE:    0.00 PKD
ROOT
HETATM    1  C   UNL     1     -11.861  13.703  69.082  1.00  0.00    -0.348 C  
HETATM    2  O   UNL     1     -12.143  12.619  69.969  1.00  0.00    -0.316 OA 
ENDROOT
BRANCH   2   3
HETATM    3  C   UNL     1     -12.021  11.394  69.399  1.00  0.00    -0.339 C  
HETATM    4  O   UNL     1     -12.056  11.160  68.202  1.00  0.00    -0.633 OA 
BRANCH   3   5
HETATM    5  C   UNL     1     -11.853  10.340  70.436  1.00  0.00    -0.396 A  
HETATM    6  C   UNL     1     -12.940  10.070  71.281  1.00  0.00    -0.495 A  
HETATM    7  C   UNL     1     -12.831   9.113  72.293  1.00  0.00    -0.472 A  
HETATM    8  C   UNL     1     -11.633   8.425  72.454  1.00  0.00    -0.380 A  
HETATM    9  O   UNL     1     -11.473   7.498  73.439  1.00  0.00    -0.629 OA 
HETATM   10  C   UNL     1     -10.551   8.668  71.614  1.00  0.00    -0.374 A  
HETATM   11  C   UNL     1     -10.658   9.627  70.603  1.00  0.00    -0.386 A  
HETATM   12  H   UNL     1     -10.654   7.028  73.549  1.00  0.00     0.000 HD 
ENDBRANCH   3   5
ENDBRANCH   2   3
TORSDOF 2
ENDMDL
MODEL       22
REMARK 921   NORMALIZED FREE ENERGY PREDICTED BY IDOCK:   -4.24 KCAL/MOL
REMARK 922        TOTAL FREE ENERGY PREDICTED BY IDOCK:   -4.82 KCAL/MOL
REMARK 923 INTER-LIGAND FREE ENERGY PREDICTED BY IDOCK:   -4.74 KCAL/MOL
REMARK 924 INTRA-LIGAND FREE ENERGY PREDICTED BY IDOCK:   -0.07 KCAL/MOL
REMARK 927      BINDING AFFINITY PREDICTED BY RF-SCORE:    0.00 PKD
ROOT
HETATM    1  C   UNL     1     -10.306  10.348  67.107  1.00  0.00    -0.238 C  
HETATM    2  O   UNL     1     -10.893  10.758  68.345  1.00  0.00    -0.198 OA 
ENDROOT
BRANCH   2   3
HETATM    3  C   UNL     1     -10.300  10.220  69.440  1.00  0.00    -0.235 C  
HETATM    4  O   UNL     1      -9.108   9.991  69.564  1.00  0.00    -0.199 OA 
BRANCH   3   5
HETATM    5  C   UNL     1     -11.306   9.916  70.494  1.00  0.00    -0.399 A  
HETATM    6  C   UNL     1     -11.229   8.672  71.138  1.00  0.00    -0.329 A  
HETATM    7  C   UNL     1     -12.165   8.319  72.113  1.00  0.00    -0.418 A  
HETATM    8  C   UNL     1     -13.176   9.216  72.443  1.00  0.00    -0.444 A  
HETATM    9  O   UNL     1     -14.123   8.907  73.373  1.00  0.00    -1.256 OA 
HETATM   10  C   UNL     1     -13.257  10.459  71.826  1.00  0.00    -0.529 A  
HETATM   11  C   UNL     1     -12.323  10.813  70.849  1.00  0.00    -0.497 A  
HETATM   12  H   UNL     1     -14.814   9.519  73.597  1.00  0.00     0.000 HD 
ENDBRANCH   3   5
ENDBRANCH   2   3
TORSDOF 2
ENDMDL
MODEL       23
REMARK 921   NORMALIZED FREE ENERGY PREDICTED BY IDOCK:   -4.24 KCAL/MOL
REMARK 922        TOTAL FREE ENERGY PREDICTED BY IDOCK:   -4.81 KCAL/MOL
REMARK 923 INTER-LIGAND FREE ENERGY PREDICTED BY IDOCK:   -4.70 KCAL/MOL
REMARK 924 INTRA-LIGAND FREE ENERGY PREDICTED BY IDOCK:   -0.11 KCAL/MOL
REMARK 927      BINDING AFFINITY PREDICTED BY RF-SCORE:    0.00 PKD
ROOT
HETATM    1  C   UNL     1     -10.690  15.715  65.121  1.00  0.00    -0.443 C  
HETATM    2  O   UNL     1     -11.657  14.696  65.386  1.00  0.00    -0.346 OA 
ENDROOT
BRANCH   2   3
HETATM    3  C   UNL     1     -11.927  13.903  64.319  1.00  0.00    -0.444 C  
HETATM    4  O   UNL     1     -12.651  14.194  63.381  1.00  0.00    -0.818 OA 
BRANCH   3   5
HETATM    5  C   UNL     1     -11.234  12.592  64.442  1.00  0.00    -0.388 A  
HETATM    6  C   UNL     1     -11.150  12.009  65.716  1.00  0.00    -0.371 A  
HETATM    7  C   UNL     1     -10.484  10.794  65.897  1.00  0.00    -0.270 A  
HETATM    8  C   UNL     1      -9.904  10.164  64.801  1.00  0.00    -0.312 A  
HETATM    9  O   UNL     1      -9.227   8.989  64.933  1.00  0.00    -0.424 OA 
HETATM   10  C   UNL     1      -9.993  10.720  63.530  1.00  0.00    -0.403 A  
HETATM   11  C   UNL     1     -10.657  11.936  63.346  1.00  0.00    -0.485 A  
HETATM   12  H   UNL     1      -8.831   8.559  64.184  1.00  0.00     0.000 HD 
ENDBRANCH   3   5
ENDBRANCH   2   3
TORSDOF 2
ENDMDL
MODEL       24
REMARK 921   NORMALIZED FREE ENERGY PREDICTED BY IDOCK:   -4.22 KCAL/MOL
REMARK 922        TOTAL FREE ENERGY PREDICTED BY IDOCK:   -4.79 KCAL/MOL
REMARK 923 INTER-LIGAND FREE ENERGY PREDICTED BY IDOCK:   -4.72 KCAL/MOL
REMARK 924 INTRA-LIGAND FREE ENERGY PREDICTED BY IDOCK:   -0.07 KCAL/MOL
REMARK 927      BINDING AFFINITY PREDICTED BY RF-SCORE:    0.00 PKD
ROOT
HETATM    1  C   UNL     1     -11.359  11.261  69.647  1.00  0.00    -0.287 C  
HETATM    2  O   UNL     1     -12.107  11.311  68.430  1.00  0.00    -0.598 OA 
ENDROOT
BRANCH   2   3
HETATM    3  C   UNL     1     -11.875  12.421  67.686  1.00  0.00    -0.295 C  
HETATM    4  O   UNL     1     -11.979  13.573  68.074  1.00  0.00    -0.355 OA 
BRANCH   3   5
HETATM    5  C   UNL     1     -11.487  12.057  66.296  1.00  0.00    -0.408 A  
HETATM    6  C   UNL     1     -10.384  11.207  66.123  1.00  0.00    -0.302 A  
HETATM    7  C   UNL     1      -9.954  10.856  64.840  1.00  0.00    -0.361 A  
HETATM    8  C   UNL     1     -10.632  11.357  63.734  1.00  0.00    -0.403 A  
HETATM    9  O   UNL     1     -10.236  11.059  62.464  1.00  0.00    -0.659 OA 
HETATM   10  C   UNL     1     -11.736  12.188  63.889  1.00  0.00    -0.546 A  
HETATM   11  C   UNL     1     -12.166  12.541  65.170  1.00  0.00    -0.509 A  
HETATM   12  H   UNL     1     -10.698  11.401  61.708  1.00  0.00     0.000 HD 
ENDBRANCH   3   5
ENDBRANCH   2   3
TORSDOF 2
ENDMDL
MODEL       25
REMARK 921   NORMALIZED FREE ENERGY PREDICTED BY IDOCK:   -4.19 KCAL/MOL
REMARK 922        TOTAL FREE ENERGY PREDICTED BY IDOCK:   -4.76 KCAL/MOL
REMARK 923 INTER-LIGAND FREE ENERGY PREDICTED BY IDOCK:   -4.65 KCAL/MOL
REMARK 924 INTRA-LIGAND FREE ENERGY PREDICTED BY IDOCK:   -0.11 KCAL/MOL
REMARK 927      BINDING AFFINITY PREDICTED BY RF-SCORE:    0.00 PKD
ROOT
HETATM    1  C   UNL     1     -10.061  10.900  63.408  1.00  0.00    -0.340 C  
HETATM    2  O   UNL     1     -10.414  12.270  63.206  1.00  0.00    -0.417 OA 
ENDROOT
BRANCH   2   3
HETATM    3  C   UNL     1     -11.633  12.603  63.699  1.00  0.00    -0.503 C  
HETATM    4  O   UNL     1     -12.708  12.256  63.236  1.00  0.00    -0.699 OA 
BRANCH   3   5
HETATM    5  C   UNL     1     -11.501  13.481  64.893  1.00  0.00    -0.350 A  
HETATM    6  C   UNL     1     -10.605  14.559  64.821  1.00  0.00    -0.401 A  
HETATM    7  C   UNL     1     -10.416  15.399  65.922  1.00  0.00    -0.354 A  
HETATM    8  C   UNL     1     -11.128  15.158  67.092  1.00  0.00    -0.335 A  
HETATM    9  O   UNL     1     -10.961  15.938  68.198  1.00  0.00    -0.309 OA 
HETATM   10  C   UNL     1     -12.032  14.105  67.174  1.00  0.00    -0.460 A  
HETATM   11  C   UNL     1     -12.221  13.263  66.076  1.00  0.00    -0.483 A  
HETATM   12  H   UNL     1     -11.448  15.773  68.997  1.00  0.00     0.000 HD 
ENDBRANCH   3   5
ENDBRANCH   2   3
TORSDOF 2
ENDMDL
MODEL       26
REMARK 921   NORMALIZED FREE ENERGY PREDICTED BY IDOCK:   -4.17 KCAL/MOL
REMARK 922        TOTAL FREE ENERGY PREDICTED BY IDOCK:   -4.74 KCAL/MOL
REMARK 923 INTER-LIGAND FREE ENERGY PREDICTED BY IDOCK:   -4.66 KCAL/MOL
REMARK 924 INTRA-LIGAND FREE ENERGY PREDICTED BY IDOCK:   -0.08 KCAL/MOL
REMARK 927      BINDING AFFINITY PREDICTED BY RF-SCORE:    0.00 PKD
ROOT
HETATM    1  C   UNL     1      -7.770  17.359  66.370  1.00  0.00    -0.308 C  
HETATM    2  O   UNL     1      -8.981  16.873  65.787  1.00  0.00    -0.524 OA 
ENDROOT
BRANCH   2   3
HETATM    3  C   UNL     1      -9.924  16.515  66.694  1.00  0.00    -0.276 C  
HETATM    4  O   UNL     1     -10.042  16.976  67.818  1.00  0.00    -0.280 OA 
BRANCH   3   5
HETATM    5  C   UNL     1     -10.810  15.451  66.148  1.00  0.00    -0.313 A  
HETATM    6  C   UNL     1     -11.303  14.485  67.038  1.00  0.00    -0.359 A  
HETATM    7  C   UNL     1     -12.114  13.444  66.577  1.00  0.00    -0.444 A  
HETATM    8  C   UNL     1     -12.431  13.376  65.225  1.00  0.00    -0.483 A  
HETATM    9  O   UNL     1     -13.202  12.369  64.726  1.00  0.00    -0.784 OA 
HETATM   10  C   UNL     1     -11.965  14.335  64.332  1.00  0.00    -0.476 A  
HETATM   11  C   UNL     1     -11.152  15.375  64.791  1.00  0.00    -0.416 A  
HETATM   12  H   UNL     1     -13.418  12.322  63.802  1.00  0.00     0.000 HD 
ENDBRANCH   3   5
ENDBRANCH   2   3
TORSDOF 2
ENDMDL
MODEL       27
REMARK 921   NORMALIZED FREE ENERGY PREDICTED BY IDOCK:   -4.15 KCAL/MOL
REMARK 922        TOTAL FREE ENERGY PREDICTED BY IDOCK:   -4.71 KCAL/MOL
REMARK 923 INTER-LIGAND FREE ENERGY PREDICTED BY IDOCK:   -4.64 KCAL/MOL
REMARK 924 INTRA-LIGAND FREE ENERGY PREDICTED BY IDOCK:   -0.07 KCAL/MOL
REMARK 927      BINDING AFFINITY PREDICTED BY RF-SCORE:    0.00 PKD
ROOT
HETATM    1  C   UNL     1     -12.087  13.501  69.844  1.00  0.00    -0.341 C  
HETATM    2  O   UNL     1     -12.005  12.854  68.572  1.00  0.00    -0.309 OA 
ENDROOT
BRANCH   2   3
HETATM    3  C   UNL     1     -11.878  13.710  67.527  1.00  0.00    -0.381 C  
HETATM    4  O   UNL     1     -12.005  14.923  67.580  1.00  0.00    -0.314 OA 
BRANCH   3   5
HETATM    5  C   UNL     1     -11.575  12.972  66.271  1.00  0.00    -0.408 A  
HETATM    6  C   UNL     1     -12.290  13.321  65.115  1.00  0.00    -0.516 A  
HETATM    7  C   UNL     1     -12.071  12.642  63.913  1.00  0.00    -0.567 A  
HETATM    8  C   UNL     1     -11.133  11.616  63.872  1.00  0.00    -0.401 A  
HETATM    9  O   UNL     1     -10.900  10.912  62.729  1.00  0.00    -0.750 OA 
HETATM   10  C   UNL     1     -10.404  11.269  65.005  1.00  0.00    -0.359 A  
HETATM   11  C   UNL     1     -10.623  11.945  66.207  1.00  0.00    -0.289 A  
HETATM   12  H   UNL     1     -10.259  10.210  62.701  1.00  0.00     0.000 HD 
ENDBRANCH   3   5
ENDBRANCH   2   3
TORSDOF 2
ENDMDL
MODEL       28
REMARK 921   NORMALIZED FREE ENERGY PREDICTED BY IDOCK:   -4.15 KCAL/MOL
REMARK 922        TOTAL FREE ENERGY PREDICTED BY IDOCK:   -4.71 KCAL/MOL
REMARK 923 INTER-LIGAND FREE ENERGY PREDICTED BY IDOCK:   -4.61 KCAL/MOL
REMARK 924 INTRA-LIGAND FREE ENERGY PREDICTED BY IDOCK:   -0.10 KCAL/MOL
REMARK 927      BINDING AFFINITY PREDICTED BY RF-SCORE:    0.00 PKD
ROOT
HETATM    1  C   UNL     1     -11.498  14.941  67.473  1.00  0.00    -0.348 C  
HETATM    2  O   UNL     1     -11.989  13.629  67.190  1.00  0.00    -0.382 OA 
ENDROOT
BRANCH   2   3
HETATM    3  C   UNL     1     -12.302  13.428  65.885  1.00  0.00    -0.437 C  
HETATM    4  O   UNL     1     -13.191  13.994  65.271  1.00  0.00    -0.782 OA 
BRANCH   3   5
HETATM    5  C   UNL     1     -11.420  12.393  65.280  1.00  0.00    -0.389 A  
HETATM    6  C   UNL     1     -11.170  12.466  63.902  1.00  0.00    -0.487 A  
HETATM    7  C   UNL     1     -10.374  11.504  63.273  1.00  0.00    -0.435 A  
HETATM    8  C   UNL     1      -9.829  10.472  64.029  1.00  0.00    -0.324 A  
HETATM    9  O   UNL     1      -9.065   9.500  63.456  1.00  0.00    -0.366 OA 
HETATM   10  C   UNL     1     -10.054  10.394  65.399  1.00  0.00    -0.354 A  
HETATM   11  C   UNL     1     -10.850  11.354  66.029  1.00  0.00    -0.306 A  
HETATM   12  H   UNL     1      -8.693   8.794  63.972  1.00  0.00     0.000 HD 
ENDBRANCH   3   5
ENDBRANCH   2   3
TORSDOF 2
ENDMDL
MODEL       29
REMARK 921   NORMALIZED FREE ENERGY PREDICTED BY IDOCK:   -4.14 KCAL/MOL
REMARK 922        TOTAL FREE ENERGY PREDICTED BY IDOCK:   -4.70 KCAL/MOL
REMARK 923 INTER-LIGAND FREE ENERGY PREDICTED BY IDOCK:   -4.64 KCAL/MOL
REMARK 924 INTRA-LIGAND FREE ENERGY PREDICTED BY IDOCK:   -0.07 KCAL/MOL
REMARK 927      BINDING AFFINITY PREDICTED BY RF-SCORE:    0.00 PKD
ROOT
HETATM    1  C   UNL     1     -10.071  18.921  68.018  1.00  0.00    -0.377 C  
HETATM    2  O   UNL     1     -10.774  17.798  67.481  1.00  0.00    -0.375 OA 
ENDROOT
BRANCH   2   3
HETATM    3  C   UNL     1     -10.048  17.063  66.602  1.00  0.00    -0.306 C  
HETATM    4  O   UNL     1      -8.948  17.359  66.164  1.00  0.00    -0.437 OA 
BRANCH   3   5
HETATM    5  C   UNL     1     -10.780  15.828  66.210  1.00  0.00    -0.282 A  
HETATM    6  C   UNL     1     -11.093  15.651  64.854  1.00  0.00    -0.414 A  
HETATM    7  C   UNL     1     -11.806  14.526  64.431  1.00  0.00    -0.419 A  
HETATM    8  C   UNL     1     -12.202  13.579  65.369  1.00  0.00    -0.447 A  
HETATM    9  O   UNL     1     -12.917  12.477  65.007  1.00  0.00    -0.779 OA 
HETATM   10  C   UNL     1     -11.886  13.731  66.715  1.00  0.00    -0.454 A  
HETATM   11  C   UNL     1     -11.175  14.856  67.140  1.00  0.00    -0.345 A  
HETATM   12  H   UNL     1     -13.188  11.830  65.648  1.00  0.00     0.000 HD 
ENDBRANCH   3   5
ENDBRANCH   2   3
TORSDOF 2
ENDMDL
MODEL       30
REMARK 921   NORMALIZED FREE ENERGY PREDICTED BY IDOCK:   -4.13 KCAL/MOL
REMARK 922        TOTAL FREE ENERGY PREDICTED BY IDOCK:   -4.69 KCAL/MOL
REMARK 923 INTER-LIGAND FREE ENERGY PREDICTED BY IDOCK:   -4.61 KCAL/MOL
REMARK 924 INTRA-LIGAND FREE ENERGY PREDICTED BY IDOCK:   -0.09 KCAL/MOL
REMARK 927      BINDING AFFINITY PREDICTED BY RF-SCORE:    0.00 PKD
ROOT
HETATM    1  C   UNL     1      -8.916  11.162  68.152  1.00  0.00    -0.159 C  
HETATM    2  O   UNL     1      -9.999  10.840  69.028  1.00  0.00    -0.196 OA 
ENDROOT
BRANCH   2   3
HETATM    3  C   UNL     1      -9.672   9.958  70.005  1.00  0.00    -0.227 C  
HETATM    4  O   UNL     1      -8.570   9.464  70.179  1.00  0.00    -0.172 OA 
BRANCH   3   5
HETATM    5  C   UNL     1     -10.855   9.640  70.851  1.00  0.00    -0.409 A  
HETATM    6  C   UNL     1     -11.890  10.585  70.916  1.00  0.00    -0.455 A  
HETATM    7  C   UNL     1     -13.011  10.355  71.718  1.00  0.00    -0.580 A  
HETATM    8  C   UNL     1     -13.093   9.177  72.452  1.00  0.00    -0.423 A  
HETATM    9  O   UNL     1     -14.157   8.919  73.263  1.00  0.00    -1.211 OA 
HETATM   10  C   UNL     1     -12.084   8.223  72.386  1.00  0.00    -0.430 A  
HETATM   11  C   UNL     1     -10.961   8.451  71.586  1.00  0.00    -0.345 A  
HETATM   12  H   UNL     1     -14.213   8.114  73.765  1.00  0.00     0.000 HD 
ENDBRANCH   3   5
ENDBRANCH   2   3
TORSDOF 2
ENDMDL
MODEL       31
REMARK 921   NORMALIZED FREE ENERGY PREDICTED BY IDOCK:   -4.09 KCAL/MOL
REMARK 922        TOTAL FREE ENERGY PREDICTED BY IDOCK:   -4.65 KCAL/MOL
REMARK 923 INTER-LIGAND FREE ENERGY PREDICTED BY IDOCK:   -4.59 KCAL/MOL
REMARK 924 INTRA-LIGAND FREE ENERGY PREDICTED BY IDOCK:   -0.06 KCAL/MOL
REMARK 927      BINDING AFFINITY PREDICTED BY RF-SCORE:    0.00 PKD
ROOT
HETATM    1  C   UNL     1     -11.775  12.530  66.516  1.00  0.00    -0.391 C  
HETATM    2  O   UNL     1     -12.132  11.764  67.669  1.00  0.00    -0.598 OA 
ENDROOT
BRANCH   2   3
HETATM    3  C   UNL     1     -11.311  11.954  68.732  1.00  0.00    -0.274 C  
HETATM    4  O   UNL     1     -10.350  12.705  68.764  1.00  0.00    -0.202 OA 
BRANCH   3   5
HETATM    5  C   UNL     1     -11.722  11.100  69.880  1.00  0.00    -0.433 A  
HETATM    6  C   UNL     1     -11.047   9.884  70.070  1.00  0.00    -0.335 A  
HETATM    7  C   UNL     1     -11.411   9.027  71.112  1.00  0.00    -0.375 A  
HETATM    8  C   UNL     1     -12.448   9.391  71.963  1.00  0.00    -0.365 A  
HETATM    9  O   UNL     1     -12.851   8.578  72.980  1.00  0.00    -0.701 OA 
HETATM   10  C   UNL     1     -13.116  10.600  71.799  1.00  0.00    -0.571 A  
HETATM   11  C   UNL     1     -12.756  11.458  70.756  1.00  0.00    -0.343 A  
HETATM   12  H   UNL     1     -13.560   8.827  73.562  1.00  0.00     0.000 HD 
ENDBRANCH   3   5
ENDBRANCH   2   3
TORSDOF 2
ENDMDL
MODEL       32
REMARK 921   NORMALIZED FREE ENERGY PREDICTED BY IDOCK:   -4.08 KCAL/MOL
REMARK 922        TOTAL FREE ENERGY PREDICTED BY IDOCK:   -4.63 KCAL/MOL
REMARK 923 INTER-LIGAND FREE ENERGY PREDICTED BY IDOCK:   -4.57 KCAL/MOL
REMARK 924 INTRA-LIGAND FREE ENERGY PREDICTED BY IDOCK:   -0.06 KCAL/MOL
REMARK 927      BINDING AFFINITY PREDICTED BY RF-SCORE:    0.00 PKD
ROOT
HETATM    1  C   UNL     1      -8.464  10.157  68.280  1.00  0.00    -0.115 C  
HETATM    2  O   UNL     1      -9.065  10.923  67.233  1.00  0.00    -0.141 OA 
ENDROOT
BRANCH   2   3
HETATM    3  C   UNL     1     -10.364  10.610  66.997  1.00  0.00    -0.231 C  
HETATM    4  O   UNL     1     -10.979   9.689  67.511  1.00  0.00    -0.260 OA 
BRANCH   3   5
HETATM    5  C   UNL     1     -10.959  11.534  65.995  1.00  0.00    -0.316 A  
HETATM    6  C   UNL     1     -10.661  11.318  64.641  1.00  0.00    -0.392 A  
HETATM    7  C   UNL     1     -11.166  12.173  63.658  1.00  0.00    -0.540 A  
HETATM    8  C   UNL     1     -11.973  13.242  64.034  1.00  0.00    -0.465 A  
HETATM    9  O   UNL     1     -12.472  14.113  63.113  1.00  0.00    -1.126 OA 
HETATM   10  C   UNL     1     -12.292  13.460  65.370  1.00  0.00    -0.522 A  
HETATM   11  C   UNL     1     -11.786  12.608  66.354  1.00  0.00    -0.466 A  
HETATM   12  H   UNL     1     -13.022  14.844  63.370  1.00  0.00     0.000 HD 
ENDBRANCH   3   5
ENDBRANCH   2   3
TORSDOF 2
ENDMDL
MODEL       33
REMARK 921   NORMALIZED FREE ENERGY PREDICTED BY IDOCK:   -4.06 KCAL/MOL
REMARK 922        TOTAL FREE ENERGY PREDICTED BY IDOCK:   -4.61 KCAL/MOL
REMARK 923 INTER-LIGAND FREE ENERGY PREDICTED BY IDOCK:   -4.54 KCAL/MOL
REMARK 924 INTRA-LIGAND FREE ENERGY PREDICTED BY IDOCK:   -0.06 KCAL/MOL
REMARK 927      BINDING AFFINITY PREDICTED BY RF-SCORE:    0.00 PKD
ROOT
HETATM    1  C   UNL     1     -10.752  11.133  66.109  1.00  0.00    -0.225 C  
HETATM    2  O   UNL     1     -11.878  11.911  66.521  1.00  0.00    -0.579 OA 
ENDROOT
BRANCH   2   3
HETATM    3  C   UNL     1     -12.369  12.726  65.554  1.00  0.00    -0.434 C  
HETATM    4  O   UNL     1     -13.175  12.407  64.695  1.00  0.00    -0.822 OA 
BRANCH   3   5
HETATM    5  C   UNL     1     -11.777  14.088  65.657  1.00  0.00    -0.356 A  
HETATM    6  C   UNL     1     -11.738  14.877  64.497  1.00  0.00    -0.388 A  
HETATM    7  C   UNL     1     -11.166  16.152  64.526  1.00  0.00    -0.275 A  
HETATM    8  C   UNL     1     -10.635  16.633  65.717  1.00  0.00    -0.268 A  
HETATM    9  O   UNL     1     -10.049  17.861  65.788  1.00  0.00    -0.563 OA 
HETATM   10  C   UNL     1     -10.680  15.870  66.879  1.00  0.00    -0.289 A  
HETATM   11  C   UNL     1     -11.250  14.595  66.852  1.00  0.00    -0.345 A  
HETATM   12  H   UNL     1      -9.685  18.190  66.602  1.00  0.00     0.000 HD 
ENDBRANCH   3   5
ENDBRANCH   2   3
TORSDOF 2
ENDMDL
MODEL       34
REMARK 921   NORMALIZED FREE ENERGY PREDICTED BY IDOCK:   -4.05 KCAL/MOL
REMARK 922        TOTAL FREE ENERGY PREDICTED BY IDOCK:   -4.60 KCAL/MOL
REMARK 923 INTER-LIGAND FREE ENERGY PREDICTED BY IDOCK:   -4.51 KCAL/MOL
REMARK 924 INTRA-LIGAND FREE ENERGY PREDICTED BY IDOCK:   -0.09 KCAL/MOL
REMARK 927      BINDING AFFINITY PREDICTED BY RF-SCORE:    0.00 PKD
ROOT
HETATM    1  C   UNL     1     -10.889  14.154  64.829  1.00  0.00    -0.413 C  
HETATM    2  O   UNL     1     -11.104  15.231  65.744  1.00  0.00    -0.338 OA 
ENDROOT
BRANCH   2   3
HETATM    3  C   UNL     1     -10.932  16.460  65.196  1.00  0.00    -0.232 C  
HETATM    4  O   UNL     1     -11.347  16.819  64.106  1.00  0.00    -1.194 OA 
BRANCH   3   5
HETATM    5  C   UNL     1     -10.141  17.339  66.100  1.00  0.00    -0.312 A  
HETATM    6  C   UNL     1      -8.911  16.857  66.574  1.00  0.00    -0.305 A  
HETATM    7  C   UNL     1      -8.138  17.624  67.450  1.00  0.00    -0.217 A  
HETATM    8  C   UNL     1      -8.600  18.875  67.848  1.00  0.00    -0.294 A  
HETATM    9  O   UNL     1      -7.891  19.649  68.716  1.00  0.00    -0.349 OA 
HETATM   10  C   UNL     1      -9.808  19.374  67.375  1.00  0.00    -0.447 A  
HETATM   11  C   UNL     1     -10.583  18.607  66.500  1.00  0.00    -0.409 A  
HETATM   12  H   UNL     1      -8.206  20.503  68.989  1.00  0.00     0.000 HD 
ENDBRANCH   3   5
ENDBRANCH   2   3
TORSDOF 2
ENDMDL
MODEL       35
REMARK 921   NORMALIZED FREE ENERGY PREDICTED BY IDOCK:   -4.04 KCAL/MOL
REMARK 922        TOTAL FREE ENERGY PREDICTED BY IDOCK:   -4.59 KCAL/MOL
REMARK 923 INTER-LIGAND FREE ENERGY PREDICTED BY IDOCK:   -4.51 KCAL/MOL
REMARK 924 INTRA-LIGAND FREE ENERGY PREDICTED BY IDOCK:   -0.07 KCAL/MOL
REMARK 927      BINDING AFFINITY PREDICTED BY RF-SCORE:    0.00 PKD
ROOT
HETATM    1  C   UNL     1     -10.956  11.119  66.613  1.00  0.00    -0.228 C  
HETATM    2  O   UNL     1     -11.822  11.183  67.748  1.00  0.00    -0.608 OA 
ENDROOT
BRANCH   2   3
HETATM    3  C   UNL     1     -11.177  11.415  68.919  1.00  0.00    -0.248 C  
HETATM    4  O   UNL     1     -10.176  12.100  69.058  1.00  0.00    -0.093 OA 
BRANCH   3   5
HETATM    5  C   UNL     1     -11.844  10.702  70.042  1.00  0.00    -0.403 A  
HETATM    6  C   UNL     1     -12.755  11.421  70.831  1.00  0.00    -0.397 A  
HETATM    7  C   UNL     1     -13.387  10.813  71.918  1.00  0.00    -0.445 A  
HETATM    8  C   UNL     1     -13.107   9.483  72.211  1.00  0.00    -0.408 A  
HETATM    9  O   UNL     1     -13.683   8.853  73.274  1.00  0.00    -1.085 OA 
HETATM   10  C   UNL     1     -12.219   8.751  71.431  1.00  0.00    -0.359 A  
HETATM   11  C   UNL     1     -11.584   9.358  70.344  1.00  0.00    -0.241 A  
HETATM   12  H   UNL     1     -13.491   7.944  73.475  1.00  0.00     0.000 HD 
ENDBRANCH   3   5
ENDBRANCH   2   3
TORSDOF 2
ENDMDL
MODEL       36
REMARK 921   NORMALIZED FREE ENERGY PREDICTED BY IDOCK:   -4.03 KCAL/MOL
REMARK 922        TOTAL FREE ENERGY PREDICTED BY IDOCK:   -4.58 KCAL/MOL
REMARK 923 INTER-LIGAND FREE ENERGY PREDICTED BY IDOCK:   -4.50 KCAL/MOL
REMARK 924 INTRA-LIGAND FREE ENERGY PREDICTED BY IDOCK:   -0.08 KCAL/MOL
REMARK 927      BINDING AFFINITY PREDICTED BY RF-SCORE:    0.00 PKD
ROOT
HETATM    1  C   UNL     1     -11.751  14.526  70.335  1.00  0.00    -0.290 C  
HETATM    2  O   UNL     1     -11.473  13.647  69.242  1.00  0.00    -0.261 OA 
ENDROOT
BRANCH   2   3
HETATM    3  C   UNL     1     -10.526  14.112  68.389  1.00  0.00    -0.254 C  
HETATM    4  O   UNL     1      -9.421  14.523  68.707  1.00  0.00    -0.205 OA 
BRANCH   3   5
HETATM    5  C   UNL     1     -11.015  14.079  66.984  1.00  0.00    -0.302 A  
HETATM    6  C   UNL     1     -10.889  15.247  66.216  1.00  0.00    -0.312 A  
HETATM    7  C   UNL     1     -11.358  15.285  64.900  1.00  0.00    -0.387 A  
HETATM    8  C   UNL     1     -11.951  14.150  64.356  1.00  0.00    -0.457 A  
HETATM    9  O   UNL     1     -12.442  14.146  63.085  1.00  0.00    -1.126 OA 
HETATM   10  C   UNL     1     -12.068  12.980  65.098  1.00  0.00    -0.476 A  
HETATM   11  C   UNL     1     -11.601  12.941  66.414  1.00  0.00    -0.425 A  
HETATM   12  H   UNL     1     -12.847  13.371  62.713  1.00  0.00     0.000 HD 
ENDBRANCH   3   5
ENDBRANCH   2   3
TORSDOF 2
ENDMDL
MODEL       37
REMARK 921   NORMALIZED FREE ENERGY PREDICTED BY IDOCK:   -4.01 KCAL/MOL
REMARK 922        TOTAL FREE ENERGY PREDICTED BY IDOCK:   -4.56 KCAL/MOL
REMARK 923 INTER-LIGAND FREE ENERGY PREDICTED BY IDOCK:   -4.48 KCAL/MOL
REMARK 924 INTRA-LIGAND FREE ENERGY PREDICTED BY IDOCK:   -0.08 KCAL/MOL
REMARK 927      BINDING AFFINITY PREDICTED BY RF-SCORE:    0.00 PKD
ROOT
HETATM    1  C   UNL     1     -10.490  19.706  66.161  1.00  0.00    -0.524 C  
HETATM    2  O   UNL     1     -10.149  18.369  65.787  1.00  0.00    -0.553 OA 
ENDROOT
BRANCH   2   3
HETATM    3  C   UNL     1     -10.007  17.523  66.838  1.00  0.00    -0.313 C  
HETATM    4  O   UNL     1      -9.418  17.772  67.878  1.00  0.00    -0.260 OA 
BRANCH   3   5
HETATM    5  C   UNL     1     -10.655  16.214  66.558  1.00  0.00    -0.268 A  
HETATM    6  C   UNL     1     -11.266  15.539  67.626  1.00  0.00    -0.291 A  
HETATM    7  C   UNL     1     -11.863  14.292  67.429  1.00  0.00    -0.441 A  
HETATM    8  C   UNL     1     -11.850  13.723  66.160  1.00  0.00    -0.398 A  
HETATM    9  O   UNL     1     -12.402  12.500  65.924  1.00  0.00    -0.626 OA 
HETATM   10  C   UNL     1     -11.264  14.385  65.087  1.00  0.00    -0.359 A  
HETATM   11  C   UNL     1     -10.664  15.632  65.282  1.00  0.00    -0.444 A  
HETATM   12  H   UNL     1     -12.392  12.111  65.057  1.00  0.00     0.000 HD 
ENDBRANCH   3   5
ENDBRANCH   2   3
TORSDOF 2
ENDMDL
MODEL       38
REMARK 921   NORMALIZED FREE ENERGY PREDICTED BY IDOCK:   -4.01 KCAL/MOL
REMARK 922        TOTAL FREE ENERGY PREDICTED BY IDOCK:   -4.55 KCAL/MOL
REMARK 923 INTER-LIGAND FREE ENERGY PREDICTED BY IDOCK:   -4.45 KCAL/MOL
REMARK 924 INTRA-LIGAND FREE ENERGY PREDICTED BY IDOCK:   -0.10 KCAL/MOL
REMARK 927      BINDING AFFINITY PREDICTED BY RF-SCORE:    0.00 PKD
ROOT
HETATM    1  C   UNL     1      -8.207  13.098  68.219  1.00  0.00    -0.154 C  
HETATM    2  O   UNL     1      -9.550  12.627  68.355  1.00  0.00    -0.217 OA 
ENDROOT
BRANCH   2   3
HETATM    3  C   UNL     1     -10.483  13.612  68.335  1.00  0.00    -0.246 C  
HETATM    4  O   UNL     1     -10.843  14.271  69.298  1.00  0.00    -0.249 OA 
BRANCH   3   5
HETATM    5  C   UNL     1     -11.044  13.786  66.968  1.00  0.00    -0.313 A  
HETATM    6  C   UNL     1     -11.878  12.774  66.466  1.00  0.00    -0.471 A  
HETATM    7  C   UNL     1     -12.409  12.868  65.177  1.00  0.00    -0.547 A  
HETATM    8  C   UNL     1     -12.105  13.976  64.394  1.00  0.00    -0.458 A  
HETATM    9  O   UNL     1     -12.583  14.101  63.124  1.00  0.00    -1.058 OA 
HETATM   10  C   UNL     1     -11.294  14.995  64.882  1.00  0.00    -0.419 A  
HETATM   11  C   UNL     1     -10.760  14.902  66.170  1.00  0.00    -0.317 A  
HETATM   12  H   UNL     1     -12.374  14.858  62.589  1.00  0.00     0.000 HD 
ENDBRANCH   3   5
ENDBRANCH   2   3
TORSDOF 2
ENDMDL
MODEL       39
REMARK 921   NORMALIZED FREE ENERGY PREDICTED BY IDOCK:   -4.01 KCAL/MOL
REMARK 922        TOTAL FREE ENERGY PREDICTED BY IDOCK:   -4.55 KCAL/MOL
REMARK 923 INTER-LIGAND FREE ENERGY PREDICTED BY IDOCK:   -4.48 KCAL/MOL
REMARK 924 INTRA-LIGAND FREE ENERGY PREDICTED BY IDOCK:   -0.08 KCAL/MOL
REMARK 927      BINDING AFFINITY PREDICTED BY RF-SCORE:    0.00 PKD
ROOT
HETATM    1  C   UNL     1     -10.682  10.647  66.682  1.00  0.00    -0.181 C  
HETATM    2  O   UNL     1     -11.613  10.917  67.733  1.00  0.00    -0.523 OA 
ENDROOT
BRANCH   2   3
HETATM    3  C   UNL     1     -11.100  10.755  68.978  1.00  0.00    -0.253 C  
HETATM    4  O   UNL     1     -10.156  10.039  69.272  1.00  0.00    -0.188 OA 
BRANCH   3   5
HETATM    5  C   UNL     1     -11.857  11.561  69.974  1.00  0.00    -0.435 A  
HETATM    6  C   UNL     1     -11.793  12.959  69.872  1.00  0.00    -0.373 A  
HETATM    7  C   UNL     1     -12.458  13.768  70.798  1.00  0.00    -0.441 A  
HETATM    8  C   UNL     1     -13.187  13.174  71.822  1.00  0.00    -0.403 A  
HETATM    9  O   UNL     1     -13.835  13.922  72.759  1.00  0.00    -0.701 OA 
HETATM   10  C   UNL     1     -13.274  11.790  71.927  1.00  0.00    -0.468 A  
HETATM   11  C   UNL     1     -12.608  10.979  71.004  1.00  0.00    -0.512 A  
HETATM   12  H   UNL     1     -14.333  13.516  73.459  1.00  0.00     0.000 HD 
ENDBRANCH   3   5
ENDBRANCH   2   3
TORSDOF 2
ENDMDL
MODEL       40
REMARK 921   NORMALIZED FREE ENERGY PREDICTED BY IDOCK:   -4.00 KCAL/MOL
REMARK 922        TOTAL FREE ENERGY PREDICTED BY IDOCK:   -4.54 KCAL/MOL
REMARK 923 INTER-LIGAND FREE ENERGY PREDICTED BY IDOCK:   -4.45 KCAL/MOL
REMARK 924 INTRA-LIGAND FREE ENERGY PREDICTED BY IDOCK:   -0.10 KCAL/MOL
REMARK 927      BINDING AFFINITY PREDICTED BY RF-SCORE:    0.00 PKD
ROOT
HETATM    1  C   UNL     1     -10.674  14.704  66.407  1.00  0.00    -0.309 C  
HETATM    2  O   UNL     1     -10.596  14.476  67.816  1.00  0.00    -0.247 OA 
ENDROOT
BRANCH   2   3
HETATM    3  C   UNL     1     -11.238  15.410  68.561  1.00  0.00    -0.318 C  
HETATM    4  O   UNL     1     -11.231  16.613  68.355  1.00  0.00    -0.357 OA 
BRANCH   3   5
HETATM    5  C   UNL     1     -11.954  14.779  69.703  1.00  0.00    -0.360 A  
HETATM    6  C   UNL     1     -11.826  13.392  69.873  1.00  0.00    -0.385 A  
HETATM    7  C   UNL     1     -12.501  12.739  70.908  1.00  0.00    -0.373 A  
HETATM    8  C   UNL     1     -13.301  13.479  71.772  1.00  0.00    -0.397 A  
HETATM    9  O   UNL     1     -13.994  12.883  72.783  1.00  0.00    -0.730 OA 
HETATM   10  C   UNL     1     -13.425  14.856  71.628  1.00  0.00    -0.484 A  
HETATM   11  C   UNL     1     -12.753  15.510  70.592  1.00  0.00    -0.487 A  
HETATM   12  H   UNL     1     -14.541  13.389  73.374  1.00  0.00     0.000 HD 
ENDBRANCH   3   5
ENDBRANCH   2   3
TORSDOF 2
ENDMDL
MODEL       41
REMARK 921   NORMALIZED FREE ENERGY PREDICTED BY IDOCK:   -3.99 KCAL/MOL
REMARK 922        TOTAL FREE ENERGY PREDICTED BY IDOCK:   -4.54 KCAL/MOL
REMARK 923 INTER-LIGAND FREE ENERGY PREDICTED BY IDOCK:   -4.45 KCAL/MOL
REMARK 924 INTRA-LIGAND FREE ENERGY PREDICTED BY IDOCK:   -0.09 KCAL/MOL
REMARK 927      BINDING AFFINITY PREDICTED BY RF-SCORE:    0.00 PKD
ROOT
HETATM    1  C   UNL     1     -10.246  15.848  68.208  1.00  0.00    -0.227 C  
HETATM    2  O   UNL     1     -10.951  15.896  66.966  1.00  0.00    -0.291 OA 
ENDROOT
BRANCH   2   3
HETATM    3  C   UNL     1     -10.162  15.712  65.878  1.00  0.00    -0.351 C  
HETATM    4  O   UNL     1      -9.198  16.396  65.574  1.00  0.00    -0.419 OA 
BRANCH   3   5
HETATM    5  C   UNL     1     -10.636  14.558  65.066  1.00  0.00    -0.458 A  
HETATM    6  C   UNL     1     -11.843  14.699  64.364  1.00  0.00    -0.405 A  
HETATM    7  C   UNL     1     -12.353  13.639  63.611  1.00  0.00    -0.328 A  
HETATM    8  C   UNL     1     -11.651  12.439  63.561  1.00  0.00    -0.497 A  
HETATM    9  O   UNL     1     -12.120  11.371  62.856  1.00  0.00    -0.919 OA 
HETATM   10  C   UNL     1     -10.446  12.289  64.237  1.00  0.00    -0.375 A  
HETATM   11  C   UNL     1      -9.935  13.347  64.993  1.00  0.00    -0.179 A  
HETATM   12  H   UNL     1     -11.641  10.551  62.822  1.00  0.00     0.000 HD 
ENDBRANCH   3   5
ENDBRANCH   2   3
TORSDOF 2
ENDMDL
MODEL       42
REMARK 921   NORMALIZED FREE ENERGY PREDICTED BY IDOCK:   -3.98 KCAL/MOL
REMARK 922        TOTAL FREE ENERGY PREDICTED BY IDOCK:   -4.52 KCAL/MOL
REMARK 923 INTER-LIGAND FREE ENERGY PREDICTED BY IDOCK:   -4.47 KCAL/MOL
REMARK 924 INTRA-LIGAND FREE ENERGY PREDICTED BY IDOCK:   -0.05 KCAL/MOL
REMARK 927      BINDING AFFINITY PREDICTED BY RF-SCORE:    0.00 PKD
ROOT
HETATM    1  C   UNL     1     -10.148   9.742  69.586  1.00  0.00    -0.229 C  
HETATM    2  O   UNL     1     -10.285  11.135  69.299  1.00  0.00    -0.184 OA 
ENDROOT
BRANCH   2   3
HETATM    3  C   UNL     1     -11.551  11.511  68.987  1.00  0.00    -0.318 C  
HETATM    4  O   UNL     1     -12.147  11.223  67.961  1.00  0.00    -0.638 OA 
BRANCH   3   5
HETATM    5  C   UNL     1     -12.136  12.355  70.064  1.00  0.00    -0.335 A  
HETATM    6  C   UNL     1     -12.734  11.707  71.155  1.00  0.00    -0.426 A  
HETATM    7  C   UNL     1     -13.327  12.447  72.181  1.00  0.00    -0.508 A  
HETATM    8  C   UNL     1     -13.316  13.836  72.113  1.00  0.00    -0.476 A  
HETATM    9  O   UNL     1     -13.900  14.599  73.080  1.00  0.00    -0.522 OA 
HETATM   10  C   UNL     1     -12.713  14.494  71.047  1.00  0.00    -0.413 A  
HETATM   11  C   UNL     1     -12.121  13.756  70.019  1.00  0.00    -0.416 A  
HETATM   12  H   UNL     1     -13.893  15.548  73.033  1.00  0.00     0.000 HD 
ENDBRANCH   3   5
ENDBRANCH   2   3
TORSDOF 2
ENDMDL
MODEL       43
REMARK 921   NORMALIZED FREE ENERGY PREDICTED BY IDOCK:   -3.95 KCAL/MOL
REMARK 922        TOTAL FREE ENERGY PREDICTED BY IDOCK:   -4.48 KCAL/MOL
REMARK 923 INTER-LIGAND FREE ENERGY PREDICTED BY IDOCK:   -4.38 KCAL/MOL
REMARK 924 INTRA-LIGAND FREE ENERGY PREDICTED BY IDOCK:   -0.10 KCAL/MOL
REMARK 927      BINDING AFFINITY PREDICTED BY RF-SCORE:    0.00 PKD
ROOT
HETATM    1  C   UNL     1     -11.309  13.474  64.508  1.00  0.00    -0.365 C  
HETATM    2  O   UNL     1     -10.829  13.686  65.837  1.00  0.00    -0.274 OA 
ENDROOT
BRANCH   2   3
HETATM    3  C   UNL     1     -11.546  13.040  66.791  1.00  0.00    -0.368 C  
HETATM    4  O   UNL     1     -12.030  11.925  66.685  1.00  0.00    -0.601 OA 
BRANCH   3   5
HETATM    5  C   UNL     1     -11.693  13.884  68.007  1.00  0.00    -0.387 A  
HETATM    6  C   UNL     1     -11.413  15.255  67.895  1.00  0.00    -0.325 A  
HETATM    7  C   UNL     1     -11.504  16.091  69.011  1.00  0.00    -0.360 A  
HETATM    8  C   UNL     1     -11.877  15.552  70.237  1.00  0.00    -0.357 A  
HETATM    9  O   UNL     1     -11.958  16.324  71.357  1.00  0.00    -0.609 OA 
HETATM   10  C   UNL     1     -12.173  14.199  70.362  1.00  0.00    -0.427 A  
HETATM   11  C   UNL     1     -12.081  13.361  69.248  1.00  0.00    -0.312 A  
HETATM   12  H   UNL     1     -12.213  15.956  72.195  1.00  0.00     0.000 HD 
ENDBRANCH   3   5
ENDBRANCH   2   3
TORSDOF 2
ENDMDL
MODEL       44
REMARK 921   NORMALIZED FREE ENERGY PREDICTED BY IDOCK:   -3.92 KCAL/MOL
REMARK 922        TOTAL FREE ENERGY PREDICTED BY IDOCK:   -4.46 KCAL/MOL
REMARK 923 INTER-LIGAND FREE ENERGY PREDICTED BY IDOCK:   -4.37 KCAL/MOL
REMARK 924 INTRA-LIGAND FREE ENERGY PREDICTED BY IDOCK:   -0.09 KCAL/MOL
REMARK 927      BINDING AFFINITY PREDICTED BY RF-SCORE:    0.00 PKD
ROOT
HETATM    1  C   UNL     1     -11.864  14.193  70.524  1.00  0.00    -0.282 C  
HETATM    2  O   UNL     1     -12.352  14.037  69.190  1.00  0.00    -0.313 OA 
ENDROOT
BRANCH   2   3
HETATM    3  C   UNL     1     -11.833  14.926  68.306  1.00  0.00    -0.278 C  
HETATM    4  O   UNL     1     -11.539  16.085  68.552  1.00  0.00    -0.381 OA 
BRANCH   3   5
HETATM    5  C   UNL     1     -11.679  14.309  66.961  1.00  0.00    -0.427 A  
HETATM    6  C   UNL     1     -11.146  15.101  65.932  1.00  0.00    -0.319 A  
HETATM    7  C   UNL     1     -11.007  14.585  64.641  1.00  0.00    -0.351 A  
HETATM    8  C   UNL     1     -11.400  13.276  64.384  1.00  0.00    -0.383 A  
HETATM    9  O   UNL     1     -11.302  12.737  63.136  1.00  0.00    -0.755 OA 
HETATM   10  C   UNL     1     -11.914  12.473  65.396  1.00  0.00    -0.492 A  
HETATM   11  C   UNL     1     -12.056  12.987  66.688  1.00  0.00    -0.386 A  
HETATM   12  H   UNL     1     -11.571  11.842  62.961  1.00  0.00     0.000 HD 
ENDBRANCH   3   5
ENDBRANCH   2   3
TORSDOF 2
ENDMDL
MODEL       45
REMARK 921   NORMALIZED FREE ENERGY PREDICTED BY IDOCK:   -3.92 KCAL/MOL
REMARK 922        TOTAL FREE ENERGY PREDICTED BY IDOCK:   -4.45 KCAL/MOL
REMARK 923 INTER-LIGAND FREE ENERGY PREDICTED BY IDOCK:   -4.38 KCAL/MOL
REMARK 924 INTRA-LIGAND FREE ENERGY PREDICTED BY IDOCK:   -0.07 KCAL/MOL
REMARK 927      BINDING AFFINITY PREDICTED BY RF-SCORE:    0.00 PKD
ROOT
HETATM    1  C   UNL     1     -13.485   8.975  72.338  1.00  0.00    -0.470 C  
HETATM    2  O   UNL     1     -13.389   9.939  71.287  1.00  0.00    -0.383 OA 
ENDROOT
BRANCH   2   3
HETATM    3  C   UNL     1     -12.121  10.349  71.030  1.00  0.00    -0.385 C  
HETATM    4  O   UNL     1     -11.103   9.757  71.351  1.00  0.00    -0.359 OA 
BRANCH   3   5
HETATM    5  C   UNL     1     -12.119  11.650  70.308  1.00  0.00    -0.443 A  
HETATM    6  C   UNL     1     -12.415  12.809  71.041  1.00  0.00    -0.369 A  
HETATM    7  C   UNL     1     -12.458  14.055  70.410  1.00  0.00    -0.418 A  
HETATM    8  C   UNL     1     -12.203  14.137  69.046  1.00  0.00    -0.239 A  
HETATM    9  O   UNL     1     -12.254  15.327  68.384  1.00  0.00    -0.556 OA 
HETATM   10  C   UNL     1     -11.892  13.000  68.308  1.00  0.00    -0.381 A  
HETATM   11  C   UNL     1     -11.850  11.753  68.936  1.00  0.00    -0.381 A  
HETATM   12  H   UNL     1     -12.080  15.383  67.451  1.00  0.00     0.000 HD 
ENDBRANCH   3   5
ENDBRANCH   2   3
TORSDOF 2
ENDMDL
MODEL       46
REMARK 921   NORMALIZED FREE ENERGY PREDICTED BY IDOCK:   -3.90 KCAL/MOL
REMARK 922        TOTAL FREE ENERGY PREDICTED BY IDOCK:   -4.44 KCAL/MOL
REMARK 923 INTER-LIGAND FREE ENERGY PREDICTED BY IDOCK:   -4.34 KCAL/MOL
REMARK 924 INTRA-LIGAND FREE ENERGY PREDICTED BY IDOCK:   -0.09 KCAL/MOL
REMARK 927      BINDING AFFINITY PREDICTED BY RF-SCORE:    0.00 PKD
ROOT
HETATM    1  C   UNL     1     -12.160  14.327  66.463  1.00  0.00    -0.429 C  
HETATM    2  O   UNL     1     -11.103  15.287  66.514  1.00  0.00    -0.325 OA 
ENDROOT
BRANCH   2   3
HETATM    3  C   UNL     1     -10.936  15.858  67.734  1.00  0.00    -0.315 C  
HETATM    4  O   UNL     1     -11.090  15.300  68.808  1.00  0.00    -0.244 OA 
BRANCH   3   5
HETATM    5  C   UNL     1     -10.551  17.289  67.602  1.00  0.00    -0.350 A  
HETATM    6  C   UNL     1     -10.130  17.966  68.758  1.00  0.00    -0.384 A  
HETATM    7  C   UNL     1      -9.786  19.319  68.701  1.00  0.00    -0.494 A  
HETATM    8  C   UNL     1      -9.862  19.991  67.486  1.00  0.00    -0.416 A  
HETATM    9  O   UNL     1      -9.556  21.315  67.386  1.00  0.00    -0.581 OA 
HETATM   10  C   UNL     1     -10.261  19.331  66.329  1.00  0.00    -0.546 A  
HETATM   11  C   UNL     1     -10.608  17.979  66.383  1.00  0.00    -0.259 A  
HETATM   12  H   UNL     1      -9.609  21.775  66.556  1.00  0.00     0.000 HD 
ENDBRANCH   3   5
ENDBRANCH   2   3
TORSDOF 2
ENDMDL
MODEL       47
REMARK 921   NORMALIZED FREE ENERGY PREDICTED BY IDOCK:   -3.87 KCAL/MOL
REMARK 922        TOTAL FREE ENERGY PREDICTED BY IDOCK:   -4.40 KCAL/MOL
REMARK 923 INTER-LIGAND FREE ENERGY PREDICTED BY IDOCK:   -4.32 KCAL/MOL
REMARK 924 INTRA-LIGAND FREE ENERGY PREDICTED BY IDOCK:   -0.09 KCAL/MOL
REMARK 927      BINDING AFFINITY PREDICTED BY RF-SCORE:    0.00 PKD
ROOT
HETATM    1  C   UNL     1      -8.164   8.557  65.599  1.00  0.00    -0.130 C  
HETATM    2  O   UNL     1      -9.446   9.090  65.258  1.00  0.00    -0.186 OA 
ENDROOT
BRANCH   2   3
HETATM    3  C   UNL     1      -9.402  10.078  64.329  1.00  0.00    -0.288 C  
HETATM    4  O   UNL     1      -8.615  10.145  63.398  1.00  0.00    -0.168 OA 
BRANCH   3   5
HETATM    5  C   UNL     1     -10.442  11.107  64.598  1.00  0.00    -0.400 A  
HETATM    6  C   UNL     1     -11.077  11.704  63.497  1.00  0.00    -0.476 A  
HETATM    7  C   UNL     1     -12.040  12.698  63.688  1.00  0.00    -0.632 A  
HETATM    8  C   UNL     1     -12.366  13.092  64.981  1.00  0.00    -0.473 A  
HETATM    9  O   UNL     1     -13.284  14.072  65.215  1.00  0.00    -0.782 OA 
HETATM   10  C   UNL     1     -11.758  12.499  66.083  1.00  0.00    -0.466 A  
HETATM   11  C   UNL     1     -10.794  11.506  65.894  1.00  0.00    -0.316 A  
HETATM   12  H   UNL     1     -13.506  14.341  66.099  1.00  0.00     0.000 HD 
ENDBRANCH   3   5
ENDBRANCH   2   3
TORSDOF 2
ENDMDL
MODEL       48
REMARK 921   NORMALIZED FREE ENERGY PREDICTED BY IDOCK:   -3.84 KCAL/MOL
REMARK 922        TOTAL FREE ENERGY PREDICTED BY IDOCK:   -4.37 KCAL/MOL
REMARK 923 INTER-LIGAND FREE ENERGY PREDICTED BY IDOCK:   -4.29 KCAL/MOL
REMARK 924 INTRA-LIGAND FREE ENERGY PREDICTED BY IDOCK:   -0.08 KCAL/MOL
REMARK 927      BINDING AFFINITY PREDICTED BY RF-SCORE:    0.00 PKD
ROOT
HETATM    1  C   UNL     1     -14.114  14.567  72.276  1.00  0.00    -0.500 C  
HETATM    2  O   UNL     1     -12.804  14.127  71.913  1.00  0.00    -0.323 OA 
ENDROOT
BRANCH   2   3
HETATM    3  C   UNL     1     -12.454  14.433  70.639  1.00  0.00    -0.350 C  
HETATM    4  O   UNL     1     -12.398  15.557  70.166  1.00  0.00    -0.373 OA 
BRANCH   3   5
HETATM    5  C   UNL     1     -12.155  13.202  69.859  1.00  0.00    -0.357 A  
HETATM    6  C   UNL     1     -12.265  11.966  70.514  1.00  0.00    -0.426 A  
HETATM    7  C   UNL     1     -11.967  10.778  69.841  1.00  0.00    -0.418 A  
HETATM    8  C   UNL     1     -11.562  10.831  68.512  1.00  0.00    -0.255 A  
HETATM    9  O   UNL     1     -11.241   9.700  67.822  1.00  0.00    -0.504 OA 
HETATM   10  C   UNL     1     -11.464  12.046  67.843  1.00  0.00    -0.396 A  
HETATM   11  C   UNL     1     -11.759  13.235  68.514  1.00  0.00    -0.388 A  
HETATM   12  H   UNL     1     -10.963   9.737  66.913  1.00  0.00     0.000 HD 
ENDBRANCH   3   5
ENDBRANCH   2   3
TORSDOF 2
ENDMDL
MODEL       49
REMARK 921   NORMALIZED FREE ENERGY PREDICTED BY IDOCK:   -3.74 KCAL/MOL
REMARK 922        TOTAL FREE ENERGY PREDICTED BY IDOCK:   -4.26 KCAL/MOL
REMARK 923 INTER-LIGAND FREE ENERGY PREDICTED BY IDOCK:   -4.19 KCAL/MOL
REMARK 924 INTRA-LIGAND FREE ENERGY PREDICTED BY IDOCK:   -0.07 KCAL/MOL
REMARK 927      BINDING AFFINITY PREDICTED BY RF-SCORE:    0.00 PKD
ROOT
HETATM    1  C   UNL     1      -9.571  11.522  66.190  1.00  0.00    -0.225 C  
HETATM    2  O   UNL     1     -10.172  12.669  66.795  1.00  0.00    -0.232 OA 
ENDROOT
BRANCH   2   3
HETATM    3  C   UNL     1     -11.301  12.394  67.496  1.00  0.00    -0.315 C  
HETATM    4  O   UNL     1     -12.021  11.422  67.334  1.00  0.00    -0.606 OA 
BRANCH   3   5
HETATM    5  C   UNL     1     -11.574  13.457  68.501  1.00  0.00    -0.368 A  
HETATM    6  C   UNL     1     -11.844  13.062  69.820  1.00  0.00    -0.381 A  
HETATM    7  C   UNL     1     -12.138  14.014  70.800  1.00  0.00    -0.417 A  
HETATM    8  C   UNL     1     -12.159  15.361  70.456  1.00  0.00    -0.371 A  
HETATM    9  O   UNL     1     -12.461  16.323  71.372  1.00  0.00    -0.552 OA 
HETATM   10  C   UNL     1     -11.878  15.771  69.157  1.00  0.00    -0.367 A  
HETATM   11  C   UNL     1     -11.586  14.821  68.176  1.00  0.00    -0.356 A  
HETATM   12  H   UNL     1     -12.476  17.244  71.137  1.00  0.00     0.000 HD 
ENDBRANCH   3   5
ENDBRANCH   2   3
TORSDOF 2
ENDMDL
MODEL       50
REMARK 921   NORMALIZED FREE ENERGY PREDICTED BY IDOCK:   -3.74 KCAL/MOL
REMARK 922        TOTAL FREE ENERGY PREDICTED BY IDOCK:   -4.25 KCAL/MOL
REMARK 923 INTER-LIGAND FREE ENERGY PREDICTED BY IDOCK:   -4.18 KCAL/MOL
REMARK 924 INTRA-LIGAND FREE ENERGY PREDICTED BY IDOCK:   -0.07 KCAL/MOL
REMARK 927      BINDING AFFINITY PREDICTED BY RF-SCORE:    0.00 PKD
ROOT
HETATM    1  C   UNL     1     -10.158  19.836  66.438  1.00  0.00    -0.491 C  
HETATM    2  O   UNL     1     -10.767  18.581  66.746  1.00  0.00    -0.372 OA 
ENDROOT
BRANCH   2   3
HETATM    3  C   UNL     1      -9.881  17.595  67.036  1.00  0.00    -0.307 C  
HETATM    4  O   UNL     1      -8.743  17.759  67.444  1.00  0.00    -0.231 OA 
BRANCH   3   5
HETATM    5  C   UNL     1     -10.473  16.255  66.773  1.00  0.00    -0.287 A  
HETATM    6  C   UNL     1     -10.319  15.709  65.490  1.00  0.00    -0.421 A  
HETATM    7  C   UNL     1     -10.879  14.468  65.175  1.00  0.00    -0.407 A  
HETATM    8  C   UNL     1     -11.591  13.776  66.149  1.00  0.00    -0.352 A  
HETATM    9  O   UNL     1     -12.172  12.572  65.883  1.00  0.00    -0.593 OA 
HETATM   10  C   UNL     1     -11.738  14.295  67.431  1.00  0.00    -0.422 A  
HETATM   11  C   UNL     1     -11.180  15.537  67.746  1.00  0.00    -0.302 A  
HETATM   12  H   UNL     1     -12.659  12.099  66.548  1.00  0.00     0.000 HD 
ENDBRANCH   3   5
ENDBRANCH   2   3
TORSDOF 2
ENDMDL
MODEL       51
REMARK 921   NORMALIZED FREE ENERGY PREDICTED BY IDOCK:   -3.72 KCAL/MOL
REMARK 922        TOTAL FREE ENERGY PREDICTED BY IDOCK:   -4.24 KCAL/MOL
REMARK 923 INTER-LIGAND FREE ENERGY PREDICTED BY IDOCK:   -4.16 KCAL/MOL
REMARK 924 INTRA-LIGAND FREE ENERGY PREDICTED BY IDOCK:   -0.07 KCAL/MOL
REMARK 927      BINDING AFFINITY PREDICTED BY RF-SCORE:    0.00 PKD
ROOT
HETATM    1  C   UNL     1      -6.578  17.057  69.430  1.00  0.00    -0.225 C  
HETATM    2  O   UNL     1      -7.800  17.456  68.806  1.00  0.00    -0.266 OA 
ENDROOT
BRANCH   2   3
HETATM    3  C   UNL     1      -8.752  16.489  68.790  1.00  0.00    -0.259 C  
HETATM    4  O   UNL     1      -8.973  15.692  69.688  1.00  0.00    -0.262 OA 
BRANCH   3   5
HETATM    5  C   UNL     1      -9.502  16.502  67.504  1.00  0.00    -0.224 A  
HETATM    6  C   UNL     1      -9.641  15.290  66.811  1.00  0.00    -0.257 A  
HETATM    7  C   UNL     1     -10.308  15.248  65.584  1.00  0.00    -0.389 A  
HETATM    8  C   UNL     1     -10.836  16.420  65.055  1.00  0.00    -0.273 A  
HETATM    9  O   UNL     1     -11.476  16.431  63.852  1.00  0.00    -1.569 OA 
HETATM   10  C   UNL     1     -10.721  17.627  65.737  1.00  0.00    -0.110 A  
HETATM   11  C   UNL     1     -10.053  17.672  66.963  1.00  0.00    -0.330 A  
HETATM   12  H   UNL     1     -11.837  17.233  63.490  1.00  0.00     0.000 HD 
ENDBRANCH   3   5
ENDBRANCH   2   3
TORSDOF 2
ENDMDL
MODEL       52
REMARK 921   NORMALIZED FREE ENERGY PREDICTED BY IDOCK:   -3.70 KCAL/MOL
REMARK 922        TOTAL FREE ENERGY PREDICTED BY IDOCK:   -4.20 KCAL/MOL
REMARK 923 INTER-LIGAND FREE ENERGY PREDICTED BY IDOCK:   -4.09 KCAL/MOL
REMARK 924 INTRA-LIGAND FREE ENERGY PREDICTED BY IDOCK:   -0.12 KCAL/MOL
REMARK 927      BINDING AFFINITY PREDICTED BY RF-SCORE:    0.00 PKD
ROOT
HETATM    1  C   UNL     1      -8.686  14.628  67.893  1.00  0.00    -0.169 C  
HETATM    2  O   UNL     1      -9.819  15.138  68.600  1.00  0.00    -0.204 OA 
ENDROOT
BRANCH   2   3
HETATM    3  C   UNL     1     -10.753  15.712  67.801  1.00  0.00    -0.297 C  
HETATM    4  O   UNL     1     -11.714  15.143  67.307  1.00  0.00    -0.295 OA 
BRANCH   3   5
HETATM    5  C   UNL     1     -10.450  17.152  67.578  1.00  0.00    -0.348 A  
HETATM    6  C   UNL     1     -10.198  17.952  68.703  1.00  0.00    -0.387 A  
HETATM    7  C   UNL     1      -9.938  19.318  68.557  1.00  0.00    -0.513 A  
HETATM    8  C   UNL     1      -9.929  19.877  67.284  1.00  0.00    -0.421 A  
HETATM    9  O   UNL     1      -9.700  21.207  67.095  1.00  0.00    -0.655 OA 
HETATM   10  C   UNL     1     -10.160  19.094  66.158  1.00  0.00    -0.492 A  
HETATM   11  C   UNL     1     -10.422  17.729  66.302  1.00  0.00    -0.307 A  
HETATM   12  H   UNL     1      -9.694  21.590  66.225  1.00  0.00     0.000 HD 
ENDBRANCH   3   5
ENDBRANCH   2   3
TORSDOF 2
ENDMDL
MODEL       53
REMARK 921   NORMALIZED FREE ENERGY PREDICTED BY IDOCK:   -3.69 KCAL/MOL
REMARK 922        TOTAL FREE ENERGY PREDICTED BY IDOCK:   -4.19 KCAL/MOL
REMARK 923 INTER-LIGAND FREE ENERGY PREDICTED BY IDOCK:   -4.11 KCAL/MOL
REMARK 924 INTRA-LIGAND FREE ENERGY PREDICTED BY IDOCK:   -0.09 KCAL/MOL
REMARK 927      BINDING AFFINITY PREDICTED BY RF-SCORE:    0.00 PKD
ROOT
HETATM    1  C   UNL     1     -12.008  14.641  65.023  1.00  0.00    -0.364 C  
HETATM    2  O   UNL     1     -12.606  13.992  66.147  1.00  0.00    -0.468 OA 
ENDROOT
BRANCH   2   3
HETATM    3  C   UNL     1     -11.952  14.204  67.317  1.00  0.00    -0.414 C  
HETATM    4  O   UNL     1     -11.538  15.281  67.716  1.00  0.00    -0.335 OA 
BRANCH   3   5
HETATM    5  C   UNL     1     -11.778  12.930  68.067  1.00  0.00    -0.401 A  
HETATM    6  C   UNL     1     -11.354  11.799  67.352  1.00  0.00    -0.376 A  
HETATM    7  C   UNL     1     -11.203  10.569  67.997  1.00  0.00    -0.361 A  
HETATM    8  C   UNL     1     -11.475  10.475  69.358  1.00  0.00    -0.262 A  
HETATM    9  O   UNL     1     -11.361   9.292  70.024  1.00  0.00    -0.365 OA 
HETATM   10  C   UNL     1     -11.879  11.590  70.084  1.00  0.00    -0.440 A  
HETATM   11  C   UNL     1     -12.033  12.821  69.440  1.00  0.00    -0.321 A  
HETATM   12  H   UNL     1     -11.547   9.228  70.954  1.00  0.00     0.000 HD 
ENDBRANCH   3   5
ENDBRANCH   2   3
TORSDOF 2
ENDMDL
MODEL       54
REMARK 921   NORMALIZED FREE ENERGY PREDICTED BY IDOCK:   -3.66 KCAL/MOL
REMARK 922        TOTAL FREE ENERGY PREDICTED BY IDOCK:   -4.17 KCAL/MOL
REMARK 923 INTER-LIGAND FREE ENERGY PREDICTED BY IDOCK:   -4.07 KCAL/MOL
REMARK 924 INTRA-LIGAND FREE ENERGY PREDICTED BY IDOCK:   -0.10 KCAL/MOL
REMARK 927      BINDING AFFINITY PREDICTED BY RF-SCORE:    0.00 PKD
ROOT
HETATM    1  C   UNL     1     -11.366  15.549  69.639  1.00  0.00    -0.315 C  
HETATM    2  O   UNL     1     -11.423  16.464  68.543  1.00  0.00    -0.351 OA 
ENDROOT
BRANCH   2   3
HETATM    3  C   UNL     1     -10.382  16.356  67.680  1.00  0.00    -0.284 C  
HETATM    4  O   UNL     1     -10.044  15.339  67.096  1.00  0.00    -0.236 OA 
BRANCH   3   5
HETATM    5  C   UNL     1      -9.670  17.655  67.541  1.00  0.00    -0.280 A  
HETATM    6  C   UNL     1     -10.418  18.834  67.683  1.00  0.00    -0.495 A  
HETATM    7  C   UNL     1      -9.810  20.083  67.532  1.00  0.00    -0.551 A  
HETATM    8  C   UNL     1      -8.451  20.148  67.242  1.00  0.00    -0.342 A  
HETATM    9  O   UNL     1      -7.819  21.342  67.066  1.00  0.00    -0.739 OA 
HETATM   10  C   UNL     1      -7.692  18.990  67.115  1.00  0.00    -0.249 A  
HETATM   11  C   UNL     1      -8.299  17.740  67.263  1.00  0.00    -0.228 A  
HETATM   12  H   UNL     1      -6.891  21.387  66.867  1.00  0.00     0.000 HD 
ENDBRANCH   3   5
ENDBRANCH   2   3
TORSDOF 2
ENDMDL
MODEL       55
REMARK 921   NORMALIZED FREE ENERGY PREDICTED BY IDOCK:   -3.64 KCAL/MOL
REMARK 922        TOTAL FREE ENERGY PREDICTED BY IDOCK:   -4.14 KCAL/MOL
REMARK 923 INTER-LIGAND FREE ENERGY PREDICTED BY IDOCK:   -4.08 KCAL/MOL
REMARK 924 INTRA-LIGAND FREE ENERGY PREDICTED BY IDOCK:   -0.07 KCAL/MOL
REMARK 927      BINDING AFFINITY PREDICTED BY RF-SCORE:    0.00 PKD
ROOT
HETATM    1  C   UNL     1      -9.971  10.050  69.491  1.00  0.00    -0.228 C  
HETATM    2  O   UNL     1     -10.104  11.148  68.585  1.00  0.00    -0.187 OA 
ENDROOT
BRANCH   2   3
HETATM    3  C   UNL     1     -11.390  11.493  68.324  1.00  0.00    -0.286 C  
HETATM    4  O   UNL     1     -12.371  11.099  68.935  1.00  0.00    -0.512 OA 
BRANCH   3   5
HETATM    5  C   UNL     1     -11.467  12.419  67.162  1.00  0.00    -0.423 A  
HETATM    6  C   UNL     1     -11.371  11.868  65.875  1.00  0.00    -0.365 A  
HETATM    7  C   UNL     1     -11.405  12.692  64.747  1.00  0.00    -0.350 A  
HETATM    8  C   UNL     1     -11.537  14.066  64.911  1.00  0.00    -0.367 A  
HETATM    9  O   UNL     1     -11.554  14.911  63.842  1.00  0.00    -0.634 OA 
HETATM   10  C   UNL     1     -11.650  14.627  66.179  1.00  0.00    -0.332 A  
HETATM   11  C   UNL     1     -11.614  13.805  67.308  1.00  0.00    -0.391 A  
HETATM   12  H   UNL     1     -11.644  15.850  63.954  1.00  0.00     0.000 HD 
ENDBRANCH   3   5
ENDBRANCH   2   3
TORSDOF 2
ENDMDL
MODEL       56
REMARK 921   NORMALIZED FREE ENERGY PREDICTED BY IDOCK:   -3.63 KCAL/MOL
REMARK 922        TOTAL FREE ENERGY PREDICTED BY IDOCK:   -4.13 KCAL/MOL
REMARK 923 INTER-LIGAND FREE ENERGY PREDICTED BY IDOCK:   -4.04 KCAL/MOL
REMARK 924 INTRA-LIGAND FREE ENERGY PREDICTED BY IDOCK:   -0.09 KCAL/MOL
REMARK 927      BINDING AFFINITY PREDICTED BY RF-SCORE:    0.00 PKD
ROOT
HETATM    1  C   UNL     1      -9.566  10.944  62.841  1.00  0.00    -0.344 C  
HETATM    2  O   UNL     1     -10.667  11.093  63.741  1.00  0.00    -0.380 OA 
ENDROOT
BRANCH   2   3
HETATM    3  C   UNL     1     -10.384  10.741  65.020  1.00  0.00    -0.287 C  
HETATM    4  O   UNL     1      -9.796   9.729  65.366  1.00  0.00    -0.306 OA 
BRANCH   3   5
HETATM    5  C   UNL     1     -10.906  11.753  65.978  1.00  0.00    -0.343 A  
HETATM    6  C   UNL     1     -11.254  11.321  67.266  1.00  0.00    -0.364 A  
HETATM    7  C   UNL     1     -11.779  12.221  68.198  1.00  0.00    -0.408 A  
HETATM    8  C   UNL     1     -11.951  13.553  67.837  1.00  0.00    -0.337 A  
HETATM    9  O   UNL     1     -12.478  14.461  68.705  1.00  0.00    -0.583 OA 
HETATM   10  C   UNL     1     -11.596  14.000  66.569  1.00  0.00    -0.389 A  
HETATM   11  C   UNL     1     -11.073  13.102  65.636  1.00  0.00    -0.296 A  
HETATM   12  H   UNL     1     -12.597  15.371  68.458  1.00  0.00     0.000 HD 
ENDBRANCH   3   5
ENDBRANCH   2   3
TORSDOF 2
ENDMDL
MODEL       57
REMARK 921   NORMALIZED FREE ENERGY PREDICTED BY IDOCK:   -3.61 KCAL/MOL
REMARK 922        TOTAL FREE ENERGY PREDICTED BY IDOCK:   -4.11 KCAL/MOL
REMARK 923 INTER-LIGAND FREE ENERGY PREDICTED BY IDOCK:   -4.04 KCAL/MOL
REMARK 924 INTRA-LIGAND FREE ENERGY PREDICTED BY IDOCK:   -0.07 KCAL/MOL
REMARK 927      BINDING AFFINITY PREDICTED BY RF-SCORE:    0.00 PKD
ROOT
HETATM    1  C   UNL     1     -10.931   5.809  73.060  1.00  0.00    -0.278 C  
HETATM    2  O   UNL     1     -10.966   7.164  72.607  1.00  0.00    -0.251 OA 
ENDROOT
BRANCH   2   3
HETATM    3  C   UNL     1     -12.102   7.494  71.942  1.00  0.00    -0.305 C  
HETATM    4  O   UNL     1     -13.047   6.750  71.735  1.00  0.00    -0.336 OA 
BRANCH   3   5
HETATM    5  C   UNL     1     -12.049   8.902  71.465  1.00  0.00    -0.395 A  
HETATM    6  C   UNL     1     -10.986   9.273  70.626  1.00  0.00    -0.336 A  
HETATM    7  C   UNL     1     -10.867  10.589  70.173  1.00  0.00    -0.291 A  
HETATM    8  C   UNL     1     -11.815  11.531  70.558  1.00  0.00    -0.267 A  
HETATM    9  O   UNL     1     -11.729  12.831  70.157  1.00  0.00    -0.494 OA 
HETATM   10  C   UNL     1     -12.883  11.176  71.375  1.00  0.00    -0.544 A  
HETATM   11  C   UNL     1     -13.003   9.861  71.832  1.00  0.00    -0.545 A  
HETATM   12  H   UNL     1     -12.376  13.474  70.421  1.00  0.00     0.000 HD 
ENDBRANCH   3   5
ENDBRANCH   2   3
TORSDOF 2
ENDMDL
MODEL       58
REMARK 921   NORMALIZED FREE ENERGY PREDICTED BY IDOCK:   -3.60 KCAL/MOL
REMARK 922        TOTAL FREE ENERGY PREDICTED BY IDOCK:   -4.10 KCAL/MOL
REMARK 923 INTER-LIGAND FREE ENERGY PREDICTED BY IDOCK:   -4.00 KCAL/MOL
REMARK 924 INTRA-LIGAND FREE ENERGY PREDICTED BY IDOCK:   -0.10 KCAL/MOL
REMARK 927      BINDING AFFINITY PREDICTED BY RF-SCORE:    0.00 PKD
ROOT
HETATM    1  C   UNL     1     -11.332  10.752  67.739  1.00  0.00    -0.279 C  
HETATM    2  O   UNL     1     -12.055  11.925  67.360  1.00  0.00    -0.577 OA 
ENDROOT
BRANCH   2   3
HETATM    3  C   UNL     1     -11.899  12.968  68.214  1.00  0.00    -0.343 C  
HETATM    4  O   UNL     1     -12.128  12.948  69.412  1.00  0.00    -0.275 OA 
BRANCH   3   5
HETATM    5  C   UNL     1     -11.420  14.178  67.492  1.00  0.00    -0.365 A  
HETATM    6  C   UNL     1     -11.064  15.302  68.254  1.00  0.00    -0.301 A  
HETATM    7  C   UNL     1     -10.637  16.476  67.630  1.00  0.00    -0.321 A  
HETATM    8  C   UNL     1     -10.565  16.522  66.241  1.00  0.00    -0.223 A  
HETATM    9  O   UNL     1     -10.174  17.652  65.588  1.00  0.00    -0.593 OA 
HETATM   10  C   UNL     1     -10.898  15.413  65.472  1.00  0.00    -0.384 A  
HETATM   11  C   UNL     1     -11.327  14.238  66.094  1.00  0.00    -0.342 A  
HETATM   12  H   UNL     1     -10.125  17.684  64.639  1.00  0.00     0.000 HD 
ENDBRANCH   3   5
ENDBRANCH   2   3
TORSDOF 2
ENDMDL
MODEL       59
REMARK 921   NORMALIZED FREE ENERGY PREDICTED BY IDOCK:   -3.60 KCAL/MOL
REMARK 922        TOTAL FREE ENERGY PREDICTED BY IDOCK:   -4.09 KCAL/MOL
REMARK 923 INTER-LIGAND FREE ENERGY PREDICTED BY IDOCK:   -4.39 KCAL/MOL
REMARK 924 INTRA-LIGAND FREE ENERGY PREDICTED BY IDOCK:    0.30 KCAL/MOL
REMARK 927      BINDING AFFINITY PREDICTED BY RF-SCORE:    0.00 PKD
ROOT
HETATM    1  C   UNL     1     -12.447  13.888  65.542  1.00  0.00    -0.511 C  
HETATM    2  O   UNL     1     -11.753  14.563  64.491  1.00  0.00    -0.411 OA 
ENDROOT
BRANCH   2   3
HETATM    3  C   UNL     1     -11.197  15.742  64.867  1.00  0.00    -0.350 C  
HETATM    4  O   UNL     1     -11.296  16.800  64.265  1.00  0.00    -1.170 OA 
BRANCH   3   5
HETATM    5  C   UNL     1     -10.417  15.585  66.124  1.00  0.00    -0.323 A  
HETATM    6  C   UNL     1      -9.414  14.605  66.158  1.00  0.00    -0.308 A  
HETATM    7  C   UNL     1      -8.670  14.391  67.321  1.00  0.00    -0.228 A  
HETATM    8  C   UNL     1      -8.931  15.162  68.448  1.00  0.00    -0.183 A  
HETATM    9  O   UNL     1      -8.246  14.976  69.611  1.00  0.00    -0.390 OA 
HETATM   10  C   UNL     1      -9.911  16.149  68.427  1.00  0.00    -0.222 A  
HETATM   11  C   UNL     1     -10.657  16.363  67.265  1.00  0.00    -0.293 A  
HETATM   12  H   UNL     1      -8.425  15.502  70.382  1.00  0.00     0.000 HD 
ENDBRANCH   3   5
ENDBRANCH   2   3
TORSDOF 2
ENDMDL
MODEL       60
REMARK 921   NORMALIZED FREE ENERGY PREDICTED BY IDOCK:   -3.59 KCAL/MOL
REMARK 922        TOTAL FREE ENERGY PREDICTED BY IDOCK:   -4.09 KCAL/MOL
REMARK 923 INTER-LIGAND FREE ENERGY PREDICTED BY IDOCK:   -4.01 KCAL/MOL
REMARK 924 INTRA-LIGAND FREE ENERGY PREDICTED BY IDOCK:   -0.08 KCAL/MOL
REMARK 927      BINDING AFFINITY PREDICTED BY RF-SCORE:    0.00 PKD
ROOT
HETATM    1  C   UNL     1      -8.215   9.990  64.808  1.00  0.00    -0.155 C  
HETATM    2  O   UNL     1      -9.627  10.067  64.599  1.00  0.00    -0.289 OA 
ENDROOT
BRANCH   2   3
HETATM    3  C   UNL     1     -10.039  11.234  64.045  1.00  0.00    -0.329 C  
HETATM    4  O   UNL     1      -9.903  11.554  62.875  1.00  0.00    -0.358 OA 
BRANCH   3   5
HETATM    5  C   UNL     1     -10.677  12.110  65.065  1.00  0.00    -0.338 A  
HETATM    6  C   UNL     1     -10.854  13.466  64.749  1.00  0.00    -0.387 A  
HETATM    7  C   UNL     1     -11.419  14.343  65.679  1.00  0.00    -0.336 A  
HETATM    8  C   UNL     1     -11.807  13.858  66.923  1.00  0.00    -0.423 A  
HETATM    9  O   UNL     1     -12.343  14.680  67.869  1.00  0.00    -0.614 OA 
HETATM   10  C   UNL     1     -11.654  12.515  67.246  1.00  0.00    -0.434 A  
HETATM   11  C   UNL     1     -11.087  11.637  66.319  1.00  0.00    -0.345 A  
HETATM   12  H   UNL     1     -12.608  14.349  68.720  1.00  0.00     0.000 HD 
ENDBRANCH   3   5
ENDBRANCH   2   3
TORSDOF 2
ENDMDL
MODEL       61
REMARK 921   NORMALIZED FREE ENERGY PREDICTED BY IDOCK:   -3.59 KCAL/MOL
REMARK 922        TOTAL FREE ENERGY PREDICTED BY IDOCK:   -4.08 KCAL/MOL
REMARK 923 INTER-LIGAND FREE ENERGY PREDICTED BY IDOCK:   -3.99 KCAL/MOL
REMARK 924 INTRA-LIGAND FREE ENERGY PREDICTED BY IDOCK:   -0.10 KCAL/MOL
REMARK 927      BINDING AFFINITY PREDICTED BY RF-SCORE:    0.00 PKD
ROOT
HETATM    1  C   UNL     1      -7.884  17.506  66.029  1.00  0.00    -0.178 C  
HETATM    2  O   UNL     1      -9.202  18.027  66.208  1.00  0.00    -0.400 OA 
ENDROOT
BRANCH   2   3
HETATM    3  C   UNL     1     -10.187  17.122  65.981  1.00  0.00    -0.321 C  
HETATM    4  O   UNL     1     -10.748  16.933  64.914  1.00  0.00    -0.725 OA 
BRANCH   3   5
HETATM    5  C   UNL     1     -10.525  16.381  67.227  1.00  0.00    -0.303 A  
HETATM    6  C   UNL     1     -10.604  17.109  68.424  1.00  0.00    -0.371 A  
HETATM    7  C   UNL     1     -10.887  16.462  69.630  1.00  0.00    -0.346 A  
HETATM    8  C   UNL     1     -11.093  15.086  69.632  1.00  0.00    -0.273 A  
HETATM    9  O   UNL     1     -11.352  14.409  70.787  1.00  0.00    -0.511 OA 
HETATM   10  C   UNL     1     -11.036  14.353  68.452  1.00  0.00    -0.261 A  
HETATM   11  C   UNL     1     -10.751  14.998  67.246  1.00  0.00    -0.298 A  
HETATM   12  H   UNL     1     -11.492  13.470  70.788  1.00  0.00     0.000 HD 
ENDBRANCH   3   5
ENDBRANCH   2   3
TORSDOF 2
ENDMDL
MODEL       62
REMARK 921   NORMALIZED FREE ENERGY PREDICTED BY IDOCK:   -3.58 KCAL/MOL
REMARK 922        TOTAL FREE ENERGY PREDICTED BY IDOCK:   -4.08 KCAL/MOL
REMARK 923 INTER-LIGAND FREE ENERGY PREDICTED BY IDOCK:   -3.98 KCAL/MOL
REMARK 924 INTRA-LIGAND FREE ENERGY PREDICTED BY IDOCK:   -0.09 KCAL/MOL
REMARK 927      BINDING AFFINITY PREDICTED BY RF-SCORE:    0.00 PKD
ROOT
HETATM    1  C   UNL     1     -10.680   5.791  69.832  1.00  0.00    -0.342 C  
HETATM    2  O   UNL     1     -11.426   6.920  70.294  1.00  0.00    -0.311 OA 
ENDROOT
BRANCH   2   3
HETATM    3  C   UNL     1     -10.909   8.115  69.913  1.00  0.00    -0.215 C  
HETATM    4  O   UNL     1      -9.961   8.273  69.160  1.00  0.00    -0.185 OA 
BRANCH   3   5
HETATM    5  C   UNL     1     -11.641   9.240  70.555  1.00  0.00    -0.266 A  
HETATM    6  C   UNL     1     -12.592   8.929  71.539  1.00  0.00    -0.385 A  
HETATM    7  C   UNL     1     -13.333   9.942  72.155  1.00  0.00    -0.498 A  
HETATM    8  C   UNL     1     -13.116  11.265  71.785  1.00  0.00    -0.422 A  
HETATM    9  O   UNL     1     -13.829  12.284  72.342  1.00  0.00    -0.481 OA 
HETATM   10  C   UNL     1     -12.166  11.591  70.823  1.00  0.00    -0.463 A  
HETATM   11  C   UNL     1     -11.426  10.580  70.205  1.00  0.00    -0.416 A  
HETATM   12  H   UNL     1     -13.682  13.187  72.089  1.00  0.00     0.000 HD 
ENDBRANCH   3   5
ENDBRANCH   2   3
TORSDOF 2
ENDMDL
MODEL       63
REMARK 921   NORMALIZED FREE ENERGY PREDICTED BY IDOCK:   -3.56 KCAL/MOL
REMARK 922        TOTAL FREE ENERGY PREDICTED BY IDOCK:   -4.06 KCAL/MOL
REMARK 923 INTER-LIGAND FREE ENERGY PREDICTED BY IDOCK:   -3.99 KCAL/MOL
REMARK 924 INTRA-LIGAND FREE ENERGY PREDICTED BY IDOCK:   -0.06 KCAL/MOL
REMARK 927      BINDING AFFINITY PREDICTED BY RF-SCORE:    0.00 PKD
ROOT
HETATM    1  C   UNL     1     -11.574  15.503  64.235  1.00  0.00    -0.194 C  
HETATM    2  O   UNL     1     -11.168  14.603  65.267  1.00  0.00    -0.328 OA 
ENDROOT
BRANCH   2   3
HETATM    3  C   UNL     1     -12.115  13.693  65.609  1.00  0.00    -0.425 C  
HETATM    4  O   UNL     1     -13.186  13.534  65.045  1.00  0.00    -0.721 OA 
BRANCH   3   5
HETATM    5  C   UNL     1     -11.689  12.903  66.796  1.00  0.00    -0.445 A  
HETATM    6  C   UNL     1     -11.434  11.534  66.618  1.00  0.00    -0.205 A  
HETATM    7  C   UNL     1     -11.062  10.736  67.702  1.00  0.00    -0.384 A  
HETATM    8  C   UNL     1     -10.943  11.311  68.963  1.00  0.00    -0.236 A  
HETATM    9  O   UNL     1     -10.602  10.568  70.053  1.00  0.00    -0.383 OA 
HETATM   10  C   UNL     1     -11.176  12.668  69.153  1.00  0.00    -0.300 A  
HETATM   11  C   UNL     1     -11.550  13.468  68.070  1.00  0.00    -0.372 A  
HETATM   12  H   UNL     1     -10.522  10.961  70.914  1.00  0.00     0.000 HD 
ENDBRANCH   3   5
ENDBRANCH   2   3
TORSDOF 2
ENDMDL
MODEL       64
REMARK 921   NORMALIZED FREE ENERGY PREDICTED BY IDOCK:   -3.55 KCAL/MOL
REMARK 922        TOTAL FREE ENERGY PREDICTED BY IDOCK:   -4.04 KCAL/MOL
REMARK 923 INTER-LIGAND FREE ENERGY PREDICTED BY IDOCK:   -4.00 KCAL/MOL
REMARK 924 INTRA-LIGAND FREE ENERGY PREDICTED BY IDOCK:   -0.04 KCAL/MOL
REMARK 927      BINDING AFFINITY PREDICTED BY RF-SCORE:    0.00 PKD
ROOT
HETATM    1  C   UNL     1     -11.114  15.375  64.657  1.00  0.00    -0.347 C  
HETATM    2  O   UNL     1     -10.250  14.237  64.710  1.00  0.00    -0.412 OA 
ENDROOT
BRANCH   2   3
HETATM    3  C   UNL     1     -10.858  13.069  64.384  1.00  0.00    -0.388 C  
HETATM    4  O   UNL     1     -11.320  12.787  63.290  1.00  0.00    -0.446 OA 
BRANCH   3   5
HETATM    5  C   UNL     1     -10.913  12.154  65.556  1.00  0.00    -0.343 A  
HETATM    6  C   UNL     1     -10.381  10.864  65.409  1.00  0.00    -0.326 A  
HETATM    7  C   UNL     1     -10.433   9.951  66.466  1.00  0.00    -0.213 A  
HETATM    8  C   UNL     1     -11.016  10.333  67.669  1.00  0.00    -0.294 A  
HETATM    9  O   UNL     1     -11.108   9.471  68.720  1.00  0.00    -0.431 OA 
HETATM   10  C   UNL     1     -11.533  11.613  67.836  1.00  0.00    -0.381 A  
HETATM   11  C   UNL     1     -11.484  12.527  66.781  1.00  0.00    -0.422 A  
HETATM   12  H   UNL     1     -11.507   9.732  69.541  1.00  0.00     0.000 HD 
ENDBRANCH   3   5
ENDBRANCH   2   3
TORSDOF 2
ENDMDL
MODEL       65
REMARK 921   NORMALIZED FREE ENERGY PREDICTED BY IDOCK:   -3.55 KCAL/MOL
REMARK 922        TOTAL FREE ENERGY PREDICTED BY IDOCK:   -4.04 KCAL/MOL
REMARK 923 INTER-LIGAND FREE ENERGY PREDICTED BY IDOCK:   -3.96 KCAL/MOL
REMARK 924 INTRA-LIGAND FREE ENERGY PREDICTED BY IDOCK:   -0.08 KCAL/MOL
REMARK 927      BINDING AFFINITY PREDICTED BY RF-SCORE:    0.00 PKD
ROOT
HETATM    1  C   UNL     1     -11.748  11.924  69.403  1.00  0.00    -0.339 C  
HETATM    2  O   UNL     1     -12.148  12.980  68.527  1.00  0.00    -0.297 OA 
ENDROOT
BRANCH   2   3
HETATM    3  C   UNL     1     -11.696  12.841  67.255  1.00  0.00    -0.378 C  
HETATM    4  O   UNL     1     -11.981  11.930  66.494  1.00  0.00    -0.588 OA 
BRANCH   3   5
HETATM    5  C   UNL     1     -10.773  13.951  66.895  1.00  0.00    -0.284 A  
HETATM    6  C   UNL     1     -11.257  14.961  66.049  1.00  0.00    -0.327 A  
HETATM    7  C   UNL     1     -10.426  16.012  65.653  1.00  0.00    -0.416 A  
HETATM    8  C   UNL     1      -9.112  16.050  66.106  1.00  0.00    -0.351 A  
HETATM    9  O   UNL     1      -8.259  17.044  65.729  1.00  0.00    -0.486 OA 
HETATM   10  C   UNL     1      -8.622  15.066  66.958  1.00  0.00    -0.266 A  
HETATM   11  C   UNL     1      -9.450  14.013  67.355  1.00  0.00    -0.225 A  
HETATM   12  H   UNL     1      -7.361  17.070  66.039  1.00  0.00     0.000 HD 
ENDBRANCH   3   5
ENDBRANCH   2   3
TORSDOF 2
ENDMDL
MODEL       66
REMARK 921   NORMALIZED FREE ENERGY PREDICTED BY IDOCK:   -3.52 KCAL/MOL
REMARK 922        TOTAL FREE ENERGY PREDICTED BY IDOCK:   -4.01 KCAL/MOL
REMARK 923 INTER-LIGAND FREE ENERGY PREDICTED BY IDOCK:   -3.94 KCAL/MOL
REMARK 924 INTRA-LIGAND FREE ENERGY PREDICTED BY IDOCK:   -0.07 KCAL/MOL
REMARK 927      BINDING AFFINITY PREDICTED BY RF-SCORE:    0.00 PKD
ROOT
HETATM    1  C   UNL     1     -12.718  13.391  65.223  1.00  0.00    -0.422 C  
HETATM    2  O   UNL     1     -12.217  14.157  66.321  1.00  0.00    -0.437 OA 
ENDROOT
BRANCH   2   3
HETATM    3  C   UNL     1     -10.936  14.575  66.161  1.00  0.00    -0.322 C  
HETATM    4  O   UNL     1     -10.043  13.942  65.621  1.00  0.00    -0.310 OA 
BRANCH   3   5
HETATM    5  C   UNL     1     -10.740  15.925  66.756  1.00  0.00    -0.281 A  
HETATM    6  C   UNL     1     -10.453  16.990  65.889  1.00  0.00    -0.282 A  
HETATM    7  C   UNL     1     -10.228  18.274  66.393  1.00  0.00    -0.417 A  
HETATM    8  C   UNL     1     -10.293  18.487  67.766  1.00  0.00    -0.402 A  
HETATM    9  O   UNL     1     -10.061  19.717  68.305  1.00  0.00    -0.418 OA 
HETATM   10  C   UNL     1     -10.592  17.446  68.637  1.00  0.00    -0.318 A  
HETATM   11  C   UNL     1     -10.816  16.161  68.135  1.00  0.00    -0.329 A  
HETATM   12  H   UNL     1     -10.105  19.863  69.243  1.00  0.00     0.000 HD 
ENDBRANCH   3   5
ENDBRANCH   2   3
TORSDOF 2
ENDMDL
MODEL       67
REMARK 921   NORMALIZED FREE ENERGY PREDICTED BY IDOCK:   -3.52 KCAL/MOL
REMARK 922        TOTAL FREE ENERGY PREDICTED BY IDOCK:   -4.00 KCAL/MOL
REMARK 923 INTER-LIGAND FREE ENERGY PREDICTED BY IDOCK:   -3.94 KCAL/MOL
REMARK 924 INTRA-LIGAND FREE ENERGY PREDICTED BY IDOCK:   -0.06 KCAL/MOL
REMARK 927      BINDING AFFINITY PREDICTED BY RF-SCORE:    0.00 PKD
ROOT
HETATM    1  C   UNL     1      -8.457  11.460  68.038  1.00  0.00    -0.145 C  
HETATM    2  O   UNL     1      -9.286  10.965  69.091  1.00  0.00    -0.170 OA 
ENDROOT
BRANCH   2   3
HETATM    3  C   UNL     1     -10.490  10.500  68.672  1.00  0.00    -0.191 C  
HETATM    4  O   UNL     1     -10.861  10.429  67.511  1.00  0.00    -0.270 OA 
BRANCH   3   5
HETATM    5  C   UNL     1     -11.334  10.093  69.828  1.00  0.00    -0.312 A  
HETATM    6  C   UNL     1     -11.227   8.771  70.287  1.00  0.00    -0.212 A  
HETATM    7  C   UNL     1     -12.017   8.323  71.349  1.00  0.00    -0.333 A  
HETATM    8  C   UNL     1     -12.912   9.202  71.950  1.00  0.00    -0.404 A  
HETATM    9  O   UNL     1     -13.718   8.805  72.974  1.00  0.00    -0.881 OA 
HETATM   10  C   UNL     1     -13.019  10.520  71.517  1.00  0.00    -0.565 A  
HETATM   11  C   UNL     1     -12.231  10.969  70.454  1.00  0.00    -0.461 A  
HETATM   12  H   UNL     1     -14.330   9.405  73.385  1.00  0.00     0.000 HD 
ENDBRANCH   3   5
ENDBRANCH   2   3
TORSDOF 2
ENDMDL
MODEL       68
REMARK 921   NORMALIZED FREE ENERGY PREDICTED BY IDOCK:   -3.51 KCAL/MOL
REMARK 922        TOTAL FREE ENERGY PREDICTED BY IDOCK:   -4.00 KCAL/MOL
REMARK 923 INTER-LIGAND FREE ENERGY PREDICTED BY IDOCK:   -3.92 KCAL/MOL
REMARK 924 INTRA-LIGAND FREE ENERGY PREDICTED BY IDOCK:   -0.08 KCAL/MOL
REMARK 927      BINDING AFFINITY PREDICTED BY RF-SCORE:    0.00 PKD
ROOT
HETATM    1  C   UNL     1      -7.509  19.900  65.900  1.00  0.00    -0.328 C  
HETATM    2  O   UNL     1      -8.389  18.780  65.780  1.00  0.00    -0.452 OA 
ENDROOT
BRANCH   2   3
HETATM    3  C   UNL     1      -9.560  18.926  66.450  1.00  0.00    -0.351 C  
HETATM    4  O   UNL     1     -10.083  19.988  66.748  1.00  0.00    -0.421 OA 
BRANCH   3   5
HETATM    5  C   UNL     1     -10.138  17.601  66.804  1.00  0.00    -0.334 A  
HETATM    6  C   UNL     1     -10.084  16.581  65.841  1.00  0.00    -0.359 A  
HETATM    7  C   UNL     1     -10.638  15.326  66.106  1.00  0.00    -0.318 A  
HETATM    8  C   UNL     1     -11.244  15.095  67.336  1.00  0.00    -0.323 A  
HETATM    9  O   UNL     1     -11.816  13.894  67.631  1.00  0.00    -0.348 OA 
HETATM   10  C   UNL     1     -11.292  16.089  68.307  1.00  0.00    -0.326 A  
HETATM   11  C   UNL     1     -10.740  17.346  68.043  1.00  0.00    -0.359 A  
HETATM   12  H   UNL     1     -12.231  13.736  68.471  1.00  0.00     0.000 HD 
ENDBRANCH   3   5
ENDBRANCH   2   3
TORSDOF 2
ENDMDL
MODEL       69
REMARK 921   NORMALIZED FREE ENERGY PREDICTED BY IDOCK:   -3.50 KCAL/MOL
REMARK 922        TOTAL FREE ENERGY PREDICTED BY IDOCK:   -3.99 KCAL/MOL
REMARK 923 INTER-LIGAND FREE ENERGY PREDICTED BY IDOCK:   -3.90 KCAL/MOL
REMARK 924 INTRA-LIGAND FREE ENERGY PREDICTED BY IDOCK:   -0.09 KCAL/MOL
REMARK 927      BINDING AFFINITY PREDICTED BY RF-SCORE:    0.00 PKD
ROOT
HETATM    1  C   UNL     1     -10.831   6.257  68.656  1.00  0.00    -0.333 C  
HETATM    2  O   UNL     1     -10.453   7.153  69.703  1.00  0.00    -0.215 OA 
ENDROOT
BRANCH   2   3
HETATM    3  C   UNL     1     -11.247   7.083  70.801  1.00  0.00    -0.285 C  
HETATM    4  O   UNL     1     -11.449   6.083  71.471  1.00  0.00    -0.281 OA 
BRANCH   3   5
HETATM    5  C   UNL     1     -11.875   8.401  71.088  1.00  0.00    -0.314 A  
HETATM    6  C   UNL     1     -11.452   9.508  70.337  1.00  0.00    -0.297 A  
HETATM    7  C   UNL     1     -11.984  10.777  70.583  1.00  0.00    -0.466 A  
HETATM    8  C   UNL     1     -12.940  10.933  71.580  1.00  0.00    -0.464 A  
HETATM    9  O   UNL     1     -13.471  12.154  71.870  1.00  0.00    -0.399 OA 
HETATM   10  C   UNL     1     -13.382   9.843  72.323  1.00  0.00    -0.429 A  
HETATM   11  C   UNL     1     -12.850   8.574  72.080  1.00  0.00    -0.414 A  
HETATM   12  H   UNL     1     -14.125  12.261  72.552  1.00  0.00     0.000 HD 
ENDBRANCH   3   5
ENDBRANCH   2   3
TORSDOF 2
ENDMDL
MODEL       70
REMARK 921   NORMALIZED FREE ENERGY PREDICTED BY IDOCK:   -3.49 KCAL/MOL
REMARK 922        TOTAL FREE ENERGY PREDICTED BY IDOCK:   -3.97 KCAL/MOL
REMARK 923 INTER-LIGAND FREE ENERGY PREDICTED BY IDOCK:   -3.89 KCAL/MOL
REMARK 924 INTRA-LIGAND FREE ENERGY PREDICTED BY IDOCK:   -0.08 KCAL/MOL
REMARK 927      BINDING AFFINITY PREDICTED BY RF-SCORE:    0.00 PKD
ROOT
HETATM    1  C   UNL     1     -12.109  14.592  64.476  1.00  0.00    -0.484 C  
HETATM    2  O   UNL     1     -11.036  14.066  65.259  1.00  0.00    -0.307 OA 
ENDROOT
BRANCH   2   3
HETATM    3  C   UNL     1     -11.438  13.280  66.289  1.00  0.00    -0.325 C  
HETATM    4  O   UNL     1     -12.120  13.640  67.235  1.00  0.00    -0.380 OA 
BRANCH   3   5
HETATM    5  C   UNL     1     -10.921  11.893  66.133  1.00  0.00    -0.352 A  
HETATM    6  C   UNL     1     -11.047  11.018  67.222  1.00  0.00    -0.359 A  
HETATM    7  C   UNL     1     -10.551   9.714  67.145  1.00  0.00    -0.298 A  
HETATM    8  C   UNL     1      -9.932   9.289  65.975  1.00  0.00    -0.255 A  
HETATM    9  O   UNL     1      -9.415   8.033  65.861  1.00  0.00    -0.400 OA 
HETATM   10  C   UNL     1      -9.813  10.138  64.880  1.00  0.00    -0.390 A  
HETATM   11  C   UNL     1     -10.306  11.443  64.956  1.00  0.00    -0.342 A  
HETATM   12  H   UNL     1      -8.991   7.743  65.061  1.00  0.00     0.000 HD 
ENDBRANCH   3   5
ENDBRANCH   2   3
TORSDOF 2
ENDMDL
MODEL       71
REMARK 921   NORMALIZED FREE ENERGY PREDICTED BY IDOCK:   -3.48 KCAL/MOL
REMARK 922        TOTAL FREE ENERGY PREDICTED BY IDOCK:   -3.96 KCAL/MOL
REMARK 923 INTER-LIGAND FREE ENERGY PREDICTED BY IDOCK:   -3.88 KCAL/MOL
REMARK 924 INTRA-LIGAND FREE ENERGY PREDICTED BY IDOCK:   -0.08 KCAL/MOL
REMARK 927      BINDING AFFINITY PREDICTED BY RF-SCORE:    0.00 PKD
ROOT
HETATM    1  C   UNL     1     -10.498   8.163  67.292  1.00  0.00    -0.309 C  
HETATM    2  O   UNL     1     -10.760   9.475  67.795  1.00  0.00    -0.261 OA 
ENDROOT
BRANCH   2   3
HETATM    3  C   UNL     1     -10.722  10.446  66.849  1.00  0.00    -0.207 C  
HETATM    4  O   UNL     1     -10.354  10.300  65.694  1.00  0.00    -0.243 OA 
BRANCH   3   5
HETATM    5  C   UNL     1     -11.176  11.749  67.405  1.00  0.00    -0.357 A  
HETATM    6  C   UNL     1     -11.564  12.750  66.502  1.00  0.00    -0.435 A  
HETATM    7  C   UNL     1     -11.970  14.005  66.966  1.00  0.00    -0.472 A  
HETATM    8  C   UNL     1     -11.989  14.252  68.334  1.00  0.00    -0.309 A  
HETATM    9  O   UNL     1     -12.358  15.466  68.831  1.00  0.00    -0.604 OA 
HETATM   10  C   UNL     1     -11.624  13.265  69.243  1.00  0.00    -0.370 A  
HETATM   11  C   UNL     1     -11.215  12.011  68.782  1.00  0.00    -0.316 A  
HETATM   12  H   UNL     1     -12.370  15.635  69.766  1.00  0.00     0.000 HD 
ENDBRANCH   3   5
ENDBRANCH   2   3
TORSDOF 2
ENDMDL
MODEL       72
REMARK 921   NORMALIZED FREE ENERGY PREDICTED BY IDOCK:   -3.46 KCAL/MOL
REMARK 922        TOTAL FREE ENERGY PREDICTED BY IDOCK:   -3.94 KCAL/MOL
REMARK 923 INTER-LIGAND FREE ENERGY PREDICTED BY IDOCK:   -3.86 KCAL/MOL
REMARK 924 INTRA-LIGAND FREE ENERGY PREDICTED BY IDOCK:   -0.09 KCAL/MOL
REMARK 927      BINDING AFFINITY PREDICTED BY RF-SCORE:    0.00 PKD
ROOT
HETATM    1  C   UNL     1     -12.161   8.145  71.277  1.00  0.00    -0.288 C  
HETATM    2  O   UNL     1     -11.831   9.534  71.210  1.00  0.00    -0.316 OA 
ENDROOT
BRANCH   2   3
HETATM    3  C   UNL     1     -11.368   9.933  69.999  1.00  0.00    -0.249 C  
HETATM    4  O   UNL     1     -10.774   9.230  69.197  1.00  0.00    -0.224 OA 
BRANCH   3   5
HETATM    5  C   UNL     1     -11.660  11.373  69.766  1.00  0.00    -0.407 A  
HETATM    6  C   UNL     1     -11.322  11.919  68.519  1.00  0.00    -0.329 A  
HETATM    7  C   UNL     1     -11.545  13.273  68.254  1.00  0.00    -0.369 A  
HETATM    8  C   UNL     1     -12.108  14.076  69.239  1.00  0.00    -0.338 A  
HETATM    9  O   UNL     1     -12.325  15.406  69.034  1.00  0.00    -0.598 OA 
HETATM   10  C   UNL     1     -12.464  13.547  70.475  1.00  0.00    -0.373 A  
HETATM   11  C   UNL     1     -12.241  12.194  70.743  1.00  0.00    -0.367 A  
HETATM   12  H   UNL     1     -12.709  15.955  69.707  1.00  0.00     0.000 HD 
ENDBRANCH   3   5
ENDBRANCH   2   3
TORSDOF 2
ENDMDL
MODEL       73
REMARK 921   NORMALIZED FREE ENERGY PREDICTED BY IDOCK:   -3.45 KCAL/MOL
REMARK 922        TOTAL FREE ENERGY PREDICTED BY IDOCK:   -3.93 KCAL/MOL
REMARK 923 INTER-LIGAND FREE ENERGY PREDICTED BY IDOCK:   -3.81 KCAL/MOL
REMARK 924 INTRA-LIGAND FREE ENERGY PREDICTED BY IDOCK:   -0.12 KCAL/MOL
REMARK 927      BINDING AFFINITY PREDICTED BY RF-SCORE:    0.00 PKD
ROOT
HETATM    1  C   UNL     1     -11.015   6.241  67.950  1.00  0.00    -0.327 C  
HETATM    2  O   UNL     1     -10.110   6.494  69.028  1.00  0.00    -0.154 OA 
ENDROOT
BRANCH   2   3
HETATM    3  C   UNL     1     -10.581   6.115  70.242  1.00  0.00    -0.258 C  
HETATM    4  O   UNL     1     -10.384   5.036  70.777  1.00  0.00    -0.235 OA 
BRANCH   3   5
HETATM    5  C   UNL     1     -11.404   7.194  70.853  1.00  0.00    -0.319 A  
HETATM    6  C   UNL     1     -12.711   6.877  71.253  1.00  0.00    -0.368 A  
HETATM    7  C   UNL     1     -13.541   7.857  71.804  1.00  0.00    -0.396 A  
HETATM    8  C   UNL     1     -13.058   9.152  71.956  1.00  0.00    -0.429 A  
HETATM    9  O   UNL     1     -13.838  10.145  72.469  1.00  0.00    -0.561 OA 
HETATM   10  C   UNL     1     -11.760   9.479  71.580  1.00  0.00    -0.472 A  
HETATM   11  C   UNL     1     -10.929   8.501  71.027  1.00  0.00    -0.296 A  
HETATM   12  H   UNL     1     -13.508  11.030  72.572  1.00  0.00     0.000 HD 
ENDBRANCH   3   5
ENDBRANCH   2   3
TORSDOF 2
ENDMDL
MODEL       74
REMARK 921   NORMALIZED FREE ENERGY PREDICTED BY IDOCK:   -3.45 KCAL/MOL
REMARK 922        TOTAL FREE ENERGY PREDICTED BY IDOCK:   -3.93 KCAL/MOL
REMARK 923 INTER-LIGAND FREE ENERGY PREDICTED BY IDOCK:   -3.85 KCAL/MOL
REMARK 924 INTRA-LIGAND FREE ENERGY PREDICTED BY IDOCK:   -0.07 KCAL/MOL
REMARK 927      BINDING AFFINITY PREDICTED BY RF-SCORE:    0.00 PKD
ROOT
HETATM    1  C   UNL     1     -10.775   7.033  66.975  1.00  0.00    -0.353 C  
HETATM    2  O   UNL     1     -10.734   8.461  67.012  1.00  0.00    -0.289 OA 
ENDROOT
BRANCH   2   3
HETATM    3  C   UNL     1      -9.779   9.005  66.217  1.00  0.00    -0.275 C  
HETATM    4  O   UNL     1      -8.674   8.532  66.006  1.00  0.00    -0.142 OA 
BRANCH   3   5
HETATM    5  C   UNL     1     -10.245  10.291  65.631  1.00  0.00    -0.301 A  
HETATM    6  C   UNL     1      -9.995  10.523  64.270  1.00  0.00    -0.398 A  
HETATM    7  C   UNL     1     -10.382  11.725  63.672  1.00  0.00    -0.476 A  
HETATM    8  C   UNL     1     -11.021  12.693  64.441  1.00  0.00    -0.351 A  
HETATM    9  O   UNL     1     -11.398  13.889  63.906  1.00  0.00    -0.589 OA 
HETATM   10  C   UNL     1     -11.290  12.473  65.787  1.00  0.00    -0.373 A  
HETATM   11  C   UNL     1     -10.903  11.272  66.387  1.00  0.00    -0.306 A  
HETATM   12  H   UNL     1     -11.833  14.550  64.431  1.00  0.00     0.000 HD 
ENDBRANCH   3   5
ENDBRANCH   2   3
TORSDOF 2
ENDMDL
MODEL       75
REMARK 921   NORMALIZED FREE ENERGY PREDICTED BY IDOCK:   -3.43 KCAL/MOL
REMARK 922        TOTAL FREE ENERGY PREDICTED BY IDOCK:   -3.91 KCAL/MOL
REMARK 923 INTER-LIGAND FREE ENERGY PREDICTED BY IDOCK:   -3.94 KCAL/MOL
REMARK 924 INTRA-LIGAND FREE ENERGY PREDICTED BY IDOCK:    0.03 KCAL/MOL
REMARK 927      BINDING AFFINITY PREDICTED BY RF-SCORE:    0.00 PKD
ROOT
HETATM    1  C   UNL     1      -8.510  15.650  68.246  1.00  0.00    -0.156 C  
HETATM    2  O   UNL     1      -9.660  15.959  67.455  1.00  0.00    -0.219 OA 
ENDROOT
BRANCH   2   3
HETATM    3  C   UNL     1     -10.710  15.125  67.662  1.00  0.00    -0.285 C  
HETATM    4  O   UNL     1     -11.342  15.020  68.700  1.00  0.00    -0.267 OA 
BRANCH   3   5
HETATM    5  C   UNL     1     -10.994  14.317  66.444  1.00  0.00    -0.311 A  
HETATM    6  C   UNL     1      -9.955  14.133  65.519  1.00  0.00    -0.323 A  
HETATM    7  C   UNL     1     -10.173  13.411  64.343  1.00  0.00    -0.262 A  
HETATM    8  C   UNL     1     -11.431  12.872  64.098  1.00  0.00    -0.396 A  
HETATM    9  O   UNL     1     -11.695  12.177  62.955  1.00  0.00    -0.684 OA 
HETATM   10  C   UNL     1     -12.467  13.031  65.012  1.00  0.00    -0.534 A  
HETATM   11  C   UNL     1     -12.252  13.755  66.187  1.00  0.00    -0.499 A  
HETATM   12  H   UNL     1     -12.555  11.810  62.787  1.00  0.00     0.000 HD 
ENDBRANCH   3   5
ENDBRANCH   2   3
TORSDOF 2
ENDMDL
MODEL       76
REMARK 921   NORMALIZED FREE ENERGY PREDICTED BY IDOCK:   -3.43 KCAL/MOL
REMARK 922        TOTAL FREE ENERGY PREDICTED BY IDOCK:   -3.91 KCAL/MOL
REMARK 923 INTER-LIGAND FREE ENERGY PREDICTED BY IDOCK:   -3.83 KCAL/MOL
REMARK 924 INTRA-LIGAND FREE ENERGY PREDICTED BY IDOCK:   -0.07 KCAL/MOL
REMARK 927      BINDING AFFINITY PREDICTED BY RF-SCORE:    0.00 PKD
ROOT
HETATM    1  C   UNL     1     -10.121  14.470  65.984  1.00  0.00    -0.318 C  
HETATM    2  O   UNL     1     -10.795  14.098  67.188  1.00  0.00    -0.285 OA 
ENDROOT
BRANCH   2   3
HETATM    3  C   UNL     1     -11.695  13.096  67.028  1.00  0.00    -0.377 C  
HETATM    4  O   UNL     1     -12.460  12.969  66.086  1.00  0.00    -0.453 OA 
BRANCH   3   5
HETATM    5  C   UNL     1     -11.651  12.153  68.179  1.00  0.00    -0.397 A  
HETATM    6  C   UNL     1     -12.107  12.613  69.424  1.00  0.00    -0.236 A  
HETATM    7  C   UNL     1     -12.061  11.783  70.547  1.00  0.00    -0.439 A  
HETATM    8  C   UNL     1     -11.559  10.493  70.420  1.00  0.00    -0.342 A  
HETATM    9  O   UNL     1     -11.475   9.655  71.491  1.00  0.00    -0.377 OA 
HETATM   10  C   UNL     1     -11.118  10.016  69.190  1.00  0.00    -0.232 A  
HETATM   11  C   UNL     1     -11.162  10.844  68.066  1.00  0.00    -0.378 A  
HETATM   12  H   UNL     1     -11.132   8.773  71.405  1.00  0.00     0.000 HD 
ENDBRANCH   3   5
ENDBRANCH   2   3
TORSDOF 2
ENDMDL
MODEL       77
REMARK 921   NORMALIZED FREE ENERGY PREDICTED BY IDOCK:   -3.41 KCAL/MOL
REMARK 922        TOTAL FREE ENERGY PREDICTED BY IDOCK:   -3.89 KCAL/MOL
REMARK 923 INTER-LIGAND FREE ENERGY PREDICTED BY IDOCK:   -3.77 KCAL/MOL
REMARK 924 INTRA-LIGAND FREE ENERGY PREDICTED BY IDOCK:   -0.12 KCAL/MOL
REMARK 927      BINDING AFFINITY PREDICTED BY RF-SCORE:    0.00 PKD
ROOT
HETATM    1  C   UNL     1      -5.991  19.399  65.169  1.00  0.00    -0.240 C  
HETATM    2  O   UNL     1      -7.128  20.236  65.389  1.00  0.00    -0.308 OA 
ENDROOT
BRANCH   2   3
HETATM    3  C   UNL     1      -7.416  20.440  66.699  1.00  0.00    -0.248 C  
HETATM    4  O   UNL     1      -6.978  21.343  67.393  1.00  0.00    -0.572 OA 
BRANCH   3   5
HETATM    5  C   UNL     1      -8.340  19.390  67.209  1.00  0.00    -0.324 A  
HETATM    6  C   UNL     1      -9.544  19.183  66.519  1.00  0.00    -0.399 A  
HETATM    7  C   UNL     1     -10.465  18.233  66.969  1.00  0.00    -0.407 A  
HETATM    8  C   UNL     1     -10.176  17.491  68.109  1.00  0.00    -0.359 A  
HETATM    9  O   UNL     1     -11.052  16.569  68.597  1.00  0.00    -0.345 OA 
HETATM   10  C   UNL     1      -8.980  17.673  68.795  1.00  0.00    -0.207 A  
HETATM   11  C   UNL     1      -8.059  18.623  68.348  1.00  0.00    -0.360 A  
HETATM   12  H   UNL     1     -10.855  16.062  69.377  1.00  0.00     0.000 HD 
ENDBRANCH   3   5
ENDBRANCH   2   3
TORSDOF 2
ENDMDL
MODEL       78
REMARK 921   NORMALIZED FREE ENERGY PREDICTED BY IDOCK:   -3.41 KCAL/MOL
REMARK 922        TOTAL FREE ENERGY PREDICTED BY IDOCK:   -3.89 KCAL/MOL
REMARK 923 INTER-LIGAND FREE ENERGY PREDICTED BY IDOCK:   -3.87 KCAL/MOL
REMARK 924 INTRA-LIGAND FREE ENERGY PREDICTED BY IDOCK:   -0.02 KCAL/MOL
REMARK 927      BINDING AFFINITY PREDICTED BY RF-SCORE:    0.00 PKD
ROOT
HETATM    1  C   UNL     1     -13.867   9.551  71.918  1.00  0.00    -0.263 C  
HETATM    2  O   UNL     1     -12.652  10.300  71.841  1.00  0.00    -0.400 OA 
ENDROOT
BRANCH   2   3
HETATM    3  C   UNL     1     -12.832  11.614  71.557  1.00  0.00    -0.364 C  
HETATM    4  O   UNL     1     -13.440  12.415  72.249  1.00  0.00    -0.541 OA 
BRANCH   3   5
HETATM    5  C   UNL     1     -12.198  11.969  70.258  1.00  0.00    -0.348 A  
HETATM    6  C   UNL     1     -11.841  10.923  69.393  1.00  0.00    -0.400 A  
HETATM    7  C   UNL     1     -11.216  11.194  68.174  1.00  0.00    -0.356 A  
HETATM    8  C   UNL     1     -10.950  12.513  67.822  1.00  0.00    -0.234 A  
HETATM    9  O   UNL     1     -10.323  12.824  66.653  1.00  0.00    -0.238 OA 
HETATM   10  C   UNL     1     -11.312  13.562  68.660  1.00  0.00    -0.323 A  
HETATM   11  C   UNL     1     -11.937  13.293  69.881  1.00  0.00    -0.400 A  
HETATM   12  H   UNL     1     -10.142  13.725  66.413  1.00  0.00     0.000 HD 
ENDBRANCH   3   5
ENDBRANCH   2   3
TORSDOF 2
ENDMDL
MODEL       79
REMARK 921   NORMALIZED FREE ENERGY PREDICTED BY IDOCK:   -3.39 KCAL/MOL
REMARK 922        TOTAL FREE ENERGY PREDICTED BY IDOCK:   -3.87 KCAL/MOL
REMARK 923 INTER-LIGAND FREE ENERGY PREDICTED BY IDOCK:   -3.78 KCAL/MOL
REMARK 924 INTRA-LIGAND FREE ENERGY PREDICTED BY IDOCK:   -0.08 KCAL/MOL
REMARK 927      BINDING AFFINITY PREDICTED BY RF-SCORE:    0.00 PKD
ROOT
HETATM    1  C   UNL     1     -13.421  13.392  72.323  1.00  0.00    -0.586 C  
HETATM    2  O   UNL     1     -12.777  13.397  71.047  1.00  0.00    -0.342 OA 
ENDROOT
BRANCH   2   3
HETATM    3  C   UNL     1     -12.310  12.183  70.661  1.00  0.00    -0.295 C  
HETATM    4  O   UNL     1     -12.291  11.176  71.349  1.00  0.00    -0.314 OA 
BRANCH   3   5
HETATM    5  C   UNL     1     -11.793  12.232  69.266  1.00  0.00    -0.363 A  
HETATM    6  C   UNL     1     -11.564  11.015  68.606  1.00  0.00    -0.385 A  
HETATM    7  C   UNL     1     -11.050  10.998  67.307  1.00  0.00    -0.359 A  
HETATM    8  C   UNL     1     -10.767  12.202  66.671  1.00  0.00    -0.246 A  
HETATM    9  O   UNL     1     -10.245  12.235  65.413  1.00  0.00    -0.261 OA 
HETATM   10  C   UNL     1     -11.004  13.418  67.304  1.00  0.00    -0.286 A  
HETATM   11  C   UNL     1     -11.516  13.436  68.604  1.00  0.00    -0.345 A  
HETATM   12  H   UNL     1     -10.052  13.058  64.978  1.00  0.00     0.000 HD 
ENDBRANCH   3   5
ENDBRANCH   2   3
TORSDOF 2
ENDMDL
MODEL       80
REMARK 921   NORMALIZED FREE ENERGY PREDICTED BY IDOCK:   -3.35 KCAL/MOL
REMARK 922        TOTAL FREE ENERGY PREDICTED BY IDOCK:   -3.82 KCAL/MOL
REMARK 923 INTER-LIGAND FREE ENERGY PREDICTED BY IDOCK:   -3.76 KCAL/MOL
REMARK 924 INTRA-LIGAND FREE ENERGY PREDICTED BY IDOCK:   -0.06 KCAL/MOL
REMARK 927      BINDING AFFINITY PREDICTED BY RF-SCORE:    0.00 PKD
ROOT
HETATM    1  C   UNL     1     -10.583  15.251  68.399  1.00  0.00    -0.246 C  
HETATM    2  O   UNL     1     -10.796  14.140  69.272  1.00  0.00    -0.244 OA 
ENDROOT
BRANCH   2   3
HETATM    3  C   UNL     1     -11.597  13.176  68.752  1.00  0.00    -0.308 C  
HETATM    4  O   UNL     1     -12.102  13.193  67.641  1.00  0.00    -0.331 OA 
BRANCH   3   5
HETATM    5  C   UNL     1     -11.809  12.076  69.731  1.00  0.00    -0.401 A  
HETATM    6  C   UNL     1     -11.059  10.900  69.572  1.00  0.00    -0.326 A  
HETATM    7  C   UNL     1     -11.237   9.822  70.442  1.00  0.00    -0.362 A  
HETATM    8  C   UNL     1     -12.166   9.924  71.471  1.00  0.00    -0.416 A  
HETATM    9  O   UNL     1     -12.390   8.891  72.332  1.00  0.00    -0.367 OA 
HETATM   10  C   UNL     1     -12.906  11.087  71.653  1.00  0.00    -0.540 A  
HETATM   11  C   UNL     1     -12.730  12.166  70.783  1.00  0.00    -0.220 A  
HETATM   12  H   UNL     1     -13.025   8.960  73.035  1.00  0.00     0.000 HD 
ENDBRANCH   3   5
ENDBRANCH   2   3
TORSDOF 2
ENDMDL
MODEL       81
REMARK 921   NORMALIZED FREE ENERGY PREDICTED BY IDOCK:   -3.34 KCAL/MOL
REMARK 922        TOTAL FREE ENERGY PREDICTED BY IDOCK:   -3.81 KCAL/MOL
REMARK 923 INTER-LIGAND FREE ENERGY PREDICTED BY IDOCK:   -3.74 KCAL/MOL
REMARK 924 INTRA-LIGAND FREE ENERGY PREDICTED BY IDOCK:   -0.08 KCAL/MOL
REMARK 927      BINDING AFFINITY PREDICTED BY RF-SCORE:    0.00 PKD
ROOT
HETATM    1  C   UNL     1      -9.357  13.039  66.108  1.00  0.00    -0.080 C  
HETATM    2  O   UNL     1      -9.817  12.902  67.454  1.00  0.00    -0.202 OA 
ENDROOT
BRANCH   2   3
HETATM    3  C   UNL     1     -10.991  12.231  67.569  1.00  0.00    -0.254 C  
HETATM    4  O   UNL     1     -11.488  11.513  66.716  1.00  0.00    -0.436 OA 
BRANCH   3   5
HETATM    5  C   UNL     1     -11.628  12.497  68.888  1.00  0.00    -0.364 A  
HETATM    6  C   UNL     1     -12.132  11.403  69.607  1.00  0.00    -0.373 A  
HETATM    7  C   UNL     1     -12.768  11.595  70.837  1.00  0.00    -0.351 A  
HETATM    8  C   UNL     1     -12.896  12.884  71.343  1.00  0.00    -0.283 A  
HETATM    9  O   UNL     1     -13.527  13.122  72.528  1.00  0.00    -0.569 OA 
HETATM   10  C   UNL     1     -12.387  13.977  70.651  1.00  0.00    -0.446 A  
HETATM   11  C   UNL     1     -11.753  13.788  69.421  1.00  0.00    -0.379 A  
HETATM   12  H   UNL     1     -13.614  14.003  72.874  1.00  0.00     0.000 HD 
ENDBRANCH   3   5
ENDBRANCH   2   3
TORSDOF 2
ENDMDL
MODEL       82
REMARK 921   NORMALIZED FREE ENERGY PREDICTED BY IDOCK:   -3.34 KCAL/MOL
REMARK 922        TOTAL FREE ENERGY PREDICTED BY IDOCK:   -3.80 KCAL/MOL
REMARK 923 INTER-LIGAND FREE ENERGY PREDICTED BY IDOCK:   -3.70 KCAL/MOL
REMARK 924 INTRA-LIGAND FREE ENERGY PREDICTED BY IDOCK:   -0.11 KCAL/MOL
REMARK 927      BINDING AFFINITY PREDICTED BY RF-SCORE:    0.00 PKD
ROOT
HETATM    1  C   UNL     1     -11.174  15.270  70.454  1.00  0.00    -0.299 C  
HETATM    2  O   UNL     1     -11.937  15.611  69.295  1.00  0.00    -0.365 OA 
ENDROOT
BRANCH   2   3
HETATM    3  C   UNL     1     -11.185  15.857  68.193  1.00  0.00    -0.339 C  
HETATM    4  O   UNL     1     -10.601  16.900  67.948  1.00  0.00    -0.339 OA 
BRANCH   3   5
HETATM    5  C   UNL     1     -11.172  14.678  67.285  1.00  0.00    -0.344 A  
HETATM    6  C   UNL     1      -9.942  14.047  67.044  1.00  0.00    -0.257 A  
HETATM    7  C   UNL     1      -9.863  12.955  66.176  1.00  0.00    -0.270 A  
HETATM    8  C   UNL     1     -11.019  12.496  65.553  1.00  0.00    -0.287 A  
HETATM    9  O   UNL     1     -10.987  11.447  64.682  1.00  0.00    -0.310 OA 
HETATM   10  C   UNL     1     -12.248  13.099  65.793  1.00  0.00    -0.514 A  
HETATM   11  C   UNL     1     -12.329  14.193  66.660  1.00  0.00    -0.375 A  
HETATM   12  H   UNL     1     -11.776  11.134  64.256  1.00  0.00     0.000 HD 
ENDBRANCH   3   5
ENDBRANCH   2   3
TORSDOF 2
ENDMDL
MODEL       83
REMARK 921   NORMALIZED FREE ENERGY PREDICTED BY IDOCK:   -3.31 KCAL/MOL
REMARK 922        TOTAL FREE ENERGY PREDICTED BY IDOCK:   -3.78 KCAL/MOL
REMARK 923 INTER-LIGAND FREE ENERGY PREDICTED BY IDOCK:   -3.70 KCAL/MOL
REMARK 924 INTRA-LIGAND FREE ENERGY PREDICTED BY IDOCK:   -0.08 KCAL/MOL
REMARK 927      BINDING AFFINITY PREDICTED BY RF-SCORE:    0.00 PKD
ROOT
HETATM    1  C   UNL     1      -8.475  20.133  67.540  1.00  0.00    -0.335 C  
HETATM    2  O   UNL     1      -9.191  19.253  68.409  1.00  0.00    -0.327 OA 
ENDROOT
BRANCH   2   3
HETATM    3  C   UNL     1     -10.336  18.760  67.873  1.00  0.00    -0.406 C  
HETATM    4  O   UNL     1     -11.144  19.394  67.214  1.00  0.00    -0.458 OA 
BRANCH   3   5
HETATM    5  C   UNL     1     -10.502  17.320  68.208  1.00  0.00    -0.385 A  
HETATM    6  C   UNL     1     -10.518  16.957  69.563  1.00  0.00    -0.228 A  
HETATM    7  C   UNL     1     -10.640  15.616  69.937  1.00  0.00    -0.328 A  
HETATM    8  C   UNL     1     -10.749  14.641  68.952  1.00  0.00    -0.248 A  
HETATM    9  O   UNL     1     -10.850  13.320  69.268  1.00  0.00    -0.415 OA 
HETATM   10  C   UNL     1     -10.752  14.985  67.604  1.00  0.00    -0.274 A  
HETATM   11  C   UNL     1     -10.628  16.325  67.228  1.00  0.00    -0.298 A  
HETATM   12  H   UNL     1     -10.924  12.654  68.595  1.00  0.00     0.000 HD 
ENDBRANCH   3   5
ENDBRANCH   2   3
TORSDOF 2
ENDMDL
MODEL       84
REMARK 921   NORMALIZED FREE ENERGY PREDICTED BY IDOCK:   -3.28 KCAL/MOL
REMARK 922        TOTAL FREE ENERGY PREDICTED BY IDOCK:   -3.74 KCAL/MOL
REMARK 923 INTER-LIGAND FREE ENERGY PREDICTED BY IDOCK:   -3.65 KCAL/MOL
REMARK 924 INTRA-LIGAND FREE ENERGY PREDICTED BY IDOCK:   -0.09 KCAL/MOL
REMARK 927      BINDING AFFINITY PREDICTED BY RF-SCORE:    0.00 PKD
ROOT
HETATM    1  C   UNL     1      -9.684   7.622  69.417  1.00  0.00    -0.165 C  
HETATM    2  O   UNL     1     -10.202   8.954  69.395  1.00  0.00    -0.197 OA 
ENDROOT
BRANCH   2   3
HETATM    3  C   UNL     1     -10.640   9.355  68.175  1.00  0.00    -0.212 C  
HETATM    4  O   UNL     1     -10.659   8.670  67.165  1.00  0.00    -0.294 OA 
BRANCH   3   5
HETATM    5  C   UNL     1     -11.088  10.774  68.211  1.00  0.00    -0.327 A  
HETATM    6  C   UNL     1     -11.358  11.347  69.463  1.00  0.00    -0.357 A  
HETATM    7  C   UNL     1     -11.812  12.665  69.557  1.00  0.00    -0.376 A  
HETATM    8  C   UNL     1     -11.991  13.408  68.395  1.00  0.00    -0.324 A  
HETATM    9  O   UNL     1     -12.450  14.690  68.436  1.00  0.00    -0.594 OA 
HETATM   10  C   UNL     1     -11.711  12.861  67.147  1.00  0.00    -0.437 A  
HETATM   11  C   UNL     1     -11.260  11.542  67.051  1.00  0.00    -0.365 A  
HETATM   12  H   UNL     1     -12.573  15.198  67.642  1.00  0.00     0.000 HD 
ENDBRANCH   3   5
ENDBRANCH   2   3
TORSDOF 2
ENDMDL
MODEL       85
REMARK 921   NORMALIZED FREE ENERGY PREDICTED BY IDOCK:   -3.26 KCAL/MOL
REMARK 922        TOTAL FREE ENERGY PREDICTED BY IDOCK:   -3.72 KCAL/MOL
REMARK 923 INTER-LIGAND FREE ENERGY PREDICTED BY IDOCK:   -3.66 KCAL/MOL
REMARK 924 INTRA-LIGAND FREE ENERGY PREDICTED BY IDOCK:   -0.07 KCAL/MOL
REMARK 927      BINDING AFFINITY PREDICTED BY RF-SCORE:    0.00 PKD
ROOT
HETATM    1  C   UNL     1     -11.610  12.196  69.741  1.00  0.00    -0.262 C  
HETATM    2  O   UNL     1     -11.763  10.790  69.950  1.00  0.00    -0.275 OA 
ENDROOT
BRANCH   2   3
HETATM    3  C   UNL     1     -12.322  10.468  71.143  1.00  0.00    -0.405 C  
HETATM    4  O   UNL     1     -13.037  11.195  71.814  1.00  0.00    -0.467 OA 
BRANCH   3   5
HETATM    5  C   UNL     1     -11.934   9.093  71.558  1.00  0.00    -0.422 A  
HETATM    6  C   UNL     1     -12.839   8.050  71.307  1.00  0.00    -0.221 A  
HETATM    7  C   UNL     1     -12.542   6.743  71.702  1.00  0.00    -0.380 A  
HETATM    8  C   UNL     1     -11.338   6.483  72.346  1.00  0.00    -0.279 A  
HETATM    9  O   UNL     1     -11.015   5.228  72.769  1.00  0.00    -0.240 OA 
HETATM   10  C   UNL     1     -10.423   7.502  72.588  1.00  0.00    -0.322 A  
HETATM   11  C   UNL     1     -10.718   8.810  72.196  1.00  0.00    -0.383 A  
HETATM   12  H   UNL     1     -10.192   5.051  73.209  1.00  0.00     0.000 HD 
ENDBRANCH   3   5
ENDBRANCH   2   3
TORSDOF 2
ENDMDL
MODEL       86
REMARK 921   NORMALIZED FREE ENERGY PREDICTED BY IDOCK:   -3.25 KCAL/MOL
REMARK 922        TOTAL FREE ENERGY PREDICTED BY IDOCK:   -3.70 KCAL/MOL
REMARK 923 INTER-LIGAND FREE ENERGY PREDICTED BY IDOCK:   -3.64 KCAL/MOL
REMARK 924 INTRA-LIGAND FREE ENERGY PREDICTED BY IDOCK:   -0.06 KCAL/MOL
REMARK 927      BINDING AFFINITY PREDICTED BY RF-SCORE:    0.00 PKD
ROOT
HETATM    1  C   UNL     1     -13.298  10.012  71.611  1.00  0.00    -0.373 C  
HETATM    2  O   UNL     1     -12.080  10.709  71.337  1.00  0.00    -0.328 OA 
ENDROOT
BRANCH   2   3
HETATM    3  C   UNL     1     -12.244  11.833  70.594  1.00  0.00    -0.349 C  
HETATM    4  O   UNL     1     -12.724  12.883  70.989  1.00  0.00    -0.333 OA 
BRANCH   3   5
HETATM    5  C   UNL     1     -11.773  11.620  69.199  1.00  0.00    -0.390 A  
HETATM    6  C   UNL     1     -12.026  12.630  68.258  1.00  0.00    -0.271 A  
HETATM    7  C   UNL     1     -11.635  12.473  66.926  1.00  0.00    -0.436 A  
HETATM    8  C   UNL     1     -10.989  11.304  66.539  1.00  0.00    -0.245 A  
HETATM    9  O   UNL     1     -10.607  11.097  65.247  1.00  0.00    -0.273 OA 
HETATM   10  C   UNL     1     -10.716  10.300  67.462  1.00  0.00    -0.348 A  
HETATM   11  C   UNL     1     -11.108  10.454  68.794  1.00  0.00    -0.298 A  
HETATM   12  H   UNL     1     -10.166  10.298  64.983  1.00  0.00     0.000 HD 
ENDBRANCH   3   5
ENDBRANCH   2   3
TORSDOF 2
ENDMDL
MODEL       87
REMARK 921   NORMALIZED FREE ENERGY PREDICTED BY IDOCK:   -3.24 KCAL/MOL
REMARK 922        TOTAL FREE ENERGY PREDICTED BY IDOCK:   -3.70 KCAL/MOL
REMARK 923 INTER-LIGAND FREE ENERGY PREDICTED BY IDOCK:   -3.63 KCAL/MOL
REMARK 924 INTRA-LIGAND FREE ENERGY PREDICTED BY IDOCK:   -0.07 KCAL/MOL
REMARK 927      BINDING AFFINITY PREDICTED BY RF-SCORE:    0.00 PKD
ROOT
HETATM    1  C   UNL     1      -9.986   4.603  71.625  1.00  0.00    -0.193 C  
HETATM    2  O   UNL     1     -10.914   5.684  71.510  1.00  0.00    -0.252 OA 
ENDROOT
BRANCH   2   3
HETATM    3  C   UNL     1     -10.753   6.650  72.448  1.00  0.00    -0.223 C  
HETATM    4  O   UNL     1     -10.378   6.473  73.596  1.00  0.00    -0.248 OA 
BRANCH   3   5
HETATM    5  C   UNL     1     -11.115   7.987  71.902  1.00  0.00    -0.333 A  
HETATM    6  C   UNL     1     -12.379   8.507  72.220  1.00  0.00    -0.450 A  
HETATM    7  C   UNL     1     -12.786   9.743  71.711  1.00  0.00    -0.519 A  
HETATM    8  C   UNL     1     -11.924  10.456  70.885  1.00  0.00    -0.377 A  
HETATM    9  O   UNL     1     -12.285  11.655  70.348  1.00  0.00    -0.350 OA 
HETATM   10  C   UNL     1     -10.662   9.962  70.573  1.00  0.00    -0.382 A  
HETATM   11  C   UNL     1     -10.254   8.726  71.080  1.00  0.00    -0.301 A  
HETATM   12  H   UNL     1     -11.697  12.143  69.783  1.00  0.00     0.000 HD 
ENDBRANCH   3   5
ENDBRANCH   2   3
TORSDOF 2
ENDMDL
MODEL       88
REMARK 921   NORMALIZED FREE ENERGY PREDICTED BY IDOCK:   -3.24 KCAL/MOL
REMARK 922        TOTAL FREE ENERGY PREDICTED BY IDOCK:   -3.69 KCAL/MOL
REMARK 923 INTER-LIGAND FREE ENERGY PREDICTED BY IDOCK:   -3.69 KCAL/MOL
REMARK 924 INTRA-LIGAND FREE ENERGY PREDICTED BY IDOCK:   -0.01 KCAL/MOL
REMARK 927      BINDING AFFINITY PREDICTED BY RF-SCORE:    0.00 PKD
ROOT
HETATM    1  C   UNL     1     -10.612  17.398  68.606  1.00  0.00    -0.318 C  
HETATM    2  O   UNL     1     -10.477  17.890  67.270  1.00  0.00    -0.363 OA 
ENDROOT
BRANCH   2   3
HETATM    3  C   UNL     1      -9.263  17.648  66.715  1.00  0.00    -0.271 C  
HETATM    4  O   UNL     1      -9.017  16.783  65.890  1.00  0.00    -0.497 OA 
BRANCH   3   5
HETATM    5  C   UNL     1      -8.234  18.575  67.261  1.00  0.00    -0.254 A  
HETATM    6  C   UNL     1      -8.242  19.904  66.811  1.00  0.00    -0.357 A  
HETATM    7  C   UNL     1      -7.282  20.812  67.265  1.00  0.00    -0.415 A  
HETATM    8  C   UNL     1      -6.317  20.386  68.171  1.00  0.00    -0.293 A  
HETATM    9  O   UNL     1      -5.348  21.230  68.626  1.00  0.00    -0.407 OA 
HETATM   10  C   UNL     1      -6.305  19.077  68.639  1.00  0.00    -0.266 A  
HETATM   11  C   UNL     1      -7.263  18.167  68.185  1.00  0.00    -0.247 A  
HETATM   12  H   UNL     1      -4.688  20.939  69.244  1.00  0.00     0.000 HD 
ENDBRANCH   3   5
ENDBRANCH   2   3
TORSDOF 2
ENDMDL
MODEL       89
REMARK 921   NORMALIZED FREE ENERGY PREDICTED BY IDOCK:   -3.23 KCAL/MOL
REMARK 922        TOTAL FREE ENERGY PREDICTED BY IDOCK:   -3.68 KCAL/MOL
REMARK 923 INTER-LIGAND FREE ENERGY PREDICTED BY IDOCK:   -3.59 KCAL/MOL
REMARK 924 INTRA-LIGAND FREE ENERGY PREDICTED BY IDOCK:   -0.09 KCAL/MOL
REMARK 927      BINDING AFFINITY PREDICTED BY RF-SCORE:    0.00 PKD
ROOT
HETATM    1  C   UNL     1     -13.410   9.755  71.725  1.00  0.00    -0.413 C  
HETATM    2  O   UNL     1     -11.987   9.886  71.704  1.00  0.00    -0.393 OA 
ENDROOT
BRANCH   2   3
HETATM    3  C   UNL     1     -11.350   8.872  71.065  1.00  0.00    -0.291 C  
HETATM    4  O   UNL     1     -11.012   8.871  69.892  1.00  0.00    -0.235 OA 
BRANCH   3   5
HETATM    5  C   UNL     1     -11.124   7.724  71.984  1.00  0.00    -0.318 A  
HETATM    6  C   UNL     1     -10.192   7.884  73.020  1.00  0.00    -0.394 A  
HETATM    7  C   UNL     1      -9.916   6.830  73.895  1.00  0.00    -0.340 A  
HETATM    8  C   UNL     1     -10.576   5.617  73.730  1.00  0.00    -0.273 A  
HETATM    9  O   UNL     1     -10.324   4.555  74.545  1.00  0.00    -0.223 OA 
HETATM   10  C   UNL     1     -11.515   5.447  72.718  1.00  0.00    -0.333 A  
HETATM   11  C   UNL     1     -11.791   6.499  71.841  1.00  0.00    -0.381 A  
HETATM   12  H   UNL     1     -10.775   3.726  74.432  1.00  0.00     0.000 HD 
ENDBRANCH   3   5
ENDBRANCH   2   3
TORSDOF 2
ENDMDL
MODEL       90
REMARK 921   NORMALIZED FREE ENERGY PREDICTED BY IDOCK:   -3.21 KCAL/MOL
REMARK 922        TOTAL FREE ENERGY PREDICTED BY IDOCK:   -3.67 KCAL/MOL
REMARK 923 INTER-LIGAND FREE ENERGY PREDICTED BY IDOCK:   -3.58 KCAL/MOL
REMARK 924 INTRA-LIGAND FREE ENERGY PREDICTED BY IDOCK:   -0.09 KCAL/MOL
REMARK 927      BINDING AFFINITY PREDICTED BY RF-SCORE:    0.00 PKD
ROOT
HETATM    1  C   UNL     1     -12.890  15.528  71.128  1.00  0.00    -0.489 C  
HETATM    2  O   UNL     1     -12.714  15.476  69.711  1.00  0.00    -0.189 OA 
ENDROOT
BRANCH   2   3
HETATM    3  C   UNL     1     -11.452  15.164  69.324  1.00  0.00    -0.311 C  
HETATM    4  O   UNL     1     -10.831  14.167  69.657  1.00  0.00    -0.156 OA 
BRANCH   3   5
HETATM    5  C   UNL     1     -10.892  16.219  68.435  1.00  0.00    -0.334 A  
HETATM    6  C   UNL     1     -10.771  15.930  67.067  1.00  0.00    -0.292 A  
HETATM    7  C   UNL     1     -10.224  16.871  66.190  1.00  0.00    -0.352 A  
HETATM    8  C   UNL     1      -9.800  18.099  66.686  1.00  0.00    -0.350 A  
HETATM    9  O   UNL     1      -9.242  19.039  65.872  1.00  0.00    -0.450 OA 
HETATM   10  C   UNL     1      -9.928  18.407  68.036  1.00  0.00    -0.374 A  
HETATM   11  C   UNL     1     -10.473  17.467  68.915  1.00  0.00    -0.286 A  
HETATM   12  H   UNL     1      -8.952  19.878  66.211  1.00  0.00     0.000 HD 
ENDBRANCH   3   5
ENDBRANCH   2   3
TORSDOF 2
ENDMDL
MODEL       91
REMARK 921   NORMALIZED FREE ENERGY PREDICTED BY IDOCK:   -3.18 KCAL/MOL
REMARK 922        TOTAL FREE ENERGY PREDICTED BY IDOCK:   -3.62 KCAL/MOL
REMARK 923 INTER-LIGAND FREE ENERGY PREDICTED BY IDOCK:   -3.64 KCAL/MOL
REMARK 924 INTRA-LIGAND FREE ENERGY PREDICTED BY IDOCK:    0.02 KCAL/MOL
REMARK 927      BINDING AFFINITY PREDICTED BY RF-SCORE:    0.00 PKD
ROOT
HETATM    1  C   UNL     1      -8.426  11.115  68.466  1.00  0.00    -0.156 C  
HETATM    2  O   UNL     1      -9.610  10.320  68.559  1.00  0.00    -0.152 OA 
ENDROOT
BRANCH   2   3
HETATM    3  C   UNL     1     -10.548  10.825  69.399  1.00  0.00    -0.221 C  
HETATM    4  O   UNL     1     -11.125  11.892  69.263  1.00  0.00    -0.240 OA 
BRANCH   3   5
HETATM    5  C   UNL     1     -10.783   9.907  70.546  1.00  0.00    -0.382 A  
HETATM    6  C   UNL     1      -9.673   9.258  71.108  1.00  0.00    -0.327 A  
HETATM    7  C   UNL     1      -9.836   8.362  72.167  1.00  0.00    -0.372 A  
HETATM    8  C   UNL     1     -11.113   8.118  72.663  1.00  0.00    -0.380 A  
HETATM    9  O   UNL     1     -11.323   7.237  73.680  1.00  0.00    -0.542 OA 
HETATM   10  C   UNL     1     -12.222   8.765  72.128  1.00  0.00    -0.448 A  
HETATM   11  C   UNL     1     -12.061   9.660  71.068  1.00  0.00    -0.421 A  
HETATM   12  H   UNL     1     -12.196   7.070  74.018  1.00  0.00     0.000 HD 
ENDBRANCH   3   5
ENDBRANCH   2   3
TORSDOF 2
ENDMDL
MODEL       92
REMARK 921   NORMALIZED FREE ENERGY PREDICTED BY IDOCK:   -3.17 KCAL/MOL
REMARK 922        TOTAL FREE ENERGY PREDICTED BY IDOCK:   -3.62 KCAL/MOL
REMARK 923 INTER-LIGAND FREE ENERGY PREDICTED BY IDOCK:   -3.50 KCAL/MOL
REMARK 924 INTRA-LIGAND FREE ENERGY PREDICTED BY IDOCK:   -0.12 KCAL/MOL
REMARK 927      BINDING AFFINITY PREDICTED BY RF-SCORE:    0.00 PKD
ROOT
HETATM    1  C   UNL     1      -8.971   8.828  71.262  1.00  0.00    -0.231 C  
HETATM    2  O   UNL     1      -9.852   8.616  70.156  1.00  0.00    -0.175 OA 
ENDROOT
BRANCH   2   3
HETATM    3  C   UNL     1     -11.154   8.883  70.430  1.00  0.00    -0.239 C  
HETATM    4  O   UNL     1     -11.950   8.104  70.930  1.00  0.00    -0.275 OA 
BRANCH   3   5
HETATM    5  C   UNL     1     -11.510  10.268  70.019  1.00  0.00    -0.367 A  
HETATM    6  C   UNL     1     -11.264  10.643  68.690  1.00  0.00    -0.337 A  
HETATM    7  C   UNL     1     -11.550  11.940  68.255  1.00  0.00    -0.390 A  
HETATM    8  C   UNL     1     -12.084  12.858  69.153  1.00  0.00    -0.168 A  
HETATM    9  O   UNL     1     -12.359  14.139  68.780  1.00  0.00    -0.549 OA 
HETATM   10  C   UNL     1     -12.350  12.497  70.469  1.00  0.00    -0.345 A  
HETATM   11  C   UNL     1     -12.063  11.201  70.907  1.00  0.00    -0.427 A  
HETATM   12  H   UNL     1     -12.724  14.766  69.394  1.00  0.00     0.000 HD 
ENDBRANCH   3   5
ENDBRANCH   2   3
TORSDOF 2
ENDMDL
MODEL       93
REMARK 921   NORMALIZED FREE ENERGY PREDICTED BY IDOCK:   -3.17 KCAL/MOL
REMARK 922        TOTAL FREE ENERGY PREDICTED BY IDOCK:   -3.62 KCAL/MOL
REMARK 923 INTER-LIGAND FREE ENERGY PREDICTED BY IDOCK:   -3.53 KCAL/MOL
REMARK 924 INTRA-LIGAND FREE ENERGY PREDICTED BY IDOCK:   -0.09 KCAL/MOL
REMARK 927      BINDING AFFINITY PREDICTED BY RF-SCORE:    0.00 PKD
ROOT
HETATM    1  C   UNL     1     -11.054  14.765  64.590  1.00  0.00    -0.325 C  
HETATM    2  O   UNL     1     -10.633  14.726  65.955  1.00  0.00    -0.291 OA 
ENDROOT
BRANCH   2   3
HETATM    3  C   UNL     1     -10.507  13.472  66.457  1.00  0.00    -0.284 C  
HETATM    4  O   UNL     1     -10.006  12.520  65.879  1.00  0.00    -0.253 OA 
BRANCH   3   5
HETATM    5  C   UNL     1     -11.085  13.386  67.825  1.00  0.00    -0.292 A  
HETATM    6  C   UNL     1     -11.255  12.113  68.389  1.00  0.00    -0.314 A  
HETATM    7  C   UNL     1     -11.822  11.969  69.658  1.00  0.00    -0.401 A  
HETATM    8  C   UNL     1     -12.216  13.103  70.361  1.00  0.00    -0.316 A  
HETATM    9  O   UNL     1     -12.792  13.011  71.592  1.00  0.00    -0.338 OA 
HETATM   10  C   UNL     1     -12.039  14.373  69.823  1.00  0.00    -0.386 A  
HETATM   11  C   UNL     1     -11.475  14.519  68.553  1.00  0.00    -0.327 A  
HETATM   12  H   UNL     1     -13.061  13.786  72.072  1.00  0.00     0.000 HD 
ENDBRANCH   3   5
ENDBRANCH   2   3
TORSDOF 2
ENDMDL
MODEL       94
REMARK 921   NORMALIZED FREE ENERGY PREDICTED BY IDOCK:   -3.16 KCAL/MOL
REMARK 922        TOTAL FREE ENERGY PREDICTED BY IDOCK:   -3.60 KCAL/MOL
REMARK 923 INTER-LIGAND FREE ENERGY PREDICTED BY IDOCK:   -3.52 KCAL/MOL
REMARK 924 INTRA-LIGAND FREE ENERGY PREDICTED BY IDOCK:   -0.09 KCAL/MOL
REMARK 927      BINDING AFFINITY PREDICTED BY RF-SCORE:    0.00 PKD
ROOT
HETATM    1  C   UNL     1     -10.622   5.527  66.582  1.00  0.00    -0.299 C  
HETATM    2  O   UNL     1     -10.947   6.733  67.276  1.00  0.00    -0.339 OA 
ENDROOT
BRANCH   2   3
HETATM    3  C   UNL     1     -10.073   7.052  68.264  1.00  0.00    -0.167 C  
HETATM    4  O   UNL     1      -8.856   7.052  68.166  1.00  0.00    -0.129 OA 
BRANCH   3   5
HETATM    5  C   UNL     1     -10.793   7.392  69.521  1.00  0.00    -0.201 A  
HETATM    6  C   UNL     1     -11.481   6.364  70.184  1.00  0.00    -0.484 A  
HETATM    7  C   UNL     1     -12.200   6.631  71.352  1.00  0.00    -0.378 A  
HETATM    8  C   UNL     1     -12.228   7.927  71.854  1.00  0.00    -0.314 A  
HETATM    9  O   UNL     1     -12.934   8.239  72.977  1.00  0.00    -0.610 OA 
HETATM   10  C   UNL     1     -11.539   8.954  71.218  1.00  0.00    -0.371 A  
HETATM   11  C   UNL     1     -10.820   8.690  70.049  1.00  0.00    -0.226 A  
HETATM   12  H   UNL     1     -12.953   9.125  73.320  1.00  0.00     0.000 HD 
ENDBRANCH   3   5
ENDBRANCH   2   3
TORSDOF 2
ENDMDL
MODEL       95
REMARK 921   NORMALIZED FREE ENERGY PREDICTED BY IDOCK:   -3.16 KCAL/MOL
REMARK 922        TOTAL FREE ENERGY PREDICTED BY IDOCK:   -3.60 KCAL/MOL
REMARK 923 INTER-LIGAND FREE ENERGY PREDICTED BY IDOCK:   -3.51 KCAL/MOL
REMARK 924 INTRA-LIGAND FREE ENERGY PREDICTED BY IDOCK:   -0.09 KCAL/MOL
REMARK 927      BINDING AFFINITY PREDICTED BY RF-SCORE:    0.00 PKD
ROOT
HETATM    1  C   UNL     1      -8.221  19.740  66.165  1.00  0.00    -0.344 C  
HETATM    2  O   UNL     1      -8.307  18.717  67.159  1.00  0.00    -0.263 OA 
ENDROOT
BRANCH   2   3
HETATM    3  C   UNL     1      -8.086  17.466  66.683  1.00  0.00    -0.259 C  
HETATM    4  O   UNL     1      -7.071  17.088  66.120  1.00  0.00    -0.240 OA 
BRANCH   3   5
HETATM    5  C   UNL     1      -9.267  16.591  66.918  1.00  0.00    -0.244 A  
HETATM    6  C   UNL     1      -9.828  16.576  68.204  1.00  0.00    -0.244 A  
HETATM    7  C   UNL     1     -10.919  15.751  68.492  1.00  0.00    -0.312 A  
HETATM    8  C   UNL     1     -11.446  14.944  67.489  1.00  0.00    -0.348 A  
HETATM    9  O   UNL     1     -12.495  14.108  67.728  1.00  0.00    -0.535 OA 
HETATM   10  C   UNL     1     -10.912  14.960  66.206  1.00  0.00    -0.338 A  
HETATM   11  C   UNL     1      -9.820  15.783  65.916  1.00  0.00    -0.381 A  
HETATM   12  H   UNL     1     -12.855  13.557  67.043  1.00  0.00     0.000 HD 
ENDBRANCH   3   5
ENDBRANCH   2   3
TORSDOF 2
ENDMDL
MODEL       96
REMARK 921   NORMALIZED FREE ENERGY PREDICTED BY IDOCK:   -3.14 KCAL/MOL
REMARK 922        TOTAL FREE ENERGY PREDICTED BY IDOCK:   -3.59 KCAL/MOL
REMARK 923 INTER-LIGAND FREE ENERGY PREDICTED BY IDOCK:   -3.51 KCAL/MOL
REMARK 924 INTRA-LIGAND FREE ENERGY PREDICTED BY IDOCK:   -0.08 KCAL/MOL
REMARK 927      BINDING AFFINITY PREDICTED BY RF-SCORE:    0.00 PKD
ROOT
HETATM    1  C   UNL     1     -10.052  17.980  66.531  1.00  0.00    -0.379 C  
HETATM    2  O   UNL     1     -10.901  16.986  67.109  1.00  0.00    -0.224 OA 
ENDROOT
BRANCH   2   3
HETATM    3  C   UNL     1     -10.708  16.803  68.439  1.00  0.00    -0.362 C  
HETATM    4  O   UNL     1     -10.295  17.644  69.221  1.00  0.00    -0.319 OA 
BRANCH   3   5
HETATM    5  C   UNL     1     -11.052  15.412  68.839  1.00  0.00    -0.275 A  
HETATM    6  C   UNL     1     -11.953  15.236  69.901  1.00  0.00    -0.373 A  
HETATM    7  C   UNL     1     -12.290  13.954  70.341  1.00  0.00    -0.433 A  
HETATM    8  C   UNL     1     -11.724  12.848  69.714  1.00  0.00    -0.281 A  
HETATM    9  O   UNL     1     -12.006  11.579  70.123  1.00  0.00    -0.325 OA 
HETATM   10  C   UNL     1     -10.842  13.004  68.651  1.00  0.00    -0.287 A  
HETATM   11  C   UNL     1     -10.503  14.286  68.210  1.00  0.00    -0.247 A  
HETATM   12  H   UNL     1     -11.619  10.824  69.695  1.00  0.00     0.000 HD 
ENDBRANCH   3   5
ENDBRANCH   2   3
TORSDOF 2
ENDMDL
MODEL       97
REMARK 921   NORMALIZED FREE ENERGY PREDICTED BY IDOCK:   -3.13 KCAL/MOL
REMARK 922        TOTAL FREE ENERGY PREDICTED BY IDOCK:   -3.57 KCAL/MOL
REMARK 923 INTER-LIGAND FREE ENERGY PREDICTED BY IDOCK:   -3.54 KCAL/MOL
REMARK 924 INTRA-LIGAND FREE ENERGY PREDICTED BY IDOCK:   -0.03 KCAL/MOL
REMARK 927      BINDING AFFINITY PREDICTED BY RF-SCORE:    0.00 PKD
ROOT
HETATM    1  C   UNL     1     -14.181   8.802  72.449  1.00  0.00    -0.385 C  
HETATM    2  O   UNL     1     -13.226   8.494  71.432  1.00  0.00    -0.299 OA 
ENDROOT
BRANCH   2   3
HETATM    3  C   UNL     1     -11.976   8.953  71.693  1.00  0.00    -0.345 C  
HETATM    4  O   UNL     1     -11.257   8.581  72.606  1.00  0.00    -0.331 OA 
BRANCH   3   5
HETATM    5  C   UNL     1     -11.583  10.008  70.719  1.00  0.00    -0.444 A  
HETATM    6  C   UNL     1     -10.358   9.863  70.051  1.00  0.00    -0.320 A  
HETATM    7  C   UNL     1      -9.922  10.836  69.149  1.00  0.00    -0.206 A  
HETATM    8  C   UNL     1     -10.717  11.954  68.916  1.00  0.00    -0.199 A  
HETATM    9  O   UNL     1     -10.324  12.939  68.061  1.00  0.00    -0.215 OA 
HETATM   10  C   UNL     1     -11.942  12.105  69.558  1.00  0.00    -0.338 A  
HETATM   11  C   UNL     1     -12.378  11.133  70.462  1.00  0.00    -0.454 A  
HETATM   12  H   UNL     1     -10.867  13.703  67.902  1.00  0.00     0.000 HD 
ENDBRANCH   3   5
ENDBRANCH   2   3
TORSDOF 2
ENDMDL
MODEL       98
REMARK 921   NORMALIZED FREE ENERGY PREDICTED BY IDOCK:   -3.12 KCAL/MOL
REMARK 922        TOTAL FREE ENERGY PREDICTED BY IDOCK:   -3.56 KCAL/MOL
REMARK 923 INTER-LIGAND FREE ENERGY PREDICTED BY IDOCK:   -3.64 KCAL/MOL
REMARK 924 INTRA-LIGAND FREE ENERGY PREDICTED BY IDOCK:    0.07 KCAL/MOL
REMARK 927      BINDING AFFINITY PREDICTED BY RF-SCORE:    0.00 PKD
ROOT
HETATM    1  C   UNL     1      -9.213  18.147  66.509  1.00  0.00    -0.281 C  
HETATM    2  O   UNL     1     -10.537  17.667  66.261  1.00  0.00    -0.315 OA 
ENDROOT
BRANCH   2   3
HETATM    3  C   UNL     1     -10.620  16.318  66.142  1.00  0.00    -0.267 C  
HETATM    4  O   UNL     1     -10.350  15.673  65.142  1.00  0.00    -0.383 OA 
BRANCH   3   5
HETATM    5  C   UNL     1     -11.110  15.702  67.406  1.00  0.00    -0.260 A  
HETATM    6  C   UNL     1     -11.499  14.354  67.373  1.00  0.00    -0.377 A  
HETATM    7  C   UNL     1     -11.997  13.732  68.520  1.00  0.00    -0.402 A  
HETATM    8  C   UNL     1     -12.102  14.461  69.700  1.00  0.00    -0.334 A  
HETATM    9  O   UNL     1     -12.601  13.903  70.838  1.00  0.00    -0.329 OA 
HETATM   10  C   UNL     1     -11.706  15.793  69.753  1.00  0.00    -0.355 A  
HETATM   11  C   UNL     1     -11.209  16.418  68.607  1.00  0.00    -0.332 A  
HETATM   12  H   UNL     1     -12.673  14.401  71.644  1.00  0.00     0.000 HD 
ENDBRANCH   3   5
ENDBRANCH   2   3
TORSDOF 2
ENDMDL
MODEL       99
REMARK 921   NORMALIZED FREE ENERGY PREDICTED BY IDOCK:   -3.10 KCAL/MOL
REMARK 922        TOTAL FREE ENERGY PREDICTED BY IDOCK:   -3.54 KCAL/MOL
REMARK 923 INTER-LIGAND FREE ENERGY PREDICTED BY IDOCK:   -3.63 KCAL/MOL
REMARK 924 INTRA-LIGAND FREE ENERGY PREDICTED BY IDOCK:    0.09 KCAL/MOL
REMARK 927      BINDING AFFINITY PREDICTED BY RF-SCORE:    0.00 PKD
ROOT
HETATM    1  C   UNL     1      -7.101  20.144  68.288  1.00  0.00    -0.269 C  
HETATM    2  O   UNL     1      -7.815  19.118  68.981  1.00  0.00    -0.331 OA 
ENDROOT
BRANCH   2   3
HETATM    3  C   UNL     1      -9.103  18.977  68.579  1.00  0.00    -0.358 C  
HETATM    4  O   UNL     1     -10.034  19.695  68.907  1.00  0.00    -0.447 OA 
BRANCH   3   5
HETATM    5  C   UNL     1      -9.254  17.799  67.683  1.00  0.00    -0.249 A  
HETATM    6  C   UNL     1     -10.518  17.194  67.599  1.00  0.00    -0.355 A  
HETATM    7  C   UNL     1     -10.712  16.066  66.797  1.00  0.00    -0.259 A  
HETATM    8  C   UNL     1      -9.639  15.548  66.079  1.00  0.00    -0.345 A  
HETATM    9  O   UNL     1      -9.776  14.438  65.300  1.00  0.00    -0.540 OA 
HETATM   10  C   UNL     1      -8.385  16.146  66.138  1.00  0.00    -0.222 A  
HETATM   11  C   UNL     1      -8.188  17.272  66.941  1.00  0.00    -0.256 A  
HETATM   12  H   UNL     1      -9.043  14.084  64.810  1.00  0.00     0.000 HD 
ENDBRANCH   3   5
ENDBRANCH   2   3
TORSDOF 2
ENDMDL
MODEL      100
REMARK 921   NORMALIZED FREE ENERGY PREDICTED BY IDOCK:   -3.10 KCAL/MOL
REMARK 922        TOTAL FREE ENERGY PREDICTED BY IDOCK:   -3.54 KCAL/MOL
REMARK 923 INTER-LIGAND FREE ENERGY PREDICTED BY IDOCK:   -3.45 KCAL/MOL
REMARK 924 INTRA-LIGAND FREE ENERGY PREDICTED BY IDOCK:   -0.08 KCAL/MOL
REMARK 927      BINDING AFFINITY PREDICTED BY RF-SCORE:    0.00 PKD
ROOT
HETATM    1  C   UNL     1      -8.298  16.319  68.712  1.00  0.00    -0.235 C  
HETATM    2  O   UNL     1      -8.960  15.324  67.929  1.00  0.00    -0.168 OA 
ENDROOT
BRANCH   2   3
HETATM    3  C   UNL     1     -10.269  15.591  67.692  1.00  0.00    -0.255 C  
HETATM    4  O   UNL     1     -10.707  16.220  66.741  1.00  0.00    -0.293 OA 
BRANCH   3   5
HETATM    5  C   UNL     1     -11.130  15.028  68.767  1.00  0.00    -0.269 A  
HETATM    6  C   UNL     1     -11.795  15.926  69.616  1.00  0.00    -0.298 A  
HETATM    7  C   UNL     1     -12.592  15.455  70.662  1.00  0.00    -0.491 A  
HETATM    8  C   UNL     1     -12.723  14.084  70.855  1.00  0.00    -0.350 A  
HETATM    9  O   UNL     1     -13.472  13.578  71.874  1.00  0.00    -0.402 OA 
HETATM   10  C   UNL     1     -12.084  13.180  70.013  1.00  0.00    -0.375 A  
HETATM   11  C   UNL     1     -11.285  13.649  68.967  1.00  0.00    -0.316 A  
HETATM   12  H   UNL     1     -13.561  12.641  72.006  1.00  0.00     0.000 HD 
ENDBRANCH   3   5
ENDBRANCH   2   3
TORSDOF 2
ENDMDL
MODEL      101
REMARK 921   NORMALIZED FREE ENERGY PREDICTED BY IDOCK:   -3.10 KCAL/MOL
REMARK 922        TOTAL FREE ENERGY PREDICTED BY IDOCK:   -3.53 KCAL/MOL
REMARK 923 INTER-LIGAND FREE ENERGY PREDICTED BY IDOCK:   -3.47 KCAL/MOL
REMARK 924 INTRA-LIGAND FREE ENERGY PREDICTED BY IDOCK:   -0.06 KCAL/MOL
REMARK 927      BINDING AFFINITY PREDICTED BY RF-SCORE:    0.00 PKD
ROOT
HETATM    1  C   UNL     1     -10.191   9.690  69.516  1.00  0.00    -0.218 C  
HETATM    2  O   UNL     1     -10.055  11.019  69.009  1.00  0.00    -0.205 OA 
ENDROOT
BRANCH   2   3
HETATM    3  C   UNL     1     -11.165  11.488  68.387  1.00  0.00    -0.255 C  
HETATM    4  O   UNL     1     -12.285  11.008  68.471  1.00  0.00    -0.582 OA 
BRANCH   3   5
HETATM    5  C   UNL     1     -10.844  12.677  67.551  1.00  0.00    -0.267 A  
HETATM    6  C   UNL     1     -10.844  13.935  68.171  1.00  0.00    -0.262 A  
HETATM    7  C   UNL     1     -10.580  15.091  67.431  1.00  0.00    -0.271 A  
HETATM    8  C   UNL     1     -10.315  14.982  66.070  1.00  0.00    -0.312 A  
HETATM    9  O   UNL     1     -10.073  16.082  65.303  1.00  0.00    -0.475 OA 
HETATM   10  C   UNL     1     -10.295  13.741  65.443  1.00  0.00    -0.347 A  
HETATM   11  C   UNL     1     -10.561  12.584  66.182  1.00  0.00    -0.279 A  
HETATM   12  H   UNL     1      -9.892  16.008  64.373  1.00  0.00     0.000 HD 
ENDBRANCH   3   5
ENDBRANCH   2   3
TORSDOF 2
ENDMDL
MODEL      102
REMARK 921   NORMALIZED FREE ENERGY PREDICTED BY IDOCK:   -3.09 KCAL/MOL
REMARK 922        TOTAL FREE ENERGY PREDICTED BY IDOCK:   -3.53 KCAL/MOL
REMARK 923 INTER-LIGAND FREE ENERGY PREDICTED BY IDOCK:   -3.44 KCAL/MOL
REMARK 924 INTRA-LIGAND FREE ENERGY PREDICTED BY IDOCK:   -0.09 KCAL/MOL
REMARK 927      BINDING AFFINITY PREDICTED BY RF-SCORE:    0.00 PKD
ROOT
HETATM    1  C   UNL     1     -11.762  12.161  69.557  1.00  0.00    -0.336 C  
HETATM    2  O   UNL     1     -12.163  11.297  68.491  1.00  0.00    -0.588 OA 
ENDROOT
BRANCH   2   3
HETATM    3  C   UNL     1     -11.741  11.701  67.267  1.00  0.00    -0.175 C  
HETATM    4  O   UNL     1     -12.107  12.708  66.683  1.00  0.00    -0.519 OA 
BRANCH   3   5
HETATM    5  C   UNL     1     -10.765  10.733  66.695  1.00  0.00    -0.268 A  
HETATM    6  C   UNL     1     -10.102  11.089  65.511  1.00  0.00    -0.316 A  
HETATM    7  C   UNL     1      -9.198  10.208  64.912  1.00  0.00    -0.281 A  
HETATM    8  C   UNL     1      -8.959   8.972  65.503  1.00  0.00    -0.204 A  
HETATM    9  O   UNL     1      -8.102   8.071  64.943  1.00  0.00    -0.138 OA 
HETATM   10  C   UNL     1      -9.596   8.610  66.685  1.00  0.00    -0.285 A  
HETATM   11  C   UNL     1     -10.501   9.489  67.284  1.00  0.00    -0.328 A  
HETATM   12  H   UNL     1      -7.940   7.226  65.347  1.00  0.00     0.000 HD 
ENDBRANCH   3   5
ENDBRANCH   2   3
TORSDOF 2
ENDMDL
MODEL      103
REMARK 921   NORMALIZED FREE ENERGY PREDICTED BY IDOCK:   -3.05 KCAL/MOL
REMARK 922        TOTAL FREE ENERGY PREDICTED BY IDOCK:   -3.49 KCAL/MOL
REMARK 923 INTER-LIGAND FREE ENERGY PREDICTED BY IDOCK:   -3.37 KCAL/MOL
REMARK 924 INTRA-LIGAND FREE ENERGY PREDICTED BY IDOCK:   -0.11 KCAL/MOL
REMARK 927      BINDING AFFINITY PREDICTED BY RF-SCORE:    0.00 PKD
ROOT
HETATM    1  C   UNL     1      -9.183   8.328  72.362  1.00  0.00    -0.256 C  
HETATM    2  O   UNL     1     -10.171   9.192  71.795  1.00  0.00    -0.338 OA 
ENDROOT
BRANCH   2   3
HETATM    3  C   UNL     1     -11.266   8.543  71.326  1.00  0.00    -0.265 C  
HETATM    4  O   UNL     1     -12.309   8.373  71.936  1.00  0.00    -0.308 OA 
BRANCH   3   5
HETATM    5  C   UNL     1     -11.030   8.031  69.948  1.00  0.00    -0.172 A  
HETATM    6  C   UNL     1     -11.185   6.655  69.722  1.00  0.00    -0.413 A  
HETATM    7  C   UNL     1     -10.947   6.113  68.456  1.00  0.00    -0.404 A  
HETATM    8  C   UNL     1     -10.556   6.953  67.419  1.00  0.00    -0.303 A  
HETATM    9  O   UNL     1     -10.293   6.467  66.173  1.00  0.00    -0.425 OA 
HETATM   10  C   UNL     1     -10.414   8.321  67.622  1.00  0.00    -0.303 A  
HETATM   11  C   UNL     1     -10.650   8.865  68.887  1.00  0.00    -0.188 A  
HETATM   12  H   UNL     1     -10.025   7.041  65.464  1.00  0.00     0.000 HD 
ENDBRANCH   3   5
ENDBRANCH   2   3
TORSDOF 2
ENDMDL
MODEL      104
REMARK 921   NORMALIZED FREE ENERGY PREDICTED BY IDOCK:   -3.04 KCAL/MOL
REMARK 922        TOTAL FREE ENERGY PREDICTED BY IDOCK:   -3.47 KCAL/MOL
REMARK 923 INTER-LIGAND FREE ENERGY PREDICTED BY IDOCK:   -3.39 KCAL/MOL
REMARK 924 INTRA-LIGAND FREE ENERGY PREDICTED BY IDOCK:   -0.08 KCAL/MOL
REMARK 927      BINDING AFFINITY PREDICTED BY RF-SCORE:    0.00 PKD
ROOT
HETATM    1  C   UNL     1      -6.659  11.640  67.737  1.00  0.00    -0.071 C  
HETATM    2  O   UNL     1      -8.019  11.605  67.301  1.00  0.00    -0.141 OA 
ENDROOT
BRANCH   2   3
HETATM    3  C   UNL     1      -8.205  10.950  66.128  1.00  0.00    -0.168 C  
HETATM    4  O   UNL     1      -7.432  10.147  65.630  1.00  0.00    -0.130 OA 
BRANCH   3   5
HETATM    5  C   UNL     1      -9.490  11.351  65.493  1.00  0.00    -0.251 A  
HETATM    6  C   UNL     1      -9.648  11.110  64.119  1.00  0.00    -0.290 A  
HETATM    7  C   UNL     1     -10.820  11.493  63.463  1.00  0.00    -0.473 A  
HETATM    8  C   UNL     1     -11.833  12.116  64.184  1.00  0.00    -0.404 A  
HETATM    9  O   UNL     1     -12.985  12.526  63.583  1.00  0.00    -0.730 OA 
HETATM   10  C   UNL     1     -11.698  12.348  65.549  1.00  0.00    -0.459 A  
HETATM   11  C   UNL     1     -10.526  11.967  66.207  1.00  0.00    -0.274 A  
HETATM   12  H   UNL     1     -13.676  12.952  64.076  1.00  0.00     0.000 HD 
ENDBRANCH   3   5
ENDBRANCH   2   3
TORSDOF 2
ENDMDL
MODEL      105
REMARK 921   NORMALIZED FREE ENERGY PREDICTED BY IDOCK:   -3.03 KCAL/MOL
REMARK 922        TOTAL FREE ENERGY PREDICTED BY IDOCK:   -3.46 KCAL/MOL
REMARK 923 INTER-LIGAND FREE ENERGY PREDICTED BY IDOCK:   -3.40 KCAL/MOL
REMARK 924 INTRA-LIGAND FREE ENERGY PREDICTED BY IDOCK:   -0.06 KCAL/MOL
REMARK 927      BINDING AFFINITY PREDICTED BY RF-SCORE:    0.00 PKD
ROOT
HETATM    1  C   UNL     1      -6.570  19.693  67.805  1.00  0.00    -0.229 C  
HETATM    2  O   UNL     1      -7.967  19.486  67.582  1.00  0.00    -0.271 OA 
ENDROOT
BRANCH   2   3
HETATM    3  C   UNL     1      -8.254  18.341  66.914  1.00  0.00    -0.247 C  
HETATM    4  O   UNL     1      -8.018  18.125  65.736  1.00  0.00    -0.521 OA 
BRANCH   3   5
HETATM    5  C   UNL     1      -8.928  17.360  67.808  1.00  0.00    -0.236 A  
HETATM    6  C   UNL     1      -8.120  16.490  68.557  1.00  0.00    -0.218 A  
HETATM    7  C   UNL     1      -8.697  15.527  69.389  1.00  0.00    -0.258 A  
HETATM    8  C   UNL     1     -10.082  15.439  69.471  1.00  0.00    -0.276 A  
HETATM    9  O   UNL     1     -10.689  14.503  70.253  1.00  0.00    -0.467 OA 
HETATM   10  C   UNL     1     -10.897  16.304  68.748  1.00  0.00    -0.317 A  
HETATM   11  C   UNL     1     -10.322  17.266  67.914  1.00  0.00    -0.360 A  
HETATM   12  H   UNL     1     -11.636  14.443  70.309  1.00  0.00     0.000 HD 
ENDBRANCH   3   5
ENDBRANCH   2   3
TORSDOF 2
ENDMDL
MODEL      106
REMARK 921   NORMALIZED FREE ENERGY PREDICTED BY IDOCK:   -3.00 KCAL/MOL
REMARK 922        TOTAL FREE ENERGY PREDICTED BY IDOCK:   -3.43 KCAL/MOL
REMARK 923 INTER-LIGAND FREE ENERGY PREDICTED BY IDOCK:   -3.35 KCAL/MOL
REMARK 924 INTRA-LIGAND FREE ENERGY PREDICTED BY IDOCK:   -0.09 KCAL/MOL
REMARK 927      BINDING AFFINITY PREDICTED BY RF-SCORE:    0.00 PKD
ROOT
HETATM    1  C   UNL     1      -7.101  12.042  68.661  1.00  0.00    -0.103 C  
HETATM    2  O   UNL     1      -8.508  12.244  68.513  1.00  0.00    -0.152 OA 
ENDROOT
BRANCH   2   3
HETATM    3  C   UNL     1      -9.044  11.622  67.433  1.00  0.00    -0.169 C  
HETATM    4  O   UNL     1      -8.587  10.633  66.882  1.00  0.00    -0.125 OA 
BRANCH   3   5
HETATM    5  C   UNL     1     -10.277  12.318  66.976  1.00  0.00    -0.230 A  
HETATM    6  C   UNL     1     -10.852  11.908  65.763  1.00  0.00    -0.341 A  
HETATM    7  C   UNL     1     -11.993  12.546  65.269  1.00  0.00    -0.490 A  
HETATM    8  C   UNL     1     -12.557  13.591  65.992  1.00  0.00    -0.348 A  
HETATM    9  O   UNL     1     -13.657  14.256  65.539  1.00  0.00    -0.650 OA 
HETATM   10  C   UNL     1     -12.009  13.998  67.204  1.00  0.00    -0.465 A  
HETATM   11  C   UNL     1     -10.867  13.364  67.699  1.00  0.00    -0.273 A  
HETATM   12  H   UNL     1     -14.042  14.971  66.033  1.00  0.00     0.000 HD 
ENDBRANCH   3   5
ENDBRANCH   2   3
TORSDOF 2
ENDMDL
MODEL      107
REMARK 921   NORMALIZED FREE ENERGY PREDICTED BY IDOCK:   -3.00 KCAL/MOL
REMARK 922        TOTAL FREE ENERGY PREDICTED BY IDOCK:   -3.42 KCAL/MOL
REMARK 923 INTER-LIGAND FREE ENERGY PREDICTED BY IDOCK:   -3.35 KCAL/MOL
REMARK 924 INTRA-LIGAND FREE ENERGY PREDICTED BY IDOCK:   -0.07 KCAL/MOL
REMARK 927      BINDING AFFINITY PREDICTED BY RF-SCORE:    0.00 PKD
ROOT
HETATM    1  C   UNL     1     -10.929   6.774  69.500  1.00  0.00    -0.279 C  
HETATM    2  O   UNL     1     -10.528   7.974  68.835  1.00  0.00    -0.217 OA 
ENDROOT
BRANCH   2   3
HETATM    3  C   UNL     1     -10.741   7.958  67.496  1.00  0.00    -0.181 C  
HETATM    4  O   UNL     1     -11.048   6.979  66.835  1.00  0.00    -0.359 OA 
BRANCH   3   5
HETATM    5  C   UNL     1     -10.531   9.310  66.909  1.00  0.00    -0.284 A  
HETATM    6  C   UNL     1      -9.737   9.410  65.756  1.00  0.00    -0.354 A  
HETATM    7  C   UNL     1      -9.479  10.656  65.179  1.00  0.00    -0.276 A  
HETATM    8  C   UNL     1     -10.021  11.799  65.756  1.00  0.00    -0.238 A  
HETATM    9  O   UNL     1      -9.780  13.038  65.241  1.00  0.00    -0.482 OA 
HETATM   10  C   UNL     1     -10.824  11.716  66.889  1.00  0.00    -0.322 A  
HETATM   11  C   UNL     1     -11.081  10.471  67.469  1.00  0.00    -0.358 A  
HETATM   12  H   UNL     1     -10.150  13.819  65.636  1.00  0.00     0.000 HD 
ENDBRANCH   3   5
ENDBRANCH   2   3
TORSDOF 2
ENDMDL
MODEL      108
REMARK 921   NORMALIZED FREE ENERGY PREDICTED BY IDOCK:   -2.99 KCAL/MOL
REMARK 922        TOTAL FREE ENERGY PREDICTED BY IDOCK:   -3.42 KCAL/MOL
REMARK 923 INTER-LIGAND FREE ENERGY PREDICTED BY IDOCK:   -3.33 KCAL/MOL
REMARK 924 INTRA-LIGAND FREE ENERGY PREDICTED BY IDOCK:   -0.08 KCAL/MOL
REMARK 927      BINDING AFFINITY PREDICTED BY RF-SCORE:    0.00 PKD
ROOT
HETATM    1  C   UNL     1      -9.392  16.798  68.659  1.00  0.00    -0.252 C  
HETATM    2  O   UNL     1      -9.443  16.186  67.369  1.00  0.00    -0.224 OA 
ENDROOT
BRANCH   2   3
HETATM    3  C   UNL     1      -8.756  15.019  67.286  1.00  0.00    -0.203 C  
HETATM    4  O   UNL     1      -7.575  14.906  67.003  1.00  0.00    -0.166 OA 
BRANCH   3   5
HETATM    5  C   UNL     1      -9.644  13.859  67.570  1.00  0.00    -0.229 A  
HETATM    6  C   UNL     1     -10.973  13.922  67.122  1.00  0.00    -0.298 A  
HETATM    7  C   UNL     1     -11.861  12.876  67.387  1.00  0.00    -0.418 A  
HETATM    8  C   UNL     1     -11.415  11.768  68.099  1.00  0.00    -0.316 A  
HETATM    9  O   UNL     1     -12.250  10.733  68.399  1.00  0.00    -0.832 OA 
HETATM   10  C   UNL     1     -10.097  11.682  68.536  1.00  0.00    -0.210 A  
HETATM   11  C   UNL     1      -9.208  12.728  68.274  1.00  0.00    -0.186 A  
HETATM   12  H   UNL     1     -11.945   9.976  68.886  1.00  0.00     0.000 HD 
ENDBRANCH   3   5
ENDBRANCH   2   3
TORSDOF 2
ENDMDL
MODEL      109
REMARK 921   NORMALIZED FREE ENERGY PREDICTED BY IDOCK:   -2.96 KCAL/MOL
REMARK 922        TOTAL FREE ENERGY PREDICTED BY IDOCK:   -3.39 KCAL/MOL
REMARK 923 INTER-LIGAND FREE ENERGY PREDICTED BY IDOCK:   -3.29 KCAL/MOL
REMARK 924 INTRA-LIGAND FREE ENERGY PREDICTED BY IDOCK:   -0.09 KCAL/MOL
REMARK 927      BINDING AFFINITY PREDICTED BY RF-SCORE:    0.00 PKD
ROOT
HETATM    1  C   UNL     1      -7.741  16.070  69.167  1.00  0.00    -0.231 C  
HETATM    2  O   UNL     1      -8.988  16.402  68.552  1.00  0.00    -0.206 OA 
ENDROOT
BRANCH   2   3
HETATM    3  C   UNL     1     -10.006  15.571  68.888  1.00  0.00    -0.218 C  
HETATM    4  O   UNL     1     -10.398  15.348  70.022  1.00  0.00    -0.294 OA 
BRANCH   3   5
HETATM    5  C   UNL     1     -10.590  14.931  67.678  1.00  0.00    -0.264 A  
HETATM    6  C   UNL     1     -11.046  13.608  67.789  1.00  0.00    -0.293 A  
HETATM    7  C   UNL     1     -11.576  12.946  66.679  1.00  0.00    -0.428 A  
HETATM    8  C   UNL     1     -11.650  13.611  65.460  1.00  0.00    -0.324 A  
HETATM    9  O   UNL     1     -12.139  12.998  64.345  1.00  0.00    -0.371 OA 
HETATM   10  C   UNL     1     -11.217  14.927  65.337  1.00  0.00    -0.359 A  
HETATM   11  C   UNL     1     -10.685  15.591  66.445  1.00  0.00    -0.303 A  
HETATM   12  H   UNL     1     -12.189  13.453  63.512  1.00  0.00     0.000 HD 
ENDBRANCH   3   5
ENDBRANCH   2   3
TORSDOF 2
ENDMDL
MODEL      110
REMARK 921   NORMALIZED FREE ENERGY PREDICTED BY IDOCK:   -2.96 KCAL/MOL
REMARK 922        TOTAL FREE ENERGY PREDICTED BY IDOCK:   -3.38 KCAL/MOL
REMARK 923 INTER-LIGAND FREE ENERGY PREDICTED BY IDOCK:   -3.30 KCAL/MOL
REMARK 924 INTRA-LIGAND FREE ENERGY PREDICTED BY IDOCK:   -0.09 KCAL/MOL
REMARK 927      BINDING AFFINITY PREDICTED BY RF-SCORE:    0.00 PKD
ROOT
HETATM    1  C   UNL     1     -14.217   8.777  71.712  1.00  0.00    -0.365 C  
HETATM    2  O   UNL     1     -13.031   9.241  72.360  1.00  0.00    -0.403 OA 
ENDROOT
BRANCH   2   3
HETATM    3  C   UNL     1     -11.933   9.247  71.562  1.00  0.00    -0.368 C  
HETATM    4  O   UNL     1     -11.850   9.783  70.469  1.00  0.00    -0.266 OA 
BRANCH   3   5
HETATM    5  C   UNL     1     -10.818   8.485  72.187  1.00  0.00    -0.427 A  
HETATM    6  C   UNL     1      -9.505   8.847  71.852  1.00  0.00    -0.301 A  
HETATM    7  C   UNL     1      -8.418   8.147  72.384  1.00  0.00    -0.238 A  
HETATM    8  C   UNL     1      -8.651   7.087  73.253  1.00  0.00    -0.125 A  
HETATM    9  O   UNL     1      -7.624   6.362  73.780  1.00  0.00    -0.089 OA 
HETATM   10  C   UNL     1      -9.945   6.725  73.608  1.00  0.00    -0.293 A  
HETATM   11  C   UNL     1     -11.033   7.422  73.076  1.00  0.00    -0.422 A  
HETATM   12  H   UNL     1      -7.782   5.637  74.373  1.00  0.00     0.000 HD 
ENDBRANCH   3   5
ENDBRANCH   2   3
TORSDOF 2
ENDMDL
MODEL      111
REMARK 921   NORMALIZED FREE ENERGY PREDICTED BY IDOCK:   -2.93 KCAL/MOL
REMARK 922        TOTAL FREE ENERGY PREDICTED BY IDOCK:   -3.35 KCAL/MOL
REMARK 923 INTER-LIGAND FREE ENERGY PREDICTED BY IDOCK:   -3.27 KCAL/MOL
REMARK 924 INTRA-LIGAND FREE ENERGY PREDICTED BY IDOCK:   -0.08 KCAL/MOL
REMARK 927      BINDING AFFINITY PREDICTED BY RF-SCORE:    0.00 PKD
ROOT
HETATM    1  C   UNL     1     -10.791  12.456  63.573  1.00  0.00    -0.438 C  
HETATM    2  O   UNL     1      -9.971  12.601  64.734  1.00  0.00    -0.233 OA 
ENDROOT
BRANCH   2   3
HETATM    3  C   UNL     1     -10.582  13.240  65.763  1.00  0.00    -0.284 C  
HETATM    4  O   UNL     1     -10.929  14.410  65.770  1.00  0.00    -0.300 OA 
BRANCH   3   5
HETATM    5  C   UNL     1     -10.767  12.324  66.922  1.00  0.00    -0.264 A  
HETATM    6  C   UNL     1     -11.391  12.834  68.071  1.00  0.00    -0.335 A  
HETATM    7  C   UNL     1     -11.564  12.030  69.200  1.00  0.00    -0.370 A  
HETATM    8  C   UNL     1     -11.113  10.714  69.175  1.00  0.00    -0.255 A  
HETATM    9  O   UNL     1     -11.241   9.899  70.259  1.00  0.00    -0.260 OA 
HETATM   10  C   UNL     1     -10.507  10.188  68.039  1.00  0.00    -0.249 A  
HETATM   11  C   UNL     1     -10.332  10.991  66.909  1.00  0.00    -0.279 A  
HETATM   12  H   UNL     1     -10.932   9.000  70.242  1.00  0.00     0.000 HD 
ENDBRANCH   3   5
ENDBRANCH   2   3
TORSDOF 2
ENDMDL
MODEL      112
REMARK 921   NORMALIZED FREE ENERGY PREDICTED BY IDOCK:   -2.92 KCAL/MOL
REMARK 922        TOTAL FREE ENERGY PREDICTED BY IDOCK:   -3.34 KCAL/MOL
REMARK 923 INTER-LIGAND FREE ENERGY PREDICTED BY IDOCK:   -3.22 KCAL/MOL
REMARK 924 INTRA-LIGAND FREE ENERGY PREDICTED BY IDOCK:   -0.11 KCAL/MOL
REMARK 927      BINDING AFFINITY PREDICTED BY RF-SCORE:    0.00 PKD
ROOT
HETATM    1  C   UNL     1     -12.309  15.657  63.876  1.00  0.00     0.411 C  
HETATM    2  O   UNL     1     -12.298  14.340  64.429  1.00  0.00    -0.570 OA 
ENDROOT
BRANCH   2   3
HETATM    3  C   UNL     1     -11.089  13.952  64.906  1.00  0.00    -0.369 C  
HETATM    4  O   UNL     1     -10.188  13.458  64.246  1.00  0.00    -0.387 OA 
BRANCH   3   5
HETATM    5  C   UNL     1     -10.995  14.188  66.372  1.00  0.00    -0.311 A  
HETATM    6  C   UNL     1      -9.773  14.647  66.888  1.00  0.00    -0.249 A  
HETATM    7  C   UNL     1      -9.617  14.857  68.260  1.00  0.00    -0.214 A  
HETATM    8  C   UNL     1     -10.686  14.609  69.113  1.00  0.00    -0.255 A  
HETATM    9  O   UNL     1     -10.574  14.780  70.461  1.00  0.00    -0.494 OA 
HETATM   10  C   UNL     1     -11.909  14.171  68.617  1.00  0.00    -0.383 A  
HETATM   11  C   UNL     1     -12.067  13.958  67.245  1.00  0.00    -0.403 A  
HETATM   12  H   UNL     1     -11.305  14.610  71.044  1.00  0.00     0.000 HD 
ENDBRANCH   3   5
ENDBRANCH   2   3
TORSDOF 2
ENDMDL
MODEL      113
REMARK 921   NORMALIZED FREE ENERGY PREDICTED BY IDOCK:   -2.92 KCAL/MOL
REMARK 922        TOTAL FREE ENERGY PREDICTED BY IDOCK:   -3.34 KCAL/MOL
REMARK 923 INTER-LIGAND FREE ENERGY PREDICTED BY IDOCK:   -3.25 KCAL/MOL
REMARK 924 INTRA-LIGAND FREE ENERGY PREDICTED BY IDOCK:   -0.09 KCAL/MOL
REMARK 927      BINDING AFFINITY PREDICTED BY RF-SCORE:    0.00 PKD
ROOT
HETATM    1  C   UNL     1     -12.504  13.107  65.328  1.00  0.00    -0.495 C  
HETATM    2  O   UNL     1     -12.280  13.283  66.729  1.00  0.00    -0.363 OA 
ENDROOT
BRANCH   2   3
HETATM    3  C   UNL     1     -11.519  12.311  67.291  1.00  0.00    -0.357 C  
HETATM    4  O   UNL     1     -11.921  11.223  67.672  1.00  0.00    -0.634 OA 
BRANCH   3   5
HETATM    5  C   UNL     1     -10.101  12.747  67.409  1.00  0.00    -0.219 A  
HETATM    6  C   UNL     1      -9.848  14.112  67.617  1.00  0.00    -0.229 A  
HETATM    7  C   UNL     1      -8.536  14.585  67.704  1.00  0.00    -0.184 A  
HETATM    8  C   UNL     1      -7.480  13.688  67.586  1.00  0.00    -0.183 A  
HETATM    9  O   UNL     1      -6.184  14.105  67.644  1.00  0.00    -0.245 OA 
HETATM   10  C   UNL     1      -7.714  12.330  67.397  1.00  0.00    -0.165 A  
HETATM   11  C   UNL     1      -9.025  11.856  67.307  1.00  0.00    -0.176 A  
HETATM   12  H   UNL     1      -5.462  13.493  67.562  1.00  0.00     0.000 HD 
ENDBRANCH   3   5
ENDBRANCH   2   3
TORSDOF 2
ENDMDL
MODEL      114
REMARK 921   NORMALIZED FREE ENERGY PREDICTED BY IDOCK:   -2.92 KCAL/MOL
REMARK 922        TOTAL FREE ENERGY PREDICTED BY IDOCK:   -3.33 KCAL/MOL
REMARK 923 INTER-LIGAND FREE ENERGY PREDICTED BY IDOCK:   -3.27 KCAL/MOL
REMARK 924 INTRA-LIGAND FREE ENERGY PREDICTED BY IDOCK:   -0.06 KCAL/MOL
REMARK 927      BINDING AFFINITY PREDICTED BY RF-SCORE:    0.00 PKD
ROOT
HETATM    1  C   UNL     1     -10.302  11.195  64.339  1.00  0.00    -0.344 C  
HETATM    2  O   UNL     1     -11.209  11.661  65.341  1.00  0.00    -0.279 OA 
ENDROOT
BRANCH   2   3
HETATM    3  C   UNL     1     -10.619  12.385  66.325  1.00  0.00    -0.249 C  
HETATM    4  O   UNL     1     -10.048  13.453  66.178  1.00  0.00    -0.289 OA 
BRANCH   3   5
HETATM    5  C   UNL     1     -10.737  11.692  67.637  1.00  0.00    -0.249 A  
HETATM    6  C   UNL     1      -9.834  10.655  67.916  1.00  0.00    -0.181 A  
HETATM    7  C   UNL     1      -9.916   9.948  69.119  1.00  0.00    -0.205 A  
HETATM    8  C   UNL     1     -10.902  10.285  70.041  1.00  0.00    -0.307 A  
HETATM    9  O   UNL     1     -11.034   9.611  71.218  1.00  0.00    -0.349 OA 
HETATM   10  C   UNL     1     -11.793  11.322  69.786  1.00  0.00    -0.437 A  
HETATM   11  C   UNL     1     -11.714  12.028  68.584  1.00  0.00    -0.380 A  
HETATM   12  H   UNL     1     -11.707   9.841  71.847  1.00  0.00     0.000 HD 
ENDBRANCH   3   5
ENDBRANCH   2   3
TORSDOF 2
ENDMDL
MODEL      115
REMARK 921   NORMALIZED FREE ENERGY PREDICTED BY IDOCK:   -2.91 KCAL/MOL
REMARK 922        TOTAL FREE ENERGY PREDICTED BY IDOCK:   -3.33 KCAL/MOL
REMARK 923 INTER-LIGAND FREE ENERGY PREDICTED BY IDOCK:   -3.29 KCAL/MOL
REMARK 924 INTRA-LIGAND FREE ENERGY PREDICTED BY IDOCK:   -0.04 KCAL/MOL
REMARK 927      BINDING AFFINITY PREDICTED BY RF-SCORE:    0.00 PKD
ROOT
HETATM    1  C   UNL     1      -8.952   9.858  69.679  1.00  0.00    -0.216 C  
HETATM    2  O   UNL     1     -10.330   9.890  69.302  1.00  0.00    -0.193 OA 
ENDROOT
BRANCH   2   3
HETATM    3  C   UNL     1     -11.189   9.880  70.353  1.00  0.00    -0.313 C  
HETATM    4  O   UNL     1     -11.868  10.823  70.726  1.00  0.00    -0.326 OA 
BRANCH   3   5
HETATM    5  C   UNL     1     -11.189   8.553  71.027  1.00  0.00    -0.312 A  
HETATM    6  C   UNL     1     -10.961   8.518  72.411  1.00  0.00    -0.390 A  
HETATM    7  C   UNL     1     -10.919   7.299  73.092  1.00  0.00    -0.384 A  
HETATM    8  C   UNL     1     -11.108   6.117  72.385  1.00  0.00    -0.275 A  
HETATM    9  O   UNL     1     -11.055   4.903  73.003  1.00  0.00    -0.262 OA 
HETATM   10  C   UNL     1     -11.351   6.135  71.016  1.00  0.00    -0.348 A  
HETATM   11  C   UNL     1     -11.391   7.353  70.332  1.00  0.00    -0.273 A  
HETATM   12  H   UNL     1     -11.183   4.096  72.519  1.00  0.00     0.000 HD 
ENDBRANCH   3   5
ENDBRANCH   2   3
TORSDOF 2
ENDMDL
MODEL      116
REMARK 921   NORMALIZED FREE ENERGY PREDICTED BY IDOCK:   -2.91 KCAL/MOL
REMARK 922        TOTAL FREE ENERGY PREDICTED BY IDOCK:   -3.33 KCAL/MOL
REMARK 923 INTER-LIGAND FREE ENERGY PREDICTED BY IDOCK:   -3.23 KCAL/MOL
REMARK 924 INTRA-LIGAND FREE ENERGY PREDICTED BY IDOCK:   -0.10 KCAL/MOL
REMARK 927      BINDING AFFINITY PREDICTED BY RF-SCORE:    0.00 PKD
ROOT
HETATM    1  C   UNL     1     -14.322   8.886  72.534  1.00  0.00    -0.224 C  
HETATM    2  O   UNL     1     -12.938   9.243  72.519  1.00  0.00    -0.393 OA 
ENDROOT
BRANCH   2   3
HETATM    3  C   UNL     1     -12.510   9.740  71.332  1.00  0.00    -0.387 C  
HETATM    4  O   UNL     1     -13.208  10.297  70.500  1.00  0.00    -0.299 OA 
BRANCH   3   5
HETATM    5  C   UNL     1     -11.053   9.501  71.150  1.00  0.00    -0.450 A  
HETATM    6  C   UNL     1     -10.364   8.829  72.172  1.00  0.00    -0.378 A  
HETATM    7  C   UNL     1      -8.988   8.604  72.070  1.00  0.00    -0.286 A  
HETATM    8  C   UNL     1      -8.306   9.052  70.944  1.00  0.00    -0.197 A  
HETATM    9  O   UNL     1      -6.962   8.873  70.811  1.00  0.00    -0.057 OA 
HETATM   10  C   UNL     1      -8.977   9.704  69.915  1.00  0.00    -0.243 A  
HETATM   11  C   UNL     1     -10.352   9.932  70.015  1.00  0.00    -0.320 A  
HETATM   12  H   UNL     1      -6.495   9.179  70.042  1.00  0.00     0.000 HD 
ENDBRANCH   3   5
ENDBRANCH   2   3
TORSDOF 2
ENDMDL
MODEL      117
REMARK 921   NORMALIZED FREE ENERGY PREDICTED BY IDOCK:   -2.90 KCAL/MOL
REMARK 922        TOTAL FREE ENERGY PREDICTED BY IDOCK:   -3.32 KCAL/MOL
REMARK 923 INTER-LIGAND FREE ENERGY PREDICTED BY IDOCK:   -3.23 KCAL/MOL
REMARK 924 INTRA-LIGAND FREE ENERGY PREDICTED BY IDOCK:   -0.09 KCAL/MOL
REMARK 927      BINDING AFFINITY PREDICTED BY RF-SCORE:    0.00 PKD
ROOT
HETATM    1  C   UNL     1      -9.285   7.347  66.253  1.00  0.00    -0.135 C  
HETATM    2  O   UNL     1     -10.360   8.190  66.675  1.00  0.00    -0.304 OA 
ENDROOT
BRANCH   2   3
HETATM    3  C   UNL     1      -9.981   9.183  67.518  1.00  0.00    -0.205 C  
HETATM    4  O   UNL     1      -9.346   9.038  68.550  1.00  0.00    -0.139 OA 
BRANCH   3   5
HETATM    5  C   UNL     1     -10.462  10.505  67.031  1.00  0.00    -0.304 A  
HETATM    6  C   UNL     1     -11.202  11.303  67.917  1.00  0.00    -0.353 A  
HETATM    7  C   UNL     1     -11.705  12.539  67.505  1.00  0.00    -0.439 A  
HETATM    8  C   UNL     1     -11.463  12.975  66.207  1.00  0.00    -0.337 A  
HETATM    9  O   UNL     1     -11.952  14.165  65.755  1.00  0.00    -0.370 OA 
HETATM   10  C   UNL     1     -10.718  12.204  65.322  1.00  0.00    -0.328 A  
HETATM   11  C   UNL     1     -10.215  10.966  65.731  1.00  0.00    -0.318 A  
HETATM   12  H   UNL     1     -11.787  14.462  64.867  1.00  0.00     0.000 HD 
ENDBRANCH   3   5
ENDBRANCH   2   3
TORSDOF 2
ENDMDL
MODEL      118
REMARK 921   NORMALIZED FREE ENERGY PREDICTED BY IDOCK:   -2.87 KCAL/MOL
REMARK 922        TOTAL FREE ENERGY PREDICTED BY IDOCK:   -3.28 KCAL/MOL
REMARK 923 INTER-LIGAND FREE ENERGY PREDICTED BY IDOCK:   -3.22 KCAL/MOL
REMARK 924 INTRA-LIGAND FREE ENERGY PREDICTED BY IDOCK:   -0.06 KCAL/MOL
REMARK 927      BINDING AFFINITY PREDICTED BY RF-SCORE:    0.00 PKD
ROOT
HETATM    1  C   UNL     1      -7.844  10.911  67.123  1.00  0.00    -0.127 C  
HETATM    2  O   UNL     1      -8.700  11.761  67.889  1.00  0.00    -0.150 OA 
ENDROOT
BRANCH   2   3
HETATM    3  C   UNL     1      -9.920  11.962  67.331  1.00  0.00    -0.190 C  
HETATM    4  O   UNL     1     -10.331  11.437  66.309  1.00  0.00    -0.228 OA 
BRANCH   3   5
HETATM    5  C   UNL     1     -10.713  12.939  68.125  1.00  0.00    -0.258 A  
HETATM    6  C   UNL     1     -11.340  12.483  69.295  1.00  0.00    -0.307 A  
HETATM    7  C   UNL     1     -12.123  13.348  70.064  1.00  0.00    -0.404 A  
HETATM    8  C   UNL     1     -12.274  14.670  69.660  1.00  0.00    -0.283 A  
HETATM    9  O   UNL     1     -13.045  15.544  70.366  1.00  0.00    -0.662 OA 
HETATM   10  C   UNL     1     -11.647  15.143  68.513  1.00  0.00    -0.354 A  
HETATM   11  C   UNL     1     -10.865  14.279  67.741  1.00  0.00    -0.259 A  
HETATM   12  H   UNL     1     -13.149  16.447  70.090  1.00  0.00     0.000 HD 
ENDBRANCH   3   5
ENDBRANCH   2   3
TORSDOF 2
ENDMDL
MODEL      119
REMARK 921   NORMALIZED FREE ENERGY PREDICTED BY IDOCK:   -2.86 KCAL/MOL
REMARK 922        TOTAL FREE ENERGY PREDICTED BY IDOCK:   -3.27 KCAL/MOL
REMARK 923 INTER-LIGAND FREE ENERGY PREDICTED BY IDOCK:   -3.18 KCAL/MOL
REMARK 924 INTRA-LIGAND FREE ENERGY PREDICTED BY IDOCK:   -0.09 KCAL/MOL
REMARK 927      BINDING AFFINITY PREDICTED BY RF-SCORE:    0.00 PKD
ROOT
HETATM    1  C   UNL     1     -10.574  11.322  68.932  1.00  0.00    -0.207 C  
HETATM    2  O   UNL     1     -11.168  10.313  69.751  1.00  0.00    -0.248 OA 
ENDROOT
BRANCH   2   3
HETATM    3  C   UNL     1     -10.869   9.046  69.368  1.00  0.00    -0.138 C  
HETATM    4  O   UNL     1     -10.632   8.685  68.226  1.00  0.00    -0.202 OA 
BRANCH   3   5
HETATM    5  C   UNL     1     -10.884   8.120  70.533  1.00  0.00    -0.247 A  
HETATM    6  C   UNL     1     -11.064   6.751  70.283  1.00  0.00    -0.360 A  
HETATM    7  C   UNL     1     -11.118   5.839  71.340  1.00  0.00    -0.273 A  
HETATM    8  C   UNL     1     -10.988   6.300  72.646  1.00  0.00    -0.252 A  
HETATM    9  O   UNL     1     -11.055   5.451  73.709  1.00  0.00    -0.416 OA 
HETATM   10  C   UNL     1     -10.792   7.652  72.909  1.00  0.00    -0.446 A  
HETATM   11  C   UNL     1     -10.740   8.566  71.854  1.00  0.00    -0.394 A  
HETATM   12  H   UNL     1     -10.967   5.766  74.601  1.00  0.00     0.000 HD 
ENDBRANCH   3   5
ENDBRANCH   2   3
TORSDOF 2
ENDMDL
MODEL      120
REMARK 921   NORMALIZED FREE ENERGY PREDICTED BY IDOCK:   -2.84 KCAL/MOL
REMARK 922        TOTAL FREE ENERGY PREDICTED BY IDOCK:   -3.25 KCAL/MOL
REMARK 923 INTER-LIGAND FREE ENERGY PREDICTED BY IDOCK:   -3.13 KCAL/MOL
REMARK 924 INTRA-LIGAND FREE ENERGY PREDICTED BY IDOCK:   -0.12 KCAL/MOL
REMARK 927      BINDING AFFINITY PREDICTED BY RF-SCORE:    0.00 PKD
ROOT
HETATM    1  C   UNL     1     -11.276  16.096  68.106  1.00  0.00    -0.311 C  
HETATM    2  O   UNL     1     -12.242  15.063  67.902  1.00  0.00    -0.112 OA 
ENDROOT
BRANCH   2   3
HETATM    3  C   UNL     1     -11.912  13.878  68.476  1.00  0.00    -0.359 C  
HETATM    4  O   UNL     1     -12.106  13.573  69.641  1.00  0.00    -0.316 OA 
BRANCH   3   5
HETATM    5  C   UNL     1     -11.250  12.978  67.493  1.00  0.00    -0.320 A  
HETATM    6  C   UNL     1     -11.908  12.733  66.278  1.00  0.00    -0.485 A  
HETATM    7  C   UNL     1     -11.349  11.872  65.330  1.00  0.00    -0.334 A  
HETATM    8  C   UNL     1     -10.130  11.260  65.601  1.00  0.00    -0.247 A  
HETATM    9  O   UNL     1      -9.556  10.397  64.716  1.00  0.00    -0.241 OA 
HETATM   10  C   UNL     1      -9.456  11.506  66.793  1.00  0.00    -0.202 A  
HETATM   11  C   UNL     1     -10.015  12.365  67.743  1.00  0.00    -0.205 A  
HETATM   12  H   UNL     1      -8.723   9.979  64.901  1.00  0.00     0.000 HD 
ENDBRANCH   3   5
ENDBRANCH   2   3
TORSDOF 2
ENDMDL
MODEL      121
REMARK 921   NORMALIZED FREE ENERGY PREDICTED BY IDOCK:   -2.83 KCAL/MOL
REMARK 922        TOTAL FREE ENERGY PREDICTED BY IDOCK:   -3.23 KCAL/MOL
REMARK 923 INTER-LIGAND FREE ENERGY PREDICTED BY IDOCK:   -3.15 KCAL/MOL
REMARK 924 INTRA-LIGAND FREE ENERGY PREDICTED BY IDOCK:   -0.08 KCAL/MOL
REMARK 927      BINDING AFFINITY PREDICTED BY RF-SCORE:    0.00 PKD
ROOT
HETATM    1  C   UNL     1      -9.402   7.402  66.489  1.00  0.00    -0.173 C  
HETATM    2  O   UNL     1     -10.176   8.432  67.107  1.00  0.00    -0.235 OA 
ENDROOT
BRANCH   2   3
HETATM    3  C   UNL     1      -9.580   8.996  68.188  1.00  0.00    -0.148 C  
HETATM    4  O   UNL     1      -8.473   9.508  68.204  1.00  0.00    -0.118 OA 
BRANCH   3   5
HETATM    5  C   UNL     1     -10.454   8.895  69.389  1.00  0.00    -0.228 A  
HETATM    6  C   UNL     1     -10.828  10.084  70.032  1.00  0.00    -0.352 A  
HETATM    7  C   UNL     1     -11.621  10.050  71.182  1.00  0.00    -0.460 A  
HETATM    8  C   UNL     1     -12.040   8.822  71.683  1.00  0.00    -0.337 A  
HETATM    9  O   UNL     1     -12.797   8.738  72.813  1.00  0.00    -0.552 OA 
HETATM   10  C   UNL     1     -11.692   7.635  71.049  1.00  0.00    -0.306 A  
HETATM   11  C   UNL     1     -10.897   7.667  69.900  1.00  0.00    -0.241 A  
HETATM   12  H   UNL     1     -13.083   7.899  73.157  1.00  0.00     0.000 HD 
ENDBRANCH   3   5
ENDBRANCH   2   3
TORSDOF 2
ENDMDL
MODEL      122
REMARK 921   NORMALIZED FREE ENERGY PREDICTED BY IDOCK:   -2.80 KCAL/MOL
REMARK 922        TOTAL FREE ENERGY PREDICTED BY IDOCK:   -3.20 KCAL/MOL
REMARK 923 INTER-LIGAND FREE ENERGY PREDICTED BY IDOCK:   -3.10 KCAL/MOL
REMARK 924 INTRA-LIGAND FREE ENERGY PREDICTED BY IDOCK:   -0.10 KCAL/MOL
REMARK 927      BINDING AFFINITY PREDICTED BY RF-SCORE:    0.00 PKD
ROOT
HETATM    1  C   UNL     1      -9.979  11.084  63.086  1.00  0.00    -0.340 C  
HETATM    2  O   UNL     1     -10.230  12.411  63.554  1.00  0.00    -0.414 OA 
ENDROOT
BRANCH   2   3
HETATM    3  C   UNL     1     -11.102  12.473  64.591  1.00  0.00    -0.306 C  
HETATM    4  O   UNL     1     -12.283  12.769  64.512  1.00  0.00    -0.387 OA 
BRANCH   3   5
HETATM    5  C   UNL     1     -10.424  12.146  65.876  1.00  0.00    -0.288 A  
HETATM    6  C   UNL     1      -9.278  12.879  66.219  1.00  0.00    -0.087 A  
HETATM    7  C   UNL     1      -8.582  12.596  67.397  1.00  0.00    -0.189 A  
HETATM    8  C   UNL     1      -9.039  11.580  68.231  1.00  0.00    -0.185 A  
HETATM    9  O   UNL     1      -8.381  11.255  69.379  1.00  0.00    -0.376 OA 
HETATM   10  C   UNL     1     -10.183  10.856  67.913  1.00  0.00    -0.205 A  
HETATM   11  C   UNL     1     -10.879  11.136  66.735  1.00  0.00    -0.322 A  
HETATM   12  H   UNL     1      -8.693  10.561  69.948  1.00  0.00     0.000 HD 
ENDBRANCH   3   5
ENDBRANCH   2   3
TORSDOF 2
ENDMDL
MODEL      123
REMARK 921   NORMALIZED FREE ENERGY PREDICTED BY IDOCK:   -2.79 KCAL/MOL
REMARK 922        TOTAL FREE ENERGY PREDICTED BY IDOCK:   -3.20 KCAL/MOL
REMARK 923 INTER-LIGAND FREE ENERGY PREDICTED BY IDOCK:   -3.12 KCAL/MOL
REMARK 924 INTRA-LIGAND FREE ENERGY PREDICTED BY IDOCK:   -0.07 KCAL/MOL
REMARK 927      BINDING AFFINITY PREDICTED BY RF-SCORE:    0.00 PKD
ROOT
HETATM    1  C   UNL     1     -14.402   8.234  71.819  1.00  0.00    -0.483 C  
HETATM    2  O   UNL     1     -13.425   7.372  71.232  1.00  0.00    -0.353 OA 
ENDROOT
BRANCH   2   3
HETATM    3  C   UNL     1     -12.168   7.563  71.705  1.00  0.00    -0.322 C  
HETATM    4  O   UNL     1     -11.879   7.939  72.829  1.00  0.00    -0.340 OA 
BRANCH   3   5
HETATM    5  C   UNL     1     -11.155   7.269  70.654  1.00  0.00    -0.287 A  
HETATM    6  C   UNL     1     -10.074   8.154  70.517  1.00  0.00    -0.201 A  
HETATM    7  C   UNL     1      -9.109   7.946  69.528  1.00  0.00    -0.149 A  
HETATM    8  C   UNL     1      -9.229   6.851  68.679  1.00  0.00    -0.130 A  
HETATM    9  O   UNL     1      -8.324   6.620  67.687  1.00  0.00    -0.121 OA 
HETATM   10  C   UNL     1     -10.285   5.956  68.812  1.00  0.00    -0.243 A  
HETATM   11  C   UNL     1     -11.252   6.163  69.799  1.00  0.00    -0.494 A  
HETATM   12  H   UNL     1      -8.405   5.872  67.107  1.00  0.00     0.000 HD 
ENDBRANCH   3   5
ENDBRANCH   2   3
TORSDOF 2
ENDMDL
MODEL      124
REMARK 921   NORMALIZED FREE ENERGY PREDICTED BY IDOCK:   -2.79 KCAL/MOL
REMARK 922        TOTAL FREE ENERGY PREDICTED BY IDOCK:   -3.19 KCAL/MOL
REMARK 923 INTER-LIGAND FREE ENERGY PREDICTED BY IDOCK:   -3.11 KCAL/MOL
REMARK 924 INTRA-LIGAND FREE ENERGY PREDICTED BY IDOCK:   -0.08 KCAL/MOL
REMARK 927      BINDING AFFINITY PREDICTED BY RF-SCORE:    0.00 PKD
ROOT
HETATM    1  C   UNL     1     -10.333  20.026  66.424  1.00  0.00    -0.455 C  
HETATM    2  O   UNL     1      -9.881  19.049  67.364  1.00  0.00    -0.306 OA 
ENDROOT
BRANCH   2   3
HETATM    3  C   UNL     1      -8.828  18.313  66.929  1.00  0.00    -0.275 C  
HETATM    4  O   UNL     1      -7.931  18.712  66.205  1.00  0.00    -0.272 OA 
BRANCH   3   5
HETATM    5  C   UNL     1      -8.910  16.917  67.439  1.00  0.00    -0.212 A  
HETATM    6  C   UNL     1      -8.352  15.896  66.654  1.00  0.00    -0.328 A  
HETATM    7  C   UNL     1      -8.426  14.563  67.066  1.00  0.00    -0.222 A  
HETATM    8  C   UNL     1      -9.058  14.256  68.267  1.00  0.00    -0.188 A  
HETATM    9  O   UNL     1      -9.173  12.969  68.699  1.00  0.00    -0.375 OA 
HETATM   10  C   UNL     1      -9.602  15.257  69.064  1.00  0.00    -0.237 A  
HETATM   11  C   UNL     1      -9.530  16.590  68.653  1.00  0.00    -0.243 A  
HETATM   12  H   UNL     1      -9.605  12.759  69.519  1.00  0.00     0.000 HD 
ENDBRANCH   3   5
ENDBRANCH   2   3
TORSDOF 2
ENDMDL
MODEL      125
REMARK 921   NORMALIZED FREE ENERGY PREDICTED BY IDOCK:   -2.78 KCAL/MOL
REMARK 922        TOTAL FREE ENERGY PREDICTED BY IDOCK:   -3.18 KCAL/MOL
REMARK 923 INTER-LIGAND FREE ENERGY PREDICTED BY IDOCK:   -3.06 KCAL/MOL
REMARK 924 INTRA-LIGAND FREE ENERGY PREDICTED BY IDOCK:   -0.12 KCAL/MOL
REMARK 927      BINDING AFFINITY PREDICTED BY RF-SCORE:    0.00 PKD
ROOT
HETATM    1  C   UNL     1     -10.228  13.302  66.443  1.00  0.00    -0.292 C  
HETATM    2  O   UNL     1      -9.917  13.483  67.826  1.00  0.00    -0.222 OA 
ENDROOT
BRANCH   2   3
HETATM    3  C   UNL     1     -10.712  14.384  68.456  1.00  0.00    -0.253 C  
HETATM    4  O   UNL     1     -11.776  14.137  69.001  1.00  0.00    -0.281 OA 
BRANCH   3   5
HETATM    5  C   UNL     1     -10.126  15.750  68.386  1.00  0.00    -0.222 A  
HETATM    6  C   UNL     1     -10.953  16.799  67.958  1.00  0.00    -0.296 A  
HETATM    7  C   UNL     1     -10.450  18.098  67.843  1.00  0.00    -0.408 A  
HETATM    8  C   UNL     1      -9.118  18.342  68.158  1.00  0.00    -0.298 A  
HETATM    9  O   UNL     1      -8.577  19.587  68.041  1.00  0.00    -0.310 OA 
HETATM   10  C   UNL     1      -8.289  17.316  68.600  1.00  0.00    -0.255 A  
HETATM   11  C   UNL     1      -8.790  16.017  68.714  1.00  0.00    -0.227 A  
HETATM   12  H   UNL     1      -7.666  19.754  68.256  1.00  0.00     0.000 HD 
ENDBRANCH   3   5
ENDBRANCH   2   3
TORSDOF 2
ENDMDL
MODEL      126
REMARK 921   NORMALIZED FREE ENERGY PREDICTED BY IDOCK:   -2.78 KCAL/MOL
REMARK 922        TOTAL FREE ENERGY PREDICTED BY IDOCK:   -3.18 KCAL/MOL
REMARK 923 INTER-LIGAND FREE ENERGY PREDICTED BY IDOCK:   -3.12 KCAL/MOL
REMARK 924 INTRA-LIGAND FREE ENERGY PREDICTED BY IDOCK:   -0.06 KCAL/MOL
REMARK 927      BINDING AFFINITY PREDICTED BY RF-SCORE:    0.00 PKD
ROOT
HETATM    1  C   UNL     1      -6.541  16.131  69.464  1.00  0.00    -0.200 C  
HETATM    2  O   UNL     1      -7.534  15.909  68.460  1.00  0.00    -0.129 OA 
ENDROOT
BRANCH   2   3
HETATM    3  C   UNL     1      -8.457  16.900  68.371  1.00  0.00    -0.239 C  
HETATM    4  O   UNL     1      -9.524  16.934  68.963  1.00  0.00    -0.256 OA 
BRANCH   3   5
HETATM    5  C   UNL     1      -8.011  17.959  67.425  1.00  0.00    -0.221 A  
HETATM    6  C   UNL     1      -8.458  19.270  67.648  1.00  0.00    -0.327 A  
HETATM    7  C   UNL     1      -8.097  20.300  66.775  1.00  0.00    -0.321 A  
HETATM    8  C   UNL     1      -7.286  20.013  65.682  1.00  0.00    -0.308 A  
HETATM    9  O   UNL     1      -6.925  20.981  64.793  1.00  0.00    -0.529 OA 
HETATM   10  C   UNL     1      -6.821  18.723  65.457  1.00  0.00    -0.251 A  
HETATM   11  C   UNL     1      -7.182  17.691  66.327  1.00  0.00    -0.342 A  
HETATM   12  H   UNL     1      -6.371  20.785  64.046  1.00  0.00     0.000 HD 
ENDBRANCH   3   5
ENDBRANCH   2   3
TORSDOF 2
ENDMDL
MODEL      127
REMARK 921   NORMALIZED FREE ENERGY PREDICTED BY IDOCK:   -2.77 KCAL/MOL
REMARK 922        TOTAL FREE ENERGY PREDICTED BY IDOCK:   -3.17 KCAL/MOL
REMARK 923 INTER-LIGAND FREE ENERGY PREDICTED BY IDOCK:   -3.09 KCAL/MOL
REMARK 924 INTRA-LIGAND FREE ENERGY PREDICTED BY IDOCK:   -0.08 KCAL/MOL
REMARK 927      BINDING AFFINITY PREDICTED BY RF-SCORE:    0.00 PKD
ROOT
HETATM    1  C   UNL     1     -13.936   9.045  72.226  1.00  0.00    -0.455 C  
HETATM    2  O   UNL     1     -12.622   8.593  72.559  1.00  0.00    -0.392 OA 
ENDROOT
BRANCH   2   3
HETATM    3  C   UNL     1     -12.224   7.499  71.862  1.00  0.00    -0.306 C  
HETATM    4  O   UNL     1     -12.730   7.088  70.830  1.00  0.00    -0.334 OA 
BRANCH   3   5
HETATM    5  C   UNL     1     -11.077   6.829  72.535  1.00  0.00    -0.299 A  
HETATM    6  C   UNL     1     -10.170   7.632  73.243  1.00  0.00    -0.398 A  
HETATM    7  C   UNL     1      -9.057   7.062  73.868  1.00  0.00    -0.229 A  
HETATM    8  C   UNL     1      -8.858   5.689  73.784  1.00  0.00    -0.124 A  
HETATM    9  O   UNL     1      -7.777   5.092  74.360  1.00  0.00    -0.089 OA 
HETATM   10  C   UNL     1      -9.757   4.877  73.101  1.00  0.00    -0.161 A  
HETATM   11  C   UNL     1     -10.868   5.444  72.473  1.00  0.00    -0.304 A  
HETATM   12  H   UNL     1      -7.640   4.153  74.303  1.00  0.00     0.000 HD 
ENDBRANCH   3   5
ENDBRANCH   2   3
TORSDOF 2
ENDMDL
MODEL      128
REMARK 921   NORMALIZED FREE ENERGY PREDICTED BY IDOCK:   -2.77 KCAL/MOL
REMARK 922        TOTAL FREE ENERGY PREDICTED BY IDOCK:   -3.17 KCAL/MOL
REMARK 923 INTER-LIGAND FREE ENERGY PREDICTED BY IDOCK:   -3.07 KCAL/MOL
REMARK 924 INTRA-LIGAND FREE ENERGY PREDICTED BY IDOCK:   -0.11 KCAL/MOL
REMARK 927      BINDING AFFINITY PREDICTED BY RF-SCORE:    0.00 PKD
ROOT
HETATM    1  C   UNL     1     -14.279   8.237  72.096  1.00  0.00    -0.374 C  
HETATM    2  O   UNL     1     -13.551   7.487  71.122  1.00  0.00    -0.277 OA 
ENDROOT
BRANCH   2   3
HETATM    3  C   UNL     1     -12.412   6.925  71.599  1.00  0.00    -0.375 C  
HETATM    4  O   UNL     1     -12.344   5.892  72.245  1.00  0.00    -0.206 OA 
BRANCH   3   5
HETATM    5  C   UNL     1     -11.224   7.750  71.246  1.00  0.00    -0.280 A  
HETATM    6  C   UNL     1     -10.155   7.785  72.154  1.00  0.00    -0.265 A  
HETATM    7  C   UNL     1      -9.027   8.567  71.891  1.00  0.00    -0.301 A  
HETATM    8  C   UNL     1      -8.972   9.311  70.717  1.00  0.00    -0.232 A  
HETATM    9  O   UNL     1      -7.902  10.103  70.428  1.00  0.00    -0.390 OA 
HETATM   10  C   UNL     1     -10.016   9.274  69.799  1.00  0.00    -0.213 A  
HETATM   11  C   UNL     1     -11.146   8.494  70.061  1.00  0.00    -0.152 A  
HETATM   12  H   UNL     1      -7.865  10.612  69.626  1.00  0.00     0.000 HD 
ENDBRANCH   3   5
ENDBRANCH   2   3
TORSDOF 2
ENDMDL
MODEL      129
REMARK 921   NORMALIZED FREE ENERGY PREDICTED BY IDOCK:   -2.77 KCAL/MOL
REMARK 922        TOTAL FREE ENERGY PREDICTED BY IDOCK:   -3.17 KCAL/MOL
REMARK 923 INTER-LIGAND FREE ENERGY PREDICTED BY IDOCK:   -3.08 KCAL/MOL
REMARK 924 INTRA-LIGAND FREE ENERGY PREDICTED BY IDOCK:   -0.09 KCAL/MOL
REMARK 927      BINDING AFFINITY PREDICTED BY RF-SCORE:    0.00 PKD
ROOT
HETATM    1  C   UNL     1     -13.466   8.417  71.725  1.00  0.00    -0.364 C  
HETATM    2  O   UNL     1     -12.609   7.446  71.119  1.00  0.00    -0.335 OA 
ENDROOT
BRANCH   2   3
HETATM    3  C   UNL     1     -11.967   6.648  72.008  1.00  0.00    -0.319 C  
HETATM    4  O   UNL     1     -12.394   5.598  72.461  1.00  0.00    -0.118 OA 
BRANCH   3   5
HETATM    5  C   UNL     1     -10.652   7.229  72.391  1.00  0.00    -0.273 A  
HETATM    6  C   UNL     1     -10.202   7.030  73.706  1.00  0.00    -0.401 A  
HETATM    7  C   UNL     1      -8.989   7.578  74.131  1.00  0.00    -0.267 A  
HETATM    8  C   UNL     1      -8.229   8.324  73.238  1.00  0.00    -0.173 A  
HETATM    9  O   UNL     1      -7.050   8.896  73.613  1.00  0.00    -0.360 OA 
HETATM   10  C   UNL     1      -8.652   8.518  71.927  1.00  0.00    -0.254 A  
HETATM   11  C   UNL     1      -9.865   7.972  71.500  1.00  0.00    -0.217 A  
HETATM   12  H   UNL     1      -6.530   9.406  73.003  1.00  0.00     0.000 HD 
ENDBRANCH   3   5
ENDBRANCH   2   3
TORSDOF 2
ENDMDL
MODEL      130
REMARK 921   NORMALIZED FREE ENERGY PREDICTED BY IDOCK:   -2.77 KCAL/MOL
REMARK 922        TOTAL FREE ENERGY PREDICTED BY IDOCK:   -3.17 KCAL/MOL
REMARK 923 INTER-LIGAND FREE ENERGY PREDICTED BY IDOCK:   -3.08 KCAL/MOL
REMARK 924 INTRA-LIGAND FREE ENERGY PREDICTED BY IDOCK:   -0.09 KCAL/MOL
REMARK 927      BINDING AFFINITY PREDICTED BY RF-SCORE:    0.00 PKD
ROOT
HETATM    1  C   UNL     1     -11.664  10.856  69.156  1.00  0.00    -0.326 C  
HETATM    2  O   UNL     1     -11.720  12.173  68.603  1.00  0.00    -0.294 OA 
ENDROOT
BRANCH   2   3
HETATM    3  C   UNL     1     -10.504  12.698  68.308  1.00  0.00    -0.239 C  
HETATM    4  O   UNL     1      -9.531  12.070  67.922  1.00  0.00    -0.183 OA 
BRANCH   3   5
HETATM    5  C   UNL     1     -10.492  14.169  68.536  1.00  0.00    -0.252 A  
HETATM    6  C   UNL     1      -9.250  14.823  68.544  1.00  0.00    -0.194 A  
HETATM    7  C   UNL     1      -9.174  16.198  68.783  1.00  0.00    -0.224 A  
HETATM    8  C   UNL     1     -10.343  16.915  69.013  1.00  0.00    -0.333 A  
HETATM    9  O   UNL     1     -10.317  18.252  69.271  1.00  0.00    -0.452 OA 
HETATM   10  C   UNL     1     -11.583  16.285  68.992  1.00  0.00    -0.231 A  
HETATM   11  C   UNL     1     -11.661  14.910  68.754  1.00  0.00    -0.353 A  
HETATM   12  H   UNL     1     -11.116  18.742  69.428  1.00  0.00     0.000 HD 
ENDBRANCH   3   5
ENDBRANCH   2   3
TORSDOF 2
ENDMDL
MODEL      131
REMARK 921   NORMALIZED FREE ENERGY PREDICTED BY IDOCK:   -2.76 KCAL/MOL
REMARK 922        TOTAL FREE ENERGY PREDICTED BY IDOCK:   -3.16 KCAL/MOL
REMARK 923 INTER-LIGAND FREE ENERGY PREDICTED BY IDOCK:   -3.08 KCAL/MOL
REMARK 924 INTRA-LIGAND FREE ENERGY PREDICTED BY IDOCK:   -0.08 KCAL/MOL
REMARK 927      BINDING AFFINITY PREDICTED BY RF-SCORE:    0.00 PKD
ROOT
HETATM    1  C   UNL     1     -14.402   8.126  71.915  1.00  0.00    -0.472 C  
HETATM    2  O   UNL     1     -13.425   7.476  71.099  1.00  0.00    -0.273 OA 
ENDROOT
BRANCH   2   3
HETATM    3  C   UNL     1     -12.149   7.859  71.358  1.00  0.00    -0.307 C  
HETATM    4  O   UNL     1     -11.759   9.011  71.460  1.00  0.00    -0.296 OA 
BRANCH   3   5
HETATM    5  C   UNL     1     -11.255   6.676  71.487  1.00  0.00    -0.313 A  
HETATM    6  C   UNL     1     -10.756   6.098  70.310  1.00  0.00    -0.355 A  
HETATM    7  C   UNL     1      -9.937   4.967  70.367  1.00  0.00    -0.316 A  
HETATM    8  C   UNL     1      -9.618   4.420  71.605  1.00  0.00    -0.162 A  
HETATM    9  O   UNL     1      -8.840   3.305  71.710  1.00  0.00    -0.082 OA 
HETATM   10  C   UNL     1     -10.091   4.990  72.782  1.00  0.00    -0.214 A  
HETATM   11  C   UNL     1     -10.911   6.120  72.726  1.00  0.00    -0.294 A  
HETATM   12  H   UNL     1      -8.622   2.931  72.556  1.00  0.00     0.000 HD 
ENDBRANCH   3   5
ENDBRANCH   2   3
TORSDOF 2
ENDMDL
MODEL      132
REMARK 921   NORMALIZED FREE ENERGY PREDICTED BY IDOCK:   -2.74 KCAL/MOL
REMARK 922        TOTAL FREE ENERGY PREDICTED BY IDOCK:   -3.14 KCAL/MOL
REMARK 923 INTER-LIGAND FREE ENERGY PREDICTED BY IDOCK:   -3.05 KCAL/MOL
REMARK 924 INTRA-LIGAND FREE ENERGY PREDICTED BY IDOCK:   -0.09 KCAL/MOL
REMARK 927      BINDING AFFINITY PREDICTED BY RF-SCORE:    0.00 PKD
ROOT
HETATM    1  C   UNL     1      -7.361   9.471  68.486  1.00  0.00    -0.079 C  
HETATM    2  O   UNL     1      -8.586   9.119  67.838  1.00  0.00    -0.121 OA 
ENDROOT
BRANCH   2   3
HETATM    3  C   UNL     1      -9.556  10.060  67.946  1.00  0.00    -0.145 C  
HETATM    4  O   UNL     1     -10.126  10.381  68.977  1.00  0.00    -0.192 OA 
BRANCH   3   5
HETATM    5  C   UNL     1      -9.866  10.659  66.619  1.00  0.00    -0.245 A  
HETATM    6  C   UNL     1     -10.735  11.760  66.581  1.00  0.00    -0.300 A  
HETATM    7  C   UNL     1     -11.086  12.344  65.361  1.00  0.00    -0.344 A  
HETATM    8  C   UNL     1     -10.565  11.824  64.182  1.00  0.00    -0.353 A  
HETATM    9  O   UNL     1     -10.895  12.347  62.968  1.00  0.00    -0.640 OA 
HETATM   10  C   UNL     1      -9.690  10.743  64.203  1.00  0.00    -0.364 A  
HETATM   11  C   UNL     1      -9.339  10.156  65.422  1.00  0.00    -0.269 A  
HETATM   12  H   UNL     1     -10.540  11.991  62.162  1.00  0.00     0.000 HD 
ENDBRANCH   3   5
ENDBRANCH   2   3
TORSDOF 2
ENDMDL
MODEL      133
REMARK 921   NORMALIZED FREE ENERGY PREDICTED BY IDOCK:   -2.73 KCAL/MOL
REMARK 922        TOTAL FREE ENERGY PREDICTED BY IDOCK:   -3.13 KCAL/MOL
REMARK 923 INTER-LIGAND FREE ENERGY PREDICTED BY IDOCK:   -3.16 KCAL/MOL
REMARK 924 INTRA-LIGAND FREE ENERGY PREDICTED BY IDOCK:    0.03 KCAL/MOL
REMARK 927      BINDING AFFINITY PREDICTED BY RF-SCORE:    0.00 PKD
ROOT
HETATM    1  C   UNL     1      -7.342  15.094  68.807  1.00  0.00    -0.131 C  
HETATM    2  O   UNL     1      -7.769  16.367  69.296  1.00  0.00    -0.241 OA 
ENDROOT
BRANCH   2   3
HETATM    3  C   UNL     1      -9.081  16.630  69.074  1.00  0.00    -0.209 C  
HETATM    4  O   UNL     1     -10.021  16.087  69.633  1.00  0.00    -0.263 OA 
BRANCH   3   5
HETATM    5  C   UNL     1      -9.244  17.674  68.026  1.00  0.00    -0.271 A  
HETATM    6  C   UNL     1      -8.097  18.106  67.344  1.00  0.00    -0.229 A  
HETATM    7  C   UNL     1      -8.184  19.105  66.372  1.00  0.00    -0.323 A  
HETATM    8  C   UNL     1      -9.422  19.669  66.083  1.00  0.00    -0.369 A  
HETATM    9  O   UNL     1      -9.552  20.661  65.158  1.00  0.00    -0.146 OA 
HETATM   10  C   UNL     1     -10.571  19.241  66.738  1.00  0.00    -0.543 A  
HETATM   11  C   UNL     1     -10.486  18.243  67.712  1.00  0.00    -0.430 A  
HETATM   12  H   UNL     1     -10.398  21.046  64.961  1.00  0.00     0.000 HD 
ENDBRANCH   3   5
ENDBRANCH   2   3
TORSDOF 2
ENDMDL
MODEL      134
REMARK 921   NORMALIZED FREE ENERGY PREDICTED BY IDOCK:   -2.73 KCAL/MOL
REMARK 922        TOTAL FREE ENERGY PREDICTED BY IDOCK:   -3.12 KCAL/MOL
REMARK 923 INTER-LIGAND FREE ENERGY PREDICTED BY IDOCK:   -3.03 KCAL/MOL
REMARK 924 INTRA-LIGAND FREE ENERGY PREDICTED BY IDOCK:   -0.09 KCAL/MOL
REMARK 927      BINDING AFFINITY PREDICTED BY RF-SCORE:    0.00 PKD
ROOT
HETATM    1  C   UNL     1     -11.968  12.794  69.581  1.00  0.00    -0.288 C  
HETATM    2  O   UNL     1     -11.914  14.135  69.088  1.00  0.00    -0.324 OA 
ENDROOT
BRANCH   2   3
HETATM    3  C   UNL     1     -11.479  14.233  67.807  1.00  0.00    -0.329 C  
HETATM    4  O   UNL     1     -11.828  13.521  66.879  1.00  0.00    -0.366 OA 
BRANCH   3   5
HETATM    5  C   UNL     1     -10.484  15.331  67.667  1.00  0.00    -0.263 A  
HETATM    6  C   UNL     1      -9.492  15.450  68.653  1.00  0.00    -0.205 A  
HETATM    7  C   UNL     1      -8.550  16.480  68.591  1.00  0.00    -0.243 A  
HETATM    8  C   UNL     1      -8.602  17.388  67.538  1.00  0.00    -0.218 A  
HETATM    9  O   UNL     1      -7.717  18.420  67.447  1.00  0.00    -0.220 OA 
HETATM   10  C   UNL     1      -9.568  17.274  66.544  1.00  0.00    -0.286 A  
HETATM   11  C   UNL     1     -10.512  16.246  66.606  1.00  0.00    -0.290 A  
HETATM   12  H   UNL     1      -7.753  19.041  66.729  1.00  0.00     0.000 HD 
ENDBRANCH   3   5
ENDBRANCH   2   3
TORSDOF 2
ENDMDL
MODEL      135
REMARK 921   NORMALIZED FREE ENERGY PREDICTED BY IDOCK:   -2.72 KCAL/MOL
REMARK 922        TOTAL FREE ENERGY PREDICTED BY IDOCK:   -3.11 KCAL/MOL
REMARK 923 INTER-LIGAND FREE ENERGY PREDICTED BY IDOCK:   -3.01 KCAL/MOL
REMARK 924 INTRA-LIGAND FREE ENERGY PREDICTED BY IDOCK:   -0.10 KCAL/MOL
REMARK 927      BINDING AFFINITY PREDICTED BY RF-SCORE:    0.00 PKD
ROOT
HETATM    1  C   UNL     1     -11.935  14.066  65.448  1.00  0.00    -0.380 C  
HETATM    2  O   UNL     1     -12.182  12.739  65.919  1.00  0.00    -0.493 OA 
ENDROOT
BRANCH   2   3
HETATM    3  C   UNL     1     -11.391  11.796  65.347  1.00  0.00    -0.222 C  
HETATM    4  O   UNL     1     -11.257  11.610  64.148  1.00  0.00    -0.352 OA 
BRANCH   3   5
HETATM    5  C   UNL     1     -10.702  10.981  66.384  1.00  0.00    -0.286 A  
HETATM    6  C   UNL     1     -11.283  10.913  67.660  1.00  0.00    -0.379 A  
HETATM    7  C   UNL     1     -10.665  10.188  68.683  1.00  0.00    -0.253 A  
HETATM    8  C   UNL     1      -9.467   9.530  68.423  1.00  0.00    -0.137 A  
HETATM    9  O   UNL     1      -8.818   8.828  69.394  1.00  0.00    -0.139 OA 
HETATM   10  C   UNL     1      -8.887   9.574  67.160  1.00  0.00    -0.141 A  
HETATM   11  C   UNL     1      -9.502  10.300  66.137  1.00  0.00    -0.229 A  
HETATM   12  H   UNL     1      -7.999   8.379  69.217  1.00  0.00     0.000 HD 
ENDBRANCH   3   5
ENDBRANCH   2   3
TORSDOF 2
ENDMDL
MODEL      136
REMARK 921   NORMALIZED FREE ENERGY PREDICTED BY IDOCK:   -2.69 KCAL/MOL
REMARK 922        TOTAL FREE ENERGY PREDICTED BY IDOCK:   -3.08 KCAL/MOL
REMARK 923 INTER-LIGAND FREE ENERGY PREDICTED BY IDOCK:   -3.01 KCAL/MOL
REMARK 924 INTRA-LIGAND FREE ENERGY PREDICTED BY IDOCK:   -0.08 KCAL/MOL
REMARK 927      BINDING AFFINITY PREDICTED BY RF-SCORE:    0.00 PKD
ROOT
HETATM    1  C   UNL     1      -9.526  14.769  66.331  1.00  0.00    -0.301 C  
HETATM    2  O   UNL     1     -10.130  13.747  67.126  1.00  0.00    -0.237 OA 
ENDROOT
BRANCH   2   3
HETATM    3  C   UNL     1     -10.282  12.564  66.479  1.00  0.00    -0.240 C  
HETATM    4  O   UNL     1     -10.233  12.401  65.271  1.00  0.00    -0.276 OA 
BRANCH   3   5
HETATM    5  C   UNL     1     -10.541  11.461  67.444  1.00  0.00    -0.257 A  
HETATM    6  C   UNL     1     -10.144  10.164  67.083  1.00  0.00    -0.260 A  
HETATM    7  C   UNL     1     -10.389   9.084  67.935  1.00  0.00    -0.290 A  
HETATM    8  C   UNL     1     -11.029   9.306  69.149  1.00  0.00    -0.060 A  
HETATM    9  O   UNL     1     -11.308   8.281  70.003  1.00  0.00    -0.438 OA 
HETATM   10  C   UNL     1     -11.414  10.587  69.530  1.00  0.00    -0.339 A  
HETATM   11  C   UNL     1     -11.172  11.668  68.678  1.00  0.00    -0.308 A  
HETATM   12  H   UNL     1     -11.746   8.433  70.832  1.00  0.00     0.000 HD 
ENDBRANCH   3   5
ENDBRANCH   2   3
TORSDOF 2
ENDMDL
MODEL      137
REMARK 921   NORMALIZED FREE ENERGY PREDICTED BY IDOCK:   -2.69 KCAL/MOL
REMARK 922        TOTAL FREE ENERGY PREDICTED BY IDOCK:   -3.08 KCAL/MOL
REMARK 923 INTER-LIGAND FREE ENERGY PREDICTED BY IDOCK:   -3.15 KCAL/MOL
REMARK 924 INTRA-LIGAND FREE ENERGY PREDICTED BY IDOCK:    0.07 KCAL/MOL
REMARK 927      BINDING AFFINITY PREDICTED BY RF-SCORE:    0.00 PKD
ROOT
HETATM    1  C   UNL     1     -11.183  16.397  68.708  1.00  0.00    -0.313 C  
HETATM    2  O   UNL     1     -10.977  16.688  67.324  1.00  0.00    -0.212 OA 
ENDROOT
BRANCH   2   3
HETATM    3  C   UNL     1      -9.703  16.488  66.903  1.00  0.00    -0.251 C  
HETATM    4  O   UNL     1      -9.228  15.420  66.551  1.00  0.00    -0.246 OA 
BRANCH   3   5
HETATM    5  C   UNL     1      -8.926  17.757  66.941  1.00  0.00    -0.265 A  
HETATM    6  C   UNL     1      -7.576  17.713  66.561  1.00  0.00    -0.299 A  
HETATM    7  C   UNL     1      -6.789  18.867  66.606  1.00  0.00    -0.213 A  
HETATM    8  C   UNL     1      -7.357  20.063  67.031  1.00  0.00    -0.254 A  
HETATM    9  O   UNL     1      -6.623  21.209  67.111  1.00  0.00    -0.324 OA 
HETATM   10  C   UNL     1      -8.697  20.127  67.396  1.00  0.00    -0.425 A  
HETATM   11  C   UNL     1      -9.486  18.974  67.353  1.00  0.00    -0.347 A  
HETATM   12  H   UNL     1      -7.012  22.026  67.402  1.00  0.00     0.000 HD 
ENDBRANCH   3   5
ENDBRANCH   2   3
TORSDOF 2
ENDMDL
MODEL      138
REMARK 921   NORMALIZED FREE ENERGY PREDICTED BY IDOCK:   -2.69 KCAL/MOL
REMARK 922        TOTAL FREE ENERGY PREDICTED BY IDOCK:   -3.08 KCAL/MOL
REMARK 923 INTER-LIGAND FREE ENERGY PREDICTED BY IDOCK:   -3.00 KCAL/MOL
REMARK 924 INTRA-LIGAND FREE ENERGY PREDICTED BY IDOCK:   -0.08 KCAL/MOL
REMARK 927      BINDING AFFINITY PREDICTED BY RF-SCORE:    0.00 PKD
ROOT
HETATM    1  C   UNL     1     -10.605   5.375  72.303  1.00  0.00    -0.225 C  
HETATM    2  O   UNL     1     -11.190   6.046  71.184  1.00  0.00    -0.293 OA 
ENDROOT
BRANCH   2   3
HETATM    3  C   UNL     1     -10.293   6.700  70.404  1.00  0.00    -0.199 C  
HETATM    4  O   UNL     1      -9.260   6.228  69.958  1.00  0.00    -0.150 OA 
BRANCH   3   5
HETATM    5  C   UNL     1     -10.722   8.105  70.167  1.00  0.00    -0.243 A  
HETATM    6  C   UNL     1     -11.490   8.735  71.158  1.00  0.00    -0.344 A  
HETATM    7  C   UNL     1     -11.946  10.043  70.976  1.00  0.00    -0.469 A  
HETATM    8  C   UNL     1     -11.630  10.719  69.803  1.00  0.00    -0.317 A  
HETATM    9  O   UNL     1     -12.071  11.988  69.573  1.00  0.00    -0.276 OA 
HETATM   10  C   UNL     1     -10.856  10.115  68.818  1.00  0.00    -0.259 A  
HETATM   11  C   UNL     1     -10.400   8.806  68.996  1.00  0.00    -0.227 A  
HETATM   12  H   UNL     1     -11.855  12.449  68.770  1.00  0.00     0.000 HD 
ENDBRANCH   3   5
ENDBRANCH   2   3
TORSDOF 2
ENDMDL
MODEL      139
REMARK 921   NORMALIZED FREE ENERGY PREDICTED BY IDOCK:   -2.69 KCAL/MOL
REMARK 922        TOTAL FREE ENERGY PREDICTED BY IDOCK:   -3.08 KCAL/MOL
REMARK 923 INTER-LIGAND FREE ENERGY PREDICTED BY IDOCK:   -2.99 KCAL/MOL
REMARK 924 INTRA-LIGAND FREE ENERGY PREDICTED BY IDOCK:   -0.09 KCAL/MOL
REMARK 927      BINDING AFFINITY PREDICTED BY RF-SCORE:    0.00 PKD
ROOT
HETATM    1  C   UNL     1      -9.553   9.660  65.523  1.00  0.00    -0.283 C  
HETATM    2  O   UNL     1     -10.532  10.410  66.246  1.00  0.00    -0.222 OA 
ENDROOT
BRANCH   2   3
HETATM    3  C   UNL     1     -10.557  10.144  67.576  1.00  0.00    -0.273 C  
HETATM    4  O   UNL     1     -10.318   9.064  68.091  1.00  0.00    -0.199 OA 
BRANCH   3   5
HETATM    5  C   UNL     1     -10.940  11.355  68.353  1.00  0.00    -0.263 A  
HETATM    6  C   UNL     1     -11.439  11.172  69.652  1.00  0.00    -0.383 A  
HETATM    7  C   UNL     1     -11.844  12.270  70.416  1.00  0.00    -0.259 A  
HETATM    8  C   UNL     1     -11.745  13.548  69.879  1.00  0.00    -0.271 A  
HETATM    9  O   UNL     1     -12.146  14.646  70.579  1.00  0.00    -0.280 OA 
HETATM   10  C   UNL     1     -11.237  13.748  68.600  1.00  0.00    -0.308 A  
HETATM   11  C   UNL     1     -10.833  12.652  67.833  1.00  0.00    -0.244 A  
HETATM   12  H   UNL     1     -12.079  15.520  70.211  1.00  0.00     0.000 HD 
ENDBRANCH   3   5
ENDBRANCH   2   3
TORSDOF 2
ENDMDL
MODEL      140
REMARK 921   NORMALIZED FREE ENERGY PREDICTED BY IDOCK:   -2.68 KCAL/MOL
REMARK 922        TOTAL FREE ENERGY PREDICTED BY IDOCK:   -3.07 KCAL/MOL
REMARK 923 INTER-LIGAND FREE ENERGY PREDICTED BY IDOCK:   -2.98 KCAL/MOL
REMARK 924 INTRA-LIGAND FREE ENERGY PREDICTED BY IDOCK:   -0.09 KCAL/MOL
REMARK 927      BINDING AFFINITY PREDICTED BY RF-SCORE:    0.00 PKD
ROOT
HETATM    1  C   UNL     1      -7.155   6.412  73.547  1.00  0.00    -0.082 C  
HETATM    2  O   UNL     1      -7.819   7.678  73.546  1.00  0.00    -0.112 OA 
ENDROOT
BRANCH   2   3
HETATM    3  C   UNL     1      -9.166   7.593  73.411  1.00  0.00    -0.255 C  
HETATM    4  O   UNL     1      -9.911   6.928  74.112  1.00  0.00    -0.303 OA 
BRANCH   3   5
HETATM    5  C   UNL     1      -9.638   8.415  72.263  1.00  0.00    -0.374 A  
HETATM    6  C   UNL     1     -10.993   8.777  72.227  1.00  0.00    -0.336 A  
HETATM    7  C   UNL     1     -11.499   9.521  71.158  1.00  0.00    -0.430 A  
HETATM    8  C   UNL     1     -10.646   9.903  70.129  1.00  0.00    -0.297 A  
HETATM    9  O   UNL     1     -11.099  10.612  69.057  1.00  0.00    -0.219 OA 
HETATM   10  C   UNL     1      -9.297   9.567  70.158  1.00  0.00    -0.286 A  
HETATM   11  C   UNL     1      -8.789   8.821  71.225  1.00  0.00    -0.288 A  
HETATM   12  H   UNL     1     -10.515  10.873  68.354  1.00  0.00     0.000 HD 
ENDBRANCH   3   5
ENDBRANCH   2   3
TORSDOF 2
ENDMDL
MODEL      141
REMARK 921   NORMALIZED FREE ENERGY PREDICTED BY IDOCK:   -2.67 KCAL/MOL
REMARK 922        TOTAL FREE ENERGY PREDICTED BY IDOCK:   -3.05 KCAL/MOL
REMARK 923 INTER-LIGAND FREE ENERGY PREDICTED BY IDOCK:   -2.99 KCAL/MOL
REMARK 924 INTRA-LIGAND FREE ENERGY PREDICTED BY IDOCK:   -0.07 KCAL/MOL
REMARK 927      BINDING AFFINITY PREDICTED BY RF-SCORE:    0.00 PKD
ROOT
HETATM    1  C   UNL     1      -6.097  17.419  69.300  1.00  0.00    -0.231 C  
HETATM    2  O   UNL     1      -7.285  16.639  69.150  1.00  0.00    -0.217 OA 
ENDROOT
BRANCH   2   3
HETATM    3  C   UNL     1      -8.403  17.376  68.933  1.00  0.00    -0.160 C  
HETATM    4  O   UNL     1      -8.489  18.588  69.042  1.00  0.00    -0.201 OA 
BRANCH   3   5
HETATM    5  C   UNL     1      -9.549  16.504  68.555  1.00  0.00    -0.233 A  
HETATM    6  C   UNL     1      -9.498  15.852  67.314  1.00  0.00    -0.217 A  
HETATM    7  C   UNL     1     -10.558  15.046  66.892  1.00  0.00    -0.297 A  
HETATM    8  C   UNL     1     -11.667  14.892  67.717  1.00  0.00    -0.317 A  
HETATM    9  O   UNL     1     -12.733  14.133  67.339  1.00  0.00    -0.402 OA 
HETATM   10  C   UNL     1     -11.726  15.518  68.957  1.00  0.00    -0.392 A  
HETATM   11  C   UNL     1     -10.668  16.326  69.380  1.00  0.00    -0.318 A  
HETATM   12  H   UNL     1     -13.491  14.028  67.902  1.00  0.00     0.000 HD 
ENDBRANCH   3   5
ENDBRANCH   2   3
TORSDOF 2
ENDMDL
MODEL      142
REMARK 921   NORMALIZED FREE ENERGY PREDICTED BY IDOCK:   -2.62 KCAL/MOL
REMARK 922        TOTAL FREE ENERGY PREDICTED BY IDOCK:   -3.00 KCAL/MOL
REMARK 923 INTER-LIGAND FREE ENERGY PREDICTED BY IDOCK:   -2.92 KCAL/MOL
REMARK 924 INTRA-LIGAND FREE ENERGY PREDICTED BY IDOCK:   -0.08 KCAL/MOL
REMARK 927      BINDING AFFINITY PREDICTED BY RF-SCORE:    0.00 PKD
ROOT
HETATM    1  C   UNL     1     -13.894   9.058  72.293  1.00  0.00    -0.484 C  
HETATM    2  O   UNL     1     -12.474   8.954  72.165  1.00  0.00    -0.358 OA 
ENDROOT
BRANCH   2   3
HETATM    3  C   UNL     1     -12.070   8.059  71.229  1.00  0.00    -0.291 C  
HETATM    4  O   UNL     1     -12.478   6.915  71.115  1.00  0.00    -0.378 OA 
BRANCH   3   5
HETATM    5  C   UNL     1     -11.027   8.648  70.346  1.00  0.00    -0.256 A  
HETATM    6  C   UNL     1     -11.181   9.985  69.947  1.00  0.00    -0.327 A  
HETATM    7  C   UNL     1     -10.250  10.582  69.093  1.00  0.00    -0.241 A  
HETATM    8  C   UNL     1      -9.165   9.839  68.642  1.00  0.00    -0.137 A  
HETATM    9  O   UNL     1      -8.243  10.373  67.792  1.00  0.00    -0.110 OA 
HETATM   10  C   UNL     1      -8.988   8.519  69.041  1.00  0.00    -0.146 A  
HETATM   11  C   UNL     1      -9.919   7.919  69.893  1.00  0.00    -0.192 A  
HETATM   12  H   UNL     1      -7.501   9.865  67.484  1.00  0.00     0.000 HD 
ENDBRANCH   3   5
ENDBRANCH   2   3
TORSDOF 2
ENDMDL
MODEL      143
REMARK 921   NORMALIZED FREE ENERGY PREDICTED BY IDOCK:   -2.62 KCAL/MOL
REMARK 922        TOTAL FREE ENERGY PREDICTED BY IDOCK:   -3.00 KCAL/MOL
REMARK 923 INTER-LIGAND FREE ENERGY PREDICTED BY IDOCK:   -2.90 KCAL/MOL
REMARK 924 INTRA-LIGAND FREE ENERGY PREDICTED BY IDOCK:   -0.10 KCAL/MOL
REMARK 927      BINDING AFFINITY PREDICTED BY RF-SCORE:    0.00 PKD
ROOT
HETATM    1  C   UNL     1     -13.321   7.302  71.528  1.00  0.00    -0.369 C  
HETATM    2  O   UNL     1     -11.945   7.668  71.402  1.00  0.00    -0.292 OA 
ENDROOT
BRANCH   2   3
HETATM    3  C   UNL     1     -11.230   6.852  70.586  1.00  0.00    -0.301 C  
HETATM    4  O   UNL     1     -10.948   5.687  70.815  1.00  0.00    -0.260 OA 
BRANCH   3   5
HETATM    5  C   UNL     1     -10.805   7.573  69.355  1.00  0.00    -0.161 A  
HETATM    6  C   UNL     1     -10.764   6.851  68.153  1.00  0.00    -0.260 A  
HETATM    7  C   UNL     1     -10.343   7.466  66.971  1.00  0.00    -0.384 A  
HETATM    8  C   UNL     1      -9.966   8.805  66.997  1.00  0.00    -0.240 A  
HETATM    9  O   UNL     1      -9.529   9.441  65.874  1.00  0.00    -0.211 OA 
HETATM   10  C   UNL     1     -10.017   9.539  68.177  1.00  0.00    -0.191 A  
HETATM   11  C   UNL     1     -10.436   8.925  69.360  1.00  0.00    -0.228 A  
HETATM   12  H   UNL     1      -9.271  10.356  65.891  1.00  0.00     0.000 HD 
ENDBRANCH   3   5
ENDBRANCH   2   3
TORSDOF 2
ENDMDL
MODEL      144
REMARK 921   NORMALIZED FREE ENERGY PREDICTED BY IDOCK:   -2.61 KCAL/MOL
REMARK 922        TOTAL FREE ENERGY PREDICTED BY IDOCK:   -3.00 KCAL/MOL
REMARK 923 INTER-LIGAND FREE ENERGY PREDICTED BY IDOCK:   -2.91 KCAL/MOL
REMARK 924 INTRA-LIGAND FREE ENERGY PREDICTED BY IDOCK:   -0.08 KCAL/MOL
REMARK 927      BINDING AFFINITY PREDICTED BY RF-SCORE:    0.00 PKD
ROOT
HETATM    1  C   UNL     1      -6.284   9.645  64.259  1.00  0.00    -0.103 C  
HETATM    2  O   UNL     1      -7.597   9.347  64.736  1.00  0.00    -0.105 OA 
ENDROOT
BRANCH   2   3
HETATM    3  C   UNL     1      -8.542  10.237  64.341  1.00  0.00    -0.187 C  
HETATM    4  O   UNL     1      -8.600  10.774  63.247  1.00  0.00    -0.165 OA 
BRANCH   3   5
HETATM    5  C   UNL     1      -9.514  10.501  65.437  1.00  0.00    -0.273 A  
HETATM    6  C   UNL     1     -10.071  11.785  65.526  1.00  0.00    -0.285 A  
HETATM    7  C   UNL     1     -10.966  12.100  66.552  1.00  0.00    -0.325 A  
HETATM    8  C   UNL     1     -11.302  11.126  67.486  1.00  0.00    -0.278 A  
HETATM    9  O   UNL     1     -12.154  11.393  68.515  1.00  0.00    -0.550 OA 
HETATM   10  C   UNL     1     -10.772   9.843  67.402  1.00  0.00    -0.323 A  
HETATM   11  C   UNL     1      -9.875   9.527  66.378  1.00  0.00    -0.320 A  
HETATM   12  H   UNL     1     -12.383  10.727  69.154  1.00  0.00     0.000 HD 
ENDBRANCH   3   5
ENDBRANCH   2   3
TORSDOF 2
ENDMDL
MODEL      145
REMARK 921   NORMALIZED FREE ENERGY PREDICTED BY IDOCK:   -2.61 KCAL/MOL
REMARK 922        TOTAL FREE ENERGY PREDICTED BY IDOCK:   -2.99 KCAL/MOL
REMARK 923 INTER-LIGAND FREE ENERGY PREDICTED BY IDOCK:   -2.90 KCAL/MOL
REMARK 924 INTRA-LIGAND FREE ENERGY PREDICTED BY IDOCK:   -0.09 KCAL/MOL
REMARK 927      BINDING AFFINITY PREDICTED BY RF-SCORE:    0.00 PKD
ROOT
HETATM    1  C   UNL     1     -11.417   8.282  72.317  1.00  0.00    -0.384 C  
HETATM    2  O   UNL     1     -10.634   9.283  71.662  1.00  0.00    -0.349 OA 
ENDROOT
BRANCH   2   3
HETATM    3  C   UNL     1     -11.342  10.065  70.809  1.00  0.00    -0.360 C  
HETATM    4  O   UNL     1     -12.423  10.580  71.046  1.00  0.00    -0.329 OA 
BRANCH   3   5
HETATM    5  C   UNL     1     -10.632  10.211  69.509  1.00  0.00    -0.269 A  
HETATM    6  C   UNL     1     -11.409  10.340  68.347  1.00  0.00    -0.244 A  
HETATM    7  C   UNL     1     -10.799  10.449  67.095  1.00  0.00    -0.301 A  
HETATM    8  C   UNL     1      -9.411  10.430  67.010  1.00  0.00    -0.154 A  
HETATM    9  O   UNL     1      -8.772  10.513  65.809  1.00  0.00    -0.164 OA 
HETATM   10  C   UNL     1      -8.627  10.319  68.153  1.00  0.00    -0.119 A  
HETATM   11  C   UNL     1      -9.235  10.209  69.406  1.00  0.00    -0.229 A  
HETATM   12  H   UNL     1      -7.823  10.499  65.751  1.00  0.00     0.000 HD 
ENDBRANCH   3   5
ENDBRANCH   2   3
TORSDOF 2
ENDMDL
MODEL      146
REMARK 921   NORMALIZED FREE ENERGY PREDICTED BY IDOCK:   -2.58 KCAL/MOL
REMARK 922        TOTAL FREE ENERGY PREDICTED BY IDOCK:   -2.96 KCAL/MOL
REMARK 923 INTER-LIGAND FREE ENERGY PREDICTED BY IDOCK:   -2.87 KCAL/MOL
REMARK 924 INTRA-LIGAND FREE ENERGY PREDICTED BY IDOCK:   -0.09 KCAL/MOL
REMARK 927      BINDING AFFINITY PREDICTED BY RF-SCORE:    0.00 PKD
ROOT
HETATM    1  C   UNL     1     -10.699   5.311  66.320  1.00  0.00    -0.196 C  
HETATM    2  O   UNL     1     -11.151   6.256  67.292  1.00  0.00    -0.353 OA 
ENDROOT
BRANCH   2   3
HETATM    3  C   UNL     1     -10.188   6.656  68.160  1.00  0.00    -0.170 C  
HETATM    4  O   UNL     1      -9.296   5.954  68.607  1.00  0.00    -0.117 OA 
BRANCH   3   5
HETATM    5  C   UNL     1     -10.365   8.088  68.526  1.00  0.00    -0.229 A  
HETATM    6  C   UNL     1     -10.765   8.980  67.520  1.00  0.00    -0.239 A  
HETATM    7  C   UNL     1     -10.918  10.341  67.797  1.00  0.00    -0.360 A  
HETATM    8  C   UNL     1     -10.671  10.805  69.085  1.00  0.00    -0.227 A  
HETATM    9  O   UNL     1     -10.786  12.126  69.398  1.00  0.00    -0.443 OA 
HETATM   10  C   UNL     1     -10.289   9.932  70.098  1.00  0.00    -0.336 A  
HETATM   11  C   UNL     1     -10.135   8.571  69.822  1.00  0.00    -0.197 A  
HETATM   12  H   UNL     1     -10.616  12.443  70.277  1.00  0.00     0.000 HD 
ENDBRANCH   3   5
ENDBRANCH   2   3
TORSDOF 2
ENDMDL
MODEL      147
REMARK 921   NORMALIZED FREE ENERGY PREDICTED BY IDOCK:   -2.57 KCAL/MOL
REMARK 922        TOTAL FREE ENERGY PREDICTED BY IDOCK:   -2.94 KCAL/MOL
REMARK 923 INTER-LIGAND FREE ENERGY PREDICTED BY IDOCK:   -2.98 KCAL/MOL
REMARK 924 INTRA-LIGAND FREE ENERGY PREDICTED BY IDOCK:    0.04 KCAL/MOL
REMARK 927      BINDING AFFINITY PREDICTED BY RF-SCORE:    0.00 PKD
ROOT
HETATM    1  C   UNL     1     -12.033  12.322  69.087  1.00  0.00    -0.249 C  
HETATM    2  O   UNL     1     -11.762  13.549  68.406  1.00  0.00    -0.315 OA 
ENDROOT
BRANCH   2   3
HETATM    3  C   UNL     1     -11.801  13.448  67.054  1.00  0.00    -0.394 C  
HETATM    4  O   UNL     1     -12.624  13.976  66.324  1.00  0.00    -0.451 OA 
BRANCH   3   5
HETATM    5  C   UNL     1     -10.702  12.578  66.554  1.00  0.00    -0.266 A  
HETATM    6  C   UNL     1     -11.021  11.593  65.606  1.00  0.00    -0.322 A  
HETATM    7  C   UNL     1     -10.037  10.727  65.124  1.00  0.00    -0.363 A  
HETATM    8  C   UNL     1      -8.733  10.851  65.591  1.00  0.00    -0.183 A  
HETATM    9  O   UNL     1      -7.744  10.016  65.165  1.00  0.00    -0.126 OA 
HETATM   10  C   UNL     1      -8.396  11.832  66.517  1.00  0.00    -0.093 A  
HETATM   11  C   UNL     1      -9.379  12.698  67.002  1.00  0.00    -0.220 A  
HETATM   12  H   UNL     1      -6.853  10.100  65.484  1.00  0.00     0.000 HD 
ENDBRANCH   3   5
ENDBRANCH   2   3
TORSDOF 2
ENDMDL
MODEL      148
REMARK 921   NORMALIZED FREE ENERGY PREDICTED BY IDOCK:   -2.56 KCAL/MOL
REMARK 922        TOTAL FREE ENERGY PREDICTED BY IDOCK:   -2.93 KCAL/MOL
REMARK 923 INTER-LIGAND FREE ENERGY PREDICTED BY IDOCK:   -2.97 KCAL/MOL
REMARK 924 INTRA-LIGAND FREE ENERGY PREDICTED BY IDOCK:    0.04 KCAL/MOL
REMARK 927      BINDING AFFINITY PREDICTED BY RF-SCORE:    0.00 PKD
ROOT
HETATM    1  C   UNL     1      -9.726   6.179  69.113  1.00  0.00    -0.139 C  
HETATM    2  O   UNL     1      -9.009   7.380  69.409  1.00  0.00    -0.140 OA 
ENDROOT
BRANCH   2   3
HETATM    3  C   UNL     1      -9.641   8.196  70.289  1.00  0.00    -0.171 C  
HETATM    4  O   UNL     1      -9.674   8.048  71.500  1.00  0.00    -0.157 OA 
BRANCH   3   5
HETATM    5  C   UNL     1     -10.325   9.313  69.582  1.00  0.00    -0.227 A  
HETATM    6  C   UNL     1     -10.115   9.443  68.201  1.00  0.00    -0.215 A  
HETATM    7  C   UNL     1     -10.706  10.490  67.489  1.00  0.00    -0.326 A  
HETATM    8  C   UNL     1     -11.508  11.404  68.164  1.00  0.00    -0.305 A  
HETATM    9  O   UNL     1     -12.088  12.454  67.516  1.00  0.00    -0.491 OA 
HETATM   10  C   UNL     1     -11.739  11.280  69.529  1.00  0.00    -0.415 A  
HETATM   11  C   UNL     1     -11.148  10.235  70.243  1.00  0.00    -0.388 A  
HETATM   12  H   UNL     1     -12.636  13.079  67.977  1.00  0.00     0.000 HD 
ENDBRANCH   3   5
ENDBRANCH   2   3
TORSDOF 2
ENDMDL
MODEL      149
REMARK 921   NORMALIZED FREE ENERGY PREDICTED BY IDOCK:   -2.56 KCAL/MOL
REMARK 922        TOTAL FREE ENERGY PREDICTED BY IDOCK:   -2.93 KCAL/MOL
REMARK 923 INTER-LIGAND FREE ENERGY PREDICTED BY IDOCK:   -2.87 KCAL/MOL
REMARK 924 INTRA-LIGAND FREE ENERGY PREDICTED BY IDOCK:   -0.07 KCAL/MOL
REMARK 927      BINDING AFFINITY PREDICTED BY RF-SCORE:    0.00 PKD
ROOT
HETATM    1  C   UNL     1      -7.273   9.192  71.190  1.00  0.00    -0.073 C  
HETATM    2  O   UNL     1      -8.073   8.116  70.696  1.00  0.00    -0.098 OA 
ENDROOT
BRANCH   2   3
HETATM    3  C   UNL     1      -9.347   8.472  70.391  1.00  0.00    -0.164 C  
HETATM    4  O   UNL     1     -10.002   9.329  70.961  1.00  0.00    -0.270 OA 
BRANCH   3   5
HETATM    5  C   UNL     1      -9.870   7.657  69.261  1.00  0.00    -0.168 A  
HETATM    6  C   UNL     1     -10.011   8.281  68.012  1.00  0.00    -0.224 A  
HETATM    7  C   UNL     1     -10.526   7.574  66.921  1.00  0.00    -0.385 A  
HETATM    8  C   UNL     1     -10.897   6.244  67.085  1.00  0.00    -0.381 A  
HETATM    9  O   UNL     1     -11.423   5.522  66.056  1.00  0.00    -0.637 OA 
HETATM   10  C   UNL     1     -10.748   5.607  68.312  1.00  0.00    -0.227 A  
HETATM   11  C   UNL     1     -10.235   6.312  69.404  1.00  0.00    -0.238 A  
HETATM   12  H   UNL     1     -11.677   4.613  66.168  1.00  0.00     0.000 HD 
ENDBRANCH   3   5
ENDBRANCH   2   3
TORSDOF 2
ENDMDL
MODEL      150
REMARK 921   NORMALIZED FREE ENERGY PREDICTED BY IDOCK:   -2.54 KCAL/MOL
REMARK 922        TOTAL FREE ENERGY PREDICTED BY IDOCK:   -2.92 KCAL/MOL
REMARK 923 INTER-LIGAND FREE ENERGY PREDICTED BY IDOCK:   -2.81 KCAL/MOL
REMARK 924 INTRA-LIGAND FREE ENERGY PREDICTED BY IDOCK:   -0.11 KCAL/MOL
REMARK 927      BINDING AFFINITY PREDICTED BY RF-SCORE:    0.00 PKD
ROOT
HETATM    1  C   UNL     1     -10.651   5.294  66.431  1.00  0.00    -0.276 C  
HETATM    2  O   UNL     1     -10.389   6.612  66.917  1.00  0.00    -0.219 OA 
ENDROOT
BRANCH   2   3
HETATM    3  C   UNL     1      -9.435   6.664  67.880  1.00  0.00    -0.117 C  
HETATM    4  O   UNL     1      -8.256   6.925  67.700  1.00  0.00    -0.115 OA 
BRANCH   3   5
HETATM    5  C   UNL     1     -10.007   6.338  69.214  1.00  0.00    -0.186 A  
HETATM    6  C   UNL     1     -11.009   7.178  69.723  1.00  0.00    -0.256 A  
HETATM    7  C   UNL     1     -11.562   6.939  70.984  1.00  0.00    -0.374 A  
HETATM    8  C   UNL     1     -11.111   5.856  71.731  1.00  0.00    -0.265 A  
HETATM    9  O   UNL     1     -11.605   5.596  72.974  1.00  0.00    -0.486 OA 
HETATM   10  C   UNL     1     -10.130   5.004  71.235  1.00  0.00    -0.276 A  
HETATM   11  C   UNL     1      -9.575   5.243  69.975  1.00  0.00    -0.238 A  
HETATM   12  H   UNL     1     -11.296   4.856  73.485  1.00  0.00     0.000 HD 
ENDBRANCH   3   5
ENDBRANCH   2   3
TORSDOF 2
ENDMDL
MODEL      151
REMARK 921   NORMALIZED FREE ENERGY PREDICTED BY IDOCK:   -2.53 KCAL/MOL
REMARK 922        TOTAL FREE ENERGY PREDICTED BY IDOCK:   -2.90 KCAL/MOL
REMARK 923 INTER-LIGAND FREE ENERGY PREDICTED BY IDOCK:   -2.82 KCAL/MOL
REMARK 924 INTRA-LIGAND FREE ENERGY PREDICTED BY IDOCK:   -0.08 KCAL/MOL
REMARK 927      BINDING AFFINITY PREDICTED BY RF-SCORE:    0.00 PKD
ROOT
HETATM    1  C   UNL     1      -7.230   6.369  73.533  1.00  0.00    -0.082 C  
HETATM    2  O   UNL     1      -8.143   7.423  73.221  1.00  0.00    -0.105 OA 
ENDROOT
BRANCH   2   3
HETATM    3  C   UNL     1      -9.447   7.052  73.266  1.00  0.00    -0.166 C  
HETATM    4  O   UNL     1     -10.085   6.815  74.279  1.00  0.00    -0.338 OA 
BRANCH   3   5
HETATM    5  C   UNL     1     -10.019   6.949  71.896  1.00  0.00    -0.183 A  
HETATM    6  C   UNL     1     -10.088   5.678  71.306  1.00  0.00    -0.261 A  
HETATM    7  C   UNL     1     -10.586   5.524  70.010  1.00  0.00    -0.384 A  
HETATM    8  C   UNL     1     -11.016   6.645  69.308  1.00  0.00    -0.295 A  
HETATM    9  O   UNL     1     -11.490   6.546  68.034  1.00  0.00    -0.596 OA 
HETATM   10  C   UNL     1     -10.969   7.910  69.884  1.00  0.00    -0.179 A  
HETATM   11  C   UNL     1     -10.470   8.066  71.179  1.00  0.00    -0.230 A  
HETATM   12  H   UNL     1     -11.783   7.312  67.554  1.00  0.00     0.000 HD 
ENDBRANCH   3   5
ENDBRANCH   2   3
TORSDOF 2
ENDMDL
MODEL      152
REMARK 921   NORMALIZED FREE ENERGY PREDICTED BY IDOCK:   -2.52 KCAL/MOL
REMARK 922        TOTAL FREE ENERGY PREDICTED BY IDOCK:   -2.89 KCAL/MOL
REMARK 923 INTER-LIGAND FREE ENERGY PREDICTED BY IDOCK:   -2.80 KCAL/MOL
REMARK 924 INTRA-LIGAND FREE ENERGY PREDICTED BY IDOCK:   -0.10 KCAL/MOL
REMARK 927      BINDING AFFINITY PREDICTED BY RF-SCORE:    0.00 PKD
ROOT
HETATM    1  C   UNL     1      -8.795   4.283  73.205  1.00  0.00    -0.098 C  
HETATM    2  O   UNL     1      -8.996   5.696  73.294  1.00  0.00    -0.128 OA 
ENDROOT
BRANCH   2   3
HETATM    3  C   UNL     1     -10.289   6.078  73.145  1.00  0.00    -0.213 C  
HETATM    4  O   UNL     1     -11.258   5.520  73.635  1.00  0.00    -0.194 OA 
BRANCH   3   5
HETATM    5  C   UNL     1     -10.391   7.281  72.275  1.00  0.00    -0.239 A  
HETATM    6  C   UNL     1      -9.200   7.860  71.811  1.00  0.00    -0.194 A  
HETATM    7  C   UNL     1      -9.232   9.009  71.016  1.00  0.00    -0.331 A  
HETATM    8  C   UNL     1     -10.459   9.574  70.686  1.00  0.00    -0.308 A  
HETATM    9  O   UNL     1     -10.539  10.705  69.931  1.00  0.00    -0.380 OA 
HETATM   10  C   UNL     1     -11.649   9.003  71.123  1.00  0.00    -0.372 A  
HETATM   11  C   UNL     1     -11.619   7.855  71.919  1.00  0.00    -0.338 A  
HETATM   12  H   UNL     1     -11.378  11.092  69.705  1.00  0.00     0.000 HD 
ENDBRANCH   3   5
ENDBRANCH   2   3
TORSDOF 2
ENDMDL
MODEL      153
REMARK 921   NORMALIZED FREE ENERGY PREDICTED BY IDOCK:   -2.51 KCAL/MOL
REMARK 922        TOTAL FREE ENERGY PREDICTED BY IDOCK:   -2.89 KCAL/MOL
REMARK 923 INTER-LIGAND FREE ENERGY PREDICTED BY IDOCK:   -2.81 KCAL/MOL
REMARK 924 INTRA-LIGAND FREE ENERGY PREDICTED BY IDOCK:   -0.08 KCAL/MOL
REMARK 927      BINDING AFFINITY PREDICTED BY RF-SCORE:    0.00 PKD
ROOT
HETATM    1  C   UNL     1      -7.175   7.285  67.196  1.00  0.00    -0.092 C  
HETATM    2  O   UNL     1      -7.994   8.177  67.956  1.00  0.00    -0.123 OA 
ENDROOT
BRANCH   2   3
HETATM    3  C   UNL     1      -9.266   8.283  67.497  1.00  0.00    -0.137 C  
HETATM    4  O   UNL     1      -9.720   7.712  66.518  1.00  0.00    -0.208 OA 
BRANCH   3   5
HETATM    5  C   UNL     1     -10.059   9.218  68.340  1.00  0.00    -0.215 A  
HETATM    6  C   UNL     1      -9.988   9.068  69.734  1.00  0.00    -0.204 A  
HETATM    7  C   UNL     1     -10.734   9.897  70.575  1.00  0.00    -0.382 A  
HETATM    8  C   UNL     1     -11.549  10.877  70.018  1.00  0.00    -0.341 A  
HETATM    9  O   UNL     1     -12.310  11.695  70.798  1.00  0.00    -0.376 OA 
HETATM   10  C   UNL     1     -11.618  11.050  68.640  1.00  0.00    -0.385 A  
HETATM   11  C   UNL     1     -10.874  10.221  67.797  1.00  0.00    -0.346 A  
HETATM   12  H   UNL     1     -12.868  12.364  70.418  1.00  0.00     0.000 HD 
ENDBRANCH   3   5
ENDBRANCH   2   3
TORSDOF 2
ENDMDL
MODEL      154
REMARK 921   NORMALIZED FREE ENERGY PREDICTED BY IDOCK:   -2.50 KCAL/MOL
REMARK 922        TOTAL FREE ENERGY PREDICTED BY IDOCK:   -2.87 KCAL/MOL
REMARK 923 INTER-LIGAND FREE ENERGY PREDICTED BY IDOCK:   -2.76 KCAL/MOL
REMARK 924 INTRA-LIGAND FREE ENERGY PREDICTED BY IDOCK:   -0.11 KCAL/MOL
REMARK 927      BINDING AFFINITY PREDICTED BY RF-SCORE:    0.00 PKD
ROOT
HETATM    1  C   UNL     1      -8.231   7.469  68.479  1.00  0.00    -0.125 C  
HETATM    2  O   UNL     1      -8.157   6.833  69.757  1.00  0.00    -0.121 OA 
ENDROOT
BRANCH   2   3
HETATM    3  C   UNL     1      -8.364   7.671  70.803  1.00  0.00    -0.117 C  
HETATM    4  O   UNL     1      -7.493   8.196  71.478  1.00  0.00    -0.068 OA 
BRANCH   3   5
HETATM    5  C   UNL     1      -9.819   7.867  71.047  1.00  0.00    -0.189 A  
HETATM    6  C   UNL     1     -10.312   9.180  71.069  1.00  0.00    -0.363 A  
HETATM    7  C   UNL     1     -11.663   9.427  71.325  1.00  0.00    -0.432 A  
HETATM    8  C   UNL     1     -12.519   8.355  71.555  1.00  0.00    -0.312 A  
HETATM    9  O   UNL     1     -13.840   8.547  71.829  1.00  0.00    -0.378 OA 
HETATM   10  C   UNL     1     -12.050   7.046  71.520  1.00  0.00    -0.392 A  
HETATM   11  C   UNL     1     -10.699   6.798  71.267  1.00  0.00    -0.257 A  
HETATM   12  H   UNL     1     -14.425   7.815  71.987  1.00  0.00     0.000 HD 
ENDBRANCH   3   5
ENDBRANCH   2   3
TORSDOF 2
ENDMDL
MODEL      155
REMARK 921   NORMALIZED FREE ENERGY PREDICTED BY IDOCK:   -2.45 KCAL/MOL
REMARK 922        TOTAL FREE ENERGY PREDICTED BY IDOCK:   -2.81 KCAL/MOL
REMARK 923 INTER-LIGAND FREE ENERGY PREDICTED BY IDOCK:   -2.75 KCAL/MOL
REMARK 924 INTRA-LIGAND FREE ENERGY PREDICTED BY IDOCK:   -0.07 KCAL/MOL
REMARK 927      BINDING AFFINITY PREDICTED BY RF-SCORE:    0.00 PKD
ROOT
HETATM    1  C   UNL     1      -9.745  12.043  66.003  1.00  0.00    -0.239 C  
HETATM    2  O   UNL     1     -10.031  12.210  67.393  1.00  0.00    -0.197 OA 
ENDROOT
BRANCH   2   3
HETATM    3  C   UNL     1     -10.953  11.338  67.873  1.00  0.00    -0.248 C  
HETATM    4  O   UNL     1     -12.157  11.529  67.921  1.00  0.00    -0.630 OA 
BRANCH   3   5
HETATM    5  C   UNL     1     -10.301  10.094  68.367  1.00  0.00    -0.210 A  
HETATM    6  C   UNL     1     -10.479   8.918  67.622  1.00  0.00    -0.320 A  
HETATM    7  C   UNL     1      -9.917   7.714  68.053  1.00  0.00    -0.208 A  
HETATM    8  C   UNL     1      -9.174   7.691  69.229  1.00  0.00    -0.145 A  
HETATM    9  O   UNL     1      -8.624   6.537  69.699  1.00  0.00    -0.129 OA 
HETATM   10  C   UNL     1      -8.974   8.851  69.969  1.00  0.00    -0.172 A  
HETATM   11  C   UNL     1      -9.537  10.056  69.541  1.00  0.00    -0.249 A  
HETATM   12  H   UNL     1      -8.117   6.521  70.502  1.00  0.00     0.000 HD 
ENDBRANCH   3   5
ENDBRANCH   2   3
TORSDOF 2
ENDMDL
MODEL      156
REMARK 921   NORMALIZED FREE ENERGY PREDICTED BY IDOCK:   -2.42 KCAL/MOL
REMARK 922        TOTAL FREE ENERGY PREDICTED BY IDOCK:   -2.78 KCAL/MOL
REMARK 923 INTER-LIGAND FREE ENERGY PREDICTED BY IDOCK:   -2.69 KCAL/MOL
REMARK 924 INTRA-LIGAND FREE ENERGY PREDICTED BY IDOCK:   -0.09 KCAL/MOL
REMARK 927      BINDING AFFINITY PREDICTED BY RF-SCORE:    0.00 PKD
ROOT
HETATM    1  C   UNL     1     -11.498  11.221  69.638  1.00  0.00    -0.309 C  
HETATM    2  O   UNL     1     -10.751  11.329  68.425  1.00  0.00    -0.182 OA 
ENDROOT
BRANCH   2   3
HETATM    3  C   UNL     1     -10.438  10.135  67.862  1.00  0.00    -0.222 C  
HETATM    4  O   UNL     1     -10.401   9.062  68.443  1.00  0.00    -0.197 OA 
BRANCH   3   5
HETATM    5  C   UNL     1     -10.118  10.296  66.418  1.00  0.00    -0.296 A  
HETATM    6  C   UNL     1      -9.614   9.183  65.728  1.00  0.00    -0.323 A  
HETATM    7  C   UNL     1      -9.267   9.283  64.378  1.00  0.00    -0.021 A  
HETATM    8  C   UNL     1      -9.428  10.498  63.722  1.00  0.00    -0.298 A  
HETATM    9  O   UNL     1      -9.084  10.648  62.412  1.00  0.00    -0.249 OA 
HETATM   10  C   UNL     1      -9.941  11.606  64.386  1.00  0.00    -0.298 A  
HETATM   11  C   UNL     1     -10.287  11.509  65.737  1.00  0.00    -0.295 A  
HETATM   12  H   UNL     1      -9.193  11.479  61.963  1.00  0.00     0.000 HD 
ENDBRANCH   3   5
ENDBRANCH   2   3
TORSDOF 2
ENDMDL
MODEL      157
REMARK 921   NORMALIZED FREE ENERGY PREDICTED BY IDOCK:   -2.41 KCAL/MOL
REMARK 922        TOTAL FREE ENERGY PREDICTED BY IDOCK:   -2.77 KCAL/MOL
REMARK 923 INTER-LIGAND FREE ENERGY PREDICTED BY IDOCK:   -2.70 KCAL/MOL
REMARK 924 INTRA-LIGAND FREE ENERGY PREDICTED BY IDOCK:   -0.07 KCAL/MOL
REMARK 927      BINDING AFFINITY PREDICTED BY RF-SCORE:    0.00 PKD
ROOT
HETATM    1  C   UNL     1     -11.489  14.724  65.522  1.00  0.00    -0.329 C  
HETATM    2  O   UNL     1     -12.079  14.103  66.666  1.00  0.00    -0.429 OA 
ENDROOT
BRANCH   2   3
HETATM    3  C   UNL     1     -11.402  14.323  67.821  1.00  0.00    -0.307 C  
HETATM    4  O   UNL     1     -11.550  15.282  68.561  1.00  0.00    -0.328 OA 
BRANCH   3   5
HETATM    5  C   UNL     1     -10.419  13.236  68.077  1.00  0.00    -0.248 A  
HETATM    6  C   UNL     1      -9.057  13.526  67.900  1.00  0.00    -0.204 A  
HETATM    7  C   UNL     1      -8.090  12.537  68.095  1.00  0.00    -0.167 A  
HETATM    8  C   UNL     1      -8.490  11.258  68.469  1.00  0.00    -0.156 A  
HETATM    9  O   UNL     1      -7.584  10.256  68.650  1.00  0.00    -0.082 OA 
HETATM   10  C   UNL     1      -9.833  10.959  68.665  1.00  0.00    -0.194 A  
HETATM   11  C   UNL     1     -10.802  11.946  68.468  1.00  0.00    -0.257 A  
HETATM   12  H   UNL     1      -7.857   9.382  68.906  1.00  0.00     0.000 HD 
ENDBRANCH   3   5
ENDBRANCH   2   3
TORSDOF 2
ENDMDL
MODEL      158
REMARK 921   NORMALIZED FREE ENERGY PREDICTED BY IDOCK:   -2.41 KCAL/MOL
REMARK 922        TOTAL FREE ENERGY PREDICTED BY IDOCK:   -2.77 KCAL/MOL
REMARK 923 INTER-LIGAND FREE ENERGY PREDICTED BY IDOCK:   -2.67 KCAL/MOL
REMARK 924 INTRA-LIGAND FREE ENERGY PREDICTED BY IDOCK:   -0.10 KCAL/MOL
REMARK 927      BINDING AFFINITY PREDICTED BY RF-SCORE:    0.00 PKD
ROOT
HETATM    1  C   UNL     1     -12.881  14.298  70.924  1.00  0.00    -0.347 C  
HETATM    2  O   UNL     1     -12.309  14.012  69.646  1.00  0.00    -0.334 OA 
ENDROOT
BRANCH   2   3
HETATM    3  C   UNL     1     -11.838  12.746  69.524  1.00  0.00    -0.316 C  
HETATM    4  O   UNL     1     -12.379  11.740  69.953  1.00  0.00    -0.223 OA 
BRANCH   3   5
HETATM    5  C   UNL     1     -10.536  12.731  68.803  1.00  0.00    -0.179 A  
HETATM    6  C   UNL     1     -10.055  13.945  68.289  1.00  0.00    -0.241 A  
HETATM    7  C   UNL     1      -8.854  13.987  67.576  1.00  0.00    -0.199 A  
HETATM    8  C   UNL     1      -8.136  12.812  67.382  1.00  0.00    -0.185 A  
HETATM    9  O   UNL     1      -6.970  12.800  66.676  1.00  0.00    -0.310 OA 
HETATM   10  C   UNL     1      -8.590  11.603  67.899  1.00  0.00    -0.150 A  
HETATM   11  C   UNL     1      -9.792  11.559  68.610  1.00  0.00    -0.184 A  
HETATM   12  H   UNL     1      -6.480  11.997  66.542  1.00  0.00     0.000 HD 
ENDBRANCH   3   5
ENDBRANCH   2   3
TORSDOF 2
ENDMDL
MODEL      159
REMARK 921   NORMALIZED FREE ENERGY PREDICTED BY IDOCK:   -2.40 KCAL/MOL
REMARK 922        TOTAL FREE ENERGY PREDICTED BY IDOCK:   -2.76 KCAL/MOL
REMARK 923 INTER-LIGAND FREE ENERGY PREDICTED BY IDOCK:   -2.81 KCAL/MOL
REMARK 924 INTRA-LIGAND FREE ENERGY PREDICTED BY IDOCK:    0.05 KCAL/MOL
REMARK 927      BINDING AFFINITY PREDICTED BY RF-SCORE:    0.00 PKD
ROOT
HETATM    1  C   UNL     1      -7.317   8.978  69.349  1.00  0.00    -0.075 C  
HETATM    2  O   UNL     1      -7.895   8.861  70.651  1.00  0.00    -0.086 OA 
ENDROOT
BRANCH   2   3
HETATM    3  C   UNL     1      -9.007   8.085  70.691  1.00  0.00    -0.148 C  
HETATM    4  O   UNL     1      -9.039   6.877  70.521  1.00  0.00    -0.155 OA 
BRANCH   3   5
HETATM    5  C   UNL     1     -10.220   8.907  70.956  1.00  0.00    -0.322 A  
HETATM    6  C   UNL     1     -10.515   9.950  70.065  1.00  0.00    -0.331 A  
HETATM    7  C   UNL     1     -11.622  10.774  70.280  1.00  0.00    -0.427 A  
HETATM    8  C   UNL     1     -12.433  10.550  71.387  1.00  0.00    -0.411 A  
HETATM    9  O   UNL     1     -13.512  11.341  71.649  1.00  0.00    -0.253 OA 
HETATM   10  C   UNL     1     -12.164   9.511  72.271  1.00  0.00    -0.161 A  
HETATM   11  C   UNL     1     -11.056   8.687  72.059  1.00  0.00    -0.437 A  
HETATM   12  H   UNL     1     -14.066  11.188  72.406  1.00  0.00     0.000 HD 
ENDBRANCH   3   5
ENDBRANCH   2   3
TORSDOF 2
ENDMDL
MODEL      160
REMARK 921   NORMALIZED FREE ENERGY PREDICTED BY IDOCK:   -2.40 KCAL/MOL
REMARK 922        TOTAL FREE ENERGY PREDICTED BY IDOCK:   -2.76 KCAL/MOL
REMARK 923 INTER-LIGAND FREE ENERGY PREDICTED BY IDOCK:   -2.75 KCAL/MOL
REMARK 924 INTRA-LIGAND FREE ENERGY PREDICTED BY IDOCK:   -0.00 KCAL/MOL
REMARK 927      BINDING AFFINITY PREDICTED BY RF-SCORE:    0.00 PKD
ROOT
HETATM    1  C   UNL     1      -8.462   6.894  67.124  1.00  0.00    -0.121 C  
HETATM    2  O   UNL     1      -8.124   7.745  68.222  1.00  0.00    -0.120 OA 
ENDROOT
BRANCH   2   3
HETATM    3  C   UNL     1      -9.094   8.635  68.546  1.00  0.00    -0.138 C  
HETATM    4  O   UNL     1      -9.436   9.594  67.872  1.00  0.00    -0.132 OA 
BRANCH   3   5
HETATM    5  C   UNL     1      -9.697   8.307  69.867  1.00  0.00    -0.180 A  
HETATM    6  C   UNL     1     -10.522   7.175  69.950  1.00  0.00    -0.237 A  
HETATM    7  C   UNL     1     -11.140   6.835  71.156  1.00  0.00    -0.313 A  
HETATM    8  C   UNL     1     -10.927   7.629  72.278  1.00  0.00    -0.279 A  
HETATM    9  O   UNL     1     -11.525   7.348  73.470  1.00  0.00    -0.582 OA 
HETATM   10  C   UNL     1     -10.099   8.744  72.217  1.00  0.00    -0.308 A  
HETATM   11  C   UNL     1      -9.482   9.087  71.011  1.00  0.00    -0.342 A  
HETATM   12  H   UNL     1     -11.380   7.891  74.236  1.00  0.00     0.000 HD 
ENDBRANCH   3   5
ENDBRANCH   2   3
TORSDOF 2
ENDMDL
MODEL      161
REMARK 921   NORMALIZED FREE ENERGY PREDICTED BY IDOCK:   -2.40 KCAL/MOL
REMARK 922        TOTAL FREE ENERGY PREDICTED BY IDOCK:   -2.75 KCAL/MOL
REMARK 923 INTER-LIGAND FREE ENERGY PREDICTED BY IDOCK:   -2.64 KCAL/MOL
REMARK 924 INTRA-LIGAND FREE ENERGY PREDICTED BY IDOCK:   -0.12 KCAL/MOL
REMARK 927      BINDING AFFINITY PREDICTED BY RF-SCORE:    0.00 PKD
ROOT
HETATM    1  C   UNL     1     -11.271  14.659  68.641  1.00  0.00    -0.275 C  
HETATM    2  O   UNL     1     -11.602  13.937  67.452  1.00  0.00    -0.327 OA 
ENDROOT
BRANCH   2   3
HETATM    3  C   UNL     1     -10.523  13.495  66.758  1.00  0.00    -0.273 C  
HETATM    4  O   UNL     1      -9.982  14.081  65.835  1.00  0.00    -0.300 OA 
BRANCH   3   5
HETATM    5  C   UNL     1     -10.078  12.166  67.259  1.00  0.00    -0.214 A  
HETATM    6  C   UNL     1     -10.983  11.097  67.180  1.00  0.00    -0.350 A  
HETATM    7  C   UNL     1     -10.631   9.833  67.663  1.00  0.00    -0.333 A  
HETATM    8  C   UNL     1      -9.372   9.644  68.221  1.00  0.00    -0.133 A  
HETATM    9  O   UNL     1      -8.992   8.435  68.723  1.00  0.00    -0.140 OA 
HETATM   10  C   UNL     1      -8.457  10.689  68.291  1.00  0.00    -0.127 A  
HETATM   11  C   UNL     1      -8.807  11.953  67.811  1.00  0.00    -0.166 A  
HETATM   12  H   UNL     1      -8.132   8.306  69.105  1.00  0.00     0.000 HD 
ENDBRANCH   3   5
ENDBRANCH   2   3
TORSDOF 2
ENDMDL
MODEL      162
REMARK 921   NORMALIZED FREE ENERGY PREDICTED BY IDOCK:   -2.32 KCAL/MOL
REMARK 922        TOTAL FREE ENERGY PREDICTED BY IDOCK:   -2.67 KCAL/MOL
REMARK 923 INTER-LIGAND FREE ENERGY PREDICTED BY IDOCK:   -2.58 KCAL/MOL
REMARK 924 INTRA-LIGAND FREE ENERGY PREDICTED BY IDOCK:   -0.08 KCAL/MOL
REMARK 927      BINDING AFFINITY PREDICTED BY RF-SCORE:    0.00 PKD
ROOT
HETATM    1  C   UNL     1      -6.909   8.101  63.664  1.00  0.00    -0.076 C  
HETATM    2  O   UNL     1      -8.160   8.499  64.230  1.00  0.00    -0.146 OA 
ENDROOT
BRANCH   2   3
HETATM    3  C   UNL     1      -8.124   8.676  65.574  1.00  0.00    -0.114 C  
HETATM    4  O   UNL     1      -7.398   8.079  66.352  1.00  0.00    -0.080 OA 
BRANCH   3   5
HETATM    5  C   UNL     1      -9.115   9.701  66.002  1.00  0.00    -0.212 A  
HETATM    6  C   UNL     1      -9.980   9.379  67.059  1.00  0.00    -0.282 A  
HETATM    7  C   UNL     1     -10.951  10.290  67.483  1.00  0.00    -0.344 A  
HETATM    8  C   UNL     1     -11.052  11.523  66.847  1.00  0.00    -0.307 A  
HETATM    9  O   UNL     1     -11.997  12.434  67.212  1.00  0.00    -0.516 OA 
HETATM   10  C   UNL     1     -10.192  11.864  65.809  1.00  0.00    -0.276 A  
HETATM   11  C   UNL     1      -9.222  10.954  65.382  1.00  0.00    -0.231 A  
HETATM   12  H   UNL     1     -12.067  13.276  66.778  1.00  0.00     0.000 HD 
ENDBRANCH   3   5
ENDBRANCH   2   3
TORSDOF 2
ENDMDL
MODEL      163
REMARK 921   NORMALIZED FREE ENERGY PREDICTED BY IDOCK:   -2.31 KCAL/MOL
REMARK 922        TOTAL FREE ENERGY PREDICTED BY IDOCK:   -2.65 KCAL/MOL
REMARK 923 INTER-LIGAND FREE ENERGY PREDICTED BY IDOCK:   -2.56 KCAL/MOL
REMARK 924 INTRA-LIGAND FREE ENERGY PREDICTED BY IDOCK:   -0.09 KCAL/MOL
REMARK 927      BINDING AFFINITY PREDICTED BY RF-SCORE:    0.00 PKD
ROOT
HETATM    1  C   UNL     1      -8.288   8.933  63.518  1.00  0.00    -0.167 C  
HETATM    2  O   UNL     1      -8.481   8.210  64.736  1.00  0.00    -0.138 OA 
ENDROOT
BRANCH   2   3
HETATM    3  C   UNL     1      -8.700   9.001  65.817  1.00  0.00    -0.169 C  
HETATM    4  O   UNL     1      -8.283  10.139  65.963  1.00  0.00    -0.123 OA 
BRANCH   3   5
HETATM    5  C   UNL     1      -9.514   8.290  66.839  1.00  0.00    -0.240 A  
HETATM    6  C   UNL     1      -9.724   8.927  68.072  1.00  0.00    -0.181 A  
HETATM    7  C   UNL     1     -10.455   8.294  69.082  1.00  0.00    -0.217 A  
HETATM    8  C   UNL     1     -10.976   7.026  68.852  1.00  0.00    -0.118 A  
HETATM    9  O   UNL     1     -11.678   6.362  69.814  1.00  0.00    -0.568 OA 
HETATM   10  C   UNL     1     -10.792   6.388  67.630  1.00  0.00    -0.425 A  
HETATM   11  C   UNL     1     -10.060   7.018  66.620  1.00  0.00    -0.219 A  
HETATM   12  H   UNL     1     -12.034   5.495  69.657  1.00  0.00     0.000 HD 
ENDBRANCH   3   5
ENDBRANCH   2   3
TORSDOF 2
ENDMDL
MODEL      164
REMARK 921   NORMALIZED FREE ENERGY PREDICTED BY IDOCK:   -2.31 KCAL/MOL
REMARK 922        TOTAL FREE ENERGY PREDICTED BY IDOCK:   -2.65 KCAL/MOL
REMARK 923 INTER-LIGAND FREE ENERGY PREDICTED BY IDOCK:   -2.67 KCAL/MOL
REMARK 924 INTRA-LIGAND FREE ENERGY PREDICTED BY IDOCK:    0.02 KCAL/MOL
REMARK 927      BINDING AFFINITY PREDICTED BY RF-SCORE:    0.00 PKD
ROOT
HETATM    1  C   UNL     1     -11.795  10.966  69.487  1.00  0.00    -0.332 C  
HETATM    2  O   UNL     1     -12.062  10.932  68.083  1.00  0.00    -0.563 OA 
ENDROOT
BRANCH   2   3
HETATM    3  C   UNL     1     -10.953  11.031  67.309  1.00  0.00    -0.297 C  
HETATM    4  O   UNL     1     -10.702  11.943  66.537  1.00  0.00    -0.238 OA 
BRANCH   3   5
HETATM    5  C   UNL     1     -10.062   9.855  67.504  1.00  0.00    -0.244 A  
HETATM    6  C   UNL     1      -8.771  10.083  68.003  1.00  0.00    -0.125 A  
HETATM    7  C   UNL     1      -7.880   9.021  68.178  1.00  0.00    -0.100 A  
HETATM    8  C   UNL     1      -8.287   7.731  67.854  1.00  0.00    -0.123 A  
HETATM    9  O   UNL     1      -7.446   6.667  67.988  1.00  0.00    -0.093 OA 
HETATM   10  C   UNL     1      -9.568   7.485  67.374  1.00  0.00    -0.187 A  
HETATM   11  C   UNL     1     -10.460   8.546  67.197  1.00  0.00    -0.370 A  
HETATM   12  H   UNL     1      -7.723   5.785  67.766  1.00  0.00     0.000 HD 
ENDBRANCH   3   5
ENDBRANCH   2   3
TORSDOF 2
ENDMDL
MODEL      165
REMARK 921   NORMALIZED FREE ENERGY PREDICTED BY IDOCK:   -2.30 KCAL/MOL
REMARK 922        TOTAL FREE ENERGY PREDICTED BY IDOCK:   -2.64 KCAL/MOL
REMARK 923 INTER-LIGAND FREE ENERGY PREDICTED BY IDOCK:   -2.56 KCAL/MOL
REMARK 924 INTRA-LIGAND FREE ENERGY PREDICTED BY IDOCK:   -0.08 KCAL/MOL
REMARK 927      BINDING AFFINITY PREDICTED BY RF-SCORE:    0.00 PKD
ROOT
HETATM    1  C   UNL     1      -7.333   5.630  67.873  1.00  0.00    -0.073 C  
HETATM    2  O   UNL     1      -8.168   6.255  68.850  1.00  0.00    -0.111 OA 
ENDROOT
BRANCH   2   3
HETATM    3  C   UNL     1      -9.416   5.730  68.924  1.00  0.00    -0.124 C  
HETATM    4  O   UNL     1      -9.797   4.716  68.361  1.00  0.00    -0.149 OA 
BRANCH   3   5
HETATM    5  C   UNL     1     -10.296   6.570  69.782  1.00  0.00    -0.234 A  
HETATM    6  C   UNL     1     -10.165   7.964  69.692  1.00  0.00    -0.207 A  
HETATM    7  C   UNL     1     -10.942   8.803  70.495  1.00  0.00    -0.272 A  
HETATM    8  C   UNL     1     -11.851   8.242  71.386  1.00  0.00    -0.293 A  
HETATM    9  O   UNL     1     -12.615   9.019  72.204  1.00  0.00    -0.363 OA 
HETATM   10  C   UNL     1     -12.005   6.863  71.476  1.00  0.00    -0.386 A  
HETATM   11  C   UNL     1     -11.227   6.023  70.675  1.00  0.00    -0.347 A  
HETATM   12  H   UNL     1     -13.236   8.636  72.813  1.00  0.00     0.000 HD 
ENDBRANCH   3   5
ENDBRANCH   2   3
TORSDOF 2
ENDMDL
MODEL      166
REMARK 921   NORMALIZED FREE ENERGY PREDICTED BY IDOCK:   -2.29 KCAL/MOL
REMARK 922        TOTAL FREE ENERGY PREDICTED BY IDOCK:   -2.63 KCAL/MOL
REMARK 923 INTER-LIGAND FREE ENERGY PREDICTED BY IDOCK:   -2.75 KCAL/MOL
REMARK 924 INTRA-LIGAND FREE ENERGY PREDICTED BY IDOCK:    0.11 KCAL/MOL
REMARK 927      BINDING AFFINITY PREDICTED BY RF-SCORE:    0.00 PKD
ROOT
HETATM    1  C   UNL     1     -11.181   6.398  68.400  1.00  0.00    -0.200 C  
HETATM    2  O   UNL     1     -10.839   6.995  69.653  1.00  0.00    -0.236 OA 
ENDROOT
BRANCH   2   3
HETATM    3  C   UNL     1     -11.680   6.668  70.666  1.00  0.00    -0.394 C  
HETATM    4  O   UNL     1     -12.769   7.175  70.879  1.00  0.00    -0.314 OA 
BRANCH   3   5
HETATM    5  C   UNL     1     -11.092   5.601  71.521  1.00  0.00    -0.235 A  
HETATM    6  C   UNL     1     -11.553   5.487  72.841  1.00  0.00    -0.280 A  
HETATM    7  C   UNL     1     -11.016   4.524  73.699  1.00  0.00    -0.382 A  
HETATM    8  C   UNL     1     -10.018   3.676  73.232  1.00  0.00    -0.129 A  
HETATM    9  O   UNL     1      -9.449   2.736  74.038  1.00  0.00    -0.087 OA 
HETATM   10  C   UNL     1      -9.561   3.765  71.922  1.00  0.00    -0.220 A  
HETATM   11  C   UNL     1     -10.096   4.728  71.062  1.00  0.00    -0.269 A  
HETATM   12  H   UNL     1      -8.767   2.157  73.719  1.00  0.00     0.000 HD 
ENDBRANCH   3   5
ENDBRANCH   2   3
TORSDOF 2
ENDMDL
MODEL      167
REMARK 921   NORMALIZED FREE ENERGY PREDICTED BY IDOCK:   -2.27 KCAL/MOL
REMARK 922        TOTAL FREE ENERGY PREDICTED BY IDOCK:   -2.61 KCAL/MOL
REMARK 923 INTER-LIGAND FREE ENERGY PREDICTED BY IDOCK:   -2.88 KCAL/MOL
REMARK 924 INTRA-LIGAND FREE ENERGY PREDICTED BY IDOCK:    0.27 KCAL/MOL
REMARK 927      BINDING AFFINITY PREDICTED BY RF-SCORE:    0.00 PKD
ROOT
HETATM    1  C   UNL     1      -9.137   4.752  74.234  1.00  0.00    -0.111 C  
HETATM    2  O   UNL     1      -8.394   5.957  74.433  1.00  0.00    -0.111 OA 
ENDROOT
BRANCH   2   3
HETATM    3  C   UNL     1      -8.207   6.682  73.302  1.00  0.00    -0.115 C  
HETATM    4  O   UNL     1      -7.140   7.128  72.910  1.00  0.00    -0.072 OA 
BRANCH   3   5
HETATM    5  C   UNL     1      -9.495   6.892  72.587  1.00  0.00    -0.159 A  
HETATM    6  C   UNL     1     -10.367   7.876  73.077  1.00  0.00    -0.401 A  
HETATM    7  C   UNL     1     -11.604   8.096  72.465  1.00  0.00    -0.468 A  
HETATM    8  C   UNL     1     -11.963   7.331  71.361  1.00  0.00    -0.320 A  
HETATM    9  O   UNL     1     -13.167   7.496  70.744  1.00  0.00    -0.580 OA 
HETATM   10  C   UNL     1     -11.103   6.364  70.852  1.00  0.00    -0.354 A  
HETATM   11  C   UNL     1      -9.867   6.141  71.464  1.00  0.00    -0.190 A  
HETATM   12  H   UNL     1     -13.412   6.973  69.990  1.00  0.00     0.000 HD 
ENDBRANCH   3   5
ENDBRANCH   2   3
TORSDOF 2
ENDMDL
MODEL      168
REMARK 921   NORMALIZED FREE ENERGY PREDICTED BY IDOCK:   -2.26 KCAL/MOL
REMARK 922        TOTAL FREE ENERGY PREDICTED BY IDOCK:   -2.60 KCAL/MOL
REMARK 923 INTER-LIGAND FREE ENERGY PREDICTED BY IDOCK:   -2.52 KCAL/MOL
REMARK 924 INTRA-LIGAND FREE ENERGY PREDICTED BY IDOCK:   -0.07 KCAL/MOL
REMARK 927      BINDING AFFINITY PREDICTED BY RF-SCORE:    0.00 PKD
ROOT
HETATM    1  C   UNL     1     -10.445   5.509  69.499  1.00  0.00    -0.297 C  
HETATM    2  O   UNL     1      -9.662   6.149  68.489  1.00  0.00    -0.124 OA 
ENDROOT
BRANCH   2   3
HETATM    3  C   UNL     1     -10.376   6.539  67.403  1.00  0.00    -0.208 C  
HETATM    4  O   UNL     1     -11.104   5.823  66.735  1.00  0.00    -0.230 OA 
BRANCH   3   5
HETATM    5  C   UNL     1     -10.145   7.978  67.104  1.00  0.00    -0.334 A  
HETATM    6  C   UNL     1     -10.465   8.916  68.097  1.00  0.00    -0.254 A  
HETATM    7  C   UNL     1     -10.299  10.284  67.862  1.00  0.00    -0.234 A  
HETATM    8  C   UNL     1      -9.809  10.708  66.631  1.00  0.00    -0.201 A  
HETATM    9  O   UNL     1      -9.649  12.032  66.349  1.00  0.00    -0.217 OA 
HETATM   10  C   UNL     1      -9.471   9.791  65.642  1.00  0.00    -0.307 A  
HETATM   11  C   UNL     1      -9.639   8.423  65.875  1.00  0.00    -0.119 A  
HETATM   12  H   UNL     1      -9.315  12.322  65.508  1.00  0.00     0.000 HD 
ENDBRANCH   3   5
ENDBRANCH   2   3
TORSDOF 2
ENDMDL
MODEL      169
REMARK 921   NORMALIZED FREE ENERGY PREDICTED BY IDOCK:   -2.25 KCAL/MOL
REMARK 922        TOTAL FREE ENERGY PREDICTED BY IDOCK:   -2.59 KCAL/MOL
REMARK 923 INTER-LIGAND FREE ENERGY PREDICTED BY IDOCK:   -2.62 KCAL/MOL
REMARK 924 INTRA-LIGAND FREE ENERGY PREDICTED BY IDOCK:    0.03 KCAL/MOL
REMARK 927      BINDING AFFINITY PREDICTED BY RF-SCORE:    0.00 PKD
ROOT
HETATM    1  C   UNL     1     -11.848  11.728  68.944  1.00  0.00    -0.320 C  
HETATM    2  O   UNL     1     -12.395  13.038  68.779  1.00  0.00    -0.111 OA 
ENDROOT
BRANCH   2   3
HETATM    3  C   UNL     1     -11.858  13.734  67.746  1.00  0.00    -0.369 C  
HETATM    4  O   UNL     1     -12.363  13.878  66.645  1.00  0.00    -0.435 OA 
BRANCH   3   5
HETATM    5  C   UNL     1     -10.533  14.300  68.120  1.00  0.00    -0.246 A  
HETATM    6  C   UNL     1      -9.383  13.669  67.620  1.00  0.00    -0.215 A  
HETATM    7  C   UNL     1      -8.112  14.138  67.962  1.00  0.00    -0.149 A  
HETATM    8  C   UNL     1      -7.996  15.240  68.802  1.00  0.00    -0.158 A  
HETATM    9  O   UNL     1      -6.777  15.719  69.180  1.00  0.00    -0.133 OA 
HETATM   10  C   UNL     1      -9.125  15.886  69.293  1.00  0.00    -0.253 A  
HETATM   11  C   UNL     1     -10.397  15.418  68.954  1.00  0.00    -0.233 A  
HETATM   12  H   UNL     1      -6.697  16.472  69.754  1.00  0.00     0.000 HD 
ENDBRANCH   3   5
ENDBRANCH   2   3
TORSDOF 2
ENDMDL
MODEL      170
REMARK 921   NORMALIZED FREE ENERGY PREDICTED BY IDOCK:   -2.24 KCAL/MOL
REMARK 922        TOTAL FREE ENERGY PREDICTED BY IDOCK:   -2.57 KCAL/MOL
REMARK 923 INTER-LIGAND FREE ENERGY PREDICTED BY IDOCK:   -2.77 KCAL/MOL
REMARK 924 INTRA-LIGAND FREE ENERGY PREDICTED BY IDOCK:    0.19 KCAL/MOL
REMARK 927      BINDING AFFINITY PREDICTED BY RF-SCORE:    0.00 PKD
ROOT
HETATM    1  C   UNL     1     -10.983   7.776  69.760  1.00  0.00    -0.158 C  
HETATM    2  O   UNL     1     -10.796   8.640  70.884  1.00  0.00    -0.222 OA 
ENDROOT
BRANCH   2   3
HETATM    3  C   UNL     1     -11.597   8.350  71.940  1.00  0.00    -0.329 C  
HETATM    4  O   UNL     1     -12.538   9.025  72.325  1.00  0.00    -0.380 OA 
BRANCH   3   5
HETATM    5  C   UNL     1     -11.169   7.088  72.601  1.00  0.00    -0.310 A  
HETATM    6  C   UNL     1     -11.822   5.900  72.237  1.00  0.00    -0.266 A  
HETATM    7  C   UNL     1     -11.484   4.689  72.847  1.00  0.00    -0.166 A  
HETATM    8  C   UNL     1     -10.490   4.671  73.820  1.00  0.00    -0.238 A  
HETATM    9  O   UNL     1     -10.142   3.518  74.457  1.00  0.00    -0.141 OA 
HETATM   10  C   UNL     1      -9.823   5.836  74.181  1.00  0.00    -0.208 A  
HETATM   11  C   UNL     1     -10.160   7.048  73.574  1.00  0.00    -0.348 A  
HETATM   12  H   UNL     1      -9.463   3.505  75.122  1.00  0.00     0.000 HD 
ENDBRANCH   3   5
ENDBRANCH   2   3
TORSDOF 2
ENDMDL
MODEL      171
REMARK 921   NORMALIZED FREE ENERGY PREDICTED BY IDOCK:   -2.23 KCAL/MOL
REMARK 922        TOTAL FREE ENERGY PREDICTED BY IDOCK:   -2.56 KCAL/MOL
REMARK 923 INTER-LIGAND FREE ENERGY PREDICTED BY IDOCK:   -2.50 KCAL/MOL
REMARK 924 INTRA-LIGAND FREE ENERGY PREDICTED BY IDOCK:   -0.06 KCAL/MOL
REMARK 927      BINDING AFFINITY PREDICTED BY RF-SCORE:    0.00 PKD
ROOT
HETATM    1  C   UNL     1     -10.801   5.576  72.939  1.00  0.00    -0.269 C  
HETATM    2  O   UNL     1     -10.487   6.686  72.095  1.00  0.00    -0.201 OA 
ENDROOT
BRANCH   2   3
HETATM    3  C   UNL     1     -11.457   6.984  71.195  1.00  0.00    -0.294 C  
HETATM    4  O   UNL     1     -12.525   6.406  71.081  1.00  0.00    -0.160 OA 
BRANCH   3   5
HETATM    5  C   UNL     1     -11.045   8.121  70.326  1.00  0.00    -0.221 A  
HETATM    6  C   UNL     1     -10.143   7.858  69.284  1.00  0.00    -0.197 A  
HETATM    7  C   UNL     1      -9.696   8.891  68.456  1.00  0.00    -0.172 A  
HETATM    8  C   UNL     1     -10.156  10.185  68.673  1.00  0.00    -0.172 A  
HETATM    9  O   UNL     1      -9.733  11.228  67.904  1.00  0.00    -0.170 OA 
HETATM   10  C   UNL     1     -11.063  10.460  69.691  1.00  0.00    -0.328 A  
HETATM   11  C   UNL     1     -11.509   9.428  70.521  1.00  0.00    -0.317 A  
HETATM   12  H   UNL     1     -10.047  12.112  68.053  1.00  0.00     0.000 HD 
ENDBRANCH   3   5
ENDBRANCH   2   3
TORSDOF 2
ENDMDL
MODEL      172
REMARK 921   NORMALIZED FREE ENERGY PREDICTED BY IDOCK:   -2.19 KCAL/MOL
REMARK 922        TOTAL FREE ENERGY PREDICTED BY IDOCK:   -2.53 KCAL/MOL
REMARK 923 INTER-LIGAND FREE ENERGY PREDICTED BY IDOCK:   -2.55 KCAL/MOL
REMARK 924 INTRA-LIGAND FREE ENERGY PREDICTED BY IDOCK:    0.02 KCAL/MOL
REMARK 927      BINDING AFFINITY PREDICTED BY RF-SCORE:    0.00 PKD
ROOT
HETATM    1  C   UNL     1      -8.881  10.514  64.209  1.00  0.00    -0.197 C  
HETATM    2  O   UNL     1      -9.851  10.715  65.239  1.00  0.00    -0.235 OA 
ENDROOT
BRANCH   2   3
HETATM    3  C   UNL     1      -9.326  11.151  66.412  1.00  0.00    -0.188 C  
HETATM    4  O   UNL     1      -8.563  10.522  67.128  1.00  0.00    -0.126 OA 
BRANCH   3   5
HETATM    5  C   UNL     1      -9.821  12.515  66.741  1.00  0.00    -0.232 A  
HETATM    6  C   UNL     1      -9.809  13.482  65.724  1.00  0.00    -0.218 A  
HETATM    7  C   UNL     1     -10.233  14.788  65.982  1.00  0.00    -0.320 A  
HETATM    8  C   UNL     1     -10.669  15.122  67.259  1.00  0.00    -0.305 A  
HETATM    9  O   UNL     1     -11.072  16.388  67.564  1.00  0.00    -0.241 OA 
HETATM   10  C   UNL     1     -10.703  14.172  68.274  1.00  0.00    -0.256 A  
HETATM   11  C   UNL     1     -10.278  12.866  68.019  1.00  0.00    -0.229 A  
HETATM   12  H   UNL     1     -11.370  16.617  68.436  1.00  0.00     0.000 HD 
ENDBRANCH   3   5
ENDBRANCH   2   3
TORSDOF 2
ENDMDL
MODEL      173
REMARK 921   NORMALIZED FREE ENERGY PREDICTED BY IDOCK:   -2.16 KCAL/MOL
REMARK 922        TOTAL FREE ENERGY PREDICTED BY IDOCK:   -2.49 KCAL/MOL
REMARK 923 INTER-LIGAND FREE ENERGY PREDICTED BY IDOCK:   -2.38 KCAL/MOL
REMARK 924 INTRA-LIGAND FREE ENERGY PREDICTED BY IDOCK:   -0.11 KCAL/MOL
REMARK 927      BINDING AFFINITY PREDICTED BY RF-SCORE:    0.00 PKD
ROOT
HETATM    1  C   UNL     1      -7.465   8.927  71.113  1.00  0.00    -0.106 C  
HETATM    2  O   UNL     1      -8.634   8.146  70.858  1.00  0.00    -0.125 OA 
ENDROOT
BRANCH   2   3
HETATM    3  C   UNL     1      -9.784   8.865  70.840  1.00  0.00    -0.239 C  
HETATM    4  O   UNL     1     -10.551   9.004  71.779  1.00  0.00    -0.332 OA 
BRANCH   3   5
HETATM    5  C   UNL     1     -10.015   9.466  69.498  1.00  0.00    -0.200 A  
HETATM    6  C   UNL     1     -10.138  10.861  69.414  1.00  0.00    -0.116 A  
HETATM    7  C   UNL     1     -10.387  11.478  68.186  1.00  0.00    -0.211 A  
HETATM    8  C   UNL     1     -10.508  10.695  67.043  1.00  0.00    -0.243 A  
HETATM    9  O   UNL     1     -10.771  11.251  65.826  1.00  0.00    -0.263 OA 
HETATM   10  C   UNL     1     -10.372   9.313  67.106  1.00  0.00    -0.330 A  
HETATM   11  C   UNL     1     -10.126   8.694  68.334  1.00  0.00    -0.217 A  
HETATM   12  H   UNL     1     -10.854  10.716  65.045  1.00  0.00     0.000 HD 
ENDBRANCH   3   5
ENDBRANCH   2   3
TORSDOF 2
ENDMDL
MODEL      174
REMARK 921   NORMALIZED FREE ENERGY PREDICTED BY IDOCK:   -2.16 KCAL/MOL
REMARK 922        TOTAL FREE ENERGY PREDICTED BY IDOCK:   -2.49 KCAL/MOL
REMARK 923 INTER-LIGAND FREE ENERGY PREDICTED BY IDOCK:   -2.40 KCAL/MOL
REMARK 924 INTRA-LIGAND FREE ENERGY PREDICTED BY IDOCK:   -0.09 KCAL/MOL
REMARK 927      BINDING AFFINITY PREDICTED BY RF-SCORE:    0.00 PKD
ROOT
HETATM    1  C   UNL     1     -10.071   4.247  66.303  1.00  0.00    -0.172 C  
HETATM    2  O   UNL     1     -10.627   5.519  66.646  1.00  0.00    -0.274 OA 
ENDROOT
BRANCH   2   3
HETATM    3  C   UNL     1      -9.764   6.339  67.297  1.00  0.00    -0.129 C  
HETATM    4  O   UNL     1      -9.282   6.135  68.400  1.00  0.00    -0.113 OA 
BRANCH   3   5
HETATM    5  C   UNL     1      -9.482   7.560  66.494  1.00  0.00    -0.237 A  
HETATM    6  C   UNL     1     -10.309   8.678  66.685  1.00  0.00    -0.303 A  
HETATM    7  C   UNL     1     -10.111   9.841  65.936  1.00  0.00    -0.314 A  
HETATM    8  C   UNL     1      -9.085   9.882  64.999  1.00  0.00    -0.218 A  
HETATM    9  O   UNL     1      -8.868  10.987  64.232  1.00  0.00    -0.344 OA 
HETATM   10  C   UNL     1      -8.247   8.789  64.809  1.00  0.00    -0.163 A  
HETATM   11  C   UNL     1      -8.443   7.624  65.555  1.00  0.00    -0.132 A  
HETATM   12  H   UNL     1      -8.166  11.015  63.591  1.00  0.00     0.000 HD 
ENDBRANCH   3   5
ENDBRANCH   2   3
TORSDOF 2
ENDMDL
MODEL      175
REMARK 921   NORMALIZED FREE ENERGY PREDICTED BY IDOCK:   -2.13 KCAL/MOL
REMARK 922        TOTAL FREE ENERGY PREDICTED BY IDOCK:   -2.45 KCAL/MOL
REMARK 923 INTER-LIGAND FREE ENERGY PREDICTED BY IDOCK:   -2.37 KCAL/MOL
REMARK 924 INTRA-LIGAND FREE ENERGY PREDICTED BY IDOCK:   -0.08 KCAL/MOL
REMARK 927      BINDING AFFINITY PREDICTED BY RF-SCORE:    0.00 PKD
ROOT
HETATM    1  C   UNL     1      -6.704  10.680  66.292  1.00  0.00    -0.129 C  
HETATM    2  O   UNL     1      -7.884  11.479  66.186  1.00  0.00    -0.034 OA 
ENDROOT
BRANCH   2   3
HETATM    3  C   UNL     1      -8.190  12.160  67.319  1.00  0.00    -0.180 C  
HETATM    4  O   UNL     1      -8.225  11.691  68.445  1.00  0.00    -0.145 OA 
BRANCH   3   5
HETATM    5  C   UNL     1      -8.505  13.583  67.014  1.00  0.00    -0.137 A  
HETATM    6  C   UNL     1      -9.787  13.883  66.529  1.00  0.00    -0.296 A  
HETATM    7  C   UNL     1     -10.130  15.196  66.196  1.00  0.00    -0.314 A  
HETATM    8  C   UNL     1      -9.187  16.206  66.353  1.00  0.00    -0.300 A  
HETATM    9  O   UNL     1      -9.469  17.498  66.022  1.00  0.00    -0.475 OA 
HETATM   10  C   UNL     1      -7.918  15.928  66.847  1.00  0.00    -0.287 A  
HETATM   11  C   UNL     1      -7.573  14.616  67.179  1.00  0.00    -0.078 A  
HETATM   12  H   UNL     1      -8.825  18.188  66.128  1.00  0.00     0.000 HD 
ENDBRANCH   3   5
ENDBRANCH   2   3
TORSDOF 2
ENDMDL
MODEL      176
REMARK 921   NORMALIZED FREE ENERGY PREDICTED BY IDOCK:   -2.12 KCAL/MOL
REMARK 922        TOTAL FREE ENERGY PREDICTED BY IDOCK:   -2.44 KCAL/MOL
REMARK 923 INTER-LIGAND FREE ENERGY PREDICTED BY IDOCK:   -2.35 KCAL/MOL
REMARK 924 INTRA-LIGAND FREE ENERGY PREDICTED BY IDOCK:   -0.09 KCAL/MOL
REMARK 927      BINDING AFFINITY PREDICTED BY RF-SCORE:    0.00 PKD
ROOT
HETATM    1  C   UNL     1     -11.067   6.350  68.528  1.00  0.00    -0.300 C  
HETATM    2  O   UNL     1     -10.089   6.697  69.510  1.00  0.00    -0.170 OA 
ENDROOT
BRANCH   2   3
HETATM    3  C   UNL     1     -10.572   6.739  70.777  1.00  0.00    -0.222 C  
HETATM    4  O   UNL     1     -11.686   6.384  71.127  1.00  0.00    -0.325 OA 
BRANCH   3   5
HETATM    5  C   UNL     1      -9.560   7.301  71.713  1.00  0.00    -0.163 A  
HETATM    6  C   UNL     1      -8.304   7.648  71.193  1.00  0.00    -0.111 A  
HETATM    7  C   UNL     1      -7.305   8.152  72.029  1.00  0.00    -0.105 A  
HETATM    8  C   UNL     1      -7.567   8.309  73.386  1.00  0.00    -0.122 A  
HETATM    9  O   UNL     1      -6.617   8.777  74.244  1.00  0.00    -0.239 OA 
HETATM   10  C   UNL     1      -8.812   7.985  73.915  1.00  0.00    -0.274 A  
HETATM   11  C   UNL     1      -9.812   7.480  73.080  1.00  0.00    -0.316 A  
HETATM   12  H   UNL     1      -6.796   8.883  75.171  1.00  0.00     0.000 HD 
ENDBRANCH   3   5
ENDBRANCH   2   3
TORSDOF 2
ENDMDL
MODEL      177
REMARK 921   NORMALIZED FREE ENERGY PREDICTED BY IDOCK:   -2.11 KCAL/MOL
REMARK 922        TOTAL FREE ENERGY PREDICTED BY IDOCK:   -2.44 KCAL/MOL
REMARK 923 INTER-LIGAND FREE ENERGY PREDICTED BY IDOCK:   -2.36 KCAL/MOL
REMARK 924 INTRA-LIGAND FREE ENERGY PREDICTED BY IDOCK:   -0.08 KCAL/MOL
REMARK 927      BINDING AFFINITY PREDICTED BY RF-SCORE:    0.00 PKD
ROOT
HETATM    1  C   UNL     1      -7.765  14.895  67.206  1.00  0.00    -0.197 C  
HETATM    2  O   UNL     1      -8.315  13.691  67.745  1.00  0.00    -0.153 OA 
ENDROOT
BRANCH   2   3
HETATM    3  C   UNL     1      -9.420  13.251  67.093  1.00  0.00    -0.240 C  
HETATM    4  O   UNL     1     -10.323  13.953  66.667  1.00  0.00    -0.271 OA 
BRANCH   3   5
HETATM    5  C   UNL     1      -9.410  11.768  66.971  1.00  0.00    -0.187 A  
HETATM    6  C   UNL     1      -9.808  11.205  65.749  1.00  0.00    -0.279 A  
HETATM    7  C   UNL     1      -9.848   9.818  65.587  1.00  0.00    -0.371 A  
HETATM    8  C   UNL     1      -9.487   8.997  66.650  1.00  0.00    -0.194 A  
HETATM    9  O   UNL     1      -9.531   7.639  66.545  1.00  0.00    -0.185 OA 
HETATM   10  C   UNL     1      -9.076   9.539  67.863  1.00  0.00    -0.131 A  
HETATM   11  C   UNL     1      -9.037  10.925  68.028  1.00  0.00    -0.152 A  
HETATM   12  H   UNL     1      -9.285   7.078  67.272  1.00  0.00     0.000 HD 
ENDBRANCH   3   5
ENDBRANCH   2   3
TORSDOF 2
ENDMDL
MODEL      178
REMARK 921   NORMALIZED FREE ENERGY PREDICTED BY IDOCK:   -2.06 KCAL/MOL
REMARK 922        TOTAL FREE ENERGY PREDICTED BY IDOCK:   -2.38 KCAL/MOL
REMARK 923 INTER-LIGAND FREE ENERGY PREDICTED BY IDOCK:   -2.30 KCAL/MOL
REMARK 924 INTRA-LIGAND FREE ENERGY PREDICTED BY IDOCK:   -0.08 KCAL/MOL
REMARK 927      BINDING AFFINITY PREDICTED BY RF-SCORE:    0.00 PKD
ROOT
HETATM    1  C   UNL     1     -10.944   4.841  72.879  1.00  0.00    -0.238 C  
HETATM    2  O   UNL     1     -10.893   5.078  71.470  1.00  0.00    -0.110 OA 
ENDROOT
BRANCH   2   3
HETATM    3  C   UNL     1      -9.636   5.234  70.983  1.00  0.00    -0.171 C  
HETATM    4  O   UNL     1      -8.607   4.892  71.544  1.00  0.00    -0.118 OA 
BRANCH   3   5
HETATM    5  C   UNL     1      -9.660   5.908  69.657  1.00  0.00    -0.183 A  
HETATM    6  C   UNL     1     -10.646   5.518  68.738  1.00  0.00    -0.236 A  
HETATM    7  C   UNL     1     -10.698   6.094  67.466  1.00  0.00    -0.393 A  
HETATM    8  C   UNL     1      -9.763   7.062  67.118  1.00  0.00    -0.161 A  
HETATM    9  O   UNL     1      -9.762   7.637  65.883  1.00  0.00    -0.427 OA 
HETATM   10  C   UNL     1      -8.789   7.473  68.023  1.00  0.00    -0.127 A  
HETATM   11  C   UNL     1      -8.734   6.897  69.294  1.00  0.00    -0.135 A  
HETATM   12  H   UNL     1      -9.122   8.298  65.645  1.00  0.00     0.000 HD 
ENDBRANCH   3   5
ENDBRANCH   2   3
TORSDOF 2
ENDMDL
MODEL      179
REMARK 921   NORMALIZED FREE ENERGY PREDICTED BY IDOCK:   -2.06 KCAL/MOL
REMARK 922        TOTAL FREE ENERGY PREDICTED BY IDOCK:   -2.38 KCAL/MOL
REMARK 923 INTER-LIGAND FREE ENERGY PREDICTED BY IDOCK:   -2.30 KCAL/MOL
REMARK 924 INTRA-LIGAND FREE ENERGY PREDICTED BY IDOCK:   -0.08 KCAL/MOL
REMARK 927      BINDING AFFINITY PREDICTED BY RF-SCORE:    0.00 PKD
ROOT
HETATM    1  C   UNL     1      -6.321   9.813  70.762  1.00  0.00    -0.095 C  
HETATM    2  O   UNL     1      -6.971  10.830  69.996  1.00  0.00    -0.157 OA 
ENDROOT
BRANCH   2   3
HETATM    3  C   UNL     1      -7.097  10.531  68.679  1.00  0.00    -0.077 C  
HETATM    4  O   UNL     1      -6.254   9.980  67.990  1.00  0.00    -0.053 OA 
BRANCH   3   5
HETATM    5  C   UNL     1      -8.414  10.984  68.155  1.00  0.00    -0.135 A  
HETATM    6  C   UNL     1      -9.530  10.163  68.381  1.00  0.00    -0.147 A  
HETATM    7  C   UNL     1     -10.786  10.522  67.886  1.00  0.00    -0.333 A  
HETATM    8  C   UNL     1     -10.923  11.704  67.167  1.00  0.00    -0.280 A  
HETATM    9  O   UNL     1     -12.123  12.085  66.647  1.00  0.00    -0.615 OA 
HETATM   10  C   UNL     1      -9.831  12.537  66.947  1.00  0.00    -0.229 A  
HETATM   11  C   UNL     1      -8.573  12.179  67.440  1.00  0.00    -0.175 A  
HETATM   12  H   UNL     1     -12.217  12.892  66.155  1.00  0.00     0.000 HD 
ENDBRANCH   3   5
ENDBRANCH   2   3
TORSDOF 2
ENDMDL
MODEL      180
REMARK 921   NORMALIZED FREE ENERGY PREDICTED BY IDOCK:   -2.05 KCAL/MOL
REMARK 922        TOTAL FREE ENERGY PREDICTED BY IDOCK:   -2.37 KCAL/MOL
REMARK 923 INTER-LIGAND FREE ENERGY PREDICTED BY IDOCK:   -2.28 KCAL/MOL
REMARK 924 INTRA-LIGAND FREE ENERGY PREDICTED BY IDOCK:   -0.09 KCAL/MOL
REMARK 927      BINDING AFFINITY PREDICTED BY RF-SCORE:    0.00 PKD
ROOT
HETATM    1  C   UNL     1      -9.564   8.006  68.300  1.00  0.00    -0.146 C  
HETATM    2  O   UNL     1      -9.170   9.356  68.556  1.00  0.00    -0.131 OA 
ENDROOT
BRANCH   2   3
HETATM    3  C   UNL     1      -8.412   9.904  67.575  1.00  0.00    -0.115 C  
HETATM    4  O   UNL     1      -7.332   9.485  67.190  1.00  0.00    -0.087 OA 
BRANCH   3   5
HETATM    5  C   UNL     1      -9.061  11.123  67.019  1.00  0.00    -0.158 A  
HETATM    6  C   UNL     1      -9.917  10.968  65.918  1.00  0.00    -0.289 A  
HETATM    7  C   UNL     1     -10.531  12.080  65.335  1.00  0.00    -0.313 A  
HETATM    8  C   UNL     1     -10.287  13.345  65.859  1.00  0.00    -0.290 A  
HETATM    9  O   UNL     1     -10.847  14.460  65.311  1.00  0.00    -0.319 OA 
HETATM   10  C   UNL     1      -9.455  13.514  66.960  1.00  0.00    -0.251 A  
HETATM   11  C   UNL     1      -8.839  12.404  67.543  1.00  0.00    -0.181 A  
HETATM   12  H   UNL     1     -10.680  15.325  65.669  1.00  0.00     0.000 HD 
ENDBRANCH   3   5
ENDBRANCH   2   3
TORSDOF 2
ENDMDL
MODEL      181
REMARK 921   NORMALIZED FREE ENERGY PREDICTED BY IDOCK:   -2.05 KCAL/MOL
REMARK 922        TOTAL FREE ENERGY PREDICTED BY IDOCK:   -2.36 KCAL/MOL
REMARK 923 INTER-LIGAND FREE ENERGY PREDICTED BY IDOCK:   -2.27 KCAL/MOL
REMARK 924 INTRA-LIGAND FREE ENERGY PREDICTED BY IDOCK:   -0.09 KCAL/MOL
REMARK 927      BINDING AFFINITY PREDICTED BY RF-SCORE:    0.00 PKD
ROOT
HETATM    1  C   UNL     1      -6.165  11.020  68.612  1.00  0.00    -0.043 C  
HETATM    2  O   UNL     1      -7.302  10.424  67.984  1.00  0.00    -0.084 OA 
ENDROOT
BRANCH   2   3
HETATM    3  C   UNL     1      -8.490  10.925  68.406  1.00  0.00    -0.141 C  
HETATM    4  O   UNL     1      -8.821  12.099  68.372  1.00  0.00    -0.181 OA 
BRANCH   3   5
HETATM    5  C   UNL     1      -9.359   9.845  68.949  1.00  0.00    -0.170 A  
HETATM    6  C   UNL     1      -9.511   8.677  68.186  1.00  0.00    -0.152 A  
HETATM    7  C   UNL     1     -10.339   7.643  68.630  1.00  0.00    -0.220 A  
HETATM    8  C   UNL     1     -11.011   7.780  69.839  1.00  0.00    -0.190 A  
HETATM    9  O   UNL     1     -11.845   6.806  70.302  1.00  0.00    -0.514 OA 
HETATM   10  C   UNL     1     -10.859   8.923  70.615  1.00  0.00    -0.286 A  
HETATM   11  C   UNL     1     -10.033   9.960  70.172  1.00  0.00    -0.291 A  
HETATM   12  H   UNL     1     -12.305   6.900  71.128  1.00  0.00     0.000 HD 
ENDBRANCH   3   5
ENDBRANCH   2   3
TORSDOF 2
ENDMDL
MODEL      182
REMARK 921   NORMALIZED FREE ENERGY PREDICTED BY IDOCK:   -2.04 KCAL/MOL
REMARK 922        TOTAL FREE ENERGY PREDICTED BY IDOCK:   -2.35 KCAL/MOL
REMARK 923 INTER-LIGAND FREE ENERGY PREDICTED BY IDOCK:   -2.27 KCAL/MOL
REMARK 924 INTRA-LIGAND FREE ENERGY PREDICTED BY IDOCK:   -0.08 KCAL/MOL
REMARK 927      BINDING AFFINITY PREDICTED BY RF-SCORE:    0.00 PKD
ROOT
HETATM    1  C   UNL     1      -9.859   4.651  66.093  1.00  0.00    -0.226 C  
HETATM    2  O   UNL     1      -9.428   5.604  67.067  1.00  0.00    -0.120 OA 
ENDROOT
BRANCH   2   3
HETATM    3  C   UNL     1     -10.417   6.416  67.517  1.00  0.00    -0.233 C  
HETATM    4  O   UNL     1     -11.483   6.617  66.958  1.00  0.00    -0.233 OA 
BRANCH   3   5
HETATM    5  C   UNL     1     -10.028   7.066  68.798  1.00  0.00    -0.160 A  
HETATM    6  C   UNL     1      -8.727   7.579  68.907  1.00  0.00    -0.132 A  
HETATM    7  C   UNL     1      -8.296   8.173  70.097  1.00  0.00    -0.125 A  
HETATM    8  C   UNL     1      -9.171   8.253  71.174  1.00  0.00    -0.162 A  
HETATM    9  O   UNL     1      -8.789   8.804  72.360  1.00  0.00    -0.391 OA 
HETATM   10  C   UNL     1     -10.469   7.764  71.077  1.00  0.00    -0.216 A  
HETATM   11  C   UNL     1     -10.902   7.169  69.889  1.00  0.00    -0.276 A  
HETATM   12  H   UNL     1      -9.387   8.858  73.097  1.00  0.00     0.000 HD 
ENDBRANCH   3   5
ENDBRANCH   2   3
TORSDOF 2
ENDMDL
MODEL      183
REMARK 921   NORMALIZED FREE ENERGY PREDICTED BY IDOCK:   -2.00 KCAL/MOL
REMARK 922        TOTAL FREE ENERGY PREDICTED BY IDOCK:   -2.32 KCAL/MOL
REMARK 923 INTER-LIGAND FREE ENERGY PREDICTED BY IDOCK:   -2.23 KCAL/MOL
REMARK 924 INTRA-LIGAND FREE ENERGY PREDICTED BY IDOCK:   -0.09 KCAL/MOL
REMARK 927      BINDING AFFINITY PREDICTED BY RF-SCORE:    0.00 PKD
ROOT
HETATM    1  C   UNL     1      -9.004  14.975  67.999  1.00  0.00    -0.173 C  
HETATM    2  O   UNL     1      -8.762  13.733  67.335  1.00  0.00    -0.185 OA 
ENDROOT
BRANCH   2   3
HETATM    3  C   UNL     1      -8.096  12.824  68.092  1.00  0.00    -0.158 C  
HETATM    4  O   UNL     1      -6.975  12.966  68.552  1.00  0.00    -0.085 OA 
BRANCH   3   5
HETATM    5  C   UNL     1      -8.910  11.593  68.282  1.00  0.00    -0.167 A  
HETATM    6  C   UNL     1      -8.305  10.495  68.913  1.00  0.00    -0.147 A  
HETATM    7  C   UNL     1      -9.010   9.302  69.091  1.00  0.00    -0.144 A  
HETATM    8  C   UNL     1     -10.322   9.213  68.639  1.00  0.00    -0.209 A  
HETATM    9  O   UNL     1     -11.042   8.064  68.772  1.00  0.00    -0.415 OA 
HETATM   10  C   UNL     1     -10.942  10.297  68.027  1.00  0.00    -0.345 A  
HETATM   11  C   UNL     1     -10.238  11.490  67.846  1.00  0.00    -0.200 A  
HETATM   12  H   UNL     1     -11.939   8.002  68.463  1.00  0.00     0.000 HD 
ENDBRANCH   3   5
ENDBRANCH   2   3
TORSDOF 2
ENDMDL
MODEL      184
REMARK 921   NORMALIZED FREE ENERGY PREDICTED BY IDOCK:   -1.98 KCAL/MOL
REMARK 922        TOTAL FREE ENERGY PREDICTED BY IDOCK:   -2.29 KCAL/MOL
REMARK 923 INTER-LIGAND FREE ENERGY PREDICTED BY IDOCK:   -2.18 KCAL/MOL
REMARK 924 INTRA-LIGAND FREE ENERGY PREDICTED BY IDOCK:   -0.11 KCAL/MOL
REMARK 927      BINDING AFFINITY PREDICTED BY RF-SCORE:    0.00 PKD
ROOT
HETATM    1  C   UNL     1      -8.750   4.069  67.844  1.00  0.00    -0.101 C  
HETATM    2  O   UNL     1      -8.159   5.154  68.563  1.00  0.00    -0.086 OA 
ENDROOT
BRANCH   2   3
HETATM    3  C   UNL     1      -7.827   6.214  67.784  1.00  0.00    -0.105 C  
HETATM    4  O   UNL     1      -6.799   6.328  67.136  1.00  0.00    -0.062 OA 
BRANCH   3   5
HETATM    5  C   UNL     1      -8.886   7.260  67.830  1.00  0.00    -0.128 A  
HETATM    6  C   UNL     1      -9.094   8.036  66.680  1.00  0.00    -0.199 A  
HETATM    7  C   UNL     1     -10.052   9.053  66.675  1.00  0.00    -0.355 A  
HETATM    8  C   UNL     1     -10.802   9.288  67.822  1.00  0.00    -0.126 A  
HETATM    9  O   UNL     1     -11.733  10.282  67.871  1.00  0.00    -0.691 OA 
HETATM   10  C   UNL     1     -10.620   8.517  68.965  1.00  0.00    -0.173 A  
HETATM   11  C   UNL     1      -9.661   7.501  68.973  1.00  0.00    -0.153 A  
HETATM   12  H   UNL     1     -12.245  10.442  68.655  1.00  0.00     0.000 HD 
ENDBRANCH   3   5
ENDBRANCH   2   3
TORSDOF 2
ENDMDL
MODEL      185
REMARK 921   NORMALIZED FREE ENERGY PREDICTED BY IDOCK:   -1.96 KCAL/MOL
REMARK 922        TOTAL FREE ENERGY PREDICTED BY IDOCK:   -2.27 KCAL/MOL
REMARK 923 INTER-LIGAND FREE ENERGY PREDICTED BY IDOCK:   -2.17 KCAL/MOL
REMARK 924 INTRA-LIGAND FREE ENERGY PREDICTED BY IDOCK:   -0.10 KCAL/MOL
REMARK 927      BINDING AFFINITY PREDICTED BY RF-SCORE:    0.00 PKD
ROOT
HETATM    1  C   UNL     1      -8.808  12.050  67.257  1.00  0.00    -0.183 C  
HETATM    2  O   UNL     1      -9.118  11.159  68.330  1.00  0.00    -0.149 OA 
ENDROOT
BRANCH   2   3
HETATM    3  C   UNL     1     -10.208  10.383  68.103  1.00  0.00    -0.161 C  
HETATM    4  O   UNL     1     -11.362  10.775  68.046  1.00  0.00    -0.302 OA 
BRANCH   3   5
HETATM    5  C   UNL     1      -9.820   8.954  67.948  1.00  0.00    -0.205 A  
HETATM    6  C   UNL     1     -10.659   8.123  67.191  1.00  0.00    -0.355 A  
HETATM    7  C   UNL     1     -10.362   6.766  67.037  1.00  0.00    -0.338 A  
HETATM    8  C   UNL     1      -9.223   6.246  67.640  1.00  0.00    -0.111 A  
HETATM    9  O   UNL     1      -8.904   4.925  67.535  1.00  0.00    -0.104 OA 
HETATM   10  C   UNL     1      -8.371   7.059  68.380  1.00  0.00    -0.124 A  
HETATM   11  C   UNL     1      -8.667   8.416  68.537  1.00  0.00    -0.136 A  
HETATM   12  H   UNL     1      -8.125   4.569  67.948  1.00  0.00     0.000 HD 
ENDBRANCH   3   5
ENDBRANCH   2   3
TORSDOF 2
ENDMDL
MODEL      186
REMARK 921   NORMALIZED FREE ENERGY PREDICTED BY IDOCK:   -1.94 KCAL/MOL
REMARK 922        TOTAL FREE ENERGY PREDICTED BY IDOCK:   -2.24 KCAL/MOL
REMARK 923 INTER-LIGAND FREE ENERGY PREDICTED BY IDOCK:   -2.15 KCAL/MOL
REMARK 924 INTRA-LIGAND FREE ENERGY PREDICTED BY IDOCK:   -0.09 KCAL/MOL
REMARK 927      BINDING AFFINITY PREDICTED BY RF-SCORE:    0.00 PKD
ROOT
HETATM    1  C   UNL     1      -8.625   4.978  73.178  1.00  0.00    -0.110 C  
HETATM    2  O   UNL     1      -9.139   6.219  72.688  1.00  0.00    -0.137 OA 
ENDROOT
BRANCH   2   3
HETATM    3  C   UNL     1     -10.269   6.093  71.948  1.00  0.00    -0.200 C  
HETATM    4  O   UNL     1     -11.283   5.507  72.292  1.00  0.00    -0.257 OA 
BRANCH   3   5
HETATM    5  C   UNL     1     -10.115   6.755  70.625  1.00  0.00    -0.204 A  
HETATM    6  C   UNL     1      -9.452   7.992  70.582  1.00  0.00    -0.167 A  
HETATM    7  C   UNL     1      -9.305   8.675  69.372  1.00  0.00    -0.150 A  
HETATM    8  C   UNL     1      -9.820   8.116  68.207  1.00  0.00    -0.171 A  
HETATM    9  O   UNL     1      -9.718   8.756  67.008  1.00  0.00    -0.167 OA 
HETATM   10  C   UNL     1     -10.464   6.884  68.230  1.00  0.00    -0.240 A  
HETATM   11  C   UNL     1     -10.614   6.200  69.439  1.00  0.00    -0.349 A  
HETATM   12  H   UNL     1     -10.071   8.374  66.212  1.00  0.00     0.000 HD 
ENDBRANCH   3   5
ENDBRANCH   2   3
TORSDOF 2
ENDMDL
MODEL      187
REMARK 921   NORMALIZED FREE ENERGY PREDICTED BY IDOCK:   -1.93 KCAL/MOL
REMARK 922        TOTAL FREE ENERGY PREDICTED BY IDOCK:   -2.23 KCAL/MOL
REMARK 923 INTER-LIGAND FREE ENERGY PREDICTED BY IDOCK:   -2.11 KCAL/MOL
REMARK 924 INTRA-LIGAND FREE ENERGY PREDICTED BY IDOCK:   -0.12 KCAL/MOL
REMARK 927      BINDING AFFINITY PREDICTED BY RF-SCORE:    0.00 PKD
ROOT
HETATM    1  C   UNL     1      -8.608   8.880  71.006  1.00  0.00    -0.206 C  
HETATM    2  O   UNL     1      -8.320   7.612  70.411  1.00  0.00    -0.120 OA 
ENDROOT
BRANCH   2   3
HETATM    3  C   UNL     1      -9.316   7.135  69.623  1.00  0.00    -0.149 C  
HETATM    4  O   UNL     1     -10.167   6.329  69.961  1.00  0.00    -0.175 OA 
BRANCH   3   5
HETATM    5  C   UNL     1      -9.233   7.713  68.254  1.00  0.00    -0.139 A  
HETATM    6  C   UNL     1     -10.373   8.349  67.739  1.00  0.00    -0.297 A  
HETATM    7  C   UNL     1     -10.365   8.883  66.447  1.00  0.00    -0.189 A  
HETATM    8  C   UNL     1      -9.212   8.780  65.676  1.00  0.00    -0.180 A  
HETATM    9  O   UNL     1      -9.164   9.267  64.404  1.00  0.00    -0.431 OA 
HETATM   10  C   UNL     1      -8.069   8.168  66.177  1.00  0.00    -0.109 A  
HETATM   11  C   UNL     1      -8.076   7.632  67.467  1.00  0.00    -0.120 A  
HETATM   12  H   UNL     1      -8.376   9.197  63.876  1.00  0.00     0.000 HD 
ENDBRANCH   3   5
ENDBRANCH   2   3
TORSDOF 2
ENDMDL
MODEL      188
REMARK 921   NORMALIZED FREE ENERGY PREDICTED BY IDOCK:   -1.92 KCAL/MOL
REMARK 922        TOTAL FREE ENERGY PREDICTED BY IDOCK:   -2.22 KCAL/MOL
REMARK 923 INTER-LIGAND FREE ENERGY PREDICTED BY IDOCK:   -2.13 KCAL/MOL
REMARK 924 INTRA-LIGAND FREE ENERGY PREDICTED BY IDOCK:   -0.09 KCAL/MOL
REMARK 927      BINDING AFFINITY PREDICTED BY RF-SCORE:    0.00 PKD
ROOT
HETATM    1  C   UNL     1      -7.591   8.424  64.172  1.00  0.00    -0.125 C  
HETATM    2  O   UNL     1      -8.363   9.247  65.050  1.00  0.00    -0.136 OA 
ENDROOT
BRANCH   2   3
HETATM    3  C   UNL     1      -7.905   9.271  66.327  1.00  0.00    -0.103 C  
HETATM    4  O   UNL     1      -6.761   9.033  66.678  1.00  0.00    -0.073 OA 
BRANCH   3   5
HETATM    5  C   UNL     1      -8.999   9.613  67.276  1.00  0.00    -0.146 A  
HETATM    6  C   UNL     1     -10.133  10.264  66.767  1.00  0.00    -0.272 A  
HETATM    7  C   UNL     1     -11.177  10.638  67.617  1.00  0.00    -0.361 A  
HETATM    8  C   UNL     1     -11.084  10.356  68.975  1.00  0.00    -0.248 A  
HETATM    9  O   UNL     1     -12.069  10.719  69.845  1.00  0.00    -0.309 OA 
HETATM   10  C   UNL     1      -9.975   9.696  69.493  1.00  0.00    -0.223 A  
HETATM   11  C   UNL     1      -8.929   9.324  68.646  1.00  0.00    -0.132 A  
HETATM   12  H   UNL     1     -12.005  10.527  70.773  1.00  0.00     0.000 HD 
ENDBRANCH   3   5
ENDBRANCH   2   3
TORSDOF 2
ENDMDL
MODEL      189
REMARK 921   NORMALIZED FREE ENERGY PREDICTED BY IDOCK:   -1.91 KCAL/MOL
REMARK 922        TOTAL FREE ENERGY PREDICTED BY IDOCK:   -2.21 KCAL/MOL
REMARK 923 INTER-LIGAND FREE ENERGY PREDICTED BY IDOCK:   -2.12 KCAL/MOL
REMARK 924 INTRA-LIGAND FREE ENERGY PREDICTED BY IDOCK:   -0.09 KCAL/MOL
REMARK 927      BINDING AFFINITY PREDICTED BY RF-SCORE:    0.00 PKD
ROOT
HETATM    1  C   UNL     1      -5.611   5.125  69.060  1.00  0.00    -0.011 C  
HETATM    2  O   UNL     1      -6.875   4.473  68.911  1.00  0.00    -0.048 OA 
ENDROOT
BRANCH   2   3
HETATM    3  C   UNL     1      -6.948   3.654  67.832  1.00  0.00    -0.051 C  
HETATM    4  O   UNL     1      -6.097   2.849  67.490  1.00  0.00    -0.026 OA 
BRANCH   3   5
HETATM    5  C   UNL     1      -8.215   3.873  67.083  1.00  0.00    -0.099 A  
HETATM    6  C   UNL     1      -8.370   3.227  65.848  1.00  0.00    -0.103 A  
HETATM    7  C   UNL     1      -9.526   3.420  65.086  1.00  0.00    -0.152 A  
HETATM    8  C   UNL     1     -10.525   4.259  65.566  1.00  0.00    -0.150 A  
HETATM    9  O   UNL     1     -11.660   4.494  64.848  1.00  0.00    -1.064 OA 
HETATM   10  C   UNL     1     -10.395   4.895  66.795  1.00  0.00    -0.264 A  
HETATM   11  C   UNL     1      -9.239   4.705  67.558  1.00  0.00    -0.148 A  
HETATM   12  H   UNL     1     -12.343   5.068  65.176  1.00  0.00     0.000 HD 
ENDBRANCH   3   5
ENDBRANCH   2   3
TORSDOF 2
ENDMDL
MODEL      190
REMARK 921   NORMALIZED FREE ENERGY PREDICTED BY IDOCK:   -1.83 KCAL/MOL
REMARK 922        TOTAL FREE ENERGY PREDICTED BY IDOCK:   -2.12 KCAL/MOL
REMARK 923 INTER-LIGAND FREE ENERGY PREDICTED BY IDOCK:   -2.02 KCAL/MOL
REMARK 924 INTRA-LIGAND FREE ENERGY PREDICTED BY IDOCK:   -0.09 KCAL/MOL
REMARK 927      BINDING AFFINITY PREDICTED BY RF-SCORE:    0.00 PKD
ROOT
HETATM    1  C   UNL     1      -9.285   7.331  66.343  1.00  0.00    -0.159 C  
HETATM    2  O   UNL     1     -10.201   8.295  66.867  1.00  0.00    -0.268 OA 
ENDROOT
BRANCH   2   3
HETATM    3  C   UNL     1      -9.787   8.878  68.020  1.00  0.00    -0.168 C  
HETATM    4  O   UNL     1      -9.669   8.318  69.098  1.00  0.00    -0.166 OA 
BRANCH   3   5
HETATM    5  C   UNL     1      -9.505  10.324  67.814  1.00  0.00    -0.163 A  
HETATM    6  C   UNL     1      -8.185  10.768  67.986  1.00  0.00    -0.115 A  
HETATM    7  C   UNL     1      -7.865  12.120  67.835  1.00  0.00    -0.147 A  
HETATM    8  C   UNL     1      -8.870  13.024  67.510  1.00  0.00    -0.195 A  
HETATM    9  O   UNL     1      -8.610  14.355  67.373  1.00  0.00    -0.178 OA 
HETATM   10  C   UNL     1     -10.180  12.599  67.320  1.00  0.00    -0.227 A  
HETATM   11  C   UNL     1     -10.502  11.248  67.472  1.00  0.00    -0.234 A  
HETATM   12  H   UNL     1      -9.297  14.974  67.152  1.00  0.00     0.000 HD 
ENDBRANCH   3   5
ENDBRANCH   2   3
TORSDOF 2
ENDMDL
MODEL      191
REMARK 921   NORMALIZED FREE ENERGY PREDICTED BY IDOCK:   -1.77 KCAL/MOL
REMARK 922        TOTAL FREE ENERGY PREDICTED BY IDOCK:   -2.05 KCAL/MOL
REMARK 923 INTER-LIGAND FREE ENERGY PREDICTED BY IDOCK:   -1.95 KCAL/MOL
REMARK 924 INTRA-LIGAND FREE ENERGY PREDICTED BY IDOCK:   -0.10 KCAL/MOL
REMARK 927      BINDING AFFINITY PREDICTED BY RF-SCORE:    0.00 PKD
ROOT
HETATM    1  C   UNL     1      -7.248  12.905  68.194  1.00  0.00    -0.114 C  
HETATM    2  O   UNL     1      -8.433  12.274  68.684  1.00  0.00    -0.108 OA 
ENDROOT
BRANCH   2   3
HETATM    3  C   UNL     1      -8.336  10.924  68.786  1.00  0.00    -0.151 C  
HETATM    4  O   UNL     1      -8.098  10.303  69.809  1.00  0.00    -0.166 OA 
BRANCH   3   5
HETATM    5  C   UNL     1      -8.541  10.276  67.463  1.00  0.00    -0.118 A  
HETATM    6  C   UNL     1      -7.621   9.295  67.062  1.00  0.00    -0.091 A  
HETATM    7  C   UNL     1      -7.745   8.673  65.816  1.00  0.00    -0.090 A  
HETATM    8  C   UNL     1      -8.792   9.035  64.976  1.00  0.00    -0.170 A  
HETATM    9  O   UNL     1      -8.941   8.472  63.744  1.00  0.00    -0.368 OA 
HETATM   10  C   UNL     1      -9.722   9.993  65.365  1.00  0.00    -0.368 A  
HETATM   11  C   UNL     1      -9.599  10.617  66.609  1.00  0.00    -0.209 A  
HETATM   12  H   UNL     1      -9.657   8.719  63.169  1.00  0.00     0.000 HD 
ENDBRANCH   3   5
ENDBRANCH   2   3
TORSDOF 2
ENDMDL
MODEL      192
REMARK 921   NORMALIZED FREE ENERGY PREDICTED BY IDOCK:   -1.72 KCAL/MOL
REMARK 922        TOTAL FREE ENERGY PREDICTED BY IDOCK:   -2.00 KCAL/MOL
REMARK 923 INTER-LIGAND FREE ENERGY PREDICTED BY IDOCK:   -1.90 KCAL/MOL
REMARK 924 INTRA-LIGAND FREE ENERGY PREDICTED BY IDOCK:   -0.10 KCAL/MOL
REMARK 927      BINDING AFFINITY PREDICTED BY RF-SCORE:    0.00 PKD
ROOT
HETATM    1  C   UNL     1      -5.961   8.765  68.011  1.00  0.00    -0.046 C  
HETATM    2  O   UNL     1      -6.749   7.613  68.319  1.00  0.00    -0.058 OA 
ENDROOT
BRANCH   2   3
HETATM    3  C   UNL     1      -8.061   7.742  67.998  1.00  0.00    -0.123 C  
HETATM    4  O   UNL     1      -8.498   8.257  66.982  1.00  0.00    -0.120 OA 
BRANCH   3   5
HETATM    5  C   UNL     1      -8.928   7.182  69.071  1.00  0.00    -0.134 A  
HETATM    6  C   UNL     1     -10.310   7.126  68.837  1.00  0.00    -0.202 A  
HETATM    7  C   UNL     1     -11.176   6.639  69.820  1.00  0.00    -0.413 A  
HETATM    8  C   UNL     1     -10.654   6.208  71.034  1.00  0.00    -0.246 A  
HETATM    9  O   UNL     1     -11.462   5.745  72.030  1.00  0.00    -0.266 OA 
HETATM   10  C   UNL     1      -9.286   6.241  71.276  1.00  0.00    -0.157 A  
HETATM   11  C   UNL     1      -8.418   6.729  70.295  1.00  0.00    -0.135 A  
HETATM   12  H   UNL     1     -11.106   5.450  72.860  1.00  0.00     0.000 HD 
ENDBRANCH   3   5
ENDBRANCH   2   3
TORSDOF 2
ENDMDL
MODEL      193
REMARK 921   NORMALIZED FREE ENERGY PREDICTED BY IDOCK:   -1.72 KCAL/MOL
REMARK 922        TOTAL FREE ENERGY PREDICTED BY IDOCK:   -1.99 KCAL/MOL
REMARK 923 INTER-LIGAND FREE ENERGY PREDICTED BY IDOCK:   -1.88 KCAL/MOL
REMARK 924 INTRA-LIGAND FREE ENERGY PREDICTED BY IDOCK:   -0.12 KCAL/MOL
REMARK 927      BINDING AFFINITY PREDICTED BY RF-SCORE:    0.00 PKD
ROOT
HETATM    1  C   UNL     1      -5.845   8.896  71.173  1.00  0.00    -0.046 C  
HETATM    2  O   UNL     1      -6.619   7.721  71.423  1.00  0.00    -0.041 OA 
ENDROOT
BRANCH   2   3
HETATM    3  C   UNL     1      -7.894   7.973  71.809  1.00  0.00    -0.110 C  
HETATM    4  O   UNL     1      -8.288   8.046  72.962  1.00  0.00    -0.152 OA 
BRANCH   3   5
HETATM    5  C   UNL     1      -8.784   8.137  70.628  1.00  0.00    -0.136 A  
HETATM    6  C   UNL     1      -8.806   7.109  69.673  1.00  0.00    -0.141 A  
HETATM    7  C   UNL     1      -9.599   7.222  68.528  1.00  0.00    -0.140 A  
HETATM    8  C   UNL     1     -10.370   8.364  68.343  1.00  0.00    -0.200 A  
HETATM    9  O   UNL     1     -11.143   8.527  67.232  1.00  0.00    -0.401 OA 
HETATM   10  C   UNL     1     -10.373   9.385  69.287  1.00  0.00    -0.217 A  
HETATM   11  C   UNL     1      -9.579   9.275  70.432  1.00  0.00    -0.292 A  
HETATM   12  H   UNL     1     -11.670   9.308  67.105  1.00  0.00     0.000 HD 
ENDBRANCH   3   5
ENDBRANCH   2   3
TORSDOF 2
ENDMDL
MODEL      194
REMARK 921   NORMALIZED FREE ENERGY PREDICTED BY IDOCK:   -1.57 KCAL/MOL
REMARK 922        TOTAL FREE ENERGY PREDICTED BY IDOCK:   -1.83 KCAL/MOL
REMARK 923 INTER-LIGAND FREE ENERGY PREDICTED BY IDOCK:   -1.75 KCAL/MOL
REMARK 924 INTRA-LIGAND FREE ENERGY PREDICTED BY IDOCK:   -0.09 KCAL/MOL
REMARK 927      BINDING AFFINITY PREDICTED BY RF-SCORE:    0.00 PKD
ROOT
HETATM    1  C   UNL     1      -8.018   2.686  66.468  1.00  0.00    -0.081 C  
HETATM    2  O   UNL     1      -7.575   3.850  67.168  1.00  0.00    -0.078 OA 
ENDROOT
BRANCH   2   3
HETATM    3  C   UNL     1      -7.309   4.909  66.362  1.00  0.00    -0.082 C  
HETATM    4  O   UNL     1      -6.427   4.960  65.521  1.00  0.00    -0.035 OA 
BRANCH   3   5
HETATM    5  C   UNL     1      -8.234   6.039  66.648  1.00  0.00    -0.106 A  
HETATM    6  C   UNL     1      -9.016   5.972  67.812  1.00  0.00    -0.111 A  
HETATM    7  C   UNL     1      -9.924   6.989  68.116  1.00  0.00    -0.169 A  
HETATM    8  C   UNL     1     -10.047   8.073  67.253  1.00  0.00    -0.240 A  
HETATM    9  O   UNL     1     -10.934   9.078  67.498  1.00  0.00    -0.469 OA 
HETATM   10  C   UNL     1      -9.269   8.163  66.105  1.00  0.00    -0.230 A  
HETATM   11  C   UNL     1      -8.361   7.147  65.798  1.00  0.00    -0.144 A  
HETATM   12  H   UNL     1     -11.018   9.818  66.908  1.00  0.00     0.000 HD 
ENDBRANCH   3   5
ENDBRANCH   2   3
TORSDOF 2
ENDMDL
MODEL      195
REMARK 921   NORMALIZED FREE ENERGY PREDICTED BY IDOCK:   -1.56 KCAL/MOL
REMARK 922        TOTAL FREE ENERGY PREDICTED BY IDOCK:   -1.82 KCAL/MOL
REMARK 923 INTER-LIGAND FREE ENERGY PREDICTED BY IDOCK:   -1.75 KCAL/MOL
REMARK 924 INTRA-LIGAND FREE ENERGY PREDICTED BY IDOCK:   -0.07 KCAL/MOL
REMARK 927      BINDING AFFINITY PREDICTED BY RF-SCORE:    0.00 PKD
ROOT
HETATM    1  C   UNL     1     -11.267  10.463  70.378  1.00  0.00    -0.321 C  
HETATM    2  O   UNL     1     -10.810  10.324  69.031  1.00  0.00    -0.207 OA 
ENDROOT
BRANCH   2   3
HETATM    3  C   UNL     1      -9.479  10.085  68.923  1.00  0.00    -0.172 C  
HETATM    4  O   UNL     1      -8.621  10.922  68.696  1.00  0.00    -0.140 OA 
BRANCH   3   5
HETATM    5  C   UNL     1      -9.183   8.637  69.100  1.00  0.00    -0.152 A  
HETATM    6  C   UNL     1     -10.022   7.711  68.462  1.00  0.00    -0.190 A  
HETATM    7  C   UNL     1      -9.812   6.338  68.617  1.00  0.00    -0.152 A  
HETATM    8  C   UNL     1      -8.759   5.896  69.411  1.00  0.00    -0.116 A  
HETATM    9  O   UNL     1      -8.528   4.568  69.608  1.00  0.00    -0.069 OA 
HETATM   10  C   UNL     1      -7.908   6.800  70.037  1.00  0.00    -0.111 A  
HETATM   11  C   UNL     1      -8.118   8.173  69.885  1.00  0.00    -0.115 A  
HETATM   12  H   UNL     1      -7.809   4.266  70.151  1.00  0.00     0.000 HD 
ENDBRANCH   3   5
ENDBRANCH   2   3
TORSDOF 2
ENDMDL
MODEL      196
REMARK 921   NORMALIZED FREE ENERGY PREDICTED BY IDOCK:   -1.53 KCAL/MOL
REMARK 922        TOTAL FREE ENERGY PREDICTED BY IDOCK:   -1.79 KCAL/MOL
REMARK 923 INTER-LIGAND FREE ENERGY PREDICTED BY IDOCK:   -2.57 KCAL/MOL
REMARK 924 INTRA-LIGAND FREE ENERGY PREDICTED BY IDOCK:    0.78 KCAL/MOL
REMARK 927      BINDING AFFINITY PREDICTED BY RF-SCORE:    0.00 PKD
ROOT
HETATM    1  C   UNL     1      -9.941   8.236  68.463  1.00  0.00    -0.190 C  
HETATM    2  O   UNL     1     -10.846   9.142  69.096  1.00  0.00    -0.203 OA 
ENDROOT
BRANCH   2   3
HETATM    3  C   UNL     1     -11.008  10.314  68.431  1.00  0.00    -0.260 C  
HETATM    4  O   UNL     1     -11.822  11.181  68.704  1.00  0.00    -0.403 OA 
BRANCH   3   5
HETATM    5  C   UNL     1     -10.062  10.409  67.286  1.00  0.00    -0.244 A  
HETATM    6  C   UNL     1     -10.531  10.049  66.014  1.00  0.00    -0.145 A  
HETATM    7  C   UNL     1      -9.680  10.089  64.906  1.00  0.00    -0.377 A  
HETATM    8  C   UNL     1      -8.360  10.492  65.076  1.00  0.00    -0.140 A  
HETATM    9  O   UNL     1      -7.488  10.527  64.030  1.00  0.00    -0.325 OA 
HETATM   10  C   UNL     1      -7.884  10.868  66.327  1.00  0.00    -0.158 A  
HETATM   11  C   UNL     1      -8.733  10.827  67.436  1.00  0.00    -0.126 A  
HETATM   12  H   UNL     1      -6.586  10.802  64.146  1.00  0.00     0.000 HD 
ENDBRANCH   3   5
ENDBRANCH   2   3
TORSDOF 2
ENDMDL
MODEL      197
REMARK 921   NORMALIZED FREE ENERGY PREDICTED BY IDOCK:   -1.49 KCAL/MOL
REMARK 922        TOTAL FREE ENERGY PREDICTED BY IDOCK:   -1.74 KCAL/MOL
REMARK 923 INTER-LIGAND FREE ENERGY PREDICTED BY IDOCK:   -2.05 KCAL/MOL
REMARK 924 INTRA-LIGAND FREE ENERGY PREDICTED BY IDOCK:    0.30 KCAL/MOL
REMARK 927      BINDING AFFINITY PREDICTED BY RF-SCORE:    0.00 PKD
ROOT
HETATM    1  C   UNL     1     -10.708  10.595  69.391  1.00  0.00    -0.244 C  
HETATM    2  O   UNL     1     -10.577  10.138  68.043  1.00  0.00    -0.198 OA 
ENDROOT
BRANCH   2   3
HETATM    3  C   UNL     1      -9.486  10.626  67.399  1.00  0.00    -0.154 C  
HETATM    4  O   UNL     1      -8.701   9.971  66.733  1.00  0.00    -0.128 OA 
BRANCH   3   5
HETATM    5  C   UNL     1      -9.347  12.090  67.625  1.00  0.00    -0.185 A  
HETATM    6  C   UNL     1      -8.163  12.554  68.219  1.00  0.00    -0.168 A  
HETATM    7  C   UNL     1      -7.989  13.915  68.483  1.00  0.00    -0.137 A  
HETATM    8  C   UNL     1      -9.001  14.809  68.150  1.00  0.00    -0.179 A  
HETATM    9  O   UNL     1      -8.885  16.142  68.408  1.00  0.00    -0.177 OA 
HETATM   10  C   UNL     1     -10.173  14.367  67.546  1.00  0.00    -0.240 A  
HETATM   11  C   UNL     1     -10.350  13.007  67.283  1.00  0.00    -0.238 A  
HETATM   12  H   UNL     1      -9.576  16.753  68.181  1.00  0.00     0.000 HD 
ENDBRANCH   3   5
ENDBRANCH   2   3
TORSDOF 2
ENDMDL
MODEL      198
REMARK 921   NORMALIZED FREE ENERGY PREDICTED BY IDOCK:   -1.49 KCAL/MOL
REMARK 922        TOTAL FREE ENERGY PREDICTED BY IDOCK:   -1.74 KCAL/MOL
REMARK 923 INTER-LIGAND FREE ENERGY PREDICTED BY IDOCK:   -1.75 KCAL/MOL
REMARK 924 INTRA-LIGAND FREE ENERGY PREDICTED BY IDOCK:    0.00 KCAL/MOL
REMARK 927      BINDING AFFINITY PREDICTED BY RF-SCORE:    0.00 PKD
ROOT
HETATM    1  C   UNL     1      -6.092  10.018  69.033  1.00  0.00    -0.040 C  
HETATM    2  O   UNL     1      -6.818  10.438  67.875  1.00  0.00    -0.069 OA 
ENDROOT
BRANCH   2   3
HETATM    3  C   UNL     1      -8.165  10.345  68.006  1.00  0.00    -0.114 C  
HETATM    4  O   UNL     1      -8.890  11.185  68.514  1.00  0.00    -0.151 OA 
BRANCH   3   5
HETATM    5  C   UNL     1      -8.664   9.055  67.458  1.00  0.00    -0.121 A  
HETATM    6  C   UNL     1      -7.845   8.364  66.552  1.00  0.00    -0.092 A  
HETATM    7  C   UNL     1      -8.274   7.163  65.981  1.00  0.00    -0.129 A  
HETATM    8  C   UNL     1      -9.523   6.655  66.322  1.00  0.00    -0.074 A  
HETATM    9  O   UNL     1      -9.993   5.499  65.775  1.00  0.00    -0.366 OA 
HETATM   10  C   UNL     1     -10.340   7.319  67.230  1.00  0.00    -0.349 A  
HETATM   11  C   UNL     1      -9.914   8.521  67.801  1.00  0.00    -0.241 A  
HETATM   12  H   UNL     1     -10.847   5.152  66.007  1.00  0.00     0.000 HD 
ENDBRANCH   3   5
ENDBRANCH   2   3
TORSDOF 2
ENDMDL
MODEL      199
REMARK 921   NORMALIZED FREE ENERGY PREDICTED BY IDOCK:   -1.49 KCAL/MOL
REMARK 922        TOTAL FREE ENERGY PREDICTED BY IDOCK:   -1.74 KCAL/MOL
REMARK 923 INTER-LIGAND FREE ENERGY PREDICTED BY IDOCK:   -1.65 KCAL/MOL
REMARK 924 INTRA-LIGAND FREE ENERGY PREDICTED BY IDOCK:   -0.09 KCAL/MOL
REMARK 927      BINDING AFFINITY PREDICTED BY RF-SCORE:    0.00 PKD
ROOT
HETATM    1  C   UNL     1     -10.317   4.942  71.811  1.00  0.00    -0.179 C  
HETATM    2  O   UNL     1     -10.320   5.290  70.425  1.00  0.00    -0.258 OA 
ENDROOT
BRANCH   2   3
HETATM    3  C   UNL     1      -9.090   5.561  69.923  1.00  0.00    -0.134 C  
HETATM    4  O   UNL     1      -8.160   6.052  70.543  1.00  0.00    -0.108 OA 
BRANCH   3   5
HETATM    5  C   UNL     1      -9.012   5.198  68.482  1.00  0.00    -0.120 A  
HETATM    6  C   UNL     1      -9.600   3.990  68.075  1.00  0.00    -0.195 A  
HETATM    7  C   UNL     1      -9.532   3.582  66.741  1.00  0.00    -0.190 A  
HETATM    8  C   UNL     1      -8.875   4.386  65.815  1.00  0.00    -0.122 A  
HETATM    9  O   UNL     1      -8.765   4.019  64.507  1.00  0.00    -0.116 OA 
HETATM   10  C   UNL     1      -8.301   5.593  66.198  1.00  0.00    -0.120 A  
HETATM   11  C   UNL     1      -8.367   6.003  67.532  1.00  0.00    -0.108 A  
HETATM   12  H   UNL     1      -8.316   4.568  63.875  1.00  0.00     0.000 HD 
ENDBRANCH   3   5
ENDBRANCH   2   3
TORSDOF 2
ENDMDL
MODEL      200
REMARK 921   NORMALIZED FREE ENERGY PREDICTED BY IDOCK:   -1.48 KCAL/MOL
REMARK 922        TOTAL FREE ENERGY PREDICTED BY IDOCK:   -1.73 KCAL/MOL
REMARK 923 INTER-LIGAND FREE ENERGY PREDICTED BY IDOCK:   -2.14 KCAL/MOL
REMARK 924 INTRA-LIGAND FREE ENERGY PREDICTED BY IDOCK:    0.42 KCAL/MOL
REMARK 927      BINDING AFFINITY PREDICTED BY RF-SCORE:    0.00 PKD
ROOT
HETATM    1  C   UNL     1      -8.213   7.825  68.784  1.00  0.00    -0.128 C  
HETATM    2  O   UNL     1      -7.891   8.452  70.028  1.00  0.00    -0.097 OA 
ENDROOT
BRANCH   2   3
HETATM    3  C   UNL     1      -7.709   9.793  69.937  1.00  0.00    -0.157 C  
HETATM    4  O   UNL     1      -6.880  10.442  70.553  1.00  0.00    -0.289 OA 
BRANCH   3   5
HETATM    5  C   UNL     1      -8.681  10.398  68.986  1.00  0.00    -0.170 A  
HETATM    6  C   UNL     1      -8.202  10.819  67.736  1.00  0.00    -0.112 A  
HETATM    7  C   UNL     1      -9.062  11.422  66.814  1.00  0.00    -0.181 A  
HETATM    8  C   UNL     1     -10.400  11.600  67.146  1.00  0.00    -0.217 A  
HETATM    9  O   UNL     1     -11.271  12.202  66.288  1.00  0.00    -0.302 OA 
HETATM   10  C   UNL     1     -10.894  11.174  68.374  1.00  0.00    -0.248 A  
HETATM   11  C   UNL     1     -10.036  10.572  69.298  1.00  0.00    -0.244 A  
HETATM   12  H   UNL     1     -12.185  12.324  66.515  1.00  0.00     0.000 HD 
ENDBRANCH   3   5
ENDBRANCH   2   3
TORSDOF 2
ENDMDL
MODEL      201
REMARK 921   NORMALIZED FREE ENERGY PREDICTED BY IDOCK:   -1.44 KCAL/MOL
REMARK 922        TOTAL FREE ENERGY PREDICTED BY IDOCK:   -1.68 KCAL/MOL
REMARK 923 INTER-LIGAND FREE ENERGY PREDICTED BY IDOCK:   -1.78 KCAL/MOL
REMARK 924 INTRA-LIGAND FREE ENERGY PREDICTED BY IDOCK:    0.10 KCAL/MOL
REMARK 927      BINDING AFFINITY PREDICTED BY RF-SCORE:    0.00 PKD
ROOT
HETATM    1  C   UNL     1      -8.439   8.840  66.238  1.00  0.00    -0.124 C  
HETATM    2  O   UNL     1      -7.772   8.290  67.376  1.00  0.00    -0.099 OA 
ENDROOT
BRANCH   2   3
HETATM    3  C   UNL     1      -8.611   7.769  68.307  1.00  0.00    -0.124 C  
HETATM    4  O   UNL     1      -9.106   8.380  69.240  1.00  0.00    -0.149 OA 
BRANCH   3   5
HETATM    5  C   UNL     1      -8.848   6.321  68.058  1.00  0.00    -0.112 A  
HETATM    6  C   UNL     1      -9.870   5.965  67.165  1.00  0.00    -0.162 A  
HETATM    7  C   UNL     1     -10.157   4.621  66.916  1.00  0.00    -0.227 A  
HETATM    8  C   UNL     1      -9.419   3.635  67.562  1.00  0.00    -0.191 A  
HETATM    9  O   UNL     1      -9.677   2.311  67.367  1.00  0.00    -0.405 OA 
HETATM   10  C   UNL     1      -8.392   3.971  68.438  1.00  0.00    -0.100 A  
HETATM   11  C   UNL     1      -8.104   5.314  68.689  1.00  0.00    -0.090 A  
HETATM   12  H   UNL     1      -9.173   1.638  67.809  1.00  0.00     0.000 HD 
ENDBRANCH   3   5
ENDBRANCH   2   3
TORSDOF 2
ENDMDL
MODEL      202
REMARK 921   NORMALIZED FREE ENERGY PREDICTED BY IDOCK:   -1.41 KCAL/MOL
REMARK 922        TOTAL FREE ENERGY PREDICTED BY IDOCK:   -1.66 KCAL/MOL
REMARK 923 INTER-LIGAND FREE ENERGY PREDICTED BY IDOCK:   -1.56 KCAL/MOL
REMARK 924 INTRA-LIGAND FREE ENERGY PREDICTED BY IDOCK:   -0.09 KCAL/MOL
REMARK 927      BINDING AFFINITY PREDICTED BY RF-SCORE:    0.00 PKD
ROOT
HETATM    1  C   UNL     1     -10.170   9.608  67.338  1.00  0.00    -0.227 C  
HETATM    2  O   UNL     1      -8.855   9.321  67.818  1.00  0.00    -0.121 OA 
ENDROOT
BRANCH   2   3
HETATM    3  C   UNL     1      -8.821   8.886  69.103  1.00  0.00    -0.136 C  
HETATM    4  O   UNL     1      -8.810   9.597  70.095  1.00  0.00    -0.213 OA 
BRANCH   3   5
HETATM    5  C   UNL     1      -8.778   7.400  69.160  1.00  0.00    -0.136 A  
HETATM    6  C   UNL     1      -8.062   6.724  68.160  1.00  0.00    -0.115 A  
HETATM    7  C   UNL     1      -8.012   5.328  68.145  1.00  0.00    -0.091 A  
HETATM    8  C   UNL     1      -8.679   4.611  69.133  1.00  0.00    -0.087 A  
HETATM    9  O   UNL     1      -8.676   3.249  69.146  1.00  0.00    -0.070 OA 
HETATM   10  C   UNL     1      -9.380   5.266  70.140  1.00  0.00    -0.202 A  
HETATM   11  C   UNL     1      -9.432   6.662  70.156  1.00  0.00    -0.162 A  
HETATM   12  H   UNL     1      -9.133   2.759  69.821  1.00  0.00     0.000 HD 
ENDBRANCH   3   5
ENDBRANCH   2   3
TORSDOF 2
ENDMDL
MODEL      203
REMARK 921   NORMALIZED FREE ENERGY PREDICTED BY IDOCK:   -1.38 KCAL/MOL
REMARK 922        TOTAL FREE ENERGY PREDICTED BY IDOCK:   -1.62 KCAL/MOL
REMARK 923 INTER-LIGAND FREE ENERGY PREDICTED BY IDOCK:   -1.72 KCAL/MOL
REMARK 924 INTRA-LIGAND FREE ENERGY PREDICTED BY IDOCK:    0.10 KCAL/MOL
REMARK 927      BINDING AFFINITY PREDICTED BY RF-SCORE:    0.00 PKD
ROOT
HETATM    1  C   UNL     1     -11.111   7.802  69.446  1.00  0.00     0.055 C  
HETATM    2  O   UNL     1     -10.543   8.397  70.615  1.00  0.00    -0.201 OA 
ENDROOT
BRANCH   2   3
HETATM    3  C   UNL     1     -10.549   7.588  71.704  1.00  0.00    -0.205 C  
HETATM    4  O   UNL     1     -11.163   7.792  72.739  1.00  0.00    -0.354 OA 
BRANCH   3   5
HETATM    5  C   UNL     1      -9.681   6.399  71.488  1.00  0.00    -0.182 A  
HETATM    6  C   UNL     1     -10.304   5.158  71.282  1.00  0.00    -0.276 A  
HETATM    7  C   UNL     1      -9.539   4.002  71.105  1.00  0.00    -0.242 A  
HETATM    8  C   UNL     1      -8.152   4.092  71.131  1.00  0.00    -0.072 A  
HETATM    9  O   UNL     1      -7.366   2.989  70.983  1.00  0.00    -0.033 OA 
HETATM   10  C   UNL     1      -7.519   5.316  71.317  1.00  0.00    -0.091 A  
HETATM   11  C   UNL     1      -8.281   6.473  71.496  1.00  0.00    -0.116 A  
HETATM   12  H   UNL     1      -6.417   3.050  71.001  1.00  0.00     0.000 HD 
ENDBRANCH   3   5
ENDBRANCH   2   3
TORSDOF 2
ENDMDL
MODEL      204
REMARK 921   NORMALIZED FREE ENERGY PREDICTED BY IDOCK:   -1.31 KCAL/MOL
REMARK 922        TOTAL FREE ENERGY PREDICTED BY IDOCK:   -1.54 KCAL/MOL
REMARK 923 INTER-LIGAND FREE ENERGY PREDICTED BY IDOCK:   -1.42 KCAL/MOL
REMARK 924 INTRA-LIGAND FREE ENERGY PREDICTED BY IDOCK:   -0.12 KCAL/MOL
REMARK 927      BINDING AFFINITY PREDICTED BY RF-SCORE:    0.00 PKD
ROOT
HETATM    1  C   UNL     1     -10.570   8.268  66.967  1.00  0.00    -0.258 C  
HETATM    2  O   UNL     1      -9.223   8.596  66.617  1.00  0.00    -0.158 OA 
ENDROOT
BRANCH   2   3
HETATM    3  C   UNL     1      -8.339   7.588  66.827  1.00  0.00    -0.126 C  
HETATM    4  O   UNL     1      -7.647   7.444  67.822  1.00  0.00    -0.102 OA 
BRANCH   3   5
HETATM    5  C   UNL     1      -8.299   6.665  65.660  1.00  0.00    -0.144 A  
HETATM    6  C   UNL     1      -8.543   5.303  65.891  1.00  0.00    -0.128 A  
HETATM    7  C   UNL     1      -8.488   4.385  64.839  1.00  0.00    -0.126 A  
HETATM    8  C   UNL     1      -8.190   4.835  63.557  1.00  0.00    -0.107 A  
HETATM    9  O   UNL     1      -8.105   3.974  62.504  1.00  0.00    -0.071 OA 
HETATM   10  C   UNL     1      -7.962   6.184  63.309  1.00  0.00    -0.102 A  
HETATM   11  C   UNL     1      -8.015   7.103  64.360  1.00  0.00    -0.101 A  
HETATM   12  H   UNL     1      -7.901   4.281  61.628  1.00  0.00     0.000 HD 
ENDBRANCH   3   5
ENDBRANCH   2   3
TORSDOF 2
ENDMDL
MODEL      205
REMARK 921   NORMALIZED FREE ENERGY PREDICTED BY IDOCK:   -1.24 KCAL/MOL
REMARK 922        TOTAL FREE ENERGY PREDICTED BY IDOCK:   -1.46 KCAL/MOL
REMARK 923 INTER-LIGAND FREE ENERGY PREDICTED BY IDOCK:   -1.38 KCAL/MOL
REMARK 924 INTRA-LIGAND FREE ENERGY PREDICTED BY IDOCK:   -0.09 KCAL/MOL
REMARK 927      BINDING AFFINITY PREDICTED BY RF-SCORE:    0.00 PKD
ROOT
HETATM    1  C   UNL     1      -7.787   6.842  69.187  1.00  0.00    -0.111 C  
HETATM    2  O   UNL     1      -8.713   5.934  68.586  1.00  0.00    -0.110 OA 
ENDROOT
BRANCH   2   3
HETATM    3  C   UNL     1      -8.159   4.758  68.199  1.00  0.00    -0.085 C  
HETATM    4  O   UNL     1      -7.401   4.074  68.868  1.00  0.00    -0.054 OA 
BRANCH   3   5
HETATM    5  C   UNL     1      -8.582   4.399  66.818  1.00  0.00    -0.107 A  
HETATM    6  C   UNL     1      -9.924   4.612  66.466  1.00  0.00    -0.265 A  
HETATM    7  C   UNL     1     -10.386   4.266  65.193  1.00  0.00    -0.215 A  
HETATM    8  C   UNL     1      -9.501   3.709  64.276  1.00  0.00    -0.152 A  
HETATM    9  O   UNL     1      -9.911   3.336  63.030  1.00  0.00    -0.097 OA 
HETATM   10  C   UNL     1      -8.165   3.507  64.604  1.00  0.00    -0.090 A  
HETATM   11  C   UNL     1      -7.702   3.851  65.876  1.00  0.00    -0.089 A  
HETATM   12  H   UNL     1      -9.307   2.956  62.404  1.00  0.00     0.000 HD 
ENDBRANCH   3   5
ENDBRANCH   2   3
TORSDOF 2
ENDMDL
MODEL      206
REMARK 921   NORMALIZED FREE ENERGY PREDICTED BY IDOCK:   -1.24 KCAL/MOL
REMARK 922        TOTAL FREE ENERGY PREDICTED BY IDOCK:   -1.46 KCAL/MOL
REMARK 923 INTER-LIGAND FREE ENERGY PREDICTED BY IDOCK:   -1.54 KCAL/MOL
REMARK 924 INTRA-LIGAND FREE ENERGY PREDICTED BY IDOCK:    0.08 KCAL/MOL
REMARK 927      BINDING AFFINITY PREDICTED BY RF-SCORE:    0.00 PKD
ROOT
HETATM    1  C   UNL     1      -7.222  10.319  64.019  1.00  0.00    -0.057 C  
HETATM    2  O   UNL     1      -7.846   9.386  64.905  1.00  0.00    -0.109 OA 
ENDROOT
BRANCH   2   3
HETATM    3  C   UNL     1      -8.709   9.955  65.783  1.00  0.00    -0.141 C  
HETATM    4  O   UNL     1      -9.836  10.345  65.523  1.00  0.00    -0.232 OA 
BRANCH   3   5
HETATM    5  C   UNL     1      -8.096  10.065  67.135  1.00  0.00    -0.117 A  
HETATM    6  C   UNL     1      -8.808   9.541  68.225  1.00  0.00    -0.124 A  
HETATM    7  C   UNL     1      -8.296   9.644  69.521  1.00  0.00    -0.154 A  
HETATM    8  C   UNL     1      -7.071  10.270  69.722  1.00  0.00    -0.140 A  
HETATM    9  O   UNL     1      -6.542  10.412  70.970  1.00  0.00    -0.337 OA 
HETATM   10  C   UNL     1      -6.345  10.780  68.651  1.00  0.00    -0.050 A  
HETATM   11  C   UNL     1      -6.856  10.680  67.354  1.00  0.00    -0.077 A  
HETATM   12  H   UNL     1      -5.705  10.840  71.107  1.00  0.00     0.000 HD 
ENDBRANCH   3   5
ENDBRANCH   2   3
TORSDOF 2
ENDMDL
MODEL      207
REMARK 921   NORMALIZED FREE ENERGY PREDICTED BY IDOCK:   -1.12 KCAL/MOL
REMARK 922        TOTAL FREE ENERGY PREDICTED BY IDOCK:   -1.33 KCAL/MOL
REMARK 923 INTER-LIGAND FREE ENERGY PREDICTED BY IDOCK:   -1.24 KCAL/MOL
REMARK 924 INTRA-LIGAND FREE ENERGY PREDICTED BY IDOCK:   -0.08 KCAL/MOL
REMARK 927      BINDING AFFINITY PREDICTED BY RF-SCORE:    0.00 PKD
ROOT
HETATM    1  C   UNL     1      -9.978   4.692  65.745  1.00  0.00    -0.230 C  
HETATM    2  O   UNL     1      -8.990   5.397  66.499  1.00  0.00    -0.116 OA 
ENDROOT
BRANCH   2   3
HETATM    3  C   UNL     1      -9.505   6.311  67.360  1.00  0.00    -0.115 C  
HETATM    4  O   UNL     1     -10.618   6.806  67.292  1.00  0.00    -0.238 OA 
BRANCH   3   5
HETATM    5  C   UNL     1      -8.516   6.662  68.416  1.00  0.00    -0.125 A  
HETATM    6  C   UNL     1      -8.553   7.961  68.946  1.00  0.00    -0.132 A  
HETATM    7  C   UNL     1      -7.629   8.357  69.917  1.00  0.00    -0.076 A  
HETATM    8  C   UNL     1      -6.671   7.449  70.356  1.00  0.00    -0.047 A  
HETATM    9  O   UNL     1      -5.738   7.797  71.286  1.00  0.00    -0.034 OA 
HETATM   10  C   UNL     1      -6.631   6.154  69.853  1.00  0.00    -0.044 A  
HETATM   11  C   UNL     1      -7.552   5.756  68.880  1.00  0.00    -0.089 A  
HETATM   12  H   UNL     1      -5.083   7.177  71.585  1.00  0.00     0.000 HD 
ENDBRANCH   3   5
ENDBRANCH   2   3
TORSDOF 2
ENDMDL
MODEL      208
REMARK 921   NORMALIZED FREE ENERGY PREDICTED BY IDOCK:   -1.11 KCAL/MOL
REMARK 922        TOTAL FREE ENERGY PREDICTED BY IDOCK:   -1.32 KCAL/MOL
REMARK 923 INTER-LIGAND FREE ENERGY PREDICTED BY IDOCK:   -1.22 KCAL/MOL
REMARK 924 INTRA-LIGAND FREE ENERGY PREDICTED BY IDOCK:   -0.10 KCAL/MOL
REMARK 927      BINDING AFFINITY PREDICTED BY RF-SCORE:    0.00 PKD
ROOT
HETATM    1  C   UNL     1     -11.147  11.146  65.923  1.00  0.00    -0.035 C  
HETATM    2  O   UNL     1      -9.787  11.103  66.362  1.00  0.00    -0.200 OA 
ENDROOT
BRANCH   2   3
HETATM    3  C   UNL     1      -9.635  11.259  67.701  1.00  0.00    -0.171 C  
HETATM    4  O   UNL     1     -10.295  12.001  68.411  1.00  0.00    -0.204 OA 
BRANCH   3   5
HETATM    5  C   UNL     1      -8.526  10.409  68.213  1.00  0.00    -0.123 A  
HETATM    6  C   UNL     1      -7.748   9.711  67.277  1.00  0.00    -0.091 A  
HETATM    7  C   UNL     1      -6.713   8.873  67.701  1.00  0.00    -0.066 A  
HETATM    8  C   UNL     1      -6.459   8.738  69.061  1.00  0.00    -0.048 A  
HETATM    9  O   UNL     1      -5.474   7.917  69.522  1.00  0.00    -0.023 OA 
HETATM   10  C   UNL     1      -7.210   9.436  70.000  1.00  0.00    -0.092 A  
HETATM   11  C   UNL     1      -8.247  10.272  69.579  1.00  0.00    -0.165 A  
HETATM   12  H   UNL     1      -5.300   7.824  70.452  1.00  0.00     0.000 HD 
ENDBRANCH   3   5
ENDBRANCH   2   3
TORSDOF 2
ENDMDL
MODEL      209
REMARK 921   NORMALIZED FREE ENERGY PREDICTED BY IDOCK:   -1.10 KCAL/MOL
REMARK 922        TOTAL FREE ENERGY PREDICTED BY IDOCK:   -1.30 KCAL/MOL
REMARK 923 INTER-LIGAND FREE ENERGY PREDICTED BY IDOCK:   -1.23 KCAL/MOL
REMARK 924 INTRA-LIGAND FREE ENERGY PREDICTED BY IDOCK:   -0.07 KCAL/MOL
REMARK 927      BINDING AFFINITY PREDICTED BY RF-SCORE:    0.00 PKD
ROOT
HETATM    1  C   UNL     1      -5.845   8.762  68.029  1.00  0.00    -0.046 C  
HETATM    2  O   UNL     1      -6.232   7.497  68.570  1.00  0.00    -0.030 OA 
ENDROOT
BRANCH   2   3
HETATM    3  C   UNL     1      -7.574   7.321  68.654  1.00  0.00    -0.114 C  
HETATM    4  O   UNL     1      -8.316   7.872  69.451  1.00  0.00    -0.128 OA 
BRANCH   3   5
HETATM    5  C   UNL     1      -8.046   6.336  67.643  1.00  0.00    -0.117 A  
HETATM    6  C   UNL     1      -9.427   6.113  67.536  1.00  0.00    -0.114 A  
HETATM    7  C   UNL     1      -9.925   5.177  66.626  1.00  0.00    -0.235 A  
HETATM    8  C   UNL     1      -9.038   4.467  65.824  1.00  0.00    -0.135 A  
HETATM    9  O   UNL     1      -9.477   3.529  64.938  1.00  0.00    -0.146 OA 
HETATM   10  C   UNL     1      -7.668   4.687  65.907  1.00  0.00    -0.094 A  
HETATM   11  C   UNL     1      -7.167   5.621  66.817  1.00  0.00    -0.074 A  
HETATM   12  H   UNL     1      -8.871   3.043  64.391  1.00  0.00     0.000 HD 
ENDBRANCH   3   5
ENDBRANCH   2   3
TORSDOF 2
ENDMDL
MODEL      210
REMARK 921   NORMALIZED FREE ENERGY PREDICTED BY IDOCK:   -1.08 KCAL/MOL
REMARK 922        TOTAL FREE ENERGY PREDICTED BY IDOCK:   -1.28 KCAL/MOL
REMARK 923 INTER-LIGAND FREE ENERGY PREDICTED BY IDOCK:   -1.43 KCAL/MOL
REMARK 924 INTRA-LIGAND FREE ENERGY PREDICTED BY IDOCK:    0.14 KCAL/MOL
REMARK 927      BINDING AFFINITY PREDICTED BY RF-SCORE:    0.00 PKD
ROOT
HETATM    1  C   UNL     1      -7.306   9.301  66.986  1.00  0.00    -0.091 C  
HETATM    2  O   UNL     1      -6.657   8.300  67.774  1.00  0.00    -0.059 OA 
ENDROOT
BRANCH   2   3
HETATM    3  C   UNL     1      -7.449   7.243  68.082  1.00  0.00    -0.102 C  
HETATM    4  O   UNL     1      -7.234   6.080  67.780  1.00  0.00    -0.072 OA 
BRANCH   3   5
HETATM    5  C   UNL     1      -8.653   7.684  68.837  1.00  0.00    -0.129 A  
HETATM    6  C   UNL     1      -8.497   8.007  70.194  1.00  0.00    -0.128 A  
HETATM    7  C   UNL     1      -9.598   8.398  70.961  1.00  0.00    -0.212 A  
HETATM    8  C   UNL     1     -10.853   8.465  70.366  1.00  0.00    -0.235 A  
HETATM    9  O   UNL     1     -11.959   8.820  71.079  1.00  0.00    -0.292 OA 
HETATM   10  C   UNL     1     -11.022   8.163  69.019  1.00  0.00     0.093 A  
HETATM   11  C   UNL     1      -9.923   7.771  68.251  1.00  0.00    -0.201 A  
HETATM   12  H   UNL     1     -12.817   8.866  70.673  1.00  0.00     0.000 HD 
ENDBRANCH   3   5
ENDBRANCH   2   3
TORSDOF 2
ENDMDL
MODEL      211
REMARK 921   NORMALIZED FREE ENERGY PREDICTED BY IDOCK:   -1.06 KCAL/MOL
REMARK 922        TOTAL FREE ENERGY PREDICTED BY IDOCK:   -1.26 KCAL/MOL
REMARK 923 INTER-LIGAND FREE ENERGY PREDICTED BY IDOCK:   -1.36 KCAL/MOL
REMARK 924 INTRA-LIGAND FREE ENERGY PREDICTED BY IDOCK:    0.11 KCAL/MOL
REMARK 927      BINDING AFFINITY PREDICTED BY RF-SCORE:    0.00 PKD
ROOT
HETATM    1  C   UNL     1      -5.315  10.955  68.900  1.00  0.00    -0.040 C  
HETATM    2  O   UNL     1      -6.165  11.516  67.897  1.00  0.00    -0.049 OA 
ENDROOT
BRANCH   2   3
HETATM    3  C   UNL     1      -7.448  11.697  68.302  1.00  0.00    -0.097 C  
HETATM    4  O   UNL     1      -7.888  12.695  68.849  1.00  0.00    -0.013 OA 
BRANCH   3   5
HETATM    5  C   UNL     1      -8.272  10.493  68.008  1.00  0.00    -0.112 A  
HETATM    6  C   UNL     1      -9.595  10.473  68.475  1.00  0.00    -0.164 A  
HETATM    7  C   UNL     1     -10.407   9.357  68.256  1.00  0.00    -0.251 A  
HETATM    8  C   UNL     1      -9.891   8.264  67.568  1.00  0.00    -0.177 A  
HETATM    9  O   UNL     1     -10.638   7.145  67.349  1.00  0.00    -0.243 OA 
HETATM   10  C   UNL     1      -8.587   8.274  67.085  1.00  0.00    -0.123 A  
HETATM   11  C   UNL     1      -7.773   9.389  67.304  1.00  0.00    -0.091 A  
HETATM   12  H   UNL     1     -10.285   6.398  66.880  1.00  0.00     0.000 HD 
ENDBRANCH   3   5
ENDBRANCH   2   3
TORSDOF 2
ENDMDL
MODEL      212
REMARK 921   NORMALIZED FREE ENERGY PREDICTED BY IDOCK:   -0.42 KCAL/MOL
REMARK 922        TOTAL FREE ENERGY PREDICTED BY IDOCK:   -0.55 KCAL/MOL
REMARK 923 INTER-LIGAND FREE ENERGY PREDICTED BY IDOCK:   -0.69 KCAL/MOL
REMARK 924 INTRA-LIGAND FREE ENERGY PREDICTED BY IDOCK:    0.14 KCAL/MOL
REMARK 927      BINDING AFFINITY PREDICTED BY RF-SCORE:    0.00 PKD
ROOT
HETATM    1  C   UNL     1     -11.118  13.787  70.275  1.00  0.00     0.398 C  
HETATM    2  O   UNL     1     -11.230  12.918  69.145  1.00  0.00    -0.256 OA 
ENDROOT
BRANCH   2   3
HETATM    3  C   UNL     1     -10.055  12.360  68.761  1.00  0.00    -0.055 C  
HETATM    4  O   UNL     1      -9.835  11.164  68.659  1.00  0.00    -0.191 OA 
BRANCH   3   5
HETATM    5  C   UNL     1      -9.032  13.406  68.492  1.00  0.00    -0.071 A  
HETATM    6  C   UNL     1      -9.311  14.358  67.499  1.00  0.00    -0.198 A  
HETATM    7  C   UNL     1      -8.375  15.346  67.181  1.00  0.00    -0.247 A  
HETATM    8  C   UNL     1      -7.162  15.379  67.860  1.00  0.00    -0.145 A  
HETATM    9  O   UNL     1      -6.210  16.311  67.570  1.00  0.00    -0.131 OA 
HETATM   10  C   UNL     1      -6.876  14.453  68.858  1.00  0.00    -0.102 A  
HETATM   11  C   UNL     1      -7.810  13.464  69.176  1.00  0.00     0.308 A  
HETATM   12  H   UNL     1      -5.381  16.333  68.034  1.00  0.00     0.000 HD 
ENDBRANCH   3   5
ENDBRANCH   2   3
TORSDOF 2
ENDMDL
MODEL      213
REMARK 921   NORMALIZED FREE ENERGY PREDICTED BY IDOCK:   -0.34 KCAL/MOL
REMARK 922        TOTAL FREE ENERGY PREDICTED BY IDOCK:   -0.46 KCAL/MOL
REMARK 923 INTER-LIGAND FREE ENERGY PREDICTED BY IDOCK:   -2.02 KCAL/MOL
REMARK 924 INTRA-LIGAND FREE ENERGY PREDICTED BY IDOCK:    1.57 KCAL/MOL
REMARK 927      BINDING AFFINITY PREDICTED BY RF-SCORE:    0.00 PKD
ROOT
HETATM    1  C   UNL     1     -12.922  12.238  70.676  1.00  0.00     0.198 C  
HETATM    2  O   UNL     1     -11.911  13.086  70.127  1.00  0.00    -0.313 OA 
ENDROOT
BRANCH   2   3
HETATM    3  C   UNL     1     -11.091  12.465  69.242  1.00  0.00    -0.147 C  
HETATM    4  O   UNL     1     -10.512  13.000  68.311  1.00  0.00    -0.237 OA 
BRANCH   3   5
HETATM    5  C   UNL     1     -10.995  11.009  69.539  1.00  0.00    -0.297 A  
HETATM    6  C   UNL     1     -11.178  10.596  70.867  1.00  0.00     0.080 A  
HETATM    7  C   UNL     1     -11.068   9.246  71.211  1.00  0.00    -0.427 A  
HETATM    8  C   UNL     1     -10.778   8.313  70.222  1.00  0.00    -0.235 A  
HETATM    9  O   UNL     1     -10.641   6.988  70.513  1.00  0.00    -0.216 OA 
HETATM   10  C   UNL     1     -10.610   8.704  68.898  1.00  0.00    -0.166 A  
HETATM   11  C   UNL     1     -10.717  10.053  68.552  1.00  0.00    -0.264 A  
HETATM   12  H   UNL     1     -10.442   6.351  69.837  1.00  0.00     0.000 HD 
ENDBRANCH   3   5
ENDBRANCH   2   3
TORSDOF 2
ENDMDL
